MODEL 1
REMARK VINA RESULT:    -6.526      0.000      0.000
REMARK INTER + INTRA:          -8.182
REMARK INTER:                  -7.861
REMARK INTRA:                  -0.321
REMARK UNBOUND:                -0.321
REMARK SMILES O=c1c(O)c(-c2ccc(O)c(O)c2)oc2cc(O)cc(O)c12
REMARK SMILES IDX 5 1 3 2 2 3 1 4 22 5 20 6 19 7 17 8 16 9 15 10 14 11 6 12
REMARK SMILES IDX 7 13 8 14 9 15 13 16 11 17 10 18 12 20 4 22 21 24 18 26
REMARK H PARENT 10 19 12 21 4 23 21 25 18 27
REMARK Flexibility Score: inf
ROOT
ATOM      1  C   UNL     1      15.540 -19.080  19.325  1.00  0.00     0.180 A 
ATOM      2  C   UNL     1      14.633 -18.805  20.363  1.00  0.00     0.208 A 
ATOM      3  C   UNL     1      13.321 -19.297  20.268  1.00  0.00     0.238 A 
ATOM      4  O   UNL     1      12.498 -19.002  21.174  1.00  0.00    -0.285 OA
ATOM      5  C   UNL     1      12.937 -20.069  19.145  1.00  0.00     0.111 A 
ATOM      6  C   UNL     1      11.647 -20.650  18.964  1.00  0.00     0.134 A 
ATOM      7  C   UNL     1      11.338 -21.283  17.754  1.00  0.00     0.093 A 
ATOM      8  C   UNL     1      12.292 -21.415  16.746  1.00  0.00     0.123 A 
ATOM      9  C   UNL     1      13.576 -20.902  16.936  1.00  0.00     0.094 A 
ATOM     10  C   UNL     1      13.902 -20.233  18.118  1.00  0.00     0.146 A 
ATOM     11  O   UNL     1      15.132 -19.750  18.255  1.00  0.00    -0.452 OA
ENDROOT
BRANCH   1  12
ATOM     12  C   UNL     1      16.947 -18.618  19.366  1.00  0.00     0.025 A 
ATOM     13  C   UNL     1      17.311 -17.341  18.903  1.00  0.00     0.016 A 
ATOM     14  C   UNL     1      18.640 -16.917  18.973  1.00  0.00     0.051 A 
ATOM     15  C   UNL     1      19.622 -17.756  19.518  1.00  0.00     0.157 A 
ATOM     16  C   UNL     1      17.931 -19.446  19.930  1.00  0.00     0.062 A 
ATOM     17  C   UNL     1      19.266 -19.021  20.000  1.00  0.00     0.158 A 
BRANCH  15  18
ATOM     18  O   UNL     1      20.949 -17.336  19.588  1.00  0.00    -0.504 OA
ATOM     19  H   UNL     1      21.379 -17.080  20.468  1.00  0.00     0.293 HD
ENDBRANCH  15  18
BRANCH  17  20
ATOM     20  O   UNL     1      20.242 -19.851  20.548  1.00  0.00    -0.504 OA
ATOM     21  H   UNL     1      19.999 -20.637  21.140  1.00  0.00     0.293 HD
ENDBRANCH  17  20
ENDBRANCH   1  12
BRANCH   2  22
ATOM     22  O   UNL     1      15.025 -18.023  21.453  1.00  0.00    -0.502 OA
ATOM     23  H   UNL     1      15.764 -18.304  22.086  1.00  0.00     0.293 HD
ENDBRANCH   2  22
BRANCH   6  24
ATOM     24  O   UNL     1      10.649 -20.657  19.943  1.00  0.00    -0.507 OA
ATOM     25  H   UNL     1       9.908 -21.340  20.004  1.00  0.00     0.293 HD
ENDBRANCH   6  24
BRANCH   8  26
ATOM     26  O   UNL     1      11.955 -22.065  15.560  1.00  0.00    -0.508 OA
ATOM     27  H   UNL     1      12.648 -22.561  15.012  1.00  0.00     0.293 HD
ENDBRANCH   8  26
TORSDOF 6
ENDMDL
MODEL 2
REMARK VINA RESULT:    -6.220      2.171      3.681
REMARK INTER + INTRA:          -7.814
REMARK INTER:                  -7.586
REMARK INTRA:                  -0.227
REMARK UNBOUND:                -0.321
REMARK SMILES O=c1c(O)c(-c2ccc(O)c(O)c2)oc2cc(O)cc(O)c12
REMARK SMILES IDX 5 1 3 2 2 3 1 4 22 5 20 6 19 7 17 8 16 9 15 10 14 11 6 12
REMARK SMILES IDX 7 13 8 14 9 15 13 16 11 17 10 18 12 20 4 22 21 24 18 26
REMARK H PARENT 10 19 12 21 4 23 21 25 18 27
REMARK Flexibility Score: inf
ROOT
ATOM      1  C   UNL     1      13.118 -20.960  18.034  1.00  0.00     0.180 A 
ATOM      2  C   UNL     1      12.004 -20.950  18.892  1.00  0.00     0.208 A 
ATOM      3  C   UNL     1      10.735 -21.240  18.364  1.00  0.00     0.238 A 
ATOM      4  O   UNL     1       9.735 -21.177  19.125  1.00  0.00    -0.285 OA
ATOM      5  C   UNL     1      10.598 -21.549  16.989  1.00  0.00     0.111 A 
ATOM      6  C   UNL     1       9.368 -21.896  16.355  1.00  0.00     0.134 A 
ATOM      7  C   UNL     1       9.328 -22.055  14.965  1.00  0.00     0.093 A 
ATOM      8  C   UNL     1      10.484 -21.945  14.193  1.00  0.00     0.123 A 
ATOM      9  C   UNL     1      11.704 -21.665  14.810  1.00  0.00     0.094 A 
ATOM     10  C   UNL     1      11.769 -21.465  16.191  1.00  0.00     0.146 A 
ATOM     11  O   UNL     1      12.948 -21.189  16.737  1.00  0.00    -0.452 OA
ENDROOT
BRANCH   1  12
ATOM     12  C   UNL     1      14.490 -20.690  18.521  1.00  0.00     0.025 A 
ATOM     13  C   UNL     1      15.154 -21.589  19.374  1.00  0.00     0.016 A 
ATOM     14  C   UNL     1      16.457 -21.326  19.802  1.00  0.00     0.051 A 
ATOM     15  C   UNL     1      17.121 -20.168  19.374  1.00  0.00     0.157 A 
ATOM     16  C   UNL     1      15.168 -19.542  18.079  1.00  0.00     0.062 A 
ATOM     17  C   UNL     1      16.476 -19.276  18.509  1.00  0.00     0.158 A 
BRANCH  15  18
ATOM     18  O   UNL     1      18.421 -19.902  19.800  1.00  0.00    -0.504 OA
ATOM     19  H   UNL     1      18.619 -19.618  20.752  1.00  0.00     0.293 HD
ENDBRANCH  15  18
BRANCH  17  20
ATOM     20  O   UNL     1      17.141 -18.129  18.079  1.00  0.00    -0.504 OA
ATOM     21  H   UNL     1      18.071 -18.173  17.679  1.00  0.00     0.293 HD
ENDBRANCH  17  20
ENDBRANCH   1  12
BRANCH   2  22
ATOM     22  O   UNL     1      12.158 -20.621  20.241  1.00  0.00    -0.502 OA
ATOM     23  H   UNL     1      13.057 -20.640  20.706  1.00  0.00     0.293 HD
ENDBRANCH   2  22
BRANCH   6  24
ATOM     24  O   UNL     1       8.172 -22.121  17.043  1.00  0.00    -0.507 OA
ATOM     25  H   UNL     1       7.262 -21.817  16.729  1.00  0.00     0.293 HD
ENDBRANCH   6  24
BRANCH   8  26
ATOM     26  O   UNL     1      10.410 -22.125  12.813  1.00  0.00    -0.508 OA
ATOM     27  H   UNL     1       9.653 -21.729  12.268  1.00  0.00     0.293 HD
ENDBRANCH   8  26
TORSDOF 6
ENDMDL
MODEL 3
REMARK VINA RESULT:    -6.156      2.571      5.108
REMARK INTER + INTRA:          -7.736
REMARK INTER:                  -7.503
REMARK INTRA:                  -0.233
REMARK UNBOUND:                -0.321
REMARK SMILES O=c1c(O)c(-c2ccc(O)c(O)c2)oc2cc(O)cc(O)c12
REMARK SMILES IDX 5 1 3 2 2 3 1 4 22 5 20 6 19 7 17 8 16 9 15 10 14 11 6 12
REMARK SMILES IDX 7 13 8 14 9 15 13 16 11 17 10 18 12 20 4 22 21 24 18 26
REMARK H PARENT 10 19 12 21 4 23 21 25 18 27
REMARK Flexibility Score: inf
ROOT
ATOM      1  C   UNL     1      12.209 -21.012  17.795  1.00  0.00     0.180 A 
ATOM      2  C   UNL     1      11.790 -21.436  16.521  1.00  0.00     0.208 A 
ATOM      3  C   UNL     1      10.427 -21.694  16.304  1.00  0.00     0.238 A 
ATOM      4  O   UNL     1      10.066 -22.125  15.177  1.00  0.00    -0.285 OA
ATOM      5  C   UNL     1       9.499 -21.513  17.357  1.00  0.00     0.111 A 
ATOM      6  C   UNL     1       8.090 -21.707  17.238  1.00  0.00     0.134 A 
ATOM      7  C   UNL     1       7.283 -21.625  18.379  1.00  0.00     0.093 A 
ATOM      8  C   UNL     1       7.822 -21.292  19.621  1.00  0.00     0.123 A 
ATOM      9  C   UNL     1       9.190 -21.041  19.737  1.00  0.00     0.094 A 
ATOM     10  C   UNL     1      10.026 -21.151  18.624  1.00  0.00     0.146 A 
ATOM     11  O   UNL     1      11.324 -20.915  18.780  1.00  0.00    -0.452 OA
ENDROOT
BRANCH   1  12
ATOM     12  C   UNL     1      13.624 -20.696  18.094  1.00  0.00     0.025 A 
ATOM     13  C   UNL     1      14.418 -21.557  18.872  1.00  0.00     0.016 A 
ATOM     14  C   UNL     1      15.758 -21.250  19.121  1.00  0.00     0.051 A 
ATOM     15  C   UNL     1      16.328 -20.086  18.587  1.00  0.00     0.157 A 
ATOM     16  C   UNL     1      14.207 -19.542  17.544  1.00  0.00     0.062 A 
ATOM     17  C   UNL     1      15.551 -19.232  17.795  1.00  0.00     0.158 A 
BRANCH  15  18
ATOM     18  O   UNL     1      17.664 -19.776  18.836  1.00  0.00    -0.504 OA
ATOM     19  H   UNL     1      18.025 -19.703  19.779  1.00  0.00     0.293 HD
ENDBRANCH  15  18
BRANCH  17  20
ATOM     20  O   UNL     1      16.121 -18.079  17.259  1.00  0.00    -0.504 OA
ATOM     21  H   UNL     1      15.642 -17.187  17.289  1.00  0.00     0.293 HD
ENDBRANCH  17  20
ENDBRANCH   1  12
BRANCH   2  22
ATOM     22  O   UNL     1      12.726 -21.630  15.501  1.00  0.00    -0.502 OA
ATOM     23  H   UNL     1      13.723 -21.535  15.652  1.00  0.00     0.293 HD
ENDBRANCH   2  22
BRANCH   6  24
ATOM     24  O   UNL     1       7.436 -21.954  16.027  1.00  0.00    -0.507 OA
ATOM     25  H   UNL     1       6.434 -22.000  15.915  1.00  0.00     0.293 HD
ENDBRANCH   6  24
BRANCH   8  26
ATOM     26  O   UNL     1       6.986 -21.204  20.732  1.00  0.00    -0.508 OA
ATOM     27  H   UNL     1       6.276 -20.484  20.805  1.00  0.00     0.293 HD
ENDBRANCH   8  26
TORSDOF 6
ENDMDL
MODEL 4
REMARK VINA RESULT:    -6.155      1.465      2.772
REMARK INTER + INTRA:          -7.735
REMARK INTER:                  -7.409
REMARK INTRA:                  -0.326
REMARK UNBOUND:                -0.321
REMARK SMILES O=c1c(O)c(-c2ccc(O)c(O)c2)oc2cc(O)cc(O)c12
REMARK SMILES IDX 5 1 3 2 2 3 1 4 22 5 20 6 19 7 17 8 16 9 15 10 14 11 6 12
REMARK SMILES IDX 7 13 8 14 9 15 13 16 11 17 10 18 12 20 4 22 21 24 18 26
REMARK H PARENT 10 19 12 21 4 23 21 25 18 27
REMARK Flexibility Score: inf
ROOT
ATOM      1  C   UNL     1      15.908 -19.342  19.272  1.00  0.00     0.180 A 
ATOM      2  C   UNL     1      15.466 -19.463  17.943  1.00  0.00     0.208 A 
ATOM      3  C   UNL     1      14.225 -20.070  17.691  1.00  0.00     0.238 A 
ATOM      4  O   UNL     1      13.860 -20.225  16.496  1.00  0.00    -0.285 OA
ATOM      5  C   UNL     1      13.435 -20.534  18.770  1.00  0.00     0.111 A 
ATOM      6  C   UNL     1      12.146 -21.129  18.634  1.00  0.00     0.134 A 
ATOM      7  C   UNL     1      11.511 -21.670  19.759  1.00  0.00     0.093 A 
ATOM      8  C   UNL     1      12.090 -21.579  21.025  1.00  0.00     0.123 A 
ATOM      9  C   UNL     1      13.324 -20.947  21.178  1.00  0.00     0.094 A 
ATOM     10  C   UNL     1      13.997 -20.430  20.069  1.00  0.00     0.146 A 
ATOM     11  O   UNL     1      15.175 -19.846  20.258  1.00  0.00    -0.452 OA
ENDROOT
BRANCH   1  12
ATOM     12  C   UNL     1      17.193 -18.692  19.619  1.00  0.00     0.025 A 
ATOM     13  C   UNL     1      17.294 -17.296  19.752  1.00  0.00     0.016 A 
ATOM     14  C   UNL     1      18.510 -16.706  20.104  1.00  0.00     0.051 A 
ATOM     15  C   UNL     1      19.639 -17.501  20.341  1.00  0.00     0.157 A 
ATOM     16  C   UNL     1      18.322 -19.485  19.878  1.00  0.00     0.062 A 
ATOM     17  C   UNL     1      19.544 -18.894  20.231  1.00  0.00     0.158 A 
BRANCH  15  18
ATOM     18  O   UNL     1      20.854 -16.916  20.691  1.00  0.00    -0.504 OA
ATOM     19  H   UNL     1      21.378 -17.225  21.501  1.00  0.00     0.293 HD
ENDBRANCH  15  18
BRANCH  17  20
ATOM     20  O   UNL     1      20.666 -19.684  20.473  1.00  0.00    -0.504 OA
ATOM     21  H   UNL     1      21.356 -19.861  19.752  1.00  0.00     0.293 HD
ENDBRANCH  17  20
ENDBRANCH   1  12
BRANCH   2  22
ATOM     22  O   UNL     1      16.271 -19.018  16.891  1.00  0.00    -0.502 OA
ATOM     23  H   UNL     1      17.274 -19.156  16.877  1.00  0.00     0.293 HD
ENDBRANCH   2  22
BRANCH   6  24
ATOM     24  O   UNL     1      11.437 -21.188  17.430  1.00  0.00    -0.507 OA
ATOM     25  H   UNL     1      10.663 -20.586  17.189  1.00  0.00     0.293 HD
ENDBRANCH   6  24
BRANCH   8  26
ATOM     26  O   UNL     1      11.423 -22.115  22.125  1.00  0.00    -0.508 OA
ATOM     27  H   UNL     1      11.179 -23.098  22.169  1.00  0.00     0.293 HD
ENDBRANCH   8  26
TORSDOF 6
ENDMDL
MODEL 5
REMARK VINA RESULT:    -6.062      1.592      3.106
REMARK INTER + INTRA:          -7.623
REMARK INTER:                  -7.343
REMARK INTRA:                  -0.280
REMARK UNBOUND:                -0.321
REMARK SMILES O=c1c(O)c(-c2ccc(O)c(O)c2)oc2cc(O)cc(O)c12
REMARK SMILES IDX 5 1 3 2 2 3 1 4 22 5 20 6 19 7 17 8 16 9 15 10 14 11 6 12
REMARK SMILES IDX 7 13 8 14 9 15 13 16 11 17 10 18 12 20 4 22 21 24 18 26
REMARK H PARENT 10 19 12 21 4 23 21 25 18 27
REMARK Flexibility Score: inf
ROOT
ATOM      1  C   UNL     1      15.970 -19.433  19.267  1.00  0.00     0.180 A 
ATOM      2  C   UNL     1      15.513 -19.523  17.941  1.00  0.00     0.208 A 
ATOM      3  C   UNL     1      14.254 -20.092  17.692  1.00  0.00     0.238 A 
ATOM      4  O   UNL     1      13.873 -20.219  16.499  1.00  0.00    -0.285 OA
ATOM      5  C   UNL     1      13.462 -20.550  18.773  1.00  0.00     0.111 A 
ATOM      6  C   UNL     1      12.155 -21.108  18.640  1.00  0.00     0.134 A 
ATOM      7  C   UNL     1      11.517 -21.647  19.763  1.00  0.00     0.093 A 
ATOM      8  C   UNL     1      12.109 -21.591  21.025  1.00  0.00     0.123 A 
ATOM      9  C   UNL     1      13.361 -20.995  21.175  1.00  0.00     0.094 A 
ATOM     10  C   UNL     1      14.039 -20.480  20.067  1.00  0.00     0.146 A 
ATOM     11  O   UNL     1      15.234 -19.931  20.253  1.00  0.00    -0.452 OA
ENDROOT
BRANCH   1  12
ATOM     12  C   UNL     1      17.275 -18.823  19.611  1.00  0.00     0.025 A 
ATOM     13  C   UNL     1      18.403 -19.615  19.891  1.00  0.00     0.016 A 
ATOM     14  C   UNL     1      19.630 -19.018  20.189  1.00  0.00     0.051 A 
ATOM     15  C   UNL     1      19.752 -17.621  20.200  1.00  0.00     0.157 A 
ATOM     16  C   UNL     1      17.409 -17.424  19.604  1.00  0.00     0.062 A 
ATOM     17  C   UNL     1      18.640 -16.824  19.904  1.00  0.00     0.158 A 
BRANCH  15  18
ATOM     18  O   UNL     1      20.974 -17.022  20.499  1.00  0.00    -0.504 OA
ATOM     19  H   UNL     1      21.783 -17.139  19.900  1.00  0.00     0.293 HD
ENDBRANCH  15  18
BRANCH  17  20
ATOM     20  O   UNL     1      18.765 -15.436  19.909  1.00  0.00    -0.504 OA
ATOM     21  H   UNL     1      18.291 -14.863  20.598  1.00  0.00     0.293 HD
ENDBRANCH  17  20
ENDBRANCH   1  12
BRANCH   2  22
ATOM     22  O   UNL     1      16.320 -19.085  16.888  1.00  0.00    -0.502 OA
ATOM     23  H   UNL     1      15.981 -19.012  15.937  1.00  0.00     0.293 HD
ENDBRANCH   2  22
BRANCH   6  24
ATOM     24  O   UNL     1      11.434 -21.131  17.443  1.00  0.00    -0.507 OA
ATOM     25  H   UNL     1      10.872 -21.907  17.125  1.00  0.00     0.293 HD
ENDBRANCH   6  24
BRANCH   8  26
ATOM     26  O   UNL     1      11.439 -22.125  22.123  1.00  0.00    -0.508 OA
ATOM     27  H   UNL     1      10.470 -21.894  22.316  1.00  0.00     0.293 HD
ENDBRANCH   8  26
TORSDOF 6
ENDMDL
MODEL 6
REMARK VINA RESULT:    -5.885      2.170      7.425
REMARK INTER + INTRA:          -7.410
REMARK INTER:                  -7.087
REMARK INTRA:                  -0.323
REMARK UNBOUND:                -0.321
REMARK SMILES O=c1c(O)c(-c2ccc(O)c(O)c2)oc2cc(O)cc(O)c12
REMARK SMILES IDX 5 1 3 2 2 3 1 4 22 5 20 6 19 7 17 8 16 9 15 10 14 11 6 12
REMARK SMILES IDX 7 13 8 14 9 15 13 16 11 17 10 18 12 20 4 22 21 24 18 26
REMARK H PARENT 10 19 12 21 4 23 21 25 18 27
REMARK Flexibility Score: inf
ROOT
ATOM      1  C   UNL     1      16.925 -18.557  19.787  1.00  0.00     0.180 A 
ATOM      2  C   UNL     1      18.076 -19.342  19.973  1.00  0.00     0.208 A 
ATOM      3  C   UNL     1      19.205 -18.764  20.577  1.00  0.00     0.238 A 
ATOM      4  O   UNL     1      20.250 -19.456  20.692  1.00  0.00    -0.285 OA
ATOM      5  C   UNL     1      19.163 -17.414  21.000  1.00  0.00     0.111 A 
ATOM      6  C   UNL     1      20.233 -16.737  21.658  1.00  0.00     0.134 A 
ATOM      7  C   UNL     1      20.129 -15.365  21.915  1.00  0.00     0.093 A 
ATOM      8  C   UNL     1      18.969 -14.659  21.597  1.00  0.00     0.123 A 
ATOM      9  C   UNL     1      17.894 -15.323  21.007  1.00  0.00     0.094 A 
ATOM     10  C   UNL     1      17.982 -16.684  20.706  1.00  0.00     0.146 A 
ATOM     11  O   UNL     1      16.939 -17.276  20.134  1.00  0.00    -0.452 OA
ENDROOT
BRANCH   1  12
ATOM     12  C   UNL     1      15.689 -19.103  19.181  1.00  0.00     0.025 A 
ATOM     13  C   UNL     1      15.473 -19.059  17.792  1.00  0.00     0.016 A 
ATOM     14  C   UNL     1      14.311 -19.602  17.240  1.00  0.00     0.051 A 
ATOM     15  C   UNL     1      13.353 -20.207  18.064  1.00  0.00     0.157 A 
ATOM     16  C   UNL     1      14.735 -19.729  20.000  1.00  0.00     0.062 A 
ATOM     17  C   UNL     1      13.567 -20.273  19.447  1.00  0.00     0.158 A 
BRANCH  15  18
ATOM     18  O   UNL     1      12.191 -20.748  17.517  1.00  0.00    -0.504 OA
ATOM     19  H   UNL     1      11.880 -20.504  16.585  1.00  0.00     0.293 HD
ENDBRANCH  15  18
BRANCH  17  20
ATOM     20  O   UNL     1      12.616 -20.882  20.264  1.00  0.00    -0.504 OA
ATOM     21  H   UNL     1      12.131 -20.365  20.989  1.00  0.00     0.293 HD
ENDBRANCH  17  20
ENDBRANCH   1  12
BRANCH   2  22
ATOM     22  O   UNL     1      18.104 -20.667  19.528  1.00  0.00    -0.502 OA
ATOM     23  H   UNL     1      18.401 -20.921  18.594  1.00  0.00     0.293 HD
ENDBRANCH   2  22
BRANCH   6  24
ATOM     24  O   UNL     1      21.399 -17.368  22.103  1.00  0.00    -0.507 OA
ATOM     25  H   UNL     1      21.682 -17.436  23.069  1.00  0.00     0.293 HD
ENDBRANCH   6  24
BRANCH   8  26
ATOM     26  O   UNL     1      18.895 -13.296  21.880  1.00  0.00    -0.508 OA
ATOM     27  H   UNL     1      19.728 -12.745  22.054  1.00  0.00     0.293 HD
ENDBRANCH   8  26
TORSDOF 6
ENDMDL
MODEL 7
REMARK VINA RESULT:    -5.834      4.094      6.550
REMARK INTER + INTRA:          -7.348
REMARK INTER:                  -7.116
REMARK INTRA:                  -0.232
REMARK UNBOUND:                -0.321
REMARK SMILES O=c1c(O)c(-c2ccc(O)c(O)c2)oc2cc(O)cc(O)c12
REMARK SMILES IDX 5 1 3 2 2 3 1 4 22 5 20 6 19 7 17 8 16 9 15 10 14 11 6 12
REMARK SMILES IDX 7 13 8 14 9 15 13 16 11 17 10 18 12 20 4 22 21 24 18 26
REMARK H PARENT 10 19 12 21 4 23 21 25 18 27
REMARK Flexibility Score: inf
ROOT
ATOM      1  C   UNL     1      18.762 -14.969  21.145  1.00  0.00     0.180 A 
ATOM      2  C   UNL     1      17.419 -15.091  21.542  1.00  0.00     0.208 A 
ATOM      3  C   UNL     1      16.810 -16.356  21.503  1.00  0.00     0.238 A 
ATOM      4  O   UNL     1      15.593 -16.450  21.808  1.00  0.00    -0.285 OA
ATOM      5  C   UNL     1      17.555 -17.484  21.082  1.00  0.00     0.111 A 
ATOM      6  C   UNL     1      17.052 -18.818  21.041  1.00  0.00     0.134 A 
ATOM      7  C   UNL     1      17.836 -19.836  20.484  1.00  0.00     0.093 A 
ATOM      8  C   UNL     1      19.128 -19.581  20.027  1.00  0.00     0.123 A 
ATOM      9  C   UNL     1      19.653 -18.291  20.117  1.00  0.00     0.094 A 
ATOM     10  C   UNL     1      18.881 -17.248  20.635  1.00  0.00     0.146 A 
ATOM     11  O   UNL     1      19.414 -16.033  20.692  1.00  0.00    -0.452 OA
ENDROOT
BRANCH   1  12
ATOM     12  C   UNL     1      19.480 -13.674  21.183  1.00  0.00     0.025 A 
ATOM     13  C   UNL     1      20.496 -13.427  22.123  1.00  0.00     0.016 A 
ATOM     14  C   UNL     1      21.176 -12.207  22.125  1.00  0.00     0.051 A 
ATOM     15  C   UNL     1      20.862 -11.221  21.180  1.00  0.00     0.157 A 
ATOM     16  C   UNL     1      19.184 -12.690  20.225  1.00  0.00     0.062 A 
ATOM     17  C   UNL     1      19.866 -11.465  20.226  1.00  0.00     0.158 A 
BRANCH  15  18
ATOM     18  O   UNL     1      21.538 -10.003  21.180  1.00  0.00    -0.504 OA
ATOM     19  H   UNL     1      21.209  -9.214  20.636  1.00  0.00     0.293 HD
ENDBRANCH  15  18
BRANCH  17  20
ATOM     20  O   UNL     1      19.560 -10.486  19.282  1.00  0.00    -0.504 OA
ATOM     21  H   UNL     1      18.934  -9.718  19.498  1.00  0.00     0.293 HD
ENDBRANCH  17  20
ENDBRANCH   1  12
BRANCH   2  22
ATOM     22  O   UNL     1      16.696 -13.961  21.933  1.00  0.00    -0.502 OA
ATOM     23  H   UNL     1      15.689 -13.902  21.842  1.00  0.00     0.293 HD
ENDBRANCH   2  22
BRANCH   6  24
ATOM     24  O   UNL     1      15.808 -19.200  21.555  1.00  0.00    -0.507 OA
ATOM     25  H   UNL     1      14.970 -18.639  21.506  1.00  0.00     0.293 HD
ENDBRANCH   6  24
BRANCH   8  26
ATOM     26  O   UNL     1      19.886 -20.621  19.493  1.00  0.00    -0.508 OA
ATOM     27  H   UNL     1      19.645 -21.591  19.659  1.00  0.00     0.293 HD
ENDBRANCH   8  26
TORSDOF 6
ENDMDL
MODEL 8
REMARK VINA RESULT:    -4.694      1.471      6.994
REMARK INTER + INTRA:          -5.976
REMARK INTER:                  -5.661
REMARK INTRA:                  -0.315
REMARK UNBOUND:                -0.321
REMARK SMILES O=c1c(O)c(-c2ccc(O)c(O)c2)oc2cc(O)cc(O)c12
REMARK SMILES IDX 5 1 3 2 2 3 1 4 22 5 20 6 19 7 17 8 16 9 15 10 14 11 6 12
REMARK SMILES IDX 7 13 8 14 9 15 13 16 11 17 10 18 12 20 4 22 21 24 18 26
REMARK H PARENT 10 19 12 21 4 23 21 25 18 27
REMARK Flexibility Score: inf
ROOT
ATOM      1  C   UNL     1      15.182 -19.953  18.620  1.00  0.00     0.180 A 
ATOM      2  C   UNL     1      16.075 -20.787  19.314  1.00  0.00     0.208 A 
ATOM      3  C   UNL     1      17.311 -20.265  19.730  1.00  0.00     0.238 A 
ATOM      4  O   UNL     1      18.128 -21.031  20.303  1.00  0.00    -0.285 OA
ATOM      5  C   UNL     1      17.631 -18.912  19.460  1.00  0.00     0.111 A 
ATOM      6  C   UNL     1      18.836 -18.268  19.868  1.00  0.00     0.134 A 
ATOM      7  C   UNL     1      19.104 -16.964  19.434  1.00  0.00     0.093 A 
ATOM      8  C   UNL     1      18.183 -16.259  18.660  1.00  0.00     0.123 A 
ATOM      9  C   UNL     1      16.975 -16.859  18.305  1.00  0.00     0.094 A 
ATOM     10  C   UNL     1      16.695 -18.171  18.693  1.00  0.00     0.146 A 
ATOM     11  O   UNL     1      15.537 -18.709  18.324  1.00  0.00    -0.452 OA
ENDROOT
BRANCH   1  12
ATOM     12  C   UNL     1      13.850 -20.423  18.172  1.00  0.00     0.025 A 
ATOM     13  C   UNL     1      13.653 -20.938  16.878  1.00  0.00     0.016 A 
ATOM     14  C   UNL     1      12.395 -21.399  16.485  1.00  0.00     0.051 A 
ATOM     15  C   UNL     1      11.318 -21.365  17.381  1.00  0.00     0.157 A 
ATOM     16  C   UNL     1      12.773 -20.411  19.072  1.00  0.00     0.062 A 
ATOM     17  C   UNL     1      11.508 -20.872  18.679  1.00  0.00     0.158 A 
BRANCH  15  18
ATOM     18  O   UNL     1      10.061 -21.822  16.992  1.00  0.00    -0.504 OA
ATOM     19  H   UNL     1       9.513 -22.435  17.583  1.00  0.00     0.293 HD
ENDBRANCH  15  18
BRANCH  17  20
ATOM     20  O   UNL     1      10.438 -20.845  19.571  1.00  0.00    -0.504 OA
ATOM     21  H   UNL     1      10.144 -21.675  20.072  1.00  0.00     0.293 HD
ENDBRANCH  17  20
ENDBRANCH   1  12
BRANCH   2  22
ATOM     22  O   UNL     1      15.749 -22.125  19.551  1.00  0.00    -0.502 OA
ATOM     23  H   UNL     1      15.059 -22.622  19.002  1.00  0.00     0.293 HD
ENDBRANCH   2  22
BRANCH   6  24
ATOM     24  O   UNL     1      19.783 -18.849  20.717  1.00  0.00    -0.507 OA
ATOM     25  H   UNL     1      19.905 -19.843  20.847  1.00  0.00     0.293 HD
ENDBRANCH   6  24
BRANCH   8  26
ATOM     26  O   UNL     1      18.476 -14.957  18.258  1.00  0.00    -0.508 OA
ATOM     27  H   UNL     1      19.098 -14.772  17.479  1.00  0.00     0.293 HD
ENDBRANCH   8  26
TORSDOF 6
ENDMDL
