MODEL 1
REMARK VINA RESULT:    -1.554      0.000      0.000
REMARK INTER + INTRA:          -3.537
REMARK INTER:                  -2.825
REMARK INTRA:                  -0.712
REMARK UNBOUND:                -0.712
REMARK SMILES CCCCCCCCCCCCCCCC(=O)[O-]
REMARK SMILES IDX 9 1 10 2 11 3 12 4 13 5 14 6 15 7 16 8 17 9 18 10 8 11 7 12
REMARK SMILES IDX 6 13 5 14 4 15 3 16 2 17 1 18
REMARK H PARENT
REMARK Flexibility Score: inf
ROOT
ATOM      1  C   UNL     1       5.720 -34.302  20.155  1.00  0.00     0.000 C 
ENDROOT
BRANCH   1   2
ATOM      2  C   UNL     1       4.381 -33.820  20.738  1.00  0.00     0.000 C 
BRANCH   2   3
ATOM      3  C   UNL     1       4.302 -33.967  22.269  1.00  0.00     0.000 C 
BRANCH   3   4
ATOM      4  C   UNL     1       5.470 -33.341  23.054  1.00  0.00     0.000 C 
BRANCH   4   5
ATOM      5  C   UNL     1       6.095 -34.310  24.073  1.00  0.00     0.000 C 
BRANCH   5   6
ATOM      6  C   UNL     1       5.364 -35.662  24.126  1.00  0.00     0.006 C 
BRANCH   6   7
ATOM      7  C   UNL     1       5.909 -36.585  25.224  1.00  0.00     0.053 C 
BRANCH   7   8
ATOM      8  C   UNL     1       4.857 -37.556  25.659  1.00  0.00     0.041 C 
ATOM      9  O   UNL     1       3.861 -37.156  26.317  1.00  0.00    -0.550 OA
ATOM     10  O   UNL     1       4.952 -38.894  25.298  1.00  0.00    -0.550 OA
ENDBRANCH   7   8
ENDBRANCH   6   7
ENDBRANCH   5   6
ENDBRANCH   4   5
ENDBRANCH   3   4
ENDBRANCH   2   3
ENDBRANCH   1   2
BRANCH   1  11
ATOM     11  C   UNL     1       5.665 -34.510  18.632  1.00  0.00     0.000 C 
BRANCH  11  12
ATOM     12  C   UNL     1       4.344 -35.140  18.139  1.00  0.00    -0.000 C 
BRANCH  12  13
ATOM     13  C   UNL     1       4.275 -36.648  18.443  1.00  0.00    -0.000 C 
BRANCH  13  14
ATOM     14  C   UNL     1       5.134 -37.051  19.653  1.00  0.00    -0.000 C 
BRANCH  14  15
ATOM     15  C   UNL     1       4.538 -38.238  20.430  1.00  0.00    -0.000 C 
BRANCH  15  16
ATOM     16  C   UNL     1       5.289 -38.524  21.739  1.00  0.00    -0.000 C 
BRANCH  16  17
ATOM     17  C   UNL     1       5.518 -40.024  21.978  1.00  0.00    -0.003 C 
ATOM     18  C   UNL     1       6.124 -40.689  20.745  1.00  0.00     0.004 C 
ENDBRANCH  16  17
ENDBRANCH  15  16
ENDBRANCH  14  15
ENDBRANCH  13  14
ENDBRANCH  12  13
ENDBRANCH  11  12
ENDBRANCH   1  11
TORSDOF 14
ENDMDL
MODEL 2
REMARK VINA RESULT:    -0.922      2.439      4.445
REMARK INTER + INTRA:          -2.389
REMARK INTER:                  -2.236
REMARK INTRA:                  -0.153
REMARK UNBOUND:                -0.712
REMARK SMILES CCCCCCCCCCCCCCCC(=O)[O-]
REMARK SMILES IDX 9 1 10 2 11 3 12 4 13 5 14 6 15 7 16 8 17 9 18 10 8 11 7 12
REMARK SMILES IDX 6 13 5 14 4 15 3 16 2 17 1 18
REMARK H PARENT
REMARK Flexibility Score: inf
ROOT
ATOM      1  C   UNL     1       4.368 -33.881  22.135  1.00  0.00     0.000 C 
ENDROOT
BRANCH   1   2
ATOM      2  C   UNL     1       5.858 -33.886  22.514  1.00  0.00     0.000 C 
BRANCH   2   3
ATOM      3  C   UNL     1       6.093 -33.932  24.035  1.00  0.00     0.000 C 
BRANCH   3   4
ATOM      4  C   UNL     1       6.125 -35.341  24.656  1.00  0.00     0.000 C 
BRANCH   4   5
ATOM      5  C   UNL     1       5.133 -36.312  23.992  1.00  0.00     0.000 C 
BRANCH   5   6
ATOM      6  C   UNL     1       5.692 -36.936  22.702  1.00  0.00     0.006 C 
BRANCH   6   7
ATOM      7  C   UNL     1       4.587 -37.425  21.757  1.00  0.00     0.053 C 
BRANCH   7   8
ATOM      8  C   UNL     1       5.120 -38.473  20.831  1.00  0.00     0.041 C 
ATOM      9  O   UNL     1       5.178 -38.254  19.593  1.00  0.00    -0.550 OA
ATOM     10  O   UNL     1       5.598 -39.674  21.340  1.00  0.00    -0.550 OA
ENDBRANCH   7   8
ENDBRANCH   6   7
ENDBRANCH   5   6
ENDBRANCH   4   5
ENDBRANCH   3   4
ENDBRANCH   2   3
ENDBRANCH   1   2
BRANCH   1  11
ATOM     11  C   UNL     1       4.138 -34.044  20.623  1.00  0.00     0.000 C 
BRANCH  11  12
ATOM     12  C   UNL     1       5.316 -34.716  19.885  1.00  0.00    -0.000 C 
BRANCH  12  13
ATOM     13  C   UNL     1       5.247 -34.495  18.364  1.00  0.00    -0.000 C 
BRANCH  13  14
ATOM     14  C   UNL     1       3.931 -34.998  17.749  1.00  0.00    -0.000 C 
BRANCH  14  15
ATOM     15  C   UNL     1       4.161 -35.982  16.588  1.00  0.00    -0.000 C 
BRANCH  15  16
ATOM     16  C   UNL     1       2.967 -36.045  15.623  1.00  0.00    -0.000 C 
BRANCH  16  17
ATOM     17  C   UNL     1       3.298 -36.783  14.316  1.00  0.00    -0.003 C 
ATOM     18  C   UNL     1       3.638 -38.246  14.583  1.00  0.00     0.004 C 
ENDBRANCH  16  17
ENDBRANCH  15  16
ENDBRANCH  14  15
ENDBRANCH  13  14
ENDBRANCH  12  13
ENDBRANCH  11  12
ENDBRANCH   1  11
TORSDOF 14
ENDMDL
MODEL 3
REMARK VINA RESULT:    -0.818      2.262      5.014
REMARK INTER + INTRA:          -2.199
REMARK INTER:                  -1.371
REMARK INTRA:                  -0.828
REMARK UNBOUND:                -0.712
REMARK SMILES CCCCCCCCCCCCCCCC(=O)[O-]
REMARK SMILES IDX 9 1 10 2 11 3 12 4 13 5 14 6 15 7 16 8 17 9 18 10 8 11 7 12
REMARK SMILES IDX 6 13 5 14 4 15 3 16 2 17 1 18
REMARK H PARENT
REMARK Flexibility Score: inf
ROOT
ATOM      1  C   UNL     1       5.313 -39.079  24.313  1.00  0.00     0.000 C 
ENDROOT
BRANCH   1   2
ATOM      2  C   UNL     1       4.510 -38.118  25.205  1.00  0.00     0.000 C 
BRANCH   2   3
ATOM      3  C   UNL     1       5.387 -37.046  25.879  1.00  0.00     0.000 C 
BRANCH   3   4
ATOM      4  C   UNL     1       6.007 -36.006  24.928  1.00  0.00     0.000 C 
BRANCH   4   5
ATOM      5  C   UNL     1       5.203 -35.827  23.628  1.00  0.00     0.000 C 
BRANCH   5   6
ATOM      6  C   UNL     1       5.765 -34.705  22.737  1.00  0.00     0.006 C 
BRANCH   6   7
ATOM      7  C   UNL     1       4.854 -33.471  22.698  1.00  0.00     0.053 C 
BRANCH   7   8
ATOM      8  C   UNL     1       3.700 -33.705  21.776  1.00  0.00     0.041 C 
ATOM      9  O   UNL     1       3.181 -34.848  21.688  1.00  0.00    -0.550 OA
ATOM     10  O   UNL     1       3.165 -32.649  21.048  1.00  0.00    -0.550 OA
ENDBRANCH   7   8
ENDBRANCH   6   7
ENDBRANCH   5   6
ENDBRANCH   4   5
ENDBRANCH   3   4
ENDBRANCH   2   3
ENDBRANCH   1   2
BRANCH   1  11
ATOM     11  C   UNL     1       4.620 -39.363  22.969  1.00  0.00     0.000 C 
BRANCH  11  12
ATOM     12  C   UNL     1       5.561 -39.957  21.899  1.00  0.00    -0.000 C 
BRANCH  12  13
ATOM     13  C   UNL     1       5.545 -39.137  20.597  1.00  0.00    -0.000 C 
BRANCH  13  14
ATOM     14  C   UNL     1       4.723 -37.844  20.719  1.00  0.00    -0.000 C 
BRANCH  14  15
ATOM     15  C   UNL     1       4.882 -36.926  19.494  1.00  0.00    -0.000 C 
BRANCH  15  16
ATOM     16  C   UNL     1       5.825 -35.742  19.761  1.00  0.00    -0.000 C 
BRANCH  16  17
ATOM     17  C   UNL     1       5.502 -34.517  18.892  1.00  0.00    -0.003 C 
ATOM     18  C   UNL     1       4.293 -34.781  17.999  1.00  0.00     0.004 C 
ENDBRANCH  16  17
ENDBRANCH  15  16
ENDBRANCH  14  15
ENDBRANCH  13  14
ENDBRANCH  12  13
ENDBRANCH  11  12
ENDBRANCH   1  11
TORSDOF 14
ENDMDL
MODEL 4
REMARK VINA RESULT:    -0.550      1.373      2.377
REMARK INTER + INTRA:          -1.712
REMARK INTER:                  -0.607
REMARK INTRA:                  -1.106
REMARK UNBOUND:                -0.712
REMARK SMILES CCCCCCCCCCCCCCCC(=O)[O-]
REMARK SMILES IDX 9 1 10 2 11 3 12 4 13 5 14 6 15 7 16 8 17 9 18 10 8 11 7 12
REMARK SMILES IDX 6 13 5 14 4 15 3 16 2 17 1 18
REMARK H PARENT
REMARK Flexibility Score: inf
ROOT
ATOM      1  C   UNL     1       3.999 -34.318  22.436  1.00  0.00     0.000 C 
ENDROOT
BRANCH   1   2
ATOM      2  C   UNL     1       5.172 -33.694  23.210  1.00  0.00     0.000 C 
BRANCH   2   3
ATOM      3  C   UNL     1       6.125 -34.745  23.810  1.00  0.00     0.000 C 
BRANCH   3   4
ATOM      4  C   UNL     1       5.547 -36.167  23.935  1.00  0.00     0.000 C 
BRANCH   4   5
ATOM      5  C   UNL     1       5.672 -36.743  25.356  1.00  0.00     0.000 C 
BRANCH   5   6
ATOM      6  C   UNL     1       4.384 -36.568  26.178  1.00  0.00     0.006 C 
BRANCH   6   7
ATOM      7  C   UNL     1       3.636 -37.891  26.390  1.00  0.00     0.053 C 
BRANCH   7   8
ATOM      8  C   UNL     1       2.342 -37.649  27.102  1.00  0.00     0.041 C 
ATOM      9  O   UNL     1       2.167 -36.586  27.753  1.00  0.00    -0.550 OA
ATOM     10  O   UNL     1       1.311 -38.576  27.006  1.00  0.00    -0.550 OA
ENDBRANCH   7   8
ENDBRANCH   6   7
ENDBRANCH   5   6
ENDBRANCH   4   5
ENDBRANCH   3   4
ENDBRANCH   2   3
ENDBRANCH   1   2
BRANCH   1  11
ATOM     11  C   UNL     1       3.996 -33.932  20.947  1.00  0.00     0.000 C 
BRANCH  11  12
ATOM     12  C   UNL     1       5.121 -34.602  20.130  1.00  0.00    -0.000 C 
BRANCH  12  13
ATOM     13  C   UNL     1       4.567 -35.581  19.080  1.00  0.00    -0.000 C 
BRANCH  13  14
ATOM     14  C   UNL     1       4.949 -37.042  19.368  1.00  0.00    -0.000 C 
BRANCH  14  15
ATOM     15  C   UNL     1       5.273 -37.285  20.853  1.00  0.00    -0.000 C 
BRANCH  15  16
ATOM     16  C   UNL     1       5.087 -38.753  21.266  1.00  0.00    -0.000 C 
BRANCH  16  17
ATOM     17  C   UNL     1       6.124 -39.687  20.623  1.00  0.00    -0.003 C 
ATOM     18  C   UNL     1       6.107 -41.063  21.283  1.00  0.00     0.004 C 
ENDBRANCH  16  17
ENDBRANCH  15  16
ENDBRANCH  14  15
ENDBRANCH  13  14
ENDBRANCH  12  13
ENDBRANCH  11  12
ENDBRANCH   1  11
TORSDOF 14
ENDMDL
MODEL 5
REMARK VINA RESULT:    -0.367      2.820      4.872
REMARK INTER + INTRA:          -1.380
REMARK INTER:                  -0.508
REMARK INTRA:                  -0.872
REMARK UNBOUND:                -0.712
REMARK SMILES CCCCCCCCCCCCCCCC(=O)[O-]
REMARK SMILES IDX 9 1 10 2 11 3 12 4 13 5 14 6 15 7 16 8 17 9 18 10 8 11 7 12
REMARK SMILES IDX 6 13 5 14 4 15 3 16 2 17 1 18
REMARK H PARENT
REMARK Flexibility Score: inf
ROOT
ATOM      1  C   UNL     1       5.029 -38.164  19.912  1.00  0.00     0.000 C 
ENDROOT
BRANCH   1   2
ATOM      2  C   UNL     1       5.325 -38.587  21.360  1.00  0.00     0.000 C 
BRANCH   2   3
ATOM      3  C   UNL     1       4.997 -37.488  22.388  1.00  0.00     0.000 C 
BRANCH   3   4
ATOM      4  C   UNL     1       6.056 -36.378  22.529  1.00  0.00     0.000 C 
BRANCH   4   5
ATOM      5  C   UNL     1       5.908 -35.569  23.830  1.00  0.00     0.000 C 
BRANCH   5   6
ATOM      6  C   UNL     1       5.385 -34.144  23.582  1.00  0.00     0.006 C 
BRANCH   6   7
ATOM      7  C   UNL     1       5.203 -33.833  22.091  1.00  0.00     0.053 C 
BRANCH   7   8
ATOM      8  C   UNL     1       3.749 -33.779  21.744  1.00  0.00     0.041 C 
ATOM      9  O   UNL     1       2.967 -34.678  22.150  1.00  0.00    -0.550 OA
ATOM     10  O   UNL     1       3.247 -32.710  21.012  1.00  0.00    -0.550 OA
ENDBRANCH   7   8
ENDBRANCH   6   7
ENDBRANCH   5   6
ENDBRANCH   4   5
ENDBRANCH   3   4
ENDBRANCH   2   3
ENDBRANCH   1   2
BRANCH   1  11
ATOM     11  C   UNL     1       4.618 -36.686  19.796  1.00  0.00     0.000 C 
BRANCH  11  12
ATOM     12  C   UNL     1       5.398 -35.908  18.714  1.00  0.00    -0.000 C 
BRANCH  12  13
ATOM     13  C   UNL     1       4.644 -34.647  18.254  1.00  0.00    -0.000 C 
BRANCH  13  14
ATOM     14  C   UNL     1       3.561 -34.951  17.206  1.00  0.00    -0.000 C 
BRANCH  14  15
ATOM     15  C   UNL     1       3.944 -36.124  16.286  1.00  0.00    -0.000 C 
BRANCH  15  16
ATOM     16  C   UNL     1       2.898 -36.379  15.189  1.00  0.00    -0.000 C 
BRANCH  16  17
ATOM     17  C   UNL     1       3.479 -37.120  13.975  1.00  0.00    -0.003 C 
ATOM     18  C   UNL     1       3.946 -38.521  14.359  1.00  0.00     0.004 C 
ENDBRANCH  16  17
ENDBRANCH  15  16
ENDBRANCH  14  15
ENDBRANCH  13  14
ENDBRANCH  12  13
ENDBRANCH  11  12
ENDBRANCH   1  11
TORSDOF 14
ENDMDL
MODEL 6
REMARK VINA RESULT:    -0.340      1.684      4.990
REMARK INTER + INTRA:          -1.331
REMARK INTER:                  -0.264
REMARK INTRA:                  -1.067
REMARK UNBOUND:                -0.712
REMARK SMILES CCCCCCCCCCCCCCCC(=O)[O-]
REMARK SMILES IDX 9 1 10 2 11 3 12 4 13 5 14 6 15 7 16 8 17 9 18 10 8 11 7 12
REMARK SMILES IDX 6 13 5 14 4 15 3 16 2 17 1 18
REMARK H PARENT
REMARK Flexibility Score: inf
ROOT
ATOM      1  C   UNL     1       4.309 -34.005  22.170  1.00  0.00     0.000 C 
ENDROOT
BRANCH   1   2
ATOM      2  C   UNL     1       4.366 -34.002  20.633  1.00  0.00     0.000 C 
BRANCH   2   3
ATOM      3  C   UNL     1       5.664 -34.615  20.076  1.00  0.00     0.000 C 
BRANCH   3   4
ATOM      4  C   UNL     1       5.557 -36.080  19.613  1.00  0.00     0.000 C 
BRANCH   4   5
ATOM      5  C   UNL     1       4.562 -36.903  20.450  1.00  0.00     0.000 C 
BRANCH   5   6
ATOM      6  C   UNL     1       4.530 -38.385  20.038  1.00  0.00     0.006 C 
BRANCH   6   7
ATOM      7  C   UNL     1       5.830 -39.122  20.387  1.00  0.00     0.053 C 
BRANCH   7   8
ATOM      8  C   UNL     1       5.626 -40.001  21.581  1.00  0.00     0.041 C 
ATOM      9  O   UNL     1       4.966 -39.584  22.568  1.00  0.00    -0.550 OA
ATOM     10  O   UNL     1       6.124 -41.297  21.584  1.00  0.00    -0.550 OA
ENDBRANCH   7   8
ENDBRANCH   6   7
ENDBRANCH   5   6
ENDBRANCH   4   5
ENDBRANCH   3   4
ENDBRANCH   2   3
ENDBRANCH   1   2
BRANCH   1  11
ATOM     11  C   UNL     1       5.470 -33.225  22.809  1.00  0.00     0.000 C 
BRANCH  11  12
ATOM     12  C   UNL     1       6.125 -33.954  24.002  1.00  0.00    -0.000 C 
BRANCH  12  13
ATOM     13  C   UNL     1       6.098 -35.483  23.830  1.00  0.00    -0.000 C 
BRANCH  13  14
ATOM     14  C   UNL     1       5.889 -36.228  25.158  1.00  0.00    -0.000 C 
BRANCH  14  15
ATOM     15  C   UNL     1       4.731 -37.239  25.091  1.00  0.00    -0.000 C 
BRANCH  15  16
ATOM     16  C   UNL     1       4.473 -37.931  26.439  1.00  0.00    -0.000 C 
BRANCH  16  17
ATOM     17  C   UNL     1       2.982 -38.204  26.691  1.00  0.00    -0.003 C 
ATOM     18  C   UNL     1       2.322 -37.027  27.404  1.00  0.00     0.004 C 
ENDBRANCH  16  17
ENDBRANCH  15  16
ENDBRANCH  14  15
ENDBRANCH  13  14
ENDBRANCH  12  13
ENDBRANCH  11  12
ENDBRANCH   1  11
TORSDOF 14
ENDMDL
MODEL 7
REMARK VINA RESULT:    -0.052      4.013      6.310
REMARK INTER + INTRA:          -0.806
REMARK INTER:                  -0.008
REMARK INTRA:                  -0.798
REMARK UNBOUND:                -0.712
REMARK SMILES CCCCCCCCCCCCCCCC(=O)[O-]
REMARK SMILES IDX 9 1 10 2 11 3 12 4 13 5 14 6 15 7 16 8 17 9 18 10 8 11 7 12
REMARK SMILES IDX 6 13 5 14 4 15 3 16 2 17 1 18
REMARK H PARENT
REMARK Flexibility Score: inf
ROOT
ATOM      1  C   UNL     1       4.135 -33.479  22.391  1.00  0.00     0.000 C 
ENDROOT
BRANCH   1   2
ATOM      2  C   UNL     1       3.683 -33.825  20.963  1.00  0.00     0.000 C 
BRANCH   2   3
ATOM      3  C   UNL     1       4.822 -34.376  20.086  1.00  0.00     0.000 C 
BRANCH   3   4
ATOM      4  C   UNL     1       4.613 -34.235  18.566  1.00  0.00     0.000 C 
BRANCH   4   5
ATOM      5  C   UNL     1       4.857 -35.549  17.803  1.00  0.00     0.000 C 
BRANCH   5   6
ATOM      6  C   UNL     1       3.571 -36.112  17.174  1.00  0.00     0.006 C 
BRANCH   6   7
ATOM      7  C   UNL     1       3.342 -35.604  15.744  1.00  0.00     0.053 C 
BRANCH   7   8
ATOM      8  C   UNL     1       3.010 -36.744  14.833  1.00  0.00     0.041 C 
ATOM      9  O   UNL     1       3.808 -37.710  14.712  1.00  0.00    -0.550 OA
ATOM     10  O   UNL     1       1.798 -36.763  14.155  1.00  0.00    -0.550 OA
ENDBRANCH   7   8
ENDBRANCH   6   7
ENDBRANCH   5   6
ENDBRANCH   4   5
ENDBRANCH   3   4
ENDBRANCH   2   3
ENDBRANCH   1   2
BRANCH   1  11
ATOM     11  C   UNL     1       5.602 -33.857  22.658  1.00  0.00     0.000 C 
BRANCH  11  12
ATOM     12  C   UNL     1       5.794 -34.772  23.886  1.00  0.00    -0.000 C 
BRANCH  12  13
ATOM     13  C   UNL     1       5.766 -36.263  23.505  1.00  0.00    -0.000 C 
BRANCH  13  14
ATOM     14  C   UNL     1       5.713 -36.488  21.985  1.00  0.00    -0.000 C 
BRANCH  14  15
ATOM     15  C   UNL     1       4.749 -37.620  21.589  1.00  0.00    -0.000 C 
BRANCH  15  16
ATOM     16  C   UNL     1       5.067 -38.210  20.206  1.00  0.00    -0.000 C 
BRANCH  16  17
ATOM     17  C   UNL     1       5.761 -39.578  20.290  1.00  0.00    -0.003 C 
ATOM     18  C   UNL     1       5.645 -40.168  21.692  1.00  0.00     0.004 C 
ENDBRANCH  16  17
ENDBRANCH  15  16
ENDBRANCH  14  15
ENDBRANCH  13  14
ENDBRANCH  12  13
ENDBRANCH  11  12
ENDBRANCH   1  11
TORSDOF 14
ENDMDL
MODEL 8
REMARK VINA RESULT:     0.074      1.977      3.673
REMARK INTER + INTRA:          -0.577
REMARK INTER:                  -0.596
REMARK INTRA:                   0.019
REMARK UNBOUND:                -0.712
REMARK SMILES CCCCCCCCCCCCCCCC(=O)[O-]
REMARK SMILES IDX 9 1 10 2 11 3 12 4 13 5 14 6 15 7 16 8 17 9 18 10 8 11 7 12
REMARK SMILES IDX 6 13 5 14 4 15 3 16 2 17 1 18
REMARK H PARENT
REMARK Flexibility Score: inf
ROOT
ATOM      1  C   UNL     1       4.469 -36.953  21.048  1.00  0.00     0.000 C 
ENDROOT
BRANCH   1   2
ATOM      2  C   UNL     1       5.397 -35.810  21.494  1.00  0.00     0.000 C 
BRANCH   2   3
ATOM      3  C   UNL     1       4.646 -34.662  22.194  1.00  0.00     0.000 C 
BRANCH   3   4
ATOM      4  C   UNL     1       5.531 -33.671  22.973  1.00  0.00     0.000 C 
BRANCH   4   5
ATOM      5  C   UNL     1       6.125 -34.277  24.256  1.00  0.00     0.000 C 
BRANCH   5   6
ATOM      6  C   UNL     1       5.913 -35.798  24.343  1.00  0.00     0.006 C 
BRANCH   6   7
ATOM      7  C   UNL     1       5.691 -36.282  25.782  1.00  0.00     0.053 C 
BRANCH   7   8
ATOM      8  C   UNL     1       4.794 -37.480  25.796  1.00  0.00     0.041 C 
ATOM      9  O   UNL     1       3.814 -37.527  26.585  1.00  0.00    -0.550 OA
ATOM     10  O   UNL     1       5.011 -38.523  24.905  1.00  0.00    -0.550 OA
ENDBRANCH   7   8
ENDBRANCH   6   7
ENDBRANCH   5   6
ENDBRANCH   4   5
ENDBRANCH   3   4
ENDBRANCH   2   3
ENDBRANCH   1   2
BRANCH   1  11
ATOM     11  C   UNL     1       4.653 -37.323  19.567  1.00  0.00     0.000 C 
BRANCH  11  12
ATOM     12  C   UNL     1       5.210 -36.171  18.703  1.00  0.00    -0.000 C 
BRANCH  12  13
ATOM     13  C   UNL     1       4.190 -35.032  18.532  1.00  0.00    -0.000 C 
BRANCH  13  14
ATOM     14  C   UNL     1       3.497 -35.055  17.160  1.00  0.00    -0.000 C 
BRANCH  14  15
ATOM     15  C   UNL     1       3.897 -36.280  16.318  1.00  0.00    -0.000 C 
BRANCH  15  16
ATOM     16  C   UNL     1       3.058 -36.415  15.037  1.00  0.00    -0.000 C 
BRANCH  16  17
ATOM     17  C   UNL     1       3.732 -37.300  13.977  1.00  0.00    -0.003 C 
ATOM     18  C   UNL     1       3.873 -38.737  14.470  1.00  0.00     0.004 C 
ENDBRANCH  16  17
ENDBRANCH  15  16
ENDBRANCH  14  15
ENDBRANCH  13  14
ENDBRANCH  12  13
ENDBRANCH  11  12
ENDBRANCH   1  11
TORSDOF 14
ENDMDL
