MODEL 1
REMARK VINA RESULT:    -4.527      0.000      0.000
REMARK INTER + INTRA:         -10.730
REMARK INTER:                  -8.762
REMARK INTRA:                  -1.968
REMARK UNBOUND:                -1.968
REMARK SMILES CCCCCCCCCCCCCCCCCC(=O)[O-]
REMARK SMILES IDX 10 1 11 2 12 3 13 4 14 5 15 6 16 7 17 8 18 9 19 10 20 11
REMARK SMILES IDX 9 12 8 13 7 14 6 15 5 16 4 17 3 18 2 19 1 20
REMARK H PARENT
REMARK Flexibility Score: inf
ROOT
ATOM      1  C   UNL     1      23.319  25.258  21.150  1.00  0.00     0.000 C 
ENDROOT
BRANCH   1   2
ATOM      2  C   UNL     1      24.078  26.404  21.842  1.00  0.00     0.000 C 
BRANCH   2   3
ATOM      3  C   UNL     1      25.524  26.026  22.207  1.00  0.00     0.000 C 
BRANCH   3   4
ATOM      4  C   UNL     1      26.325  27.188  22.833  1.00  0.00     0.000 C 
BRANCH   4   5
ATOM      5  C   UNL     1      27.022  26.777  24.139  1.00  0.00     0.000 C 
BRANCH   5   6
ATOM      6  C   UNL     1      27.821  27.945  24.728  1.00  0.00     0.000 C 
BRANCH   6   7
ATOM      7  C   UNL     1      27.066  29.272  24.556  1.00  0.00     0.006 C 
BRANCH   7   8
ATOM      8  C   UNL     1      27.714  30.416  25.345  1.00  0.00     0.053 C 
BRANCH   8   9
ATOM      9  C   UNL     1      26.731  31.503  25.656  1.00  0.00     0.041 C 
ATOM     10  O   UNL     1      27.047  32.442  26.432  1.00  0.00    -0.550 OA
ATOM     11  O   UNL     1      25.453  31.459  25.112  1.00  0.00    -0.550 OA
ENDBRANCH   8   9
ENDBRANCH   7   8
ENDBRANCH   6   7
ENDBRANCH   5   6
ENDBRANCH   4   5
ENDBRANCH   3   4
ENDBRANCH   2   3
ENDBRANCH   1   2
BRANCH   1  12
ATOM     12  C   UNL     1      23.989  23.890  21.360  1.00  0.00     0.000 C 
BRANCH  12  13
ATOM     13  C   UNL     1      23.346  23.087  22.502  1.00  0.00    -0.000 C 
BRANCH  13  14
ATOM     14  C   UNL     1      24.313  22.076  23.146  1.00  0.00    -0.000 C 
BRANCH  14  15
ATOM     15  C   UNL     1      25.721  22.023  22.527  1.00  0.00    -0.000 C 
BRANCH  15  16
ATOM     16  C   UNL     1      26.748  22.872  23.293  1.00  0.00    -0.000 C 
BRANCH  16  17
ATOM     17  C   UNL     1      27.970  23.243  22.437  1.00  0.00    -0.000 C 
BRANCH  17  18
ATOM     18  C   UNL     1      27.828  22.855  20.949  1.00  0.00    -0.000 C 
BRANCH  18  19
ATOM     19  C   UNL     1      27.827  24.083  20.027  1.00  0.00    -0.003 C 
ATOM     20  C   UNL     1      26.596  24.096  19.127  1.00  0.00     0.004 C 
ENDBRANCH  18  19
ENDBRANCH  17  18
ENDBRANCH  16  17
ENDBRANCH  15  16
ENDBRANCH  14  15
ENDBRANCH  13  14
ENDBRANCH  12  13
ENDBRANCH   1  12
TORSDOF 16
ENDMDL
MODEL 2
REMARK VINA RESULT:    -4.294      3.066      7.087
REMARK INTER + INTRA:         -10.278
REMARK INTER:                  -8.647
REMARK INTRA:                  -1.631
REMARK UNBOUND:                -1.968
REMARK SMILES CCCCCCCCCCCCCCCCCC(=O)[O-]
REMARK SMILES IDX 10 1 11 2 12 3 13 4 14 5 15 6 16 7 17 8 18 9 19 10 20 11
REMARK SMILES IDX 9 12 8 13 7 14 6 15 5 16 4 17 3 18 2 19 1 20
REMARK H PARENT
REMARK Flexibility Score: inf
ROOT
ATOM      1  C   UNL     1      23.966  26.463  21.859  1.00  0.00     0.000 C 
ENDROOT
BRANCH   1   2
ATOM      2  C   UNL     1      24.510  25.122  21.338  1.00  0.00     0.000 C 
BRANCH   2   3
ATOM      3  C   UNL     1      23.660  23.919  21.785  1.00  0.00     0.000 C 
BRANCH   3   4
ATOM      4  C   UNL     1      24.497  22.668  22.131  1.00  0.00     0.000 C 
BRANCH   4   5
ATOM      5  C   UNL     1      25.698  23.002  23.029  1.00  0.00     0.000 C 
BRANCH   5   6
ATOM      6  C   UNL     1      26.964  22.288  22.543  1.00  0.00     0.000 C 
BRANCH   6   7
ATOM      7  C   UNL     1      27.832  23.225  21.688  1.00  0.00     0.006 C 
BRANCH   7   8
ATOM      8  C   UNL     1      27.650  22.974  20.185  1.00  0.00     0.053 C 
BRANCH   8   9
ATOM      9  C   UNL     1      27.306  24.233  19.451  1.00  0.00     0.041 C 
ATOM     10  O   UNL     1      26.291  24.276  18.706  1.00  0.00    -0.550 OA
ATOM     11  O   UNL     1      28.124  25.351  19.565  1.00  0.00    -0.550 OA
ENDBRANCH   8   9
ENDBRANCH   7   8
ENDBRANCH   6   7
ENDBRANCH   5   6
ENDBRANCH   4   5
ENDBRANCH   3   4
ENDBRANCH   2   3
ENDBRANCH   1   2
BRANCH   1  12
ATOM     12  C   UNL     1      25.028  27.282  22.611  1.00  0.00     0.000 C 
BRANCH  12  13
ATOM     13  C   UNL     1      26.410  26.607  22.602  1.00  0.00    -0.000 C 
BRANCH  13  14
ATOM     14  C   UNL     1      26.944  26.311  24.015  1.00  0.00    -0.000 C 
BRANCH  14  15
ATOM     15  C   UNL     1      28.052  27.256  24.515  1.00  0.00    -0.000 C 
BRANCH  15  16
ATOM     16  C   UNL     1      27.859  28.709  24.050  1.00  0.00    -0.000 C 
BRANCH  16  17
ATOM     17  C   UNL     1      27.878  29.713  25.214  1.00  0.00    -0.000 C 
BRANCH  17  18
ATOM     18  C   UNL     1      26.751  30.766  25.145  1.00  0.00    -0.000 C 
BRANCH  18  19
ATOM     19  C   UNL     1      27.280  32.194  25.342  1.00  0.00    -0.003 C 
ATOM     20  C   UNL     1      26.985  32.703  26.749  1.00  0.00     0.004 C 
ENDBRANCH  18  19
ENDBRANCH  17  18
ENDBRANCH  16  17
ENDBRANCH  15  16
ENDBRANCH  14  15
ENDBRANCH  13  14
ENDBRANCH  12  13
ENDBRANCH   1  12
TORSDOF 16
ENDMDL
MODEL 3
REMARK VINA RESULT:    -3.914      3.216      7.037
REMARK INTER + INTRA:          -9.543
REMARK INTER:                  -7.739
REMARK INTRA:                  -1.804
REMARK UNBOUND:                -1.968
REMARK SMILES CCCCCCCCCCCCCCCCCC(=O)[O-]
REMARK SMILES IDX 10 1 11 2 12 3 13 4 14 5 15 6 16 7 17 8 18 9 19 10 20 11
REMARK SMILES IDX 9 12 8 13 7 14 6 15 5 16 4 17 3 18 2 19 1 20
REMARK H PARENT
REMARK Flexibility Score: inf
ROOT
ATOM      1  C   UNL     1      23.762  26.533  21.824  1.00  0.00     0.000 C 
ENDROOT
BRANCH   1   2
ATOM      2  C   UNL     1      24.199  25.059  21.767  1.00  0.00     0.000 C 
BRANCH   2   3
ATOM      3  C   UNL     1      24.139  24.473  20.346  1.00  0.00     0.000 C 
BRANCH   3   4
ATOM      4  C   UNL     1      25.415  23.704  19.941  1.00  0.00     0.000 C 
BRANCH   4   5
ATOM      5  C   UNL     1      26.688  24.536  20.157  1.00  0.00     0.000 C 
BRANCH   5   6
ATOM      6  C   UNL     1      27.909  23.631  20.363  1.00  0.00     0.000 C 
BRANCH   6   7
ATOM      7  C   UNL     1      27.659  22.616  21.489  1.00  0.00     0.006 C 
BRANCH   7   8
ATOM      8  C   UNL     1      27.604  23.282  22.870  1.00  0.00     0.053 C 
BRANCH   8   9
ATOM      9  C   UNL     1      26.577  22.644  23.753  1.00  0.00     0.041 C 
ATOM     10  O   UNL     1      26.777  22.549  24.993  1.00  0.00    -0.550 OA
ATOM     11  O   UNL     1      25.411  22.126  23.202  1.00  0.00    -0.550 OA
ENDBRANCH   8   9
ENDBRANCH   7   8
ENDBRANCH   6   7
ENDBRANCH   5   6
ENDBRANCH   4   5
ENDBRANCH   3   4
ENDBRANCH   2   3
ENDBRANCH   1   2
BRANCH   1  12
ATOM     12  C   UNL     1      24.810  27.438  22.492  1.00  0.00     0.000 C 
BRANCH  12  13
ATOM     13  C   UNL     1      26.028  26.651  23.004  1.00  0.00    -0.000 C 
BRANCH  13  14
ATOM     14  C   UNL     1      27.313  27.498  23.057  1.00  0.00    -0.000 C 
BRANCH  14  15
ATOM     15  C   UNL     1      27.955  27.639  24.449  1.00  0.00    -0.000 C 
BRANCH  15  16
ATOM     16  C   UNL     1      27.771  29.037  25.059  1.00  0.00    -0.000 C 
BRANCH  16  17
ATOM     17  C   UNL     1      26.725  29.880  24.310  1.00  0.00    -0.000 C 
BRANCH  17  18
ATOM     18  C   UNL     1      26.012  30.920  25.201  1.00  0.00    -0.000 C 
BRANCH  18  19
ATOM     19  C   UNL     1      26.822  32.217  25.337  1.00  0.00    -0.003 C 
ATOM     20  C   UNL     1      27.314  32.414  26.768  1.00  0.00     0.004 C 
ENDBRANCH  18  19
ENDBRANCH  17  18
ENDBRANCH  16  17
ENDBRANCH  15  16
ENDBRANCH  14  15
ENDBRANCH  13  14
ENDBRANCH  12  13
ENDBRANCH   1  12
TORSDOF 16
ENDMDL
MODEL 4
REMARK VINA RESULT:    -3.696      0.987      2.341
REMARK INTER + INTRA:          -9.121
REMARK INTER:                  -7.372
REMARK INTRA:                  -1.750
REMARK UNBOUND:                -1.968
REMARK SMILES CCCCCCCCCCCCCCCCCC(=O)[O-]
REMARK SMILES IDX 10 1 11 2 12 3 13 4 14 5 15 6 16 7 17 8 18 9 19 10 20 11
REMARK SMILES IDX 9 12 8 13 7 14 6 15 5 16 4 17 3 18 2 19 1 20
REMARK H PARENT
REMARK Flexibility Score: inf
ROOT
ATOM      1  C   UNL     1      23.410  26.366  21.870  1.00  0.00     0.000 C 
ENDROOT
BRANCH   1   2
ATOM      2  C   UNL     1      24.686  27.134  22.254  1.00  0.00     0.000 C 
BRANCH   2   3
ATOM      3  C   UNL     1      25.855  26.203  22.621  1.00  0.00     0.000 C 
BRANCH   3   4
ATOM      4  C   UNL     1      27.228  26.908  22.619  1.00  0.00     0.000 C 
BRANCH   4   5
ATOM      5  C   UNL     1      28.004  26.675  23.925  1.00  0.00     0.000 C 
BRANCH   5   6
ATOM      6  C   UNL     1      27.725  27.793  24.937  1.00  0.00     0.000 C 
BRANCH   6   7
ATOM      7  C   UNL     1      27.259  29.074  24.228  1.00  0.00     0.006 C 
BRANCH   7   8
ATOM      8  C   UNL     1      27.693  30.342  24.974  1.00  0.00     0.053 C 
BRANCH   8   9
ATOM      9  C   UNL     1      26.524  31.213  25.315  1.00  0.00     0.041 C 
ATOM     10  O   UNL     1      25.368  30.907  24.919  1.00  0.00    -0.550 OA
ATOM     11  O   UNL     1      26.716  32.381  26.044  1.00  0.00    -0.550 OA
ENDBRANCH   8   9
ENDBRANCH   7   8
ENDBRANCH   6   7
ENDBRANCH   5   6
ENDBRANCH   4   5
ENDBRANCH   3   4
ENDBRANCH   2   3
ENDBRANCH   1   2
BRANCH   1  12
ATOM     12  C   UNL     1      23.691  25.177  20.936  1.00  0.00     0.000 C 
BRANCH  12  13
ATOM     13  C   UNL     1      23.916  23.864  21.705  1.00  0.00    -0.000 C 
BRANCH  13  14
ATOM     14  C   UNL     1      25.031  22.994  21.097  1.00  0.00    -0.000 C 
BRANCH  14  15
ATOM     15  C   UNL     1      26.121  23.760  20.326  1.00  0.00    -0.000 C 
BRANCH  15  16
ATOM     16  C   UNL     1      27.538  23.235  20.603  1.00  0.00    -0.000 C 
BRANCH  16  17
ATOM     17  C   UNL     1      27.592  22.273  21.802  1.00  0.00    -0.000 C 
BRANCH  17  18
ATOM     18  C   UNL     1      28.123  22.923  23.097  1.00  0.00    -0.000 C 
BRANCH  18  19
ATOM     19  C   UNL     1      27.044  23.008  24.187  1.00  0.00    -0.003 C 
ATOM     20  C   UNL     1      27.652  23.365  25.539  1.00  0.00     0.004 C 
ENDBRANCH  18  19
ENDBRANCH  17  18
ENDBRANCH  16  17
ENDBRANCH  15  16
ENDBRANCH  14  15
ENDBRANCH  13  14
ENDBRANCH  12  13
ENDBRANCH   1  12
TORSDOF 16
ENDMDL
MODEL 5
REMARK VINA RESULT:    -3.692     16.924     18.983
REMARK INTER + INTRA:          -9.113
REMARK INTER:                  -7.097
REMARK INTRA:                  -2.016
REMARK UNBOUND:                -1.968
REMARK SMILES CCCCCCCCCCCCCCCCCC(=O)[O-]
REMARK SMILES IDX 10 1 11 2 12 3 13 4 14 5 15 6 16 7 17 8 18 9 19 10 20 11
REMARK SMILES IDX 9 12 8 13 7 14 6 15 5 16 4 17 3 18 2 19 1 20
REMARK H PARENT
REMARK Flexibility Score: inf
ROOT
ATOM      1  C   UNL     1      13.216  35.736  21.922  1.00  0.00     0.000 C 
ENDROOT
BRANCH   1   2
ATOM      2  C   UNL     1      13.208  37.151  21.319  1.00  0.00     0.000 C 
BRANCH   2   3
ATOM      3  C   UNL     1      13.335  38.255  22.384  1.00  0.00     0.000 C 
BRANCH   3   4
ATOM      4  C   UNL     1      12.611  37.922  23.706  1.00  0.00     0.000 C 
BRANCH   4   5
ATOM      5  C   UNL     1      11.303  38.712  23.867  1.00  0.00     0.000 C 
BRANCH   5   6
ATOM      6  C   UNL     1      10.262  37.900  24.647  1.00  0.00     0.000 C 
BRANCH   6   7
ATOM      7  C   UNL     1       8.873  38.551  24.555  1.00  0.00     0.006 C 
BRANCH   7   8
ATOM      8  C   UNL     1       8.250  38.788  25.936  1.00  0.00     0.053 C 
BRANCH   8   9
ATOM      9  C   UNL     1       8.563  40.157  26.458  1.00  0.00     0.041 C 
ATOM     10  O   UNL     1       9.323  40.925  25.811  1.00  0.00    -0.550 OA
ATOM     11  O   UNL     1       8.040  40.573  27.676  1.00  0.00    -0.550 OA
ENDBRANCH   8   9
ENDBRANCH   7   8
ENDBRANCH   6   7
ENDBRANCH   5   6
ENDBRANCH   4   5
ENDBRANCH   3   4
ENDBRANCH   2   3
ENDBRANCH   1   2
BRANCH   1  12
ATOM     12  C   UNL     1      11.958  34.929  21.559  1.00  0.00     0.000 C 
BRANCH  12  13
ATOM     13  C   UNL     1      10.664  35.739  21.744  1.00  0.00    -0.000 C 
BRANCH  13  14
ATOM     14  C   UNL     1       9.725  35.139  22.806  1.00  0.00    -0.000 C 
BRANCH  14  15
ATOM     15  C   UNL     1       9.150  33.751  22.470  1.00  0.00    -0.000 C 
BRANCH  15  16
ATOM     16  C   UNL     1       9.600  32.658  23.453  1.00  0.00    -0.000 C 
BRANCH  16  17
ATOM     17  C   UNL     1      11.027  32.883  23.980  1.00  0.00    -0.000 C 
BRANCH  17  18
ATOM     18  C   UNL     1      11.094  33.148  25.499  1.00  0.00    -0.000 C 
BRANCH  18  19
ATOM     19  C   UNL     1      11.552  34.579  25.818  1.00  0.00    -0.003 C 
ATOM     20  C   UNL     1      12.990  34.811  25.367  1.00  0.00     0.004 C 
ENDBRANCH  18  19
ENDBRANCH  17  18
ENDBRANCH  16  17
ENDBRANCH  15  16
ENDBRANCH  14  15
ENDBRANCH  13  14
ENDBRANCH  12  13
ENDBRANCH   1  12
TORSDOF 16
ENDMDL
MODEL 6
REMARK VINA RESULT:    -3.645      2.585      7.152
REMARK INTER + INTRA:          -9.022
REMARK INTER:                  -7.826
REMARK INTRA:                  -1.196
REMARK UNBOUND:                -1.968
REMARK SMILES CCCCCCCCCCCCCCCCCC(=O)[O-]
REMARK SMILES IDX 10 1 11 2 12 3 13 4 14 5 15 6 16 7 17 8 18 9 19 10 20 11
REMARK SMILES IDX 9 12 8 13 7 14 6 15 5 16 4 17 3 18 2 19 1 20
REMARK H PARENT
REMARK Flexibility Score: inf
ROOT
ATOM      1  C   UNL     1      27.048  24.402  23.464  1.00  0.00     0.000 C 
ENDROOT
BRANCH   1   2
ATOM      2  C   UNL     1      26.366  23.029  23.589  1.00  0.00     0.000 C 
BRANCH   2   3
ATOM      3  C   UNL     1      27.117  21.918  22.834  1.00  0.00     0.000 C 
BRANCH   3   4
ATOM      4  C   UNL     1      28.114  22.452  21.784  1.00  0.00     0.000 C 
BRANCH   4   5
ATOM      5  C   UNL     1      27.479  22.575  20.390  1.00  0.00     0.000 C 
BRANCH   5   6
ATOM      6  C   UNL     1      26.968  24.000  20.142  1.00  0.00     0.000 C 
BRANCH   6   7
ATOM      7  C   UNL     1      25.508  23.985  19.663  1.00  0.00     0.006 C 
BRANCH   7   8
ATOM      8  C   UNL     1      24.514  23.956  20.831  1.00  0.00     0.053 C 
BRANCH   8   9
ATOM      9  C   UNL     1      24.015  25.327  21.169  1.00  0.00     0.041 C 
ATOM     10  O   UNL     1      22.873  25.698  20.791  1.00  0.00    -0.550 OA
ATOM     11  O   UNL     1      24.826  26.207  21.875  1.00  0.00    -0.550 OA
ENDBRANCH   8   9
ENDBRANCH   7   8
ENDBRANCH   6   7
ENDBRANCH   5   6
ENDBRANCH   4   5
ENDBRANCH   3   4
ENDBRANCH   2   3
ENDBRANCH   1   2
BRANCH   1  12
ATOM     12  C   UNL     1      27.517  24.958  24.818  1.00  0.00     0.000 C 
BRANCH  12  13
ATOM     13  C   UNL     1      28.013  26.410  24.720  1.00  0.00    -0.000 C 
BRANCH  13  14
ATOM     14  C   UNL     1      28.125  26.911  23.268  1.00  0.00    -0.000 C 
BRANCH  14  15
ATOM     15  C   UNL     1      27.226  28.109  22.911  1.00  0.00    -0.000 C 
BRANCH  15  16
ATOM     16  C   UNL     1      26.496  28.698  24.128  1.00  0.00    -0.000 C 
BRANCH  16  17
ATOM     17  C   UNL     1      27.057  30.066  24.553  1.00  0.00    -0.000 C 
BRANCH  17  18
ATOM     18  C   UNL     1      26.027  30.962  25.274  1.00  0.00    -0.000 C 
BRANCH  18  19
ATOM     19  C   UNL     1      26.606  32.341  25.625  1.00  0.00    -0.003 C 
ATOM     20  C   UNL     1      27.595  32.246  26.782  1.00  0.00     0.004 C 
ENDBRANCH  18  19
ENDBRANCH  17  18
ENDBRANCH  16  17
ENDBRANCH  15  16
ENDBRANCH  14  15
ENDBRANCH  13  14
ENDBRANCH  12  13
ENDBRANCH   1  12
TORSDOF 16
ENDMDL
MODEL 7
REMARK VINA RESULT:    -3.437      1.416      3.161
REMARK INTER + INTRA:          -8.619
REMARK INTER:                  -7.771
REMARK INTRA:                  -0.848
REMARK UNBOUND:                -1.968
REMARK SMILES CCCCCCCCCCCCCCCCCC(=O)[O-]
REMARK SMILES IDX 10 1 11 2 12 3 13 4 14 5 15 6 16 7 17 8 18 9 19 10 20 11
REMARK SMILES IDX 9 12 8 13 7 14 6 15 5 16 4 17 3 18 2 19 1 20
REMARK H PARENT
REMARK Flexibility Score: inf
ROOT
ATOM      1  C   UNL     1      27.409  23.823  26.235  1.00  0.00     0.000 C 
ENDROOT
BRANCH   1   2
ATOM      2  C   UNL     1      28.021  24.409  24.951  1.00  0.00     0.000 C 
BRANCH   2   3
ATOM      3  C   UNL     1      27.685  25.898  24.755  1.00  0.00     0.000 C 
BRANCH   3   4
ATOM      4  C   UNL     1      26.732  26.164  23.570  1.00  0.00     0.000 C 
BRANCH   4   5
ATOM      5  C   UNL     1      26.900  27.578  22.994  1.00  0.00     0.000 C 
BRANCH   5   6
ATOM      6  C   UNL     1      26.490  28.642  24.019  1.00  0.00     0.000 C 
BRANCH   6   7
ATOM      7  C   UNL     1      27.604  29.683  24.209  1.00  0.00     0.006 C 
BRANCH   7   8
ATOM      8  C   UNL     1      27.625  30.260  25.630  1.00  0.00     0.053 C 
BRANCH   8   9
ATOM      9  C   UNL     1      26.879  31.556  25.713  1.00  0.00     0.041 C 
ATOM     10  O   UNL     1      27.416  32.564  26.243  1.00  0.00    -0.550 OA
ATOM     11  O   UNL     1      25.577  31.641  25.234  1.00  0.00    -0.550 OA
ENDBRANCH   8   9
ENDBRANCH   7   8
ENDBRANCH   6   7
ENDBRANCH   5   6
ENDBRANCH   4   5
ENDBRANCH   3   4
ENDBRANCH   2   3
ENDBRANCH   1   2
BRANCH   1  12
ATOM     12  C   UNL     1      27.225  22.298  26.163  1.00  0.00     0.000 C 
BRANCH  12  13
ATOM     13  C   UNL     1      26.212  21.877  25.085  1.00  0.00    -0.000 C 
BRANCH  13  14
ATOM     14  C   UNL     1      26.796  21.917  23.661  1.00  0.00    -0.000 C 
BRANCH  14  15
ATOM     15  C   UNL     1      25.777  22.178  22.537  1.00  0.00    -0.000 C 
BRANCH  15  16
ATOM     16  C   UNL     1      24.362  22.470  23.062  1.00  0.00    -0.000 C 
BRANCH  16  17
ATOM     17  C   UNL     1      23.620  23.521  22.220  1.00  0.00    -0.000 C 
BRANCH  17  18
ATOM     18  C   UNL     1      24.557  24.520  21.508  1.00  0.00    -0.000 C 
BRANCH  18  19
ATOM     19  C   UNL     1      24.786  24.150  20.035  1.00  0.00    -0.003 C 
ATOM     20  C   UNL     1      26.272  24.149  19.691  1.00  0.00     0.004 C 
ENDBRANCH  18  19
ENDBRANCH  17  18
ENDBRANCH  16  17
ENDBRANCH  15  16
ENDBRANCH  14  15
ENDBRANCH  13  14
ENDBRANCH  12  13
ENDBRANCH   1  12
TORSDOF 16
ENDMDL
