MODEL 1
REMARK VINA RESULT:    -4.388      0.000      0.000
REMARK INTER + INTRA:          -4.388
REMARK INTER:                  -4.388
REMARK INTRA:                   0.000
REMARK UNBOUND:                 0.000
REMARK SMILES C=C1CC[C@@H]2C[C@H]1C2(C)C
REMARK SMILES IDX 9 1 8 2 5 3 4 4 3 5 2 6 1 7 7 8 6 9 10 10
REMARK H PARENT
REMARK Flexibility Score: inf
ROOT
ATOM      1  C   UNL     1     169.411 166.123 200.016  1.00  0.00     0.012 C 
ATOM      2  C   UNL     1     168.482 164.886 199.941  1.00  0.00    -0.026 C 
ATOM      3  C   UNL     1     168.839 163.967 198.745  1.00  0.00    -0.004 C 
ATOM      4  C   UNL     1     167.676 162.969 198.438  1.00  0.00     0.008 C 
ATOM      5  C   UNL     1     167.199 162.185 199.718  1.00  0.00     0.031 C 
ATOM      6  C   UNL     1     167.866 162.701 201.002  1.00  0.00    -0.074 C 
ATOM      7  C   UNL     1     167.491 162.260 202.209  1.00  0.00     0.008 C 
ATOM      8  C   UNL     1     168.980 163.731 200.841  1.00  0.00     0.021 C 
ATOM      9  C   UNL     1     169.824 163.222 199.661  1.00  0.00     0.012 C 
ATOM     10  C   UNL     1     167.014 165.366 200.100  1.00  0.00     0.012 C 
ENDROOT
TORSDOF 0
ENDMDL
MODEL 2
REMARK VINA RESULT:    -4.381      4.768      7.142
REMARK INTER + INTRA:          -4.381
REMARK INTER:                  -4.381
REMARK INTRA:                   0.000
REMARK UNBOUND:                 0.000
REMARK SMILES C=C1CC[C@@H]2C[C@H]1C2(C)C
REMARK SMILES IDX 9 1 8 2 5 3 4 4 3 5 2 6 1 7 7 8 6 9 10 10
REMARK H PARENT
REMARK Flexibility Score: inf
ROOT
ATOM      1  C   UNL     1     162.622 165.886 200.025  1.00  0.00     0.012 C 
ATOM      2  C   UNL     1     163.546 167.128 199.974  1.00  0.00    -0.026 C 
ATOM      3  C   UNL     1     163.224 168.039 198.763  1.00  0.00    -0.004 C 
ATOM      4  C   UNL     1     164.391 169.042 198.489  1.00  0.00     0.008 C 
ATOM      5  C   UNL     1     164.822 169.835 199.781  1.00  0.00     0.031 C 
ATOM      6  C   UNL     1     164.115 169.321 201.045  1.00  0.00    -0.074 C 
ATOM      7  C   UNL     1     164.448 169.769 202.260  1.00  0.00     0.008 C 
ATOM      8  C   UNL     1     163.013 168.284 200.852  1.00  0.00     0.021 C 
ATOM      9  C   UNL     1     162.205 168.783 199.643  1.00  0.00     0.012 C 
ATOM     10  C   UNL     1     165.011 166.656 200.183  1.00  0.00     0.012 C 
ENDROOT
TORSDOF 0
ENDMDL
MODEL 3
REMARK VINA RESULT:    -4.057      1.042      3.059
REMARK INTER + INTRA:          -4.057
REMARK INTER:                  -4.057
REMARK INTRA:                   0.000
REMARK UNBOUND:                 0.000
REMARK SMILES C=C1CC[C@@H]2C[C@H]1C2(C)C
REMARK SMILES IDX 9 1 8 2 5 3 4 4 3 5 2 6 1 7 7 8 6 9 10 10
REMARK H PARENT
REMARK Flexibility Score: inf
ROOT
ATOM      1  C   UNL     1     167.561 163.159 197.651  1.00  0.00     0.012 C 
ATOM      2  C   UNL     1     167.807 163.902 198.988  1.00  0.00    -0.026 C 
ATOM      3  C   UNL     1     168.320 162.946 200.094  1.00  0.00    -0.004 C 
ATOM      4  C   UNL     1     168.177 163.596 201.508  1.00  0.00     0.008 C 
ATOM      5  C   UNL     1     168.806 165.039 201.577  1.00  0.00     0.031 C 
ATOM      6  C   UNL     1     169.263 165.543 200.200  1.00  0.00    -0.074 C 
ATOM      7  C   UNL     1     169.694 166.797 200.024  1.00  0.00     0.008 C 
ATOM      8  C   UNL     1     169.210 164.550 199.043  1.00  0.00     0.021 C 
ATOM      9  C   UNL     1     169.755 163.235 199.624  1.00  0.00     0.012 C 
ATOM     10  C   UNL     1     166.570 164.793 199.287  1.00  0.00     0.012 C 
ENDROOT
TORSDOF 0
ENDMDL
MODEL 4
REMARK VINA RESULT:    -4.047      5.050      6.766
REMARK INTER + INTRA:          -4.047
REMARK INTER:                  -4.047
REMARK INTRA:                   0.000
REMARK UNBOUND:                 0.000
REMARK SMILES C=C1CC[C@@H]2C[C@H]1C2(C)C
REMARK SMILES IDX 9 1 8 2 5 3 4 4 3 5 2 6 1 7 7 8 6 9 10 10
REMARK H PARENT
REMARK Flexibility Score: inf
ROOT
ATOM      1  C   UNL     1     164.180 168.780 197.443  1.00  0.00     0.012 C 
ATOM      2  C   UNL     1     164.049 168.088 198.823  1.00  0.00    -0.026 C 
ATOM      3  C   UNL     1     163.588 169.076 199.924  1.00  0.00    -0.004 C 
ATOM      4  C   UNL     1     163.847 168.489 201.349  1.00  0.00     0.008 C 
ATOM      5  C   UNL     1     163.265 167.035 201.519  1.00  0.00     0.031 C 
ATOM      6  C   UNL     1     162.728 166.462 200.199  1.00  0.00    -0.074 C 
ATOM      7  C   UNL     1     162.321 165.192 200.104  1.00  0.00     0.008 C 
ATOM      8  C   UNL     1     162.672 167.408 199.003  1.00  0.00     0.021 C 
ATOM      9  C   UNL     1     162.132 168.732 199.568  1.00  0.00     0.012 C 
ATOM     10  C   UNL     1     165.328 167.242 199.069  1.00  0.00     0.012 C 
ENDROOT
TORSDOF 0
ENDMDL
MODEL 5
REMARK VINA RESULT:    -4.003      1.228      2.610
REMARK INTER + INTRA:          -4.003
REMARK INTER:                  -4.003
REMARK INTRA:                   0.000
REMARK UNBOUND:                 0.000
REMARK SMILES C=C1CC[C@@H]2C[C@H]1C2(C)C
REMARK SMILES IDX 9 1 8 2 5 3 4 4 3 5 2 6 1 7 7 8 6 9 10 10
REMARK H PARENT
REMARK Flexibility Score: inf
ROOT
ATOM      1  C   UNL     1     168.871 162.678 198.489  1.00  0.00     0.012 C 
ATOM      2  C   UNL     1     168.101 163.175 199.739  1.00  0.00    -0.026 C 
ATOM      3  C   UNL     1     166.639 163.562 199.400  1.00  0.00    -0.004 C 
ATOM      4  C   UNL     1     166.009 164.425 200.541  1.00  0.00     0.008 C 
ATOM      5  C   UNL     1     166.176 163.764 201.961  1.00  0.00     0.031 C 
ATOM      6  C   UNL     1     167.065 162.511 201.922  1.00  0.00    -0.074 C 
ATOM      7  C   UNL     1     167.442 161.888 203.044  1.00  0.00     0.008 C 
ATOM      8  C   UNL     1     167.493 162.005 200.548  1.00  0.00     0.021 C 
ATOM      9  C   UNL     1     166.230 162.106 199.677  1.00  0.00     0.012 C 
ATOM     10  C   UNL     1     168.992 164.205 200.485  1.00  0.00     0.012 C 
ENDROOT
TORSDOF 0
ENDMDL
MODEL 6
REMARK VINA RESULT:    -3.983      5.184      6.807
REMARK INTER + INTRA:          -3.983
REMARK INTER:                  -3.983
REMARK INTRA:                   0.000
REMARK UNBOUND:                 0.000
REMARK SMILES C=C1CC[C@@H]2C[C@H]1C2(C)C
REMARK SMILES IDX 9 1 8 2 5 3 4 4 3 5 2 6 1 7 7 8 6 9 10 10
REMARK H PARENT
REMARK Flexibility Score: inf
ROOT
ATOM      1  C   UNL     1     164.703 170.117 200.204  1.00  0.00     0.012 C 
ATOM      2  C   UNL     1     164.330 168.651 199.871  1.00  0.00    -0.026 C 
ATOM      3  C   UNL     1     163.094 168.172 200.675  1.00  0.00    -0.004 C 
ATOM      4  C   UNL     1     162.975 166.614 200.646  1.00  0.00     0.008 C 
ATOM      5  C   UNL     1     163.044 166.030 199.184  1.00  0.00     0.031 C 
ATOM      6  C   UNL     1     163.382 167.105 198.140  1.00  0.00    -0.074 C 
ATOM      7  C   UNL     1     163.623 166.787 196.864  1.00  0.00     0.008 C 
ATOM      8  C   UNL     1     163.423 168.552 198.621  1.00  0.00     0.021 C 
ATOM      9  C   UNL     1     162.200 168.700 199.541  1.00  0.00     0.012 C 
ATOM     10  C   UNL     1     165.625 167.795 199.913  1.00  0.00     0.012 C 
ENDROOT
TORSDOF 0
ENDMDL
MODEL 7
REMARK VINA RESULT:    -3.979      1.102      3.449
REMARK INTER + INTRA:          -3.979
REMARK INTER:                  -3.979
REMARK INTRA:                   0.000
REMARK UNBOUND:                 0.000
REMARK SMILES C=C1CC[C@@H]2C[C@H]1C2(C)C
REMARK SMILES IDX 9 1 8 2 5 3 4 4 3 5 2 6 1 7 7 8 6 9 10 10
REMARK H PARENT
REMARK Flexibility Score: inf
ROOT
ATOM      1  C   UNL     1     167.205 161.865 200.027  1.00  0.00     0.012 C 
ATOM      2  C   UNL     1     167.642 163.334 199.809  1.00  0.00    -0.026 C 
ATOM      3  C   UNL     1     168.872 163.706 200.677  1.00  0.00    -0.004 C 
ATOM      4  C   UNL     1     169.050 165.256 200.762  1.00  0.00     0.008 C 
ATOM      5  C   UNL     1     169.046 165.944 199.345  1.00  0.00     0.031 C 
ATOM      6  C   UNL     1     168.697 164.959 198.218  1.00  0.00    -0.074 C 
ATOM      7  C   UNL     1     168.505 165.376 196.962  1.00  0.00     0.008 C 
ATOM      8  C   UNL     1     168.587 163.484 198.594  1.00  0.00     0.021 C 
ATOM      9  C   UNL     1     169.777 163.224 199.531  1.00  0.00     0.012 C 
ATOM     10  C   UNL     1     166.380 164.237 199.879  1.00  0.00     0.012 C 
ENDROOT
TORSDOF 0
ENDMDL
MODEL 8
REMARK VINA RESULT:    -3.949      3.954      5.480
REMARK INTER + INTRA:          -3.949
REMARK INTER:                  -3.949
REMARK INTRA:                   0.000
REMARK UNBOUND:                 0.000
REMARK SMILES C=C1CC[C@@H]2C[C@H]1C2(C)C
REMARK SMILES IDX 9 1 8 2 5 3 4 4 3 5 2 6 1 7 7 8 6 9 10 10
REMARK H PARENT
REMARK Flexibility Score: inf
ROOT
ATOM      1  C   UNL     1     165.703 169.852 199.930  1.00  0.00     0.012 C 
ATOM      2  C   UNL     1     166.695 168.920 199.191  1.00  0.00    -0.026 C 
ATOM      3  C   UNL     1     167.319 169.608 197.950  1.00  0.00    -0.004 C 
ATOM      4  C   UNL     1     167.982 168.559 197.001  1.00  0.00     0.008 C 
ATOM      5  C   UNL     1     168.976 167.601 197.760  1.00  0.00     0.031 C 
ATOM      6  C   UNL     1     168.938 167.805 199.282  1.00  0.00    -0.074 C 
ATOM      7  C   UNL     1     169.603 166.994 200.112  1.00  0.00     0.008 C 
ATOM      8  C   UNL     1     168.113 168.977 199.805  1.00  0.00     0.021 C 
ATOM      9  C   UNL     1     168.438 170.145 198.859  1.00  0.00     0.012 C 
ATOM     10  C   UNL     1     166.022 167.532 199.013  1.00  0.00     0.012 C 
ENDROOT
TORSDOF 0
ENDMDL
MODEL 9
REMARK VINA RESULT:    -3.865      4.223      6.407
REMARK INTER + INTRA:          -3.865
REMARK INTER:                  -3.865
REMARK INTRA:                   0.000
REMARK UNBOUND:                 0.000
REMARK SMILES C=C1CC[C@@H]2C[C@H]1C2(C)C
REMARK SMILES IDX 9 1 8 2 5 3 4 4 3 5 2 6 1 7 7 8 6 9 10 10
REMARK H PARENT
REMARK Flexibility Score: inf
ROOT
ATOM      1  C   UNL     1     169.405 168.247 197.740  1.00  0.00     0.012 C 
ATOM      2  C   UNL     1     167.968 168.448 198.281  1.00  0.00    -0.026 C 
ATOM      3  C   UNL     1     167.843 169.742 199.125  1.00  0.00    -0.004 C 
ATOM      4  C   UNL     1     166.538 169.728 199.984  1.00  0.00     0.008 C 
ATOM      5  C   UNL     1     165.255 169.405 199.130  1.00  0.00     0.031 C 
ATOM      6  C   UNL     1     165.599 169.011 197.685  1.00  0.00    -0.074 C 
ATOM      7  C   UNL     1     164.661 168.566 196.841  1.00  0.00     0.008 C 
ATOM      8  C   UNL     1     167.055 169.157 197.253  1.00  0.00     0.021 C 
ATOM      9  C   UNL     1     167.508 170.506 197.834  1.00  0.00     0.012 C 
ATOM     10  C   UNL     1     167.484 167.107 198.897  1.00  0.00     0.012 C 
ENDROOT
TORSDOF 0
ENDMDL
