MODEL 1
REMARK VINA RESULT:    -7.428      0.000      0.000
REMARK INTER + INTRA:          -9.048
REMARK INTER:                  -8.731
REMARK INTRA:                  -0.317
REMARK UNBOUND:                -0.317
REMARK SMILES O=c1cc(-c2ccc(O)c(O)c2)oc2cc(O)cc(O)c12
REMARK SMILES IDX 4 1 3 2 2 3 1 4 21 5 19 6 18 7 16 8 15 9 14 10 13 11 5 12
REMARK SMILES IDX 6 13 7 14 8 15 12 16 10 17 9 18 11 20 20 22 17 24
REMARK H PARENT 9 19 11 21 20 23 17 25
REMARK Flexibility Score: inf
ROOT
ATOM      1  C   UNL     1      -4.217  20.572  21.980  1.00  0.00     0.138 A 
ATOM      2  C   UNL     1      -3.953  21.260  20.788  1.00  0.00     0.100 A 
ATOM      3  C   UNL     1      -4.611  22.462  20.524  1.00  0.00     0.197 A 
ATOM      4  O   UNL     1      -4.307  23.088  19.476  1.00  0.00    -0.289 OA
ATOM      5  C   UNL     1      -5.562  22.960  21.446  1.00  0.00     0.107 A 
ATOM      6  C   UNL     1      -6.322  24.154  21.264  1.00  0.00     0.134 A 
ATOM      7  C   UNL     1      -7.149  24.609  22.298  1.00  0.00     0.093 A 
ATOM      8  C   UNL     1      -7.288  23.883  23.484  1.00  0.00     0.123 A 
ATOM      9  C   UNL     1      -6.590  22.689  23.650  1.00  0.00     0.094 A 
ATOM     10  C   UNL     1      -5.731  22.226  22.650  1.00  0.00     0.146 A 
ATOM     11  O   UNL     1      -5.074  21.089  22.854  1.00  0.00    -0.456 OA
ENDROOT
BRANCH   1  12
ATOM     12  C   UNL     1      -3.547  19.289  22.309  1.00  0.00     0.021 A 
ATOM     13  C   UNL     1      -2.505  18.773  21.515  1.00  0.00     0.016 A 
ATOM     14  C   UNL     1      -1.899  17.557  21.844  1.00  0.00     0.051 A 
ATOM     15  C   UNL     1      -2.326  16.833  22.963  1.00  0.00     0.157 A 
ATOM     16  C   UNL     1      -3.978  18.549  23.425  1.00  0.00     0.062 A 
ATOM     17  C   UNL     1      -3.372  17.332  23.756  1.00  0.00     0.158 A 
BRANCH  15  18
ATOM     18  O   UNL     1      -1.718  15.622  23.288  1.00  0.00    -0.504 OA
ATOM     19  H   UNL     1      -1.290  15.468  24.195  1.00  0.00     0.293 HD
ENDBRANCH  15  18
BRANCH  17  20
ATOM     20  O   UNL     1      -3.823  16.633  24.876  1.00  0.00    -0.504 OA
ATOM     21  H   UNL     1      -4.319  17.089  25.631  1.00  0.00     0.293 HD
ENDBRANCH  17  20
ENDBRANCH   1  12
BRANCH   6  22
ATOM     22  O   UNL     1      -6.322  24.909  20.087  1.00  0.00    -0.507 OA
ATOM     23  H   UNL     1      -5.525  25.407  19.723  1.00  0.00     0.293 HD
ENDBRANCH   6  22
BRANCH   8  24
ATOM     24  O   UNL     1      -8.125  24.337  24.502  1.00  0.00    -0.508 OA
ATOM     25  H   UNL     1      -8.936  23.807  24.798  1.00  0.00     0.293 HD
ENDBRANCH   8  24
TORSDOF 5
ENDMDL
MODEL 2
REMARK VINA RESULT:    -6.611      2.060      7.240
REMARK INTER + INTRA:          -8.087
REMARK INTER:                  -7.804
REMARK INTRA:                  -0.283
REMARK UNBOUND:                -0.317
REMARK SMILES O=c1cc(-c2ccc(O)c(O)c2)oc2cc(O)cc(O)c12
REMARK SMILES IDX 4 1 3 2 2 3 1 4 21 5 19 6 18 7 16 8 15 9 14 10 13 11 5 12
REMARK SMILES IDX 6 13 7 14 8 15 12 16 10 17 9 18 11 20 20 22 17 24
REMARK H PARENT 9 19 11 21 20 23 17 25
REMARK Flexibility Score: inf
ROOT
ATOM      1  C   UNL     1      -5.532  21.119  22.782  1.00  0.00     0.138 A 
ATOM      2  C   UNL     1      -4.451  20.869  23.639  1.00  0.00     0.100 A 
ATOM      3  C   UNL     1      -3.855  19.607  23.650  1.00  0.00     0.197 A 
ATOM      4  O   UNL     1      -2.848  19.433  24.384  1.00  0.00    -0.289 OA
ATOM      5  C   UNL     1      -4.367  18.581  22.822  1.00  0.00     0.107 A 
ATOM      6  C   UNL     1      -3.866  17.245  22.780  1.00  0.00     0.134 A 
ATOM      7  C   UNL     1      -4.377  16.347  21.836  1.00  0.00     0.093 A 
ATOM      8  C   UNL     1      -5.412  16.718  20.972  1.00  0.00     0.123 A 
ATOM      9  C   UNL     1      -5.943  18.003  21.042  1.00  0.00     0.094 A 
ATOM     10  C   UNL     1      -5.431  18.933  21.950  1.00  0.00     0.146 A 
ATOM     11  O   UNL     1      -5.958  20.153  21.975  1.00  0.00    -0.456 OA
ENDROOT
BRANCH   1  12
ATOM     12  C   UNL     1      -6.202  22.442  22.731  1.00  0.00     0.021 A 
ATOM     13  C   UNL     1      -6.758  23.035  23.881  1.00  0.00     0.016 A 
ATOM     14  C   UNL     1      -7.393  24.277  23.800  1.00  0.00     0.051 A 
ATOM     15  C   UNL     1      -7.490  24.945  22.574  1.00  0.00     0.157 A 
ATOM     16  C   UNL     1      -6.316  23.113  21.500  1.00  0.00     0.062 A 
ATOM     17  C   UNL     1      -6.951  24.358  21.419  1.00  0.00     0.158 A 
BRANCH  15  18
ATOM     18  O   UNL     1      -8.123  26.185  22.499  1.00  0.00    -0.504 OA
ATOM     19  H   UNL     1      -7.666  27.034  22.811  1.00  0.00     0.293 HD
ENDBRANCH  15  18
BRANCH  17  20
ATOM     20  O   UNL     1      -7.034  24.996  20.181  1.00  0.00    -0.504 OA
ATOM     21  H   UNL     1      -6.500  25.829  19.967  1.00  0.00     0.293 HD
ENDBRANCH  17  20
ENDBRANCH   1  12
BRANCH   6  22
ATOM     22  O   UNL     1      -2.894  16.747  23.653  1.00  0.00    -0.507 OA
ATOM     23  H   UNL     1      -2.999  15.921  24.221  1.00  0.00     0.293 HD
ENDBRANCH   6  22
BRANCH   8  24
ATOM     24  O   UNL     1      -5.923  15.811  20.046  1.00  0.00    -0.508 OA
ATOM     25  H   UNL     1      -5.320  15.307  19.408  1.00  0.00     0.293 HD
ENDBRANCH   8  24
TORSDOF 5
ENDMDL
MODEL 3
REMARK VINA RESULT:    -6.530      1.383      7.371
REMARK INTER + INTRA:          -7.993
REMARK INTER:                  -7.676
REMARK INTRA:                  -0.316
REMARK UNBOUND:                -0.317
REMARK SMILES O=c1cc(-c2ccc(O)c(O)c2)oc2cc(O)cc(O)c12
REMARK SMILES IDX 4 1 3 2 2 3 1 4 21 5 19 6 18 7 16 8 15 9 14 10 13 11 5 12
REMARK SMILES IDX 6 13 7 14 8 15 12 16 10 17 9 18 11 20 20 22 17 24
REMARK H PARENT 9 19 11 21 20 23 17 25
REMARK Flexibility Score: inf
ROOT
ATOM      1  C   UNL     1      -5.391  21.071  22.909  1.00  0.00     0.138 A 
ATOM      2  C   UNL     1      -5.756  20.209  23.952  1.00  0.00     0.100 A 
ATOM      3  C   UNL     1      -5.055  19.018  24.142  1.00  0.00     0.197 A 
ATOM      4  O   UNL     1      -5.365  18.297  25.125  1.00  0.00    -0.289 OA
ATOM      5  C   UNL     1      -4.003  18.674  23.261  1.00  0.00     0.107 A 
ATOM      6  C   UNL     1      -3.245  17.467  23.333  1.00  0.00     0.134 A 
ATOM      7  C   UNL     1      -2.150  17.287  22.478  1.00  0.00     0.093 A 
ATOM      8  C   UNL     1      -1.823  18.245  21.515  1.00  0.00     0.123 A 
ATOM      9  C   UNL     1      -2.590  19.402  21.401  1.00  0.00     0.094 A 
ATOM     10  C   UNL     1      -3.667  19.626  22.262  1.00  0.00     0.146 A 
ATOM     11  O   UNL     1      -4.364  20.749  22.129  1.00  0.00    -0.456 OA
ENDROOT
BRANCH   1  12
ATOM     12  C   UNL     1      -6.104  22.349  22.661  1.00  0.00     0.021 A 
ATOM     13  C   UNL     1      -7.032  22.869  23.583  1.00  0.00     0.016 A 
ATOM     14  C   UNL     1      -7.696  24.070  23.318  1.00  0.00     0.051 A 
ATOM     15  C   UNL     1      -7.452  24.768  22.130  1.00  0.00     0.157 A 
ATOM     16  C   UNL     1      -5.874  23.049  21.463  1.00  0.00     0.062 A 
ATOM     17  C   UNL     1      -6.537  24.253  21.197  1.00  0.00     0.158 A 
BRANCH  15  18
ATOM     18  O   UNL     1      -8.115  25.966  21.871  1.00  0.00    -0.504 OA
ATOM     19  H   UNL     1      -8.987  26.201  22.332  1.00  0.00     0.293 HD
ENDBRANCH  15  18
BRANCH  17  20
ATOM     20  O   UNL     1      -6.274  24.921  20.002  1.00  0.00    -0.504 OA
ATOM     21  H   UNL     1      -6.002  25.896  19.978  1.00  0.00     0.293 HD
ENDBRANCH  17  20
ENDBRANCH   1  12
BRANCH   6  22
ATOM     22  O   UNL     1      -3.538  16.410  24.202  1.00  0.00    -0.507 OA
ATOM     23  H   UNL     1      -2.945  15.610  24.355  1.00  0.00     0.293 HD
ENDBRANCH   6  22
BRANCH   8  24
ATOM     24  O   UNL     1      -0.741  18.050  20.659  1.00  0.00    -0.508 OA
ATOM     25  H   UNL     1       0.195  18.345  20.911  1.00  0.00     0.293 HD
ENDBRANCH   8  24
TORSDOF 5
ENDMDL
MODEL 4
REMARK VINA RESULT:    -5.825     17.774     19.975
REMARK INTER + INTRA:          -7.164
REMARK INTER:                  -6.900
REMARK INTRA:                  -0.263
REMARK UNBOUND:                -0.317
REMARK SMILES O=c1cc(-c2ccc(O)c(O)c2)oc2cc(O)cc(O)c12
REMARK SMILES IDX 4 1 3 2 2 3 1 4 21 5 19 6 18 7 16 8 15 9 14 10 13 11 5 12
REMARK SMILES IDX 6 13 7 14 8 15 12 16 10 17 9 18 11 20 20 22 17 24
REMARK H PARENT 9 19 11 21 20 23 17 25
REMARK Flexibility Score: inf
ROOT
ATOM      1  C   UNL     1       7.071  27.930   7.805  1.00  0.00     0.138 A 
ATOM      2  C   UNL     1       7.092  28.665   8.999  1.00  0.00     0.100 A 
ATOM      3  C   UNL     1       5.902  28.895   9.690  1.00  0.00     0.197 A 
ATOM      4  O   UNL     1       5.962  29.503  10.790  1.00  0.00    -0.289 OA
ATOM      5  C   UNL     1       4.680  28.413   9.164  1.00  0.00     0.107 A 
ATOM      6  C   UNL     1       3.400  28.622   9.761  1.00  0.00     0.134 A 
ATOM      7  C   UNL     1       2.273  27.999   9.212  1.00  0.00     0.093 A 
ATOM      8  C   UNL     1       2.370  27.222   8.054  1.00  0.00     0.123 A 
ATOM      9  C   UNL     1       3.606  27.055   7.435  1.00  0.00     0.094 A 
ATOM     10  C   UNL     1       4.755  27.637   7.978  1.00  0.00     0.146 A 
ATOM     11  O   UNL     1       5.917  27.442   7.363  1.00  0.00    -0.456 OA
ENDROOT
BRANCH   1  12
ATOM     12  C   UNL     1       8.307  27.657   7.030  1.00  0.00     0.021 A 
ATOM     13  C   UNL     1       8.531  28.236   5.767  1.00  0.00     0.016 A 
ATOM     14  C   UNL     1       9.700  27.953   5.055  1.00  0.00     0.051 A 
ATOM     15  C   UNL     1      10.661  27.085   5.588  1.00  0.00     0.157 A 
ATOM     16  C   UNL     1       9.271  26.776   7.553  1.00  0.00     0.062 A 
ATOM     17  C   UNL     1      10.443  26.493   6.842  1.00  0.00     0.158 A 
BRANCH  15  18
ATOM     18  O   UNL     1      11.826  26.807   4.875  1.00  0.00    -0.504 OA
ATOM     19  H   UNL     1      11.807  26.614   3.880  1.00  0.00     0.293 HD
ENDBRANCH  15  18
BRANCH  17  20
ATOM     20  O   UNL     1      11.379  25.620   7.398  1.00  0.00    -0.504 OA
ATOM     21  H   UNL     1      11.447  25.470   8.397  1.00  0.00     0.293 HD
ENDBRANCH  17  20
ENDBRANCH   1  12
BRANCH   6  22
ATOM     22  O   UNL     1       3.180  29.447  10.869  1.00  0.00    -0.507 OA
ATOM     23  H   UNL     1       2.463  30.153  10.926  1.00  0.00     0.293 HD
ENDBRANCH   6  22
BRANCH   8  24
ATOM     24  O   UNL     1       1.240  26.617   7.508  1.00  0.00    -0.508 OA
ATOM     25  H   UNL     1       0.900  25.725   7.845  1.00  0.00     0.293 HD
ENDBRANCH   8  24
TORSDOF 5
ENDMDL
MODEL 5
REMARK VINA RESULT:    -5.581     18.210     20.236
REMARK INTER + INTRA:          -6.876
REMARK INTER:                  -6.576
REMARK INTRA:                  -0.301
REMARK UNBOUND:                -0.317
REMARK SMILES O=c1cc(-c2ccc(O)c(O)c2)oc2cc(O)cc(O)c12
REMARK SMILES IDX 4 1 3 2 2 3 1 4 21 5 19 6 18 7 16 8 15 9 14 10 13 11 5 12
REMARK SMILES IDX 6 13 7 14 8 15 12 16 10 17 9 18 11 20 20 22 17 24
REMARK H PARENT 9 19 11 21 20 23 17 25
REMARK Flexibility Score: inf
ROOT
ATOM      1  C   UNL     1       6.709  27.786   6.497  1.00  0.00     0.138 A 
ATOM      2  C   UNL     1       6.280  28.755   5.579  1.00  0.00     0.100 A 
ATOM      3  C   UNL     1       4.989  29.274   5.675  1.00  0.00     0.197 A 
ATOM      4  O   UNL     1       4.655  30.187   4.876  1.00  0.00    -0.289 OA
ATOM      5  C   UNL     1       4.112  28.796   6.677  1.00  0.00     0.107 A 
ATOM      6  C   UNL     1       2.761  29.223   6.845  1.00  0.00     0.134 A 
ATOM      7  C   UNL     1       2.024  28.765   7.944  1.00  0.00     0.093 A 
ATOM      8  C   UNL     1       2.571  27.850   8.848  1.00  0.00     0.123 A 
ATOM      9  C   UNL     1       3.871  27.387   8.663  1.00  0.00     0.094 A 
ATOM     10  C   UNL     1       4.643  27.852   7.595  1.00  0.00     0.146 A 
ATOM     11  O   UNL     1       5.884  27.395   7.462  1.00  0.00    -0.456 OA
ENDROOT
BRANCH   1  12
ATOM     12  C   UNL     1       8.071  27.200   6.439  1.00  0.00     0.021 A 
ATOM     13  C   UNL     1       8.699  26.907   5.214  1.00  0.00     0.016 A 
ATOM     14  C   UNL     1       9.979  26.345   5.190  1.00  0.00     0.051 A 
ATOM     15  C   UNL     1      10.650  26.060   6.386  1.00  0.00     0.157 A 
ATOM     16  C   UNL     1       8.746  26.899   7.636  1.00  0.00     0.062 A 
ATOM     17  C   UNL     1      10.029  26.337   7.614  1.00  0.00     0.158 A 
BRANCH  15  18
ATOM     18  O   UNL     1      11.926  25.502   6.357  1.00  0.00    -0.504 OA
ATOM     19  H   UNL     1      12.067  24.502   6.263  1.00  0.00     0.293 HD
ENDBRANCH  15  18
BRANCH  17  20
ATOM     20  O   UNL     1      10.668  26.062   8.823  1.00  0.00    -0.504 OA
ATOM     21  H   UNL     1      10.511  26.618   9.654  1.00  0.00     0.293 HD
ENDBRANCH  17  20
ENDBRANCH   1  12
BRANCH   6  22
ATOM     22  O   UNL     1       2.091  30.068   5.954  1.00  0.00    -0.507 OA
ATOM     23  H   UNL     1       1.289  29.805   5.405  1.00  0.00     0.293 HD
ENDBRANCH   6  22
BRANCH   8  24
ATOM     24  O   UNL     1       1.825  27.389   9.931  1.00  0.00    -0.508 OA
ATOM     25  H   UNL     1       0.813  27.349   9.900  1.00  0.00     0.293 HD
ENDBRANCH   8  24
TORSDOF 5
ENDMDL
MODEL 6
REMARK VINA RESULT:    -5.418      1.740      7.146
REMARK INTER + INTRA:          -6.685
REMARK INTER:                  -6.415
REMARK INTRA:                  -0.270
REMARK UNBOUND:                -0.317
REMARK SMILES O=c1cc(-c2ccc(O)c(O)c2)oc2cc(O)cc(O)c12
REMARK SMILES IDX 4 1 3 2 2 3 1 4 21 5 19 6 18 7 16 8 15 9 14 10 13 11 5 12
REMARK SMILES IDX 6 13 7 14 8 15 12 16 10 17 9 18 11 20 20 22 17 24
REMARK H PARENT 9 19 11 21 20 23 17 25
REMARK Flexibility Score: inf
ROOT
ATOM      1  C   UNL     1      -4.792  20.406  22.966  1.00  0.00     0.138 A 
ATOM      2  C   UNL     1      -5.594  19.308  23.305  1.00  0.00     0.100 A 
ATOM      3  C   UNL     1      -5.023  18.204  23.938  1.00  0.00     0.197 A 
ATOM      4  O   UNL     1      -5.780  17.261  24.286  1.00  0.00    -0.289 OA
ATOM      5  C   UNL     1      -3.633  18.187  24.202  1.00  0.00     0.107 A 
ATOM      6  C   UNL     1      -2.934  17.098  24.806  1.00  0.00     0.134 A 
ATOM      7  C   UNL     1      -1.578  17.241  25.124  1.00  0.00     0.093 A 
ATOM      8  C   UNL     1      -0.882  18.411  24.808  1.00  0.00     0.123 A 
ATOM      9  C   UNL     1      -1.543  19.459  24.171  1.00  0.00     0.094 A 
ATOM     10  C   UNL     1      -2.904  19.359  23.871  1.00  0.00     0.146 A 
ATOM     11  O   UNL     1      -3.500  20.387  23.275  1.00  0.00    -0.456 OA
ENDROOT
BRANCH   1  12
ATOM     12  C   UNL     1      -5.348  21.605  22.291  1.00  0.00     0.021 A 
ATOM     13  C   UNL     1      -4.769  22.131  21.120  1.00  0.00     0.016 A 
ATOM     14  C   UNL     1      -5.309  23.268  20.512  1.00  0.00     0.051 A 
ATOM     15  C   UNL     1      -6.429  23.902  21.064  1.00  0.00     0.157 A 
ATOM     16  C   UNL     1      -6.465  22.256  22.846  1.00  0.00     0.062 A 
ATOM     17  C   UNL     1      -7.007  23.394  22.238  1.00  0.00     0.158 A 
BRANCH  15  18
ATOM     18  O   UNL     1      -6.964  25.035  20.453  1.00  0.00    -0.504 OA
ATOM     19  H   UNL     1      -7.544  24.967  19.624  1.00  0.00     0.293 HD
ENDBRANCH  15  18
BRANCH  17  20
ATOM     20  O   UNL     1      -8.121  24.005  22.815  1.00  0.00    -0.504 OA
ATOM     21  H   UNL     1      -8.459  24.908  22.508  1.00  0.00     0.293 HD
ENDBRANCH  17  20
ENDBRANCH   1  12
BRANCH   6  22
ATOM     22  O   UNL     1      -3.514  15.857  25.086  1.00  0.00    -0.507 OA
ATOM     23  H   UNL     1      -4.314  15.475  24.609  1.00  0.00     0.293 HD
ENDBRANCH   6  22
BRANCH   8  24
ATOM     24  O   UNL     1       0.471  18.538  25.116  1.00  0.00    -0.508 OA
ATOM     25  H   UNL     1       1.185  18.067  24.573  1.00  0.00     0.293 HD
ENDBRANCH   8  24
TORSDOF 5
ENDMDL
MODEL 7
REMARK VINA RESULT:    -5.377     18.534     20.722
REMARK INTER + INTRA:          -6.637
REMARK INTER:                  -6.350
REMARK INTRA:                  -0.287
REMARK UNBOUND:                -0.317
REMARK SMILES O=c1cc(-c2ccc(O)c(O)c2)oc2cc(O)cc(O)c12
REMARK SMILES IDX 4 1 3 2 2 3 1 4 21 5 19 6 18 7 16 8 15 9 14 10 13 11 5 12
REMARK SMILES IDX 6 13 7 14 8 15 12 16 10 17 9 18 11 20 20 22 17 24
REMARK H PARENT 9 19 11 21 20 23 17 25
REMARK Flexibility Score: inf
ROOT
ATOM      1  C   UNL     1       6.522  27.763   6.645  1.00  0.00     0.138 A 
ATOM      2  C   UNL     1       5.769  26.906   7.460  1.00  0.00     0.100 A 
ATOM      3  C   UNL     1       4.408  27.148   7.646  1.00  0.00     0.197 A 
ATOM      4  O   UNL     1       3.747  26.326   8.331  1.00  0.00    -0.289 OA
ATOM      5  C   UNL     1       3.805  28.274   7.037  1.00  0.00     0.107 A 
ATOM      6  C   UNL     1       2.434  28.643   7.189  1.00  0.00     0.134 A 
ATOM      7  C   UNL     1       1.921  29.713   6.445  1.00  0.00     0.093 A 
ATOM      8  C   UNL     1       2.743  30.464   5.600  1.00  0.00     0.123 A 
ATOM      9  C   UNL     1       4.094  30.144   5.486  1.00  0.00     0.094 A 
ATOM     10  C   UNL     1       4.628  29.061   6.189  1.00  0.00     0.146 A 
ATOM     11  O   UNL     1       5.919  28.782   6.042  1.00  0.00    -0.456 OA
ENDROOT
BRANCH   1  12
ATOM     12  C   UNL     1       7.973  27.553   6.415  1.00  0.00     0.021 A 
ATOM     13  C   UNL     1       8.601  27.964   5.224  1.00  0.00     0.016 A 
ATOM     14  C   UNL     1       9.968  27.743   5.031  1.00  0.00     0.051 A 
ATOM     15  C   UNL     1      10.728  27.104   6.017  1.00  0.00     0.157 A 
ATOM     16  C   UNL     1       8.741  26.900   7.396  1.00  0.00     0.062 A 
ATOM     17  C   UNL     1      10.110  26.679   7.204  1.00  0.00     0.158 A 
BRANCH  15  18
ATOM     18  O   UNL     1      12.091  26.888   5.821  1.00  0.00    -0.504 OA
ATOM     19  H   UNL     1      12.501  25.966   5.915  1.00  0.00     0.293 HD
ENDBRANCH  15  18
BRANCH  17  20
ATOM     20  O   UNL     1      10.839  26.036   8.205  1.00  0.00    -0.504 OA
ATOM     21  H   UNL     1      11.153  25.078   8.112  1.00  0.00     0.293 HD
ENDBRANCH  17  20
ENDBRANCH   1  12
BRANCH   6  22
ATOM     22  O   UNL     1       1.548  28.013   8.069  1.00  0.00    -0.507 OA
ATOM     23  H   UNL     1       1.802  27.636   8.968  1.00  0.00     0.293 HD
ENDBRANCH   6  22
BRANCH   8  24
ATOM     24  O   UNL     1       2.226  31.536   4.875  1.00  0.00    -0.508 OA
ATOM     25  H   UNL     1       2.377  32.494   5.166  1.00  0.00     0.293 HD
ENDBRANCH   8  24
TORSDOF 5
ENDMDL
