MODEL 1
REMARK VINA RESULT:     3.082      0.000      0.000
REMARK INTER + INTRA:           5.931
REMARK INTER:                   5.964
REMARK INTRA:                  -0.034
REMARK UNBOUND:                -0.034
REMARK SMILES CCCCCCCCCCCCCCCCCC(=O)[O-]
REMARK SMILES IDX 10 1 11 2 12 3 13 4 14 5 15 6 16 7 17 8 18 9 19 10 20 11
REMARK SMILES IDX 9 12 8 13 7 14 6 15 5 16 4 17 3 18 2 19 1 20
REMARK H PARENT
REMARK Flexibility Score: inf
ROOT
ATOM      1  C   UNL     1      58.685  -3.044  -4.656  1.00  0.00     0.000 C 
ENDROOT
BRANCH   1   2
ATOM      2  C   UNL     1      58.115  -2.166  -5.781  1.00  0.00     0.000 C 
BRANCH   2   3
ATOM      3  C   UNL     1      58.705  -0.749  -5.725  1.00  0.00     0.000 C 
BRANCH   3   4
ATOM      4  C   UNL     1      57.814   0.291  -6.424  1.00  0.00     0.000 C 
BRANCH   4   5
ATOM      5  C   UNL     1      56.321  -0.075  -6.357  1.00  0.00     0.000 C 
BRANCH   5   6
ATOM      6  C   UNL     1      55.886  -0.570  -4.964  1.00  0.00     0.000 C 
BRANCH   6   7
ATOM      7  C   UNL     1      54.718  -1.571  -4.963  1.00  0.00     0.006 C 
BRANCH   7   8
ATOM      8  C   UNL     1      53.346  -0.886  -4.895  1.00  0.00     0.053 C 
BRANCH   8   9
ATOM      9  C   UNL     1      52.251  -1.906  -4.905  1.00  0.00     0.041 C 
ATOM     10  O   UNL     1      51.791  -2.331  -5.999  1.00  0.00    -0.550 OA
ATOM     11  O   UNL     1      51.703  -2.352  -3.708  1.00  0.00    -0.550 OA
ENDBRANCH   8   9
ENDBRANCH   7   8
ENDBRANCH   6   7
ENDBRANCH   5   6
ENDBRANCH   4   5
ENDBRANCH   3   4
ENDBRANCH   2   3
ENDBRANCH   1   2
BRANCH   1  12
ATOM     12  C   UNL     1      58.894  -4.508  -5.083  1.00  0.00     0.000 C 
BRANCH  12  13
ATOM     13  C   UNL     1      58.521  -5.556  -4.019  1.00  0.00    -0.000 C 
BRANCH  13  14
ATOM     14  C   UNL     1      59.076  -5.220  -2.628  1.00  0.00    -0.000 C 
BRANCH  14  15
ATOM     15  C   UNL     1      59.032  -6.447  -1.705  1.00  0.00    -0.000 C 
BRANCH  15  16
ATOM     16  C   UNL     1      59.124  -6.058  -0.213  1.00  0.00    -0.000 C 
BRANCH  16  17
ATOM     17  C   UNL     1      57.902  -6.495   0.615  1.00  0.00    -0.000 C 
BRANCH  17  18
ATOM     18  C   UNL     1      57.992  -6.065   2.086  1.00  0.00    -0.000 C 
BRANCH  18  19
ATOM     19  C   UNL     1      58.927  -6.992   2.872  1.00  0.00    -0.003 C 
ATOM     20  C   UNL     1      58.477  -7.125   4.325  1.00  0.00     0.004 C 
ENDBRANCH  18  19
ENDBRANCH  17  18
ENDBRANCH  16  17
ENDBRANCH  15  16
ENDBRANCH  14  15
ENDBRANCH  13  14
ENDBRANCH  12  13
ENDBRANCH   1  12
TORSDOF 16
ENDMDL
