MODEL 1
REMARK VINA RESULT:    -4.411      0.000      0.000
REMARK INTER + INTRA:          -9.130
REMARK INTER:                  -8.279
REMARK INTRA:                  -0.851
REMARK UNBOUND:                -0.851
REMARK SMILES CCCCCCCCC=CCCCCCCCC(=O)[O-]
REMARK SMILES IDX 10 1 9 2 11 3 12 4 13 5 14 6 15 7 16 8 17 9 18 10 19 11
REMARK SMILES IDX 20 12 8 13 7 14 6 15 5 16 4 17 3 18 2 19 1 20
REMARK H PARENT
REMARK Flexibility Score: inf
ROOT
ATOM      1  C   UNL     1      44.006  27.737   1.558  1.00  0.00    -0.031 C 
ATOM      2  C   UNL     1      44.178  27.005   2.675  1.00  0.00    -0.031 C 
ENDROOT
BRANCH   1   3
ATOM      3  C   UNL     1      44.898  28.877   1.136  1.00  0.00     0.027 C 
BRANCH   3   4
ATOM      4  C   UNL     1      46.026  28.369   0.228  1.00  0.00     0.004 C 
BRANCH   4   5
ATOM      5  C   UNL     1      46.027  29.042  -1.154  1.00  0.00     0.000 C 
BRANCH   5   6
ATOM      6  C   UNL     1      46.707  28.178  -2.231  1.00  0.00     0.000 C 
BRANCH   6   7
ATOM      7  C   UNL     1      45.702  27.445  -3.134  1.00  0.00     0.000 C 
BRANCH   7   8
ATOM      8  C   UNL     1      45.556  28.014  -4.560  1.00  0.00     0.006 C 
BRANCH   8   9
ATOM      9  C   UNL     1      44.297  28.876  -4.767  1.00  0.00     0.053 C 
BRANCH   9  10
ATOM     10  C   UNL     1      43.279  28.211  -5.643  1.00  0.00     0.041 C 
ATOM     11  O   UNL     1      43.625  27.685  -6.734  1.00  0.00    -0.550 OA
ATOM     12  O   UNL     1      41.939  28.209  -5.277  1.00  0.00    -0.550 OA
ENDBRANCH   9  10
ENDBRANCH   8   9
ENDBRANCH   7   8
ENDBRANCH   6   7
ENDBRANCH   5   6
ENDBRANCH   4   5
ENDBRANCH   3   4
ENDBRANCH   1   3
BRANCH   2  13
ATOM     13  C   UNL     1      45.237  27.271   3.717  1.00  0.00     0.027 C 
BRANCH  13  14
ATOM     14  C   UNL     1      45.970  25.985   4.149  1.00  0.00     0.004 C 
BRANCH  14  15
ATOM     15  C   UNL     1      47.065  26.219   5.204  1.00  0.00     0.000 C 
BRANCH  15  16
ATOM     16  C   UNL     1      46.643  27.217   6.291  1.00  0.00     0.000 C 
BRANCH  16  17
ATOM     17  C   UNL     1      45.926  26.505   7.444  1.00  0.00    -0.000 C 
BRANCH  17  18
ATOM     18  C   UNL     1      45.836  27.409   8.679  1.00  0.00    -0.000 C 
BRANCH  18  19
ATOM     19  C   UNL     1      45.542  28.859   8.279  1.00  0.00    -0.003 C 
ATOM     20  C   UNL     1      44.787  29.593   9.384  1.00  0.00     0.004 C 
ENDBRANCH  18  19
ENDBRANCH  17  18
ENDBRANCH  16  17
ENDBRANCH  15  16
ENDBRANCH  14  15
ENDBRANCH  13  14
ENDBRANCH   2  13
TORSDOF 15
ENDMDL
MODEL 2
REMARK VINA RESULT:    -4.358      1.407      2.169
REMARK INTER + INTRA:          -9.030
REMARK INTER:                  -7.684
REMARK INTRA:                  -1.346
REMARK UNBOUND:                -0.851
REMARK SMILES CCCCCCCCC=CCCCCCCCC(=O)[O-]
REMARK SMILES IDX 10 1 9 2 11 3 12 4 13 5 14 6 15 7 16 8 17 9 18 10 19 11
REMARK SMILES IDX 20 12 8 13 7 14 6 15 5 16 4 17 3 18 2 19 1 20
REMARK H PARENT
REMARK Flexibility Score: inf
ROOT
ATOM      1  C   UNL     1      43.973  26.839   2.794  1.00  0.00    -0.031 C 
ATOM      2  C   UNL     1      44.952  26.322   3.558  1.00  0.00    -0.031 C 
ENDROOT
BRANCH   1   3
ATOM      3  C   UNL     1      44.197  27.569   1.493  1.00  0.00     0.027 C 
BRANCH   3   4
ATOM      4  C   UNL     1      44.438  29.063   1.751  1.00  0.00     0.004 C 
BRANCH   4   5
ATOM      5  C   UNL     1      45.396  29.695   0.730  1.00  0.00     0.000 C 
BRANCH   5   6
ATOM      6  C   UNL     1      46.269  28.649   0.013  1.00  0.00     0.000 C 
BRANCH   6   7
ATOM      7  C   UNL     1      46.451  28.944  -1.485  1.00  0.00     0.000 C 
BRANCH   7   8
ATOM      8  C   UNL     1      46.087  27.787  -2.436  1.00  0.00     0.006 C 
BRANCH   8   9
ATOM      9  C   UNL     1      46.652  27.941  -3.861  1.00  0.00     0.053 C 
BRANCH   9  10
ATOM     10  C   UNL     1      45.731  27.395  -4.910  1.00  0.00     0.041 C 
ATOM     11  O   UNL     1      46.022  27.505  -6.131  1.00  0.00    -0.550 OA
ATOM     12  O   UNL     1      44.531  26.802  -4.542  1.00  0.00    -0.550 OA
ENDBRANCH   9  10
ENDBRANCH   8   9
ENDBRANCH   7   8
ENDBRANCH   6   7
ENDBRANCH   5   6
ENDBRANCH   4   5
ENDBRANCH   3   4
ENDBRANCH   1   3
BRANCH   2  13
ATOM     13  C   UNL     1      46.428  26.470   3.274  1.00  0.00     0.027 C 
BRANCH  13  14
ATOM     14  C   UNL     1      47.088  27.554   4.150  1.00  0.00     0.004 C 
BRANCH  14  15
ATOM     15  C   UNL     1      46.732  27.447   5.643  1.00  0.00     0.000 C 
BRANCH  15  16
ATOM     16  C   UNL     1      46.221  28.770   6.231  1.00  0.00     0.000 C 
BRANCH  16  17
ATOM     17  C   UNL     1      46.537  28.864   7.729  1.00  0.00    -0.000 C 
BRANCH  17  18
ATOM     18  C   UNL     1      45.251  28.981   8.556  1.00  0.00    -0.000 C 
BRANCH  18  19
ATOM     19  C   UNL     1      45.182  27.882   9.623  1.00  0.00    -0.003 C 
ATOM     20  C   UNL     1      45.572  26.526   9.043  1.00  0.00     0.004 C 
ENDBRANCH  18  19
ENDBRANCH  17  18
ENDBRANCH  16  17
ENDBRANCH  15  16
ENDBRANCH  14  15
ENDBRANCH  13  14
ENDBRANCH   2  13
TORSDOF 15
ENDMDL
MODEL 3
REMARK VINA RESULT:    -4.315      5.042     10.355
REMARK INTER + INTRA:          -8.950
REMARK INTER:                  -7.736
REMARK INTRA:                  -1.214
REMARK UNBOUND:                -0.851
REMARK SMILES CCCCCCCCC=CCCCCCCCC(=O)[O-]
REMARK SMILES IDX 10 1 9 2 11 3 12 4 13 5 14 6 15 7 16 8 17 9 18 10 19 11
REMARK SMILES IDX 20 12 8 13 7 14 6 15 5 16 4 17 3 18 2 19 1 20
REMARK H PARENT
REMARK Flexibility Score: inf
ROOT
ATOM      1  C   UNL     1      44.289  28.695   2.235  1.00  0.00    -0.031 C 
ATOM      2  C   UNL     1      45.250  29.303   1.514  1.00  0.00    -0.031 C 
ENDROOT
BRANCH   1   3
ATOM      3  C   UNL     1      43.946  27.230   2.140  1.00  0.00     0.027 C 
BRANCH   3   4
ATOM      4  C   UNL     1      44.438  26.481   3.386  1.00  0.00     0.004 C 
BRANCH   4   5
ATOM      5  C   UNL     1      45.968  26.339   3.428  1.00  0.00     0.000 C 
BRANCH   5   6
ATOM      6  C   UNL     1      46.541  26.555   4.840  1.00  0.00     0.000 C 
BRANCH   6   7
ATOM      7  C   UNL     1      46.320  27.984   5.365  1.00  0.00     0.000 C 
BRANCH   7   8
ATOM      8  C   UNL     1      46.270  28.124   6.900  1.00  0.00     0.006 C 
BRANCH   8   9
ATOM      9  C   UNL     1      46.064  26.794   7.647  1.00  0.00     0.053 C 
BRANCH   9  10
ATOM     10  C   UNL     1      45.571  26.990   9.049  1.00  0.00     0.041 C 
ATOM     11  O   UNL     1      45.155  28.118   9.425  1.00  0.00    -0.550 OA
ATOM     12  O   UNL     1      45.610  25.938   9.955  1.00  0.00    -0.550 OA
ENDBRANCH   9  10
ENDBRANCH   8   9
ENDBRANCH   7   8
ENDBRANCH   6   7
ENDBRANCH   5   6
ENDBRANCH   4   5
ENDBRANCH   3   4
ENDBRANCH   1   3
BRANCH   2  13
ATOM     13  C   UNL     1      46.070  28.629   0.441  1.00  0.00     0.027 C 
BRANCH  13  14
ATOM     14  C   UNL     1      46.043  29.404  -0.892  1.00  0.00     0.004 C 
BRANCH  14  15
ATOM     15  C   UNL     1      46.736  28.671  -2.051  1.00  0.00     0.000 C 
BRANCH  15  16
ATOM     16  C   UNL     1      45.806  27.692  -2.781  1.00  0.00     0.000 C 
BRANCH  16  17
ATOM     17  C   UNL     1      46.312  27.405  -4.200  1.00  0.00    -0.000 C 
BRANCH  17  18
ATOM     18  C   UNL     1      45.716  28.395  -5.208  1.00  0.00    -0.000 C 
BRANCH  18  19
ATOM     19  C   UNL     1      44.219  28.601  -4.956  1.00  0.00    -0.003 C 
ATOM     20  C   UNL     1      43.394  27.486  -5.592  1.00  0.00     0.004 C 
ENDBRANCH  18  19
ENDBRANCH  17  18
ENDBRANCH  16  17
ENDBRANCH  15  16
ENDBRANCH  14  15
ENDBRANCH  13  14
ENDBRANCH   2  13
TORSDOF 15
ENDMDL
MODEL 4
REMARK VINA RESULT:    -4.272      2.391      4.096
REMARK INTER + INTRA:          -8.869
REMARK INTER:                  -7.449
REMARK INTRA:                  -1.420
REMARK UNBOUND:                -0.851
REMARK SMILES CCCCCCCCC=CCCCCCCCC(=O)[O-]
REMARK SMILES IDX 10 1 9 2 11 3 12 4 13 5 14 6 15 7 16 8 17 9 18 10 19 11
REMARK SMILES IDX 20 12 8 13 7 14 6 15 5 16 4 17 3 18 2 19 1 20
REMARK H PARENT
REMARK Flexibility Score: inf
ROOT
ATOM      1  C   UNL     1      46.387  28.750  -1.350  1.00  0.00    -0.031 C 
ATOM      2  C   UNL     1      46.097  28.823  -0.038  1.00  0.00    -0.031 C 
ENDROOT
BRANCH   1   3
ATOM      3  C   UNL     1      45.974  29.776  -2.376  1.00  0.00     0.027 C 
BRANCH   3   4
ATOM      4  C   UNL     1      45.331  29.092  -3.590  1.00  0.00     0.004 C 
BRANCH   4   5
ATOM      5  C   UNL     1      45.764  27.627  -3.746  1.00  0.00     0.000 C 
BRANCH   5   6
ATOM      6  C   UNL     1      45.627  27.122  -5.194  1.00  0.00     0.000 C 
BRANCH   6   7
ATOM      7  C   UNL     1      45.385  28.256  -6.204  1.00  0.00     0.000 C 
BRANCH   7   8
ATOM      8  C   UNL     1      44.092  28.137  -7.036  1.00  0.00     0.006 C 
BRANCH   8   9
ATOM      9  C   UNL     1      43.222  29.408  -7.031  1.00  0.00     0.053 C 
BRANCH   9  10
ATOM     10  C   UNL     1      41.963  29.242  -6.234  1.00  0.00     0.041 C 
ATOM     11  O   UNL     1      40.989  30.021  -6.415  1.00  0.00    -0.550 OA
ATOM     12  O   UNL     1      41.880  28.256  -5.260  1.00  0.00    -0.550 OA
ENDBRANCH   9  10
ENDBRANCH   8   9
ENDBRANCH   7   8
ENDBRANCH   6   7
ENDBRANCH   5   6
ENDBRANCH   4   5
ENDBRANCH   3   4
ENDBRANCH   1   3
BRANCH   2  13
ATOM     13  C   UNL     1      45.241  29.895   0.591  1.00  0.00     0.027 C 
BRANCH  13  14
ATOM     14  C   UNL     1      44.806  29.533   2.025  1.00  0.00     0.004 C 
BRANCH  14  15
ATOM     15  C   UNL     1      43.356  29.029   2.125  1.00  0.00     0.000 C 
BRANCH  15  16
ATOM     16  C   UNL     1      43.265  27.525   2.417  1.00  0.00     0.000 C 
BRANCH  16  17
ATOM     17  C   UNL     1      44.660  26.891   2.480  1.00  0.00    -0.000 C 
BRANCH  17  18
ATOM     18  C   UNL     1      44.838  26.079   3.769  1.00  0.00    -0.000 C 
BRANCH  18  19
ATOM     19  C   UNL     1      46.230  26.300   4.370  1.00  0.00    -0.003 C 
ATOM     20  C   UNL     1      47.124  27.088   3.416  1.00  0.00     0.004 C 
ENDBRANCH  18  19
ENDBRANCH  17  18
ENDBRANCH  16  17
ENDBRANCH  15  16
ENDBRANCH  14  15
ENDBRANCH  13  14
ENDBRANCH   2  13
TORSDOF 15
ENDMDL
MODEL 5
REMARK VINA RESULT:    -4.185      5.446     10.963
REMARK INTER + INTRA:          -8.706
REMARK INTER:                  -7.858
REMARK INTRA:                  -0.848
REMARK UNBOUND:                -0.851
REMARK SMILES CCCCCCCCC=CCCCCCCCC(=O)[O-]
REMARK SMILES IDX 10 1 9 2 11 3 12 4 13 5 14 6 15 7 16 8 17 9 18 10 19 11
REMARK SMILES IDX 20 12 8 13 7 14 6 15 5 16 4 17 3 18 2 19 1 20
REMARK H PARENT
REMARK Flexibility Score: inf
ROOT
ATOM      1  C   UNL     1      44.157  26.891   3.043  1.00  0.00    -0.031 C 
ATOM      2  C   UNL     1      44.106  27.583   1.890  1.00  0.00    -0.031 C 
ENDROOT
BRANCH   1   3
ATOM      3  C   UNL     1      45.422  26.355   3.666  1.00  0.00     0.027 C 
BRANCH   3   4
ATOM      4  C   UNL     1      46.006  27.372   4.655  1.00  0.00     0.004 C 
BRANCH   4   5
ATOM      5  C   UNL     1      46.466  26.725   5.971  1.00  0.00     0.000 C 
BRANCH   5   6
ATOM      6  C   UNL     1      46.884  27.766   7.026  1.00  0.00     0.000 C 
BRANCH   6   7
ATOM      7  C   UNL     1      45.706  28.614   7.532  1.00  0.00     0.000 C 
BRANCH   7   8
ATOM      8  C   UNL     1      45.361  28.443   9.025  1.00  0.00     0.006 C 
BRANCH   8   9
ATOM      9  C   UNL     1      46.569  28.094   9.914  1.00  0.00     0.053 C 
BRANCH   9  10
ATOM     10  C   UNL     1      46.442  26.747  10.559  1.00  0.00     0.041 C 
ATOM     11  O   UNL     1      45.886  25.798   9.944  1.00  0.00    -0.550 OA
ATOM     12  O   UNL     1      46.899  26.548  11.855  1.00  0.00    -0.550 OA
ENDBRANCH   9  10
ENDBRANCH   8   9
ENDBRANCH   7   8
ENDBRANCH   6   7
ENDBRANCH   5   6
ENDBRANCH   4   5
ENDBRANCH   3   4
ENDBRANCH   1   3
BRANCH   2  13
ATOM     13  C   UNL     1      45.296  27.852   1.001  1.00  0.00     0.027 C 
BRANCH  13  14
ATOM     14  C   UNL     1      45.402  29.336   0.596  1.00  0.00     0.004 C 
BRANCH  14  15
ATOM     15  C   UNL     1      46.082  29.562  -0.765  1.00  0.00     0.000 C 
BRANCH  15  16
ATOM     16  C   UNL     1      46.231  28.270  -1.580  1.00  0.00     0.000 C 
BRANCH  16  17
ATOM     17  C   UNL     1      46.085  28.546  -3.081  1.00  0.00    -0.000 C 
BRANCH  17  18
ATOM     18  C   UNL     1      46.205  27.251  -3.893  1.00  0.00    -0.000 C 
BRANCH  18  19
ATOM     19  C   UNL     1      45.609  27.424  -5.295  1.00  0.00    -0.003 C 
ATOM     20  C   UNL     1      44.095  27.605  -5.231  1.00  0.00     0.004 C 
ENDBRANCH  18  19
ENDBRANCH  17  18
ENDBRANCH  16  17
ENDBRANCH  15  16
ENDBRANCH  14  15
ENDBRANCH  13  14
ENDBRANCH   2  13
TORSDOF 15
ENDMDL
MODEL 6
REMARK VINA RESULT:    -4.158      0.825      1.310
REMARK INTER + INTRA:          -8.655
REMARK INTER:                  -7.483
REMARK INTRA:                  -1.172
REMARK UNBOUND:                -0.851
REMARK SMILES CCCCCCCCC=CCCCCCCCC(=O)[O-]
REMARK SMILES IDX 10 1 9 2 11 3 12 4 13 5 14 6 15 7 16 8 17 9 18 10 19 11
REMARK SMILES IDX 20 12 8 13 7 14 6 15 5 16 4 17 3 18 2 19 1 20
REMARK H PARENT
REMARK Flexibility Score: inf
ROOT
ATOM      1  C   UNL     1      44.940  27.893   1.211  1.00  0.00    -0.031 C 
ATOM      2  C   UNL     1      44.576  28.277   2.448  1.00  0.00    -0.031 C 
ENDROOT
BRANCH   1   3
ATOM      3  C   UNL     1      46.232  28.286   0.538  1.00  0.00     0.027 C 
BRANCH   3   4
ATOM      4  C   UNL     1      45.951  29.128  -0.714  1.00  0.00     0.004 C 
BRANCH   4   5
ATOM      5  C   UNL     1      46.712  28.627  -1.951  1.00  0.00     0.000 C 
BRANCH   5   6
ATOM      6  C   UNL     1      45.956  27.516  -2.700  1.00  0.00     0.000 C 
BRANCH   6   7
ATOM      7  C   UNL     1      46.304  27.457  -4.197  1.00  0.00     0.000 C 
BRANCH   7   8
ATOM      8  C   UNL     1      45.633  28.532  -5.075  1.00  0.00     0.006 C 
BRANCH   8   9
ATOM      9  C   UNL     1      44.172  28.835  -4.692  1.00  0.00     0.053 C 
BRANCH   9  10
ATOM     10  C   UNL     1      43.186  28.169  -5.604  1.00  0.00     0.041 C 
ATOM     11  O   UNL     1      43.587  27.443  -6.553  1.00  0.00    -0.550 OA
ATOM     12  O   UNL     1      41.825  28.383  -5.434  1.00  0.00    -0.550 OA
ENDBRANCH   9  10
ENDBRANCH   8   9
ENDBRANCH   7   8
ENDBRANCH   6   7
ENDBRANCH   5   6
ENDBRANCH   4   5
ENDBRANCH   3   4
ENDBRANCH   1   3
BRANCH   2  13
ATOM     13  C   UNL     1      45.363  29.229   3.315  1.00  0.00     0.027 C 
BRANCH  13  14
ATOM     14  C   UNL     1      46.010  28.523   4.524  1.00  0.00     0.004 C 
BRANCH  14  15
ATOM     15  C   UNL     1      45.925  26.989   4.465  1.00  0.00     0.000 C 
BRANCH  15  16
ATOM     16  C   UNL     1      46.921  26.299   5.407  1.00  0.00     0.000 C 
BRANCH  16  17
ATOM     17  C   UNL     1      47.028  27.049   6.740  1.00  0.00    -0.000 C 
BRANCH  17  18
ATOM     18  C   UNL     1      46.010  26.518   7.755  1.00  0.00    -0.000 C 
BRANCH  18  19
ATOM     19  C   UNL     1      45.634  27.599   8.775  1.00  0.00    -0.003 C 
ATOM     20  C   UNL     1      45.513  28.966   8.109  1.00  0.00     0.004 C 
ENDBRANCH  18  19
ENDBRANCH  17  18
ENDBRANCH  16  17
ENDBRANCH  15  16
ENDBRANCH  14  15
ENDBRANCH  13  14
ENDBRANCH   2  13
TORSDOF 15
ENDMDL
MODEL 7
REMARK VINA RESULT:    -3.955      3.743      9.333
REMARK INTER + INTRA:          -8.273
REMARK INTER:                  -6.881
REMARK INTRA:                  -1.392
REMARK UNBOUND:                -0.851
REMARK SMILES CCCCCCCCC=CCCCCCCCC(=O)[O-]
REMARK SMILES IDX 10 1 9 2 11 3 12 4 13 5 14 6 15 7 16 8 17 9 18 10 19 11
REMARK SMILES IDX 20 12 8 13 7 14 6 15 5 16 4 17 3 18 2 19 1 20
REMARK H PARENT
REMARK Flexibility Score: inf
ROOT
ATOM      1  C   UNL     1      46.007  28.321  -0.239  1.00  0.00    -0.031 C 
ATOM      2  C   UNL     1      45.991  28.293  -1.585  1.00  0.00    -0.031 C 
ENDROOT
BRANCH   1   3
ATOM      3  C   UNL     1      46.568  29.451   0.587  1.00  0.00     0.027 C 
BRANCH   3   4
ATOM      4  C   UNL     1      46.936  28.958   1.993  1.00  0.00     0.004 C 
BRANCH   4   5
ATOM      5  C   UNL     1      46.567  27.484   2.221  1.00  0.00     0.000 C 
BRANCH   5   6
ATOM      6  C   UNL     1      45.792  27.265   3.533  1.00  0.00     0.000 C 
BRANCH   6   7
ATOM      7  C   UNL     1      44.389  26.679   3.310  1.00  0.00     0.000 C 
BRANCH   7   8
ATOM      8  C   UNL     1      43.633  27.220   2.080  1.00  0.00     0.006 C 
BRANCH   8   9
ATOM      9  C   UNL     1      42.270  27.857   2.408  1.00  0.00     0.053 C 
BRANCH   9  10
ATOM     10  C   UNL     1      42.346  29.349   2.532  1.00  0.00     0.041 C 
ATOM     11  O   UNL     1      41.367  30.001   2.985  1.00  0.00    -0.550 OA
ATOM     12  O   UNL     1      43.481  30.027   2.106  1.00  0.00    -0.550 OA
ENDBRANCH   9  10
ENDBRANCH   8   9
ENDBRANCH   7   8
ENDBRANCH   6   7
ENDBRANCH   5   6
ENDBRANCH   4   5
ENDBRANCH   3   4
ENDBRANCH   1   3
BRANCH   2  13
ATOM     13  C   UNL     1      46.610  29.347  -2.470  1.00  0.00     0.027 C 
BRANCH  13  14
ATOM     14  C   UNL     1      46.322  29.102  -3.964  1.00  0.00     0.004 C 
BRANCH  14  15
ATOM     15  C   UNL     1      45.346  27.942  -4.226  1.00  0.00     0.000 C 
BRANCH  15  16
ATOM     16  C   UNL     1      44.696  28.010  -5.615  1.00  0.00     0.000 C 
BRANCH  16  17
ATOM     17  C   UNL     1      44.155  29.416  -5.901  1.00  0.00    -0.000 C 
BRANCH  17  18
ATOM     18  C   UNL     1      42.743  29.590  -5.331  1.00  0.00    -0.000 C 
BRANCH  18  19
ATOM     19  C   UNL     1      41.691  29.009  -6.282  1.00  0.00    -0.003 C 
ATOM     20  C   UNL     1      40.907  30.116  -6.981  1.00  0.00     0.004 C 
ENDBRANCH  18  19
ENDBRANCH  17  18
ENDBRANCH  16  17
ENDBRANCH  15  16
ENDBRANCH  14  15
ENDBRANCH  13  14
ENDBRANCH   2  13
TORSDOF 15
ENDMDL
MODEL 8
REMARK VINA RESULT:    -3.945      4.816     10.596
REMARK INTER + INTRA:          -8.255
REMARK INTER:                  -7.502
REMARK INTRA:                  -0.752
REMARK UNBOUND:                -0.851
REMARK SMILES CCCCCCCCC=CCCCCCCCC(=O)[O-]
REMARK SMILES IDX 10 1 9 2 11 3 12 4 13 5 14 6 15 7 16 8 17 9 18 10 19 11
REMARK SMILES IDX 20 12 8 13 7 14 6 15 5 16 4 17 3 18 2 19 1 20
REMARK H PARENT
REMARK Flexibility Score: inf
ROOT
ATOM      1  C   UNL     1      44.262  27.162   2.446  1.00  0.00    -0.031 C 
ATOM      2  C   UNL     1      44.603  27.608   1.222  1.00  0.00    -0.031 C 
ENDROOT
BRANCH   1   3
ATOM      3  C   UNL     1      45.116  27.311   3.680  1.00  0.00     0.027 C 
BRANCH   3   4
ATOM      4  C   UNL     1      45.653  25.946   4.130  1.00  0.00     0.004 C 
BRANCH   4   5
ATOM      5  C   UNL     1      46.976  26.053   4.904  1.00  0.00     0.000 C 
BRANCH   5   6
ATOM      6  C   UNL     1      46.947  27.162   5.971  1.00  0.00     0.000 C 
BRANCH   6   7
ATOM      7  C   UNL     1      46.040  26.821   7.165  1.00  0.00     0.000 C 
BRANCH   7   8
ATOM      8  C   UNL     1      46.450  27.455   8.510  1.00  0.00     0.006 C 
BRANCH   8   9
ATOM      9  C   UNL     1      45.265  27.952   9.359  1.00  0.00     0.053 C 
BRANCH   9  10
ATOM     10  C   UNL     1      45.140  29.446   9.359  1.00  0.00     0.041 C 
ATOM     11  O   UNL     1      45.205  30.090  10.439  1.00  0.00    -0.550 OA
ATOM     12  O   UNL     1      44.908  30.125   8.170  1.00  0.00    -0.550 OA
ENDBRANCH   9  10
ENDBRANCH   8   9
ENDBRANCH   7   8
ENDBRANCH   6   7
ENDBRANCH   5   6
ENDBRANCH   4   5
ENDBRANCH   3   4
ENDBRANCH   1   3
BRANCH   2  13
ATOM     13  C   UNL     1      45.928  28.247   0.883  1.00  0.00     0.027 C 
BRANCH  13  14
ATOM     14  C   UNL     1      45.921  28.904  -0.512  1.00  0.00     0.004 C 
BRANCH  14  15
ATOM     15  C   UNL     1      46.917  28.274  -1.500  1.00  0.00     0.000 C 
BRANCH  15  16
ATOM     16  C   UNL     1      46.536  28.513  -2.967  1.00  0.00     0.000 C 
BRANCH  16  17
ATOM     17  C   UNL     1      46.496  27.194  -3.748  1.00  0.00    -0.000 C 
BRANCH  17  18
ATOM     18  C   UNL     1      45.078  26.892  -4.245  1.00  0.00    -0.000 C 
BRANCH  18  19
ATOM     19  C   UNL     1      44.710  27.784  -5.435  1.00  0.00    -0.003 C 
ATOM     20  C   UNL     1      43.196  27.884  -5.603  1.00  0.00     0.004 C 
ENDBRANCH  18  19
ENDBRANCH  17  18
ENDBRANCH  16  17
ENDBRANCH  15  16
ENDBRANCH  14  15
ENDBRANCH  13  14
ENDBRANCH   2  13
TORSDOF 15
ENDMDL
MODEL 9
REMARK VINA RESULT:    -3.777      3.661      9.539
REMARK INTER + INTRA:          -7.940
REMARK INTER:                  -6.889
REMARK INTRA:                  -1.051
REMARK UNBOUND:                -0.851
REMARK SMILES CCCCCCCCC=CCCCCCCCC(=O)[O-]
REMARK SMILES IDX 10 1 9 2 11 3 12 4 13 5 14 6 15 7 16 8 17 9 18 10 19 11
REMARK SMILES IDX 20 12 8 13 7 14 6 15 5 16 4 17 3 18 2 19 1 20
REMARK H PARENT
REMARK Flexibility Score: inf
ROOT
ATOM      1  C   UNL     1      46.433  28.625   0.648  1.00  0.00    -0.031 C 
ATOM      2  C   UNL     1      46.916  29.180  -0.479  1.00  0.00    -0.031 C 
ENDROOT
BRANCH   1   3
ATOM      3  C   UNL     1      45.116  27.897   0.746  1.00  0.00     0.027 C 
BRANCH   3   4
ATOM      4  C   UNL     1      44.352  28.336   2.003  1.00  0.00     0.004 C 
BRANCH   4   5
ATOM      5  C   UNL     1      44.719  29.758   2.455  1.00  0.00     0.000 C 
BRANCH   5   6
ATOM      6  C   UNL     1      45.226  29.802   3.908  1.00  0.00     0.000 C 
BRANCH   6   7
ATOM      7  C   UNL     1      46.314  28.755   4.196  1.00  0.00     0.000 C 
BRANCH   7   8
ATOM      8  C   UNL     1      46.212  28.055   5.566  1.00  0.00     0.006 C 
BRANCH   8   9
ATOM      9  C   UNL     1      46.273  26.517   5.493  1.00  0.00     0.053 C 
BRANCH   9  10
ATOM     10  C   UNL     1      46.080  25.998   4.100  1.00  0.00     0.041 C 
ATOM     11  O   UNL     1      45.004  25.427   3.777  1.00  0.00    -0.550 OA
ATOM     12  O   UNL     1      47.105  26.104   3.169  1.00  0.00    -0.550 OA
ENDBRANCH   9  10
ENDBRANCH   8   9
ENDBRANCH   7   8
ENDBRANCH   6   7
ENDBRANCH   5   6
ENDBRANCH   4   5
ENDBRANCH   3   4
ENDBRANCH   1   3
BRANCH   2  13
ATOM     13  C   UNL     1      46.175  29.235  -1.792  1.00  0.00     0.027 C 
BRANCH  13  14
ATOM     14  C   UNL     1      46.720  28.220  -2.816  1.00  0.00     0.004 C 
BRANCH  14  15
ATOM     15  C   UNL     1      45.657  27.243  -3.348  1.00  0.00     0.000 C 
BRANCH  15  16
ATOM     16  C   UNL     1      45.432  27.370  -4.861  1.00  0.00     0.000 C 
BRANCH  16  17
ATOM     17  C   UNL     1      43.957  27.157  -5.218  1.00  0.00    -0.000 C 
BRANCH  17  18
ATOM     18  C   UNL     1      43.589  27.899  -6.509  1.00  0.00    -0.000 C 
BRANCH  18  19
ATOM     19  C   UNL     1      42.448  28.893  -6.266  1.00  0.00    -0.003 C 
ATOM     20  C   UNL     1      42.693  29.715  -5.003  1.00  0.00     0.004 C 
ENDBRANCH  18  19
ENDBRANCH  17  18
ENDBRANCH  16  17
ENDBRANCH  15  16
ENDBRANCH  14  15
ENDBRANCH  13  14
ENDBRANCH   2  13
TORSDOF 15
ENDMDL
