MODEL 1
REMARK VINA RESULT:    -2.196      0.000      0.000
REMARK INTER + INTRA:          -5.559
REMARK INTER:                  -4.250
REMARK INTRA:                  -1.310
REMARK UNBOUND:                -1.310
REMARK SMILES CCCCCCCCCCCCCCCCCC(=O)[O-]
REMARK SMILES IDX 10 1 11 2 12 3 13 4 14 5 15 6 16 7 17 8 18 9 19 10 20 11
REMARK SMILES IDX 9 12 8 13 7 14 6 15 5 16 4 17 3 18 2 19 1 20
REMARK H PARENT
REMARK Flexibility Score: inf
ROOT
ATOM      1  C   UNL     1       7.110  -7.348  -5.631  1.00  0.00     0.000 C 
ENDROOT
BRANCH   1   2
ATOM      2  C   UNL     1       8.600  -7.031  -5.836  1.00  0.00     0.000 C 
BRANCH   2   3
ATOM      3  C   UNL     1       9.130  -6.004  -4.823  1.00  0.00     0.000 C 
BRANCH   3   4
ATOM      4  C   UNL     1       8.737  -6.338  -3.372  1.00  0.00     0.000 C 
BRANCH   4   5
ATOM      5  C   UNL     1       9.863  -6.945  -2.509  1.00  0.00     0.000 C 
BRANCH   5   6
ATOM      6  C   UNL     1       9.976  -8.480  -2.560  1.00  0.00     0.000 C 
BRANCH   6   7
ATOM      7  C   UNL     1       9.511  -9.216  -1.288  1.00  0.00     0.006 C 
BRANCH   7   8
ATOM      8  C   UNL     1       8.204 -10.007  -1.467  1.00  0.00     0.053 C 
BRANCH   8   9
ATOM      9  C   UNL     1       7.615  -9.840  -2.835  1.00  0.00     0.041 C 
ATOM     10  O   UNL     1       6.419  -9.472  -2.970  1.00  0.00    -0.550 OA
ATOM     11  O   UNL     1       8.377 -10.125  -3.961  1.00  0.00    -0.550 OA
ENDBRANCH   8   9
ENDBRANCH   7   8
ENDBRANCH   6   7
ENDBRANCH   5   6
ENDBRANCH   4   5
ENDBRANCH   3   4
ENDBRANCH   2   3
ENDBRANCH   1   2
BRANCH   1  12
ATOM     12  C   UNL     1       6.658  -8.597  -6.402  1.00  0.00     0.000 C 
BRANCH  12  13
ATOM     13  C   UNL     1       5.487  -8.269  -7.336  1.00  0.00    -0.000 C 
BRANCH  13  14
ATOM     14  C   UNL     1       5.078  -9.499  -8.162  1.00  0.00    -0.000 C 
BRANCH  14  15
ATOM     15  C   UNL     1       6.276 -10.125  -8.907  1.00  0.00    -0.000 C 
BRANCH  15  16
ATOM     16  C   UNL     1       6.986  -9.150  -9.863  1.00  0.00    -0.000 C 
BRANCH  16  17
ATOM     17  C   UNL     1       8.493  -9.434  -9.993  1.00  0.00    -0.000 C 
BRANCH  17  18
ATOM     18  C   UNL     1       9.352  -8.187  -9.730  1.00  0.00    -0.000 C 
BRANCH  18  19
ATOM     19  C   UNL     1       8.519  -6.898  -9.666  1.00  0.00    -0.003 C 
ATOM     20  C   UNL     1       9.356  -5.729  -9.157  1.00  0.00     0.004 C 
ENDBRANCH  18  19
ENDBRANCH  17  18
ENDBRANCH  16  17
ENDBRANCH  15  16
ENDBRANCH  14  15
ENDBRANCH  13  14
ENDBRANCH  12  13
ENDBRANCH   1  12
TORSDOF 16
ENDMDL
MODEL 2
REMARK VINA RESULT:    -1.359      2.269      5.342
REMARK INTER + INTRA:          -3.940
REMARK INTER:                  -3.356
REMARK INTRA:                  -0.584
REMARK UNBOUND:                -1.310
REMARK SMILES CCCCCCCCCCCCCCCCCC(=O)[O-]
REMARK SMILES IDX 10 1 11 2 12 3 13 4 14 5 15 6 16 7 17 8 18 9 19 10 20 11
REMARK SMILES IDX 9 12 8 13 7 14 6 15 5 16 4 17 3 18 2 19 1 20
REMARK H PARENT
REMARK Flexibility Score: inf
ROOT
ATOM      1  C   UNL     1       7.957  -8.704  -4.026  1.00  0.00     0.000 C 
ENDROOT
BRANCH   1   2
ATOM      2  C   UNL     1       8.591  -9.970  -4.623  1.00  0.00     0.000 C 
BRANCH   2   3
ATOM      3  C   UNL     1       8.298 -10.125  -6.124  1.00  0.00     0.000 C 
BRANCH   3   4
ATOM      4  C   UNL     1       9.148  -9.187  -6.999  1.00  0.00     0.000 C 
BRANCH   4   5
ATOM      5  C   UNL     1       9.222  -9.568  -8.493  1.00  0.00     0.000 C 
BRANCH   5   6
ATOM      6  C   UNL     1       7.917 -10.120  -9.097  1.00  0.00     0.000 C 
BRANCH   6   7
ATOM      7  C   UNL     1       7.081  -9.101  -9.895  1.00  0.00     0.006 C 
BRANCH   7   8
ATOM      8  C   UNL     1       5.574  -9.415  -9.925  1.00  0.00     0.053 C 
BRANCH   8   9
ATOM      9  C   UNL     1       4.870  -8.958  -8.683  1.00  0.00     0.041 C 
ATOM     10  O   UNL     1       3.624  -9.104  -8.570  1.00  0.00    -0.550 OA
ATOM     11  O   UNL     1       5.583  -8.339  -7.665  1.00  0.00    -0.550 OA
ENDBRANCH   8   9
ENDBRANCH   7   8
ENDBRANCH   6   7
ENDBRANCH   5   6
ENDBRANCH   4   5
ENDBRANCH   3   4
ENDBRANCH   2   3
ENDBRANCH   1   2
BRANCH   1  12
ATOM     12  C   UNL     1       7.103  -7.932  -5.043  1.00  0.00     0.000 C 
BRANCH  12  13
ATOM     13  C   UNL     1       7.760  -6.593  -5.404  1.00  0.00    -0.000 C 
BRANCH  13  14
ATOM     14  C   UNL     1       9.243  -6.580  -5.003  1.00  0.00    -0.000 C 
BRANCH  14  15
ATOM     15  C   UNL     1      10.088  -5.678  -5.929  1.00  0.00    -0.000 C 
BRANCH  15  16
ATOM     16  C   UNL     1      10.058  -6.109  -7.406  1.00  0.00    -0.000 C 
BRANCH  16  17
ATOM     17  C   UNL     1      10.125  -4.918  -8.377  1.00  0.00    -0.000 C 
BRANCH  17  18
ATOM     18  C   UNL     1      10.041  -5.352  -9.849  1.00  0.00    -0.000 C 
BRANCH  18  19
ATOM     19  C   UNL     1       8.895  -6.341 -10.109  1.00  0.00    -0.003 C 
ATOM     20  C   UNL     1       7.538  -5.671  -9.918  1.00  0.00     0.004 C 
ENDBRANCH  18  19
ENDBRANCH  17  18
ENDBRANCH  16  17
ENDBRANCH  15  16
ENDBRANCH  14  15
ENDBRANCH  13  14
ENDBRANCH  12  13
ENDBRANCH   1  12
TORSDOF 16
ENDMDL
MODEL 3
REMARK VINA RESULT:     0.583      2.153      2.845
REMARK INTER + INTRA:          -0.182
REMARK INTER:                   1.321
REMARK INTRA:                  -1.503
REMARK UNBOUND:                -1.310
REMARK SMILES CCCCCCCCCCCCCCCCCC(=O)[O-]
REMARK SMILES IDX 10 1 11 2 12 3 13 4 14 5 15 6 16 7 17 8 18 9 19 10 20 11
REMARK SMILES IDX 9 12 8 13 7 14 6 15 5 16 4 17 3 18 2 19 1 20
REMARK H PARENT
REMARK Flexibility Score: inf
ROOT
ATOM      1  C   UNL     1       8.216  -8.716  -5.414  1.00  0.00     0.000 C 
ENDROOT
BRANCH   1   2
ATOM      2  C   UNL     1       9.501  -9.558  -5.392  1.00  0.00     0.000 C 
BRANCH   2   3
ATOM      3  C   UNL     1      10.125  -9.646  -3.990  1.00  0.00     0.000 C 
BRANCH   3   4
ATOM      4  C   UNL     1       9.502  -8.650  -2.995  1.00  0.00     0.000 C 
BRANCH   4   5
ATOM      5  C   UNL     1       8.781  -9.288  -1.789  1.00  0.00     0.000 C 
BRANCH   5   6
ATOM      6  C   UNL     1       7.432  -9.960  -2.110  1.00  0.00     0.000 C 
BRANCH   6   7
ATOM      7  C   UNL     1       6.477 -10.119  -0.911  1.00  0.00     0.006 C 
BRANCH   7   8
ATOM      8  C   UNL     1       5.032  -9.674  -1.200  1.00  0.00     0.053 C 
BRANCH   8   9
ATOM      9  C   UNL     1       4.362  -9.088   0.006  1.00  0.00     0.041 C 
ATOM     10  O   UNL     1       4.814  -9.318   1.158  1.00  0.00    -0.550 OA
ATOM     11  O   UNL     1       3.215  -8.318  -0.140  1.00  0.00    -0.550 OA
ENDBRANCH   8   9
ENDBRANCH   7   8
ENDBRANCH   6   7
ENDBRANCH   5   6
ENDBRANCH   4   5
ENDBRANCH   3   4
ENDBRANCH   2   3
ENDBRANCH   1   2
BRANCH   1  12
ATOM     12  C   UNL     1       6.992  -9.513  -5.889  1.00  0.00     0.000 C 
BRANCH  12  13
ATOM     13  C   UNL     1       6.011  -8.610  -6.647  1.00  0.00    -0.000 C 
BRANCH  13  14
ATOM     14  C   UNL     1       5.209  -9.413  -7.684  1.00  0.00    -0.000 C 
BRANCH  14  15
ATOM     15  C   UNL     1       6.105  -9.968  -8.811  1.00  0.00    -0.000 C 
BRANCH  15  16
ATOM     16  C   UNL     1       6.521  -8.909  -9.847  1.00  0.00    -0.000 C 
BRANCH  16  17
ATOM     17  C   UNL     1       7.947  -8.380  -9.620  1.00  0.00    -0.000 C 
BRANCH  17  18
ATOM     18  C   UNL     1       7.968  -6.898  -9.211  1.00  0.00    -0.000 C 
BRANCH  18  19
ATOM     19  C   UNL     1       9.336  -6.452  -8.675  1.00  0.00    -0.003 C 
ATOM     20  C   UNL     1       9.818  -5.190  -9.384  1.00  0.00     0.004 C 
ENDBRANCH  18  19
ENDBRANCH  17  18
ENDBRANCH  16  17
ENDBRANCH  15  16
ENDBRANCH  14  15
ENDBRANCH  13  14
ENDBRANCH  12  13
ENDBRANCH   1  12
TORSDOF 16
ENDMDL
