MODEL 1
REMARK VINA RESULT:    13.688      0.000      0.000
REMARK INTER + INTRA:          33.232
REMARK INTER:                  34.493
REMARK INTRA:                  -1.261
REMARK UNBOUND:                -1.261
REMARK SMILES CCCCCCCCCCCCCCCCCCCCCCCCCCCC(=O)[O-]
REMARK SMILES IDX 15 1 16 2 17 3 18 4 19 5 20 6 21 7 22 8 23 9 24 10 25 11
REMARK SMILES IDX 26 12 27 13 28 14 29 15 30 16 14 17 13 18 12 19 11 20 10 21
REMARK SMILES IDX 9 22 8 23 7 24 6 25 5 26 4 27 3 28 2 29 1 30
REMARK H PARENT
REMARK Flexibility Score: inf
ROOT
ATOM      1  C   UNL     1      13.840  35.446  48.161  1.00  0.00     0.000 C 
ENDROOT
BRANCH   1   2
ATOM      2  C   UNL     1      15.086  36.064  48.820  1.00  0.00     0.000 C 
BRANCH   2   3
ATOM      3  C   UNL     1      15.737  35.211  49.925  1.00  0.00     0.000 C 
BRANCH   3   4
ATOM      4  C   UNL     1      15.127  33.804  50.043  1.00  0.00     0.000 C 
BRANCH   4   5
ATOM      5  C   UNL     1      16.154  32.739  50.495  1.00  0.00     0.000 C 
BRANCH   5   6
ATOM      6  C   UNL     1      15.524  31.542  51.234  1.00  0.00     0.000 C 
BRANCH   6   7
ATOM      7  C   UNL     1      14.539  30.707  50.396  1.00  0.00     0.000 C 
BRANCH   7   8
ATOM      8  C   UNL     1      13.360  30.128  51.212  1.00  0.00     0.000 C 
BRANCH   8   9
ATOM      9  C   UNL     1      13.738  28.838  51.953  1.00  0.00     0.000 C 
BRANCH   9  10
ATOM     10  C   UNL     1      13.474  27.597  51.087  1.00  0.00     0.000 C 
BRANCH  10  11
ATOM     11  C   UNL     1      13.149  27.959  49.628  1.00  0.00     0.000 C 
BRANCH  11  12
ATOM     12  C   UNL     1      12.128  26.999  48.994  1.00  0.00     0.006 C 
BRANCH  12  13
ATOM     13  C   UNL     1      11.018  27.749  48.247  1.00  0.00     0.053 C 
BRANCH  13  14
ATOM     14  C   UNL     1       9.753  26.946  48.168  1.00  0.00     0.041 C 
ATOM     15  O   UNL     1       8.643  27.525  48.039  1.00  0.00    -0.550 OA
ATOM     16  O   UNL     1       9.801  25.560  48.247  1.00  0.00    -0.550 OA
ENDBRANCH  13  14
ENDBRANCH  12  13
ENDBRANCH  11  12
ENDBRANCH  10  11
ENDBRANCH   9  10
ENDBRANCH   8   9
ENDBRANCH   7   8
ENDBRANCH   6   7
ENDBRANCH   5   6
ENDBRANCH   4   5
ENDBRANCH   3   4
ENDBRANCH   2   3
ENDBRANCH   1   2
BRANCH   1  17
ATOM     17  C   UNL     1      12.948  36.485  47.460  1.00  0.00     0.000 C 
BRANCH  17  18
ATOM     18  C   UNL     1      13.443  37.927  47.664  1.00  0.00     0.000 C 
BRANCH  18  19
ATOM     19  C   UNL     1      13.269  38.827  46.423  1.00  0.00     0.000 C 
BRANCH  19  20
ATOM     20  C   UNL     1      14.459  39.784  46.231  1.00  0.00     0.000 C 
BRANCH  20  21
ATOM     21  C   UNL     1      15.664  39.407  47.107  1.00  0.00     0.000 C 
BRANCH  21  22
ATOM     22  C   UNL     1      16.551  38.338  46.447  1.00  0.00    -0.000 C 
BRANCH  22  23
ATOM     23  C   UNL     1      17.926  38.876  46.004  1.00  0.00    -0.000 C 
BRANCH  23  24
ATOM     24  C   UNL     1      18.922  39.165  47.144  1.00  0.00    -0.000 C 
BRANCH  24  25
ATOM     25  C   UNL     1      20.301  38.518  46.920  1.00  0.00    -0.000 C 
BRANCH  25  26
ATOM     26  C   UNL     1      20.299  37.006  47.210  1.00  0.00    -0.000 C 
BRANCH  26  27
ATOM     27  C   UNL     1      19.591  36.146  46.145  1.00  0.00    -0.000 C 
BRANCH  27  28
ATOM     28  C   UNL     1      20.417  36.002  44.853  1.00  0.00    -0.000 C 
BRANCH  28  29
ATOM     29  C   UNL     1      20.903  34.561  44.626  1.00  0.00    -0.003 C 
ATOM     30  C   UNL     1      21.499  34.351  43.234  1.00  0.00     0.004 C 
ENDBRANCH  28  29
ENDBRANCH  27  28
ENDBRANCH  26  27
ENDBRANCH  25  26
ENDBRANCH  24  25
ENDBRANCH  23  24
ENDBRANCH  22  23
ENDBRANCH  21  22
ENDBRANCH  20  21
ENDBRANCH  19  20
ENDBRANCH  18  19
ENDBRANCH  17  18
ENDBRANCH   1  17
TORSDOF 26
ENDMDL
MODEL 2
REMARK VINA RESULT:    13.977      6.624     13.348
REMARK INTER + INTRA:          33.959
REMARK INTER:                  35.218
REMARK INTRA:                  -1.259
REMARK UNBOUND:                -1.261
REMARK SMILES CCCCCCCCCCCCCCCCCCCCCCCCCCCC(=O)[O-]
REMARK SMILES IDX 15 1 16 2 17 3 18 4 19 5 20 6 21 7 22 8 23 9 24 10 25 11
REMARK SMILES IDX 26 12 27 13 28 14 29 15 30 16 14 17 13 18 12 19 11 20 10 21
REMARK SMILES IDX 9 22 8 23 7 24 6 25 5 26 4 27 3 28 2 29 1 30
REMARK H PARENT
REMARK Flexibility Score: inf
ROOT
ATOM      1  C   UNL     1      13.269  28.400  50.081  1.00  0.00     0.000 C 
ENDROOT
BRANCH   1   2
ATOM      2  C   UNL     1      13.588  29.878  49.794  1.00  0.00     0.000 C 
BRANCH   2   3
ATOM      3  C   UNL     1      14.285  30.635  50.939  1.00  0.00     0.000 C 
BRANCH   3   4
ATOM      4  C   UNL     1      15.491  31.468  50.470  1.00  0.00     0.000 C 
BRANCH   4   5
ATOM      5  C   UNL     1      15.289  32.988  50.673  1.00  0.00     0.000 C 
BRANCH   5   6
ATOM      6  C   UNL     1      15.356  33.804  49.368  1.00  0.00     0.000 C 
BRANCH   6   7
ATOM      7  C   UNL     1      14.488  35.075  49.351  1.00  0.00     0.000 C 
BRANCH   7   8
ATOM      8  C   UNL     1      13.544  35.169  48.129  1.00  0.00     0.000 C 
BRANCH   8   9
ATOM      9  C   UNL     1      13.379  36.610  47.626  1.00  0.00     0.000 C 
BRANCH   9  10
ATOM     10  C   UNL     1      14.586  37.479  48.012  1.00  0.00     0.000 C 
BRANCH  10  11
ATOM     11  C   UNL     1      14.587  38.835  47.285  1.00  0.00     0.000 C 
BRANCH  11  12
ATOM     12  C   UNL     1      15.991  39.249  46.811  1.00  0.00     0.006 C 
BRANCH  12  13
ATOM     13  C   UNL     1      16.721  38.104  46.098  1.00  0.00     0.053 C 
BRANCH  13  14
ATOM     14  C   UNL     1      18.171  38.040  46.476  1.00  0.00     0.041 C 
ATOM     15  O   UNL     1      18.819  36.972  46.325  1.00  0.00    -0.550 OA
ATOM     16  O   UNL     1      18.803  39.158  47.008  1.00  0.00    -0.550 OA
ENDBRANCH  13  14
ENDBRANCH  12  13
ENDBRANCH  11  12
ENDBRANCH  10  11
ENDBRANCH   9  10
ENDBRANCH   8   9
ENDBRANCH   7   8
ENDBRANCH   6   7
ENDBRANCH   5   6
ENDBRANCH   4   5
ENDBRANCH   3   4
ENDBRANCH   2   3
ENDBRANCH   1   2
BRANCH   1  17
ATOM     17  C   UNL     1      14.436  27.645  50.740  1.00  0.00     0.000 C 
BRANCH  17  18
ATOM     18  C   UNL     1      14.012  26.285  51.320  1.00  0.00     0.000 C 
BRANCH  18  19
ATOM     19  C   UNL     1      15.134  25.227  51.313  1.00  0.00     0.000 C 
BRANCH  19  20
ATOM     20  C   UNL     1      14.628  23.851  50.845  1.00  0.00     0.000 C 
BRANCH  20  21
ATOM     21  C   UNL     1      15.703  22.758  50.961  1.00  0.00     0.000 C 
BRANCH  21  22
ATOM     22  C   UNL     1      15.196  21.523  51.724  1.00  0.00    -0.000 C 
BRANCH  22  23
ATOM     23  C   UNL     1      15.784  20.198  51.199  1.00  0.00    -0.000 C 
BRANCH  23  24
ATOM     24  C   UNL     1      17.323  20.131  51.147  1.00  0.00    -0.000 C 
BRANCH  24  25
ATOM     25  C   UNL     1      17.876  20.071  49.713  1.00  0.00    -0.000 C 
BRANCH  25  26
ATOM     26  C   UNL     1      19.416  20.056  49.672  1.00  0.00    -0.000 C 
BRANCH  26  27
ATOM     27  C   UNL     1      20.100  20.469  50.989  1.00  0.00    -0.000 C 
BRANCH  27  28
ATOM     28  C   UNL     1      21.636  20.407  50.906  1.00  0.00    -0.000 C 
BRANCH  28  29
ATOM     29  C   UNL     1      22.296  20.349  52.293  1.00  0.00    -0.003 C 
ATOM     30  C   UNL     1      21.334  19.876  53.384  1.00  0.00     0.004 C 
ENDBRANCH  28  29
ENDBRANCH  27  28
ENDBRANCH  26  27
ENDBRANCH  25  26
ENDBRANCH  24  25
ENDBRANCH  23  24
ENDBRANCH  22  23
ENDBRANCH  21  22
ENDBRANCH  20  21
ENDBRANCH  19  20
ENDBRANCH  18  19
ENDBRANCH  17  18
ENDBRANCH   1  17
TORSDOF 26
ENDMDL
MODEL 3
REMARK VINA RESULT:    14.263      4.226      6.197
REMARK INTER + INTRA:          34.680
REMARK INTER:                  35.503
REMARK INTRA:                  -0.823
REMARK UNBOUND:                -1.261
REMARK SMILES CCCCCCCCCCCCCCCCCCCCCCCCCCCC(=O)[O-]
REMARK SMILES IDX 15 1 16 2 17 3 18 4 19 5 20 6 21 7 22 8 23 9 24 10 25 11
REMARK SMILES IDX 26 12 27 13 28 14 29 15 30 16 14 17 13 18 12 19 11 20 10 21
REMARK SMILES IDX 9 22 8 23 7 24 6 25 5 26 4 27 3 28 2 29 1 30
REMARK H PARENT
REMARK Flexibility Score: inf
ROOT
ATOM      1  C   UNL     1      15.380  32.196  51.087  1.00  0.00     0.000 C 
ENDROOT
BRANCH   1   2
ATOM      2  C   UNL     1      15.181  30.809  50.452  1.00  0.00     0.000 C 
BRANCH   2   3
ATOM      3  C   UNL     1      13.850  30.113  50.794  1.00  0.00     0.000 C 
BRANCH   3   4
ATOM      4  C   UNL     1      13.387  29.124  49.712  1.00  0.00     0.000 C 
BRANCH   4   5
ATOM      5  C   UNL     1      13.324  27.663  50.218  1.00  0.00     0.000 C 
BRANCH   5   6
ATOM      6  C   UNL     1      13.313  27.538  51.754  1.00  0.00     0.000 C 
BRANCH   6   7
ATOM      7  C   UNL     1      14.007  26.280  52.308  1.00  0.00     0.000 C 
BRANCH   7   8
ATOM      8  C   UNL     1      14.968  25.604  51.303  1.00  0.00     0.000 C 
BRANCH   8   9
ATOM      9  C   UNL     1      14.926  24.072  51.392  1.00  0.00     0.000 C 
BRANCH   9  10
ATOM     10  C   UNL     1      16.192  23.441  50.794  1.00  0.00     0.000 C 
BRANCH  10  11
ATOM     11  C   UNL     1      15.975  21.977  50.376  1.00  0.00     0.000 C 
BRANCH  11  12
ATOM     12  C   UNL     1      16.722  20.986  51.285  1.00  0.00     0.006 C 
BRANCH  12  13
ATOM     13  C   UNL     1      17.415  19.877  50.482  1.00  0.00     0.053 C 
BRANCH  13  14
ATOM     14  C   UNL     1      18.533  20.409  49.636  1.00  0.00     0.041 C 
ATOM     15  O   UNL     1      18.350  20.629  48.411  1.00  0.00    -0.550 OA
ATOM     16  O   UNL     1      19.780  20.651  50.201  1.00  0.00    -0.550 OA
ENDBRANCH  13  14
ENDBRANCH  12  13
ENDBRANCH  11  12
ENDBRANCH  10  11
ENDBRANCH   9  10
ENDBRANCH   8   9
ENDBRANCH   7   8
ENDBRANCH   6   7
ENDBRANCH   5   6
ENDBRANCH   4   5
ENDBRANCH   3   4
ENDBRANCH   2   3
ENDBRANCH   1   2
BRANCH   1  17
ATOM     17  C   UNL     1      15.921  33.243  50.099  1.00  0.00     0.000 C 
BRANCH  17  18
ATOM     18  C   UNL     1      15.274  34.626  50.284  1.00  0.00     0.000 C 
BRANCH  18  19
ATOM     19  C   UNL     1      15.497  35.583  49.096  1.00  0.00     0.000 C 
BRANCH  19  20
ATOM     20  C   UNL     1      14.211  35.799  48.278  1.00  0.00     0.000 C 
BRANCH  20  21
ATOM     21  C   UNL     1      13.898  37.287  48.056  1.00  0.00     0.000 C 
BRANCH  21  22
ATOM     22  C   UNL     1      12.724  37.495  47.084  1.00  0.00    -0.000 C 
BRANCH  22  23
ATOM     23  C   UNL     1      12.889  38.736  46.185  1.00  0.00    -0.000 C 
BRANCH  23  24
ATOM     24  C   UNL     1      13.609  39.934  46.835  1.00  0.00    -0.000 C 
BRANCH  24  25
ATOM     25  C   UNL     1      15.080  40.060  46.403  1.00  0.00    -0.000 C 
BRANCH  25  26
ATOM     26  C   UNL     1      15.991  39.028  47.095  1.00  0.00    -0.000 C 
BRANCH  26  27
ATOM     27  C   UNL     1      17.315  38.742  46.361  1.00  0.00    -0.000 C 
BRANCH  27  28
ATOM     28  C   UNL     1      17.838  37.315  46.612  1.00  0.00    -0.000 C 
BRANCH  28  29
ATOM     29  C   UNL     1      19.337  37.179  46.305  1.00  0.00    -0.003 C 
ATOM     30  C   UNL     1      20.203  38.097  47.169  1.00  0.00     0.004 C 
ENDBRANCH  28  29
ENDBRANCH  27  28
ENDBRANCH  26  27
ENDBRANCH  25  26
ENDBRANCH  24  25
ENDBRANCH  23  24
ENDBRANCH  22  23
ENDBRANCH  21  22
ENDBRANCH  20  21
ENDBRANCH  19  20
ENDBRANCH  18  19
ENDBRANCH  17  18
ENDBRANCH   1  17
TORSDOF 26
ENDMDL
MODEL 4
REMARK VINA RESULT:    14.662      4.242     10.975
REMARK INTER + INTRA:          35.687
REMARK INTER:                  36.647
REMARK INTRA:                  -0.960
REMARK UNBOUND:                -1.261
REMARK SMILES CCCCCCCCCCCCCCCCCCCCCCCCCCCC(=O)[O-]
REMARK SMILES IDX 15 1 16 2 17 3 18 4 19 5 20 6 21 7 22 8 23 9 24 10 25 11
REMARK SMILES IDX 26 12 27 13 28 14 29 15 30 16 14 17 13 18 12 19 11 20 10 21
REMARK SMILES IDX 9 22 8 23 7 24 6 25 5 26 4 27 3 28 2 29 1 30
REMARK H PARENT
REMARK Flexibility Score: inf
ROOT
ATOM      1  C   UNL     1      13.254  36.459  48.176  1.00  0.00     0.000 C 
ENDROOT
BRANCH   1   2
ATOM      2  C   UNL     1      13.514  37.735  47.356  1.00  0.00     0.000 C 
BRANCH   2   3
ATOM      3  C   UNL     1      14.262  38.856  48.102  1.00  0.00     0.000 C 
BRANCH   3   4
ATOM      4  C   UNL     1      14.604  40.058  47.205  1.00  0.00     0.000 C 
BRANCH   4   5
ATOM      5  C   UNL     1      14.719  39.680  45.710  1.00  0.00     0.000 C 
BRANCH   5   6
ATOM      6  C   UNL     1      16.044  38.984  45.344  1.00  0.00     0.000 C 
BRANCH   6   7
ATOM      7  C   UNL     1      16.822  38.401  46.538  1.00  0.00     0.000 C 
BRANCH   7   8
ATOM      8  C   UNL     1      18.171  39.109  46.808  1.00  0.00     0.000 C 
BRANCH   8   9
ATOM      9  C   UNL     1      19.330  38.116  46.974  1.00  0.00     0.000 C 
BRANCH   9  10
ATOM     10  C   UNL     1      18.963  36.729  46.424  1.00  0.00     0.000 C 
BRANCH  10  11
ATOM     11  C   UNL     1      20.201  35.854  46.170  1.00  0.00     0.000 C 
BRANCH  11  12
ATOM     12  C   UNL     1      20.143  35.127  44.815  1.00  0.00     0.006 C 
BRANCH  12  13
ATOM     13  C   UNL     1      21.396  34.279  44.561  1.00  0.00     0.053 C 
BRANCH  13  14
ATOM     14  C   UNL     1      21.845  34.355  43.132  1.00  0.00     0.041 C 
ATOM     15  O   UNL     1      21.452  35.295  42.393  1.00  0.00    -0.550 OA
ATOM     16  O   UNL     1      22.689  33.379  42.613  1.00  0.00    -0.550 OA
ENDBRANCH  13  14
ENDBRANCH  12  13
ENDBRANCH  11  12
ENDBRANCH  10  11
ENDBRANCH   9  10
ENDBRANCH   8   9
ENDBRANCH   7   8
ENDBRANCH   6   7
ENDBRANCH   5   6
ENDBRANCH   4   5
ENDBRANCH   3   4
ENDBRANCH   2   3
ENDBRANCH   1   2
BRANCH   1  17
ATOM     17  C   UNL     1      14.475  35.528  48.251  1.00  0.00     0.000 C 
BRANCH  17  18
ATOM     18  C   UNL     1      15.364  35.811  49.474  1.00  0.00     0.000 C 
BRANCH  18  19
ATOM     19  C   UNL     1      15.567  34.590  50.394  1.00  0.00     0.000 C 
BRANCH  19  20
ATOM     20  C   UNL     1      15.338  33.262  49.651  1.00  0.00     0.000 C 
BRANCH  20  21
ATOM     21  C   UNL     1      15.368  32.048  50.593  1.00  0.00     0.000 C 
BRANCH  21  22
ATOM     22  C   UNL     1      14.453  30.912  50.106  1.00  0.00    -0.000 C 
BRANCH  22  23
ATOM     23  C   UNL     1      14.182  29.843  51.183  1.00  0.00    -0.000 C 
BRANCH  23  24
ATOM     24  C   UNL     1      13.664  28.489  50.656  1.00  0.00    -0.000 C 
BRANCH  24  25
ATOM     25  C   UNL     1      12.878  28.615  49.340  1.00  0.00    -0.000 C 
BRANCH  25  26
ATOM     26  C   UNL     1      12.045  27.358  49.025  1.00  0.00    -0.000 C 
BRANCH  26  27
ATOM     27  C   UNL     1      10.872  27.588  48.053  1.00  0.00    -0.000 C 
BRANCH  27  28
ATOM     28  C   UNL     1       9.564  26.933  48.535  1.00  0.00    -0.000 C 
BRANCH  28  29
ATOM     29  C   UNL     1       9.477  25.448  48.150  1.00  0.00    -0.003 C 
ATOM     30  C   UNL     1       8.266  25.136  47.270  1.00  0.00     0.004 C 
ENDBRANCH  28  29
ENDBRANCH  27  28
ENDBRANCH  26  27
ENDBRANCH  25  26
ENDBRANCH  24  25
ENDBRANCH  23  24
ENDBRANCH  22  23
ENDBRANCH  21  22
ENDBRANCH  20  21
ENDBRANCH  19  20
ENDBRANCH  18  19
ENDBRANCH  17  18
ENDBRANCH   1  17
TORSDOF 26
ENDMDL
MODEL 5
REMARK VINA RESULT:    14.720      5.117      7.085
REMARK INTER + INTRA:          35.832
REMARK INTER:                  36.504
REMARK INTRA:                  -0.672
REMARK UNBOUND:                -1.261
REMARK SMILES CCCCCCCCCCCCCCCCCCCCCCCCCCCC(=O)[O-]
REMARK SMILES IDX 15 1 16 2 17 3 18 4 19 5 20 6 21 7 22 8 23 9 24 10 25 11
REMARK SMILES IDX 26 12 27 13 28 14 29 15 30 16 14 17 13 18 12 19 11 20 10 21
REMARK SMILES IDX 9 22 8 23 7 24 6 25 5 26 4 27 3 28 2 29 1 30
REMARK H PARENT
REMARK Flexibility Score: inf
ROOT
ATOM      1  C   UNL     1      15.375  30.957  50.688  1.00  0.00     0.000 C 
ENDROOT
BRANCH   1   2
ATOM      2  C   UNL     1      13.913  30.493  50.573  1.00  0.00     0.000 C 
BRANCH   2   3
ATOM      3  C   UNL     1      13.720  29.025  50.148  1.00  0.00     0.000 C 
BRANCH   3   4
ATOM      4  C   UNL     1      13.968  28.026  51.291  1.00  0.00     0.000 C 
BRANCH   4   5
ATOM      5  C   UNL     1      14.504  26.663  50.793  1.00  0.00     0.000 C 
BRANCH   5   6
ATOM      6  C   UNL     1      14.139  25.479  51.710  1.00  0.00     0.000 C 
BRANCH   6   7
ATOM      7  C   UNL     1      14.504  24.090  51.154  1.00  0.00     0.000 C 
BRANCH   7   8
ATOM      8  C   UNL     1      16.021  23.886  50.933  1.00  0.00     0.000 C 
BRANCH   8   9
ATOM      9  C   UNL     1      16.356  22.468  50.449  1.00  0.00     0.000 C 
BRANCH   9  10
ATOM     10  C   UNL     1      15.718  21.402  51.353  1.00  0.00     0.000 C 
BRANCH  10  11
ATOM     11  C   UNL     1      16.390  20.027  51.199  1.00  0.00     0.000 C 
BRANCH  11  12
ATOM     12  C   UNL     1      17.859  20.133  50.757  1.00  0.00     0.006 C 
BRANCH  12  13
ATOM     13  C   UNL     1      18.827  20.067  51.945  1.00  0.00     0.053 C 
BRANCH  13  14
ATOM     14  C   UNL     1      20.260  20.111  51.507  1.00  0.00     0.041 C 
ATOM     15  O   UNL     1      21.169  20.373  52.338  1.00  0.00    -0.550 OA
ATOM     16  O   UNL     1      20.590  19.875  50.178  1.00  0.00    -0.550 OA
ENDBRANCH  13  14
ENDBRANCH  12  13
ENDBRANCH  11  12
ENDBRANCH  10  11
ENDBRANCH   9  10
ENDBRANCH   8   9
ENDBRANCH   7   8
ENDBRANCH   6   7
ENDBRANCH   5   6
ENDBRANCH   4   5
ENDBRANCH   3   4
ENDBRANCH   2   3
ENDBRANCH   1   2
BRANCH   1  17
ATOM     17  C   UNL     1      15.514  32.475  50.894  1.00  0.00     0.000 C 
BRANCH  17  18
ATOM     18  C   UNL     1      15.038  33.286  49.676  1.00  0.00     0.000 C 
BRANCH  18  19
ATOM     19  C   UNL     1      15.243  34.808  49.821  1.00  0.00     0.000 C 
BRANCH  19  20
ATOM     20  C   UNL     1      15.060  35.546  48.484  1.00  0.00     0.000 C 
BRANCH  20  21
ATOM     21  C   UNL     1      14.289  36.866  48.641  1.00  0.00     0.000 C 
BRANCH  21  22
ATOM     22  C   UNL     1      13.378  37.155  47.436  1.00  0.00    -0.000 C 
BRANCH  22  23
ATOM     23  C   UNL     1      13.714  38.479  46.721  1.00  0.00    -0.000 C 
BRANCH  23  24
ATOM     24  C   UNL     1      15.070  39.108  47.095  1.00  0.00    -0.000 C 
BRANCH  24  25
ATOM     25  C   UNL     1      16.265  38.407  46.426  1.00  0.00    -0.000 C 
BRANCH  25  26
ATOM     26  C   UNL     1      17.585  38.626  47.190  1.00  0.00    -0.000 C 
BRANCH  26  27
ATOM     27  C   UNL     1      18.636  39.462  46.435  1.00  0.00    -0.000 C 
BRANCH  27  28
ATOM     28  C   UNL     1      20.077  39.142  46.875  1.00  0.00    -0.000 C 
BRANCH  28  29
ATOM     29  C   UNL     1      20.281  37.646  47.165  1.00  0.00    -0.003 C 
ATOM     30  C   UNL     1      19.636  36.747  46.110  1.00  0.00     0.004 C 
ENDBRANCH  28  29
ENDBRANCH  27  28
ENDBRANCH  26  27
ENDBRANCH  25  26
ENDBRANCH  24  25
ENDBRANCH  23  24
ENDBRANCH  22  23
ENDBRANCH  21  22
ENDBRANCH  20  21
ENDBRANCH  19  20
ENDBRANCH  18  19
ENDBRANCH  17  18
ENDBRANCH   1  17
TORSDOF 26
ENDMDL
MODEL 6
REMARK VINA RESULT:    14.769      5.455      7.887
REMARK INTER + INTRA:          35.956
REMARK INTER:                  36.640
REMARK INTRA:                  -0.684
REMARK UNBOUND:                -1.261
REMARK SMILES CCCCCCCCCCCCCCCCCCCCCCCCCCCC(=O)[O-]
REMARK SMILES IDX 15 1 16 2 17 3 18 4 19 5 20 6 21 7 22 8 23 9 24 10 25 11
REMARK SMILES IDX 26 12 27 13 28 14 29 15 30 16 14 17 13 18 12 19 11 20 10 21
REMARK SMILES IDX 9 22 8 23 7 24 6 25 5 26 4 27 3 28 2 29 1 30
REMARK H PARENT
REMARK Flexibility Score: inf
ROOT
ATOM      1  C   UNL     1      14.206  30.279  50.398  1.00  0.00     0.000 C 
ENDROOT
BRANCH   1   2
ATOM      2  C   UNL     1      13.735  29.171  51.357  1.00  0.00     0.000 C 
BRANCH   2   3
ATOM      3  C   UNL     1      13.491  27.797  50.706  1.00  0.00     0.000 C 
BRANCH   3   4
ATOM      4  C   UNL     1      13.530  26.634  51.711  1.00  0.00     0.000 C 
BRANCH   4   5
ATOM      5  C   UNL     1      14.090  25.328  51.100  1.00  0.00     0.000 C 
BRANCH   5   6
ATOM      6  C   UNL     1      15.580  25.085  51.410  1.00  0.00     0.000 C 
BRANCH   6   7
ATOM      7  C   UNL     1      16.240  23.964  50.588  1.00  0.00     0.000 C 
BRANCH   7   8
ATOM      8  C   UNL     1      15.690  22.553  50.902  1.00  0.00     0.000 C 
BRANCH   8   9
ATOM      9  C   UNL     1      16.748  21.457  50.714  1.00  0.00     0.000 C 
BRANCH   9  10
ATOM     10  C   UNL     1      16.367  20.175  51.469  1.00  0.00     0.000 C 
BRANCH  10  11
ATOM     11  C   UNL     1      16.931  20.149  52.900  1.00  0.00     0.000 C 
BRANCH  11  12
ATOM     12  C   UNL     1      18.444  19.876  52.933  1.00  0.00     0.006 C 
BRANCH  12  13
ATOM     13  C   UNL     1      19.083  19.993  51.543  1.00  0.00     0.053 C 
BRANCH  13  14
ATOM     14  C   UNL     1      20.571  20.164  51.621  1.00  0.00     0.041 C 
ATOM     15  O   UNL     1      21.223  20.508  50.601  1.00  0.00    -0.550 OA
ATOM     16  O   UNL     1      21.238  19.932  52.818  1.00  0.00    -0.550 OA
ENDBRANCH  13  14
ENDBRANCH  12  13
ENDBRANCH  11  12
ENDBRANCH  10  11
ENDBRANCH   9  10
ENDBRANCH   8   9
ENDBRANCH   7   8
ENDBRANCH   6   7
ENDBRANCH   5   6
ENDBRANCH   4   5
ENDBRANCH   3   4
ENDBRANCH   2   3
ENDBRANCH   1   2
BRANCH   1  17
ATOM     17  C   UNL     1      15.188  31.267  51.050  1.00  0.00     0.000 C 
BRANCH  17  18
ATOM     18  C   UNL     1      15.786  32.263  50.041  1.00  0.00     0.000 C 
BRANCH  18  19
ATOM     19  C   UNL     1      15.294  33.713  50.229  1.00  0.00     0.000 C 
BRANCH  19  20
ATOM     20  C   UNL     1      15.100  34.436  48.885  1.00  0.00     0.000 C 
BRANCH  20  21
ATOM     21  C   UNL     1      13.657  34.335  48.365  1.00  0.00     0.000 C 
BRANCH  21  22
ATOM     22  C   UNL     1      13.168  35.656  47.747  1.00  0.00    -0.000 C 
BRANCH  22  23
ATOM     23  C   UNL     1      14.036  36.869  48.135  1.00  0.00    -0.000 C 
BRANCH  23  24
ATOM     24  C   UNL     1      13.882  38.109  47.233  1.00  0.00    -0.000 C 
BRANCH  24  25
ATOM     25  C   UNL     1      14.657  39.333  47.752  1.00  0.00    -0.000 C 
BRANCH  25  26
ATOM     26  C   UNL     1      16.083  39.419  47.175  1.00  0.00    -0.000 C 
BRANCH  26  27
ATOM     27  C   UNL     1      16.278  38.697  45.828  1.00  0.00    -0.000 C 
BRANCH  27  28
ATOM     28  C   UNL     1      17.669  38.048  45.697  1.00  0.00    -0.000 C 
BRANCH  28  29
ATOM     29  C   UNL     1      18.433  38.029  47.031  1.00  0.00    -0.003 C 
ATOM     30  C   UNL     1      19.711  38.869  46.990  1.00  0.00     0.004 C 
ENDBRANCH  28  29
ENDBRANCH  27  28
ENDBRANCH  26  27
ENDBRANCH  25  26
ENDBRANCH  24  25
ENDBRANCH  23  24
ENDBRANCH  22  23
ENDBRANCH  21  22
ENDBRANCH  20  21
ENDBRANCH  19  20
ENDBRANCH  18  19
ENDBRANCH  17  18
ENDBRANCH   1  17
TORSDOF 26
ENDMDL
MODEL 7
REMARK VINA RESULT:    15.168      5.260     12.120
REMARK INTER + INTRA:          36.962
REMARK INTER:                  38.106
REMARK INTRA:                  -1.144
REMARK UNBOUND:                -1.261
REMARK SMILES CCCCCCCCCCCCCCCCCCCCCCCCCCCC(=O)[O-]
REMARK SMILES IDX 15 1 16 2 17 3 18 4 19 5 20 6 21 7 22 8 23 9 24 10 25 11
REMARK SMILES IDX 26 12 27 13 28 14 29 15 30 16 14 17 13 18 12 19 11 20 10 21
REMARK SMILES IDX 9 22 8 23 7 24 6 25 5 26 4 27 3 28 2 29 1 30
REMARK H PARENT
REMARK Flexibility Score: inf
ROOT
ATOM      1  C   UNL     1      15.980  32.275  50.209  1.00  0.00     0.000 C 
ENDROOT
BRANCH   1   2
ATOM      2  C   UNL     1      15.969  33.812  50.150  1.00  0.00     0.000 C 
BRANCH   2   3
ATOM      3  C   UNL     1      14.725  34.436  49.491  1.00  0.00     0.000 C 
BRANCH   3   4
ATOM      4  C   UNL     1      14.914  35.917  49.119  1.00  0.00     0.000 C 
BRANCH   4   5
ATOM      5  C   UNL     1      14.284  36.280  47.753  1.00  0.00     0.000 C 
BRANCH   5   6
ATOM      6  C   UNL     1      13.251  37.420  47.829  1.00  0.00     0.000 C 
BRANCH   6   7
ATOM      7  C   UNL     1      13.002  38.160  46.502  1.00  0.00     0.000 C 
BRANCH   7   8
ATOM      8  C   UNL     1      13.631  39.572  46.448  1.00  0.00     0.000 C 
BRANCH   8   9
ATOM      9  C   UNL     1      14.528  39.860  47.660  1.00  0.00     0.000 C 
BRANCH   9  10
ATOM     10  C   UNL     1      16.015  39.831  47.275  1.00  0.00     0.000 C 
BRANCH  10  11
ATOM     11  C   UNL     1      16.596  38.407  47.292  1.00  0.00     0.000 C 
BRANCH  11  12
ATOM     12  C   UNL     1      17.246  38.019  45.953  1.00  0.00     0.006 C 
BRANCH  12  13
ATOM     13  C   UNL     1      18.525  38.821  45.677  1.00  0.00     0.053 C 
BRANCH  13  14
ATOM     14  C   UNL     1      19.541  38.651  46.767  1.00  0.00     0.041 C 
ATOM     15  O   UNL     1      20.223  39.635  47.155  1.00  0.00    -0.550 OA
ATOM     16  O   UNL     1      19.742  37.403  47.345  1.00  0.00    -0.550 OA
ENDBRANCH  13  14
ENDBRANCH  12  13
ENDBRANCH  11  12
ENDBRANCH  10  11
ENDBRANCH   9  10
ENDBRANCH   8   9
ENDBRANCH   7   8
ENDBRANCH   6   7
ENDBRANCH   5   6
ENDBRANCH   4   5
ENDBRANCH   3   4
ENDBRANCH   2   3
ENDBRANCH   1   2
BRANCH   1  17
ATOM     17  C   UNL     1      14.831  31.692  51.049  1.00  0.00     0.000 C 
BRANCH  17  18
ATOM     18  C   UNL     1      14.636  30.183  50.824  1.00  0.00     0.000 C 
BRANCH  18  19
ATOM     19  C   UNL     1      13.288  29.820  50.167  1.00  0.00     0.000 C 
BRANCH  19  20
ATOM     20  C   UNL     1      13.396  28.566  49.281  1.00  0.00     0.000 C 
BRANCH  20  21
ATOM     21  C   UNL     1      12.957  27.288  50.014  1.00  0.00     0.000 C 
BRANCH  21  22
ATOM     22  C   UNL     1      13.462  27.247  51.465  1.00  0.00    -0.000 C 
BRANCH  22  23
ATOM     23  C   UNL     1      14.591  26.222  51.690  1.00  0.00    -0.000 C 
BRANCH  23  24
ATOM     24  C   UNL     1      14.634  25.054  50.686  1.00  0.00    -0.000 C 
BRANCH  24  25
ATOM     25  C   UNL     1      14.856  23.688  51.359  1.00  0.00    -0.000 C 
BRANCH  25  26
ATOM     26  C   UNL     1      15.950  22.856  50.663  1.00  0.00    -0.000 C 
BRANCH  26  27
ATOM     27  C   UNL     1      16.029  21.386  51.118  1.00  0.00    -0.000 C 
BRANCH  27  28
ATOM     28  C   UNL     1      17.351  20.709  50.712  1.00  0.00    -0.000 C 
BRANCH  28  29
ATOM     29  C   UNL     1      17.901  21.248  49.381  1.00  0.00    -0.003 C 
ATOM     30  C   UNL     1      18.357  20.135  48.437  1.00  0.00     0.004 C 
ENDBRANCH  28  29
ENDBRANCH  27  28
ENDBRANCH  26  27
ENDBRANCH  25  26
ENDBRANCH  24  25
ENDBRANCH  23  24
ENDBRANCH  22  23
ENDBRANCH  21  22
ENDBRANCH  20  21
ENDBRANCH  19  20
ENDBRANCH  18  19
ENDBRANCH  17  18
ENDBRANCH   1  17
TORSDOF 26
ENDMDL
MODEL 8
REMARK VINA RESULT:    15.383      4.913     12.115
REMARK INTER + INTRA:          37.502
REMARK INTER:                  38.971
REMARK INTRA:                  -1.469
REMARK UNBOUND:                -1.261
REMARK SMILES CCCCCCCCCCCCCCCCCCCCCCCCCCCC(=O)[O-]
REMARK SMILES IDX 15 1 16 2 17 3 18 4 19 5 20 6 21 7 22 8 23 9 24 10 25 11
REMARK SMILES IDX 26 12 27 13 28 14 29 15 30 16 14 17 13 18 12 19 11 20 10 21
REMARK SMILES IDX 9 22 8 23 7 24 6 25 5 26 4 27 3 28 2 29 1 30
REMARK H PARENT
REMARK Flexibility Score: inf
ROOT
ATOM      1  C   UNL     1      15.613  33.136  49.652  1.00  0.00     0.000 C 
ENDROOT
BRANCH   1   2
ATOM      2  C   UNL     1      14.749  34.401  49.800  1.00  0.00     0.000 C 
BRANCH   2   3
ATOM      3  C   UNL     1      14.923  35.450  48.687  1.00  0.00     0.000 C 
BRANCH   3   4
ATOM      4  C   UNL     1      13.594  36.073  48.228  1.00  0.00     0.000 C 
BRANCH   4   5
ATOM      5  C   UNL     1      13.789  37.363  47.397  1.00  0.00     0.000 C 
BRANCH   5   6
ATOM      6  C   UNL     1      14.474  38.505  48.172  1.00  0.00     0.000 C 
BRANCH   6   7
ATOM      7  C   UNL     1      15.217  39.530  47.296  1.00  0.00     0.000 C 
BRANCH   7   8
ATOM      8  C   UNL     1      15.650  38.976  45.918  1.00  0.00     0.000 C 
BRANCH   8   9
ATOM      9  C   UNL     1      17.171  38.802  45.808  1.00  0.00     0.000 C 
BRANCH   9  10
ATOM     10  C   UNL     1      17.657  37.596  46.626  1.00  0.00     0.000 C 
BRANCH  10  11
ATOM     11  C   UNL     1      19.192  37.512  46.689  1.00  0.00     0.000 C 
BRANCH  11  12
ATOM     12  C   UNL     1      19.730  36.157  46.201  1.00  0.00     0.006 C 
BRANCH  12  13
ATOM     13  C   UNL     1      20.443  36.272  44.847  1.00  0.00     0.053 C 
BRANCH  13  14
ATOM     14  C   UNL     1      20.907  34.939  44.341  1.00  0.00     0.041 C 
ATOM     15  O   UNL     1      21.085  33.984  45.141  1.00  0.00    -0.550 OA
ATOM     16  O   UNL     1      21.154  34.755  42.986  1.00  0.00    -0.550 OA
ENDBRANCH  13  14
ENDBRANCH  12  13
ENDBRANCH  11  12
ENDBRANCH  10  11
ENDBRANCH   9  10
ENDBRANCH   8   9
ENDBRANCH   7   8
ENDBRANCH   6   7
ENDBRANCH   5   6
ENDBRANCH   4   5
ENDBRANCH   3   4
ENDBRANCH   2   3
ENDBRANCH   1   2
BRANCH   1  17
ATOM     17  C   UNL     1      15.564  32.220  50.887  1.00  0.00     0.000 C 
BRANCH  17  18
ATOM     18  C   UNL     1      15.448  30.731  50.519  1.00  0.00     0.000 C 
BRANCH  18  19
ATOM     19  C   UNL     1      14.127  30.078  50.975  1.00  0.00     0.000 C 
BRANCH  19  20
ATOM     20  C   UNL     1      13.369  29.427  49.804  1.00  0.00     0.000 C 
BRANCH  20  21
ATOM     21  C   UNL     1      13.166  27.916  50.002  1.00  0.00     0.000 C 
BRANCH  21  22
ATOM     22  C   UNL     1      13.353  27.492  51.468  1.00  0.00    -0.000 C 
BRANCH  22  23
ATOM     23  C   UNL     1      14.525  26.511  51.674  1.00  0.00    -0.000 C 
BRANCH  23  24
ATOM     24  C   UNL     1      14.502  25.255  50.781  1.00  0.00    -0.000 C 
BRANCH  24  25
ATOM     25  C   UNL     1      15.246  24.060  51.403  1.00  0.00    -0.000 C 
BRANCH  25  26
ATOM     26  C   UNL     1      15.631  22.995  50.359  1.00  0.00    -0.000 C 
BRANCH  26  27
ATOM     27  C   UNL     1      16.699  21.988  50.829  1.00  0.00    -0.000 C 
BRANCH  27  28
ATOM     28  C   UNL     1      16.122  20.581  51.071  1.00  0.00    -0.000 C 
BRANCH  28  29
ATOM     29  C   UNL     1      14.967  20.588  52.085  1.00  0.00    -0.003 C 
ATOM     30  C   UNL     1      15.344  19.936  53.415  1.00  0.00     0.004 C 
ENDBRANCH  28  29
ENDBRANCH  27  28
ENDBRANCH  26  27
ENDBRANCH  25  26
ENDBRANCH  24  25
ENDBRANCH  23  24
ENDBRANCH  22  23
ENDBRANCH  21  22
ENDBRANCH  20  21
ENDBRANCH  19  20
ENDBRANCH  18  19
ENDBRANCH  17  18
ENDBRANCH   1  17
TORSDOF 26
ENDMDL
