MODEL 1
REMARK VINA RESULT:    -5.913      0.000      0.000
REMARK INTER + INTRA:          -7.341
REMARK INTER:                  -7.123
REMARK INTRA:                  -0.218
REMARK UNBOUND:                -0.218
REMARK SMILES O=c1c(O)c(-c2ccc(O)c(O)c2)oc2cc(O)cc(O)c12
REMARK SMILES IDX 5 1 3 2 2 3 1 4 22 5 20 6 19 7 17 8 16 9 15 10 14 11 6 12
REMARK SMILES IDX 7 13 8 14 9 15 13 16 11 17 10 18 12 20 4 22 21 24 18 26
REMARK H PARENT 10 19 12 21 4 23 21 25 18 27
REMARK Flexibility Score: inf
ROOT
ATOM      1  C   UNL     1      -4.203   9.341   5.017  1.00  0.00     0.180 A 
ATOM      2  C   UNL     1      -5.137   9.542   6.047  1.00  0.00     0.208 A 
ATOM      3  C   UNL     1      -4.671   9.782   7.351  1.00  0.00     0.238 A 
ATOM      4  O   UNL     1      -5.511  10.016   8.259  1.00  0.00    -0.285 OA
ATOM      5  C   UNL     1      -3.280   9.801   7.609  1.00  0.00     0.111 A 
ATOM      6  C   UNL     1      -2.698   9.995   8.898  1.00  0.00     0.134 A 
ATOM      7  C   UNL     1      -1.308  10.125   9.015  1.00  0.00     0.093 A 
ATOM      8  C   UNL     1      -0.477  10.005   7.902  1.00  0.00     0.123 A 
ATOM      9  C   UNL     1      -1.032   9.757   6.647  1.00  0.00     0.094 A 
ATOM     10  C   UNL     1      -2.417   9.657   6.492  1.00  0.00     0.146 A 
ATOM     11  O   UNL     1      -2.905   9.430   5.278  1.00  0.00    -0.452 OA
ENDROOT
BRANCH   1  12
ATOM     12  C   UNL     1      -4.617   9.059   3.623  1.00  0.00     0.025 A 
ATOM     13  C   UNL     1      -4.310   9.982   2.611  1.00  0.00     0.016 A 
ATOM     14  C   UNL     1      -4.672   9.724   1.285  1.00  0.00     0.051 A 
ATOM     15  C   UNL     1      -5.333   8.536   0.952  1.00  0.00     0.157 A 
ATOM     16  C   UNL     1      -5.263   7.857   3.280  1.00  0.00     0.062 A 
ATOM     17  C   UNL     1      -5.626   7.599   1.950  1.00  0.00     0.158 A 
BRANCH  15  18
ATOM     18  O   UNL     1      -5.698   8.278  -0.369  1.00  0.00    -0.504 OA
ATOM     19  H   UNL     1      -6.381   8.849  -0.851  1.00  0.00     0.293 HD
ENDBRANCH  15  18
BRANCH  17  20
ATOM     20  O   UNL     1      -6.271   6.410   1.613  1.00  0.00    -0.504 OA
ATOM     21  H   UNL     1      -7.175   6.409   1.153  1.00  0.00     0.293 HD
ENDBRANCH  17  20
ENDBRANCH   1  12
BRANCH   2  22
ATOM     22  O   UNL     1      -6.506   9.542   5.767  1.00  0.00    -0.502 OA
ATOM     23  H   UNL     1      -7.207   9.715   6.476  1.00  0.00     0.293 HD
ENDBRANCH   2  22
BRANCH   6  24
ATOM     24  O   UNL     1      -3.430  10.038  10.088  1.00  0.00    -0.507 OA
ATOM     25  H   UNL     1      -3.030  10.169  11.004  1.00  0.00     0.293 HD
ENDBRANCH   6  24
BRANCH   8  26
ATOM     26  O   UNL     1       0.903  10.125   8.058  1.00  0.00    -0.508 OA
ATOM     27  H   UNL     1       1.521   9.332   7.933  1.00  0.00     0.293 HD
ENDBRANCH   8  26
TORSDOF 6
ENDMDL
MODEL 2
REMARK VINA RESULT:    -5.870      1.440      3.298
REMARK INTER + INTRA:          -7.290
REMARK INTER:                  -7.119
REMARK INTRA:                  -0.171
REMARK UNBOUND:                -0.218
REMARK SMILES O=c1c(O)c(-c2ccc(O)c(O)c2)oc2cc(O)cc(O)c12
REMARK SMILES IDX 5 1 3 2 2 3 1 4 22 5 20 6 19 7 17 8 16 9 15 10 14 11 6 12
REMARK SMILES IDX 7 13 8 14 9 15 13 16 11 17 10 18 12 20 4 22 21 24 18 26
REMARK H PARENT 10 19 12 21 4 23 21 25 18 27
REMARK Flexibility Score: inf
ROOT
ATOM      1  C   UNL     1      -4.651   9.092   5.194  1.00  0.00     0.180 A 
ATOM      2  C   UNL     1      -3.361   9.075   5.751  1.00  0.00     0.208 A 
ATOM      3  C   UNL     1      -3.209   9.325   7.125  1.00  0.00     0.238 A 
ATOM      4  O   UNL     1      -2.058   9.255   7.629  1.00  0.00    -0.285 OA
ATOM      5  C   UNL     1      -4.347   9.605   7.920  1.00  0.00     0.111 A 
ATOM      6  C   UNL     1      -4.306   9.913   9.313  1.00  0.00     0.134 A 
ATOM      7  C   UNL     1      -5.505  10.044  10.026  1.00  0.00     0.093 A 
ATOM      8  C   UNL     1      -6.739   9.943   9.386  1.00  0.00     0.123 A 
ATOM      9  C   UNL     1      -6.789   9.701   8.013  1.00  0.00     0.094 A 
ATOM     10  C   UNL     1      -5.612   9.530   7.280  1.00  0.00     0.146 A 
ATOM     11  O   UNL     1      -5.704   9.292   5.977  1.00  0.00    -0.452 OA
ENDROOT
BRANCH   1  12
ATOM     12  C   UNL     1      -4.888   8.861   3.750  1.00  0.00     0.025 A 
ATOM     13  C   UNL     1      -4.389   9.780   2.813  1.00  0.00     0.016 A 
ATOM     14  C   UNL     1      -4.583   9.570   1.445  1.00  0.00     0.051 A 
ATOM     15  C   UNL     1      -5.264   8.432   0.994  1.00  0.00     0.157 A 
ATOM     16  C   UNL     1      -5.554   7.710   3.292  1.00  0.00     0.062 A 
ATOM     17  C   UNL     1      -5.747   7.499   1.919  1.00  0.00     0.158 A 
BRANCH  15  18
ATOM     18  O   UNL     1      -5.461   8.221  -0.370  1.00  0.00    -0.504 OA
ATOM     19  H   UNL     1      -6.111   7.523  -0.710  1.00  0.00     0.293 HD
ENDBRANCH  15  18
BRANCH  17  20
ATOM     20  O   UNL     1      -6.413   6.360   1.467  1.00  0.00    -0.504 OA
ATOM     21  H   UNL     1      -7.424   6.293   1.489  1.00  0.00     0.293 HD
ENDBRANCH  17  20
ENDBRANCH   1  12
BRANCH   2  22
ATOM     22  O   UNL     1      -2.253   8.775   4.954  1.00  0.00    -0.502 OA
ATOM     23  H   UNL     1      -1.850   9.443   4.309  1.00  0.00     0.293 HD
ENDBRANCH   2  22
BRANCH   6  24
ATOM     24  O   UNL     1      -3.126  10.125  10.032  1.00  0.00    -0.507 OA
ATOM     25  H   UNL     1      -2.210   9.827   9.732  1.00  0.00     0.293 HD
ENDBRANCH   6  24
BRANCH   8  26
ATOM     26  O   UNL     1      -7.911  10.094  10.124  1.00  0.00    -0.508 OA
ATOM     27  H   UNL     1      -8.455   9.294  10.425  1.00  0.00     0.293 HD
ENDBRANCH   8  26
TORSDOF 6
ENDMDL
MODEL 3
REMARK VINA RESULT:    -5.714     15.484     17.007
REMARK INTER + INTRA:          -7.101
REMARK INTER:                  -6.858
REMARK INTRA:                  -0.243
REMARK UNBOUND:                -0.218
REMARK SMILES O=c1c(O)c(-c2ccc(O)c(O)c2)oc2cc(O)cc(O)c12
REMARK SMILES IDX 5 1 3 2 2 3 1 4 22 5 20 6 19 7 17 8 16 9 15 10 14 11 6 12
REMARK SMILES IDX 7 13 8 14 9 15 13 16 11 17 10 18 12 20 4 22 21 24 18 26
REMARK H PARENT 10 19 12 21 4 23 21 25 18 27
REMARK Flexibility Score: inf
ROOT
ATOM      1  C   UNL     1      -4.215  -6.568   7.533  1.00  0.00     0.180 A 
ATOM      2  C   UNL     1      -3.414  -6.793   8.666  1.00  0.00     0.208 A 
ATOM      3  C   UNL     1      -2.318  -7.666   8.562  1.00  0.00     0.238 A 
ATOM      4  O   UNL     1      -1.573  -7.821   9.565  1.00  0.00    -0.285 OA
ATOM      5  C   UNL     1      -2.047  -8.313   7.334  1.00  0.00     0.111 A 
ATOM      6  C   UNL     1      -0.988  -9.248   7.127  1.00  0.00     0.134 A 
ATOM      7  C   UNL     1      -0.734  -9.727   5.835  1.00  0.00     0.093 A 
ATOM      8  C   UNL     1      -1.537  -9.358   4.758  1.00  0.00     0.123 A 
ATOM      9  C   UNL     1      -2.612  -8.491   4.960  1.00  0.00     0.094 A 
ATOM     10  C   UNL     1      -2.870  -7.968   6.230  1.00  0.00     0.146 A 
ATOM     11  O   UNL     1      -3.896  -7.139   6.378  1.00  0.00    -0.452 OA
ENDROOT
BRANCH   1  12
ATOM     12  C   UNL     1      -5.401  -5.681   7.570  1.00  0.00     0.025 A 
ATOM     13  C   UNL     1      -6.685  -6.246   7.597  1.00  0.00     0.016 A 
ATOM     14  C   UNL     1      -7.817  -5.428   7.655  1.00  0.00     0.051 A 
ATOM     15  C   UNL     1      -7.680  -4.035   7.701  1.00  0.00     0.157 A 
ATOM     16  C   UNL     1      -5.267  -4.283   7.638  1.00  0.00     0.062 A 
ATOM     17  C   UNL     1      -6.403  -3.461   7.697  1.00  0.00     0.158 A 
BRANCH  15  18
ATOM     18  O   UNL     1      -8.807  -3.217   7.756  1.00  0.00    -0.504 OA
ATOM     19  H   UNL     1      -8.804  -2.345   8.271  1.00  0.00     0.293 HD
ENDBRANCH  15  18
BRANCH  17  20
ATOM     20  O   UNL     1      -6.269  -2.075   7.758  1.00  0.00    -0.504 OA
ATOM     21  H   UNL     1      -5.746  -1.562   7.058  1.00  0.00     0.293 HD
ENDBRANCH  17  20
ENDBRANCH   1  12
BRANCH   2  22
ATOM     22  O   UNL     1      -3.686  -6.126   9.864  1.00  0.00    -0.502 OA
ATOM     23  H   UNL     1      -3.538  -5.132   9.978  1.00  0.00     0.293 HD
ENDBRANCH   2  22
BRANCH   6  24
ATOM     24  O   UNL     1      -0.181  -9.754   8.150  1.00  0.00    -0.507 OA
ATOM     25  H   UNL     1      -0.103 -10.731   8.389  1.00  0.00     0.293 HD
ENDBRANCH   6  24
BRANCH   8  26
ATOM     26  O   UNL     1      -1.264  -9.867   3.489  1.00  0.00    -0.508 OA
ATOM     27  H   UNL     1      -2.004 -10.051   2.822  1.00  0.00     0.293 HD
ENDBRANCH   8  26
TORSDOF 6
ENDMDL
MODEL 4
REMARK VINA RESULT:    -5.046     15.594     18.416
REMARK INTER + INTRA:          -6.296
REMARK INTER:                  -5.991
REMARK INTRA:                  -0.305
REMARK UNBOUND:                -0.218
REMARK SMILES O=c1c(O)c(-c2ccc(O)c(O)c2)oc2cc(O)cc(O)c12
REMARK SMILES IDX 5 1 3 2 2 3 1 4 22 5 20 6 19 7 17 8 16 9 15 10 14 11 6 12
REMARK SMILES IDX 7 13 8 14 9 15 13 16 11 17 10 18 12 20 4 22 21 24 18 26
REMARK H PARENT 10 19 12 21 4 23 21 25 18 27
REMARK Flexibility Score: inf
ROOT
ATOM      1  C   UNL     1       6.320   3.291  -7.496  1.00  0.00     0.180 A 
ATOM      2  C   UNL     1       5.538   3.038  -8.636  1.00  0.00     0.208 A 
ATOM      3  C   UNL     1       5.188   1.712  -8.941  1.00  0.00     0.238 A 
ATOM      4  O   UNL     1       4.442   1.497  -9.932  1.00  0.00    -0.285 OA
ATOM      5  C   UNL     1       5.637   0.657  -8.112  1.00  0.00     0.111 A 
ATOM      6  C   UNL     1       5.377  -0.727  -8.349  1.00  0.00     0.134 A 
ATOM      7  C   UNL     1       5.761  -1.675  -7.392  1.00  0.00     0.093 A 
ATOM      8  C   UNL     1       6.450  -1.298  -6.241  1.00  0.00     0.123 A 
ATOM      9  C   UNL     1       6.762   0.045  -6.028  1.00  0.00     0.094 A 
ATOM     10  C   UNL     1       6.362   1.019  -6.947  1.00  0.00     0.146 A 
ATOM     11  O   UNL     1       6.671   2.286  -6.702  1.00  0.00    -0.452 OA
ENDROOT
BRANCH   1  12
ATOM     12  C   UNL     1       6.749   4.659  -7.123  1.00  0.00     0.025 A 
ATOM     13  C   UNL     1       7.858   5.234  -7.763  1.00  0.00     0.016 A 
ATOM     14  C   UNL     1       8.266   6.531  -7.442  1.00  0.00     0.051 A 
ATOM     15  C   UNL     1       7.563   7.277  -6.487  1.00  0.00     0.157 A 
ATOM     16  C   UNL     1       6.033   5.419  -6.180  1.00  0.00     0.062 A 
ATOM     17  C   UNL     1       6.442   6.721  -5.858  1.00  0.00     0.158 A 
BRANCH  15  18
ATOM     18  O   UNL     1       7.969   8.570  -6.163  1.00  0.00    -0.504 OA
ATOM     19  H   UNL     1       8.886   8.756  -5.776  1.00  0.00     0.293 HD
ENDBRANCH  15  18
BRANCH  17  20
ATOM     20  O   UNL     1       5.736   7.471  -4.919  1.00  0.00    -0.504 OA
ATOM     21  H   UNL     1       6.170   8.238  -4.417  1.00  0.00     0.293 HD
ENDBRANCH  17  20
ENDBRANCH   1  12
BRANCH   2  22
ATOM     22  O   UNL     1       5.085   4.097  -9.428  1.00  0.00    -0.502 OA
ATOM     23  H   UNL     1       4.115   4.384  -9.450  1.00  0.00     0.293 HD
ENDBRANCH   2  22
BRANCH   6  24
ATOM     24  O   UNL     1       4.775  -1.220  -9.510  1.00  0.00    -0.507 OA
ATOM     25  H   UNL     1       3.889  -1.702  -9.536  1.00  0.00     0.293 HD
ENDBRANCH   6  24
BRANCH   8  26
ATOM     26  O   UNL     1       6.830  -2.271  -5.317  1.00  0.00    -0.508 OA
ATOM     27  H   UNL     1       6.277  -2.461  -4.490  1.00  0.00     0.293 HD
ENDBRANCH   8  26
TORSDOF 6
ENDMDL
MODEL 5
REMARK VINA RESULT:    -4.937     15.536     17.187
REMARK INTER + INTRA:          -6.165
REMARK INTER:                  -5.919
REMARK INTRA:                  -0.246
REMARK UNBOUND:                -0.218
REMARK SMILES O=c1c(O)c(-c2ccc(O)c(O)c2)oc2cc(O)cc(O)c12
REMARK SMILES IDX 5 1 3 2 2 3 1 4 22 5 20 6 19 7 17 8 16 9 15 10 14 11 6 12
REMARK SMILES IDX 7 13 8 14 9 15 13 16 11 17 10 18 12 20 4 22 21 24 18 26
REMARK H PARENT 10 19 12 21 4 23 21 25 18 27
REMARK Flexibility Score: inf
ROOT
ATOM      1  C   UNL     1      -4.172  -7.142   7.920  1.00  0.00     0.180 A 
ATOM      2  C   UNL     1      -5.318  -7.876   7.573  1.00  0.00     0.208 A 
ATOM      3  C   UNL     1      -6.549  -7.208   7.466  1.00  0.00     0.238 A 
ATOM      4  O   UNL     1      -7.562  -7.861   7.102  1.00  0.00    -0.285 OA
ATOM      5  C   UNL     1      -6.619  -5.818   7.722  1.00  0.00     0.111 A 
ATOM      6  C   UNL     1      -7.820  -5.046   7.682  1.00  0.00     0.134 A 
ATOM      7  C   UNL     1      -7.751  -3.654   7.825  1.00  0.00     0.093 A 
ATOM      8  C   UNL     1      -6.537  -3.014   8.069  1.00  0.00     0.123 A 
ATOM      9  C   UNL     1      -5.365  -3.766   8.169  1.00  0.00     0.094 A 
ATOM     10  C   UNL     1      -5.396  -5.152   7.996  1.00  0.00     0.146 A 
ATOM     11  O   UNL     1      -4.258  -5.828   8.089  1.00  0.00    -0.452 OA
ENDROOT
BRANCH   1  12
ATOM     12  C   UNL     1      -2.845  -7.781   8.076  1.00  0.00     0.025 A 
ATOM     13  C   UNL     1      -2.337  -8.013   9.364  1.00  0.00     0.016 A 
ATOM     14  C   UNL     1      -1.096  -8.635   9.534  1.00  0.00     0.051 A 
ATOM     15  C   UNL     1      -0.354  -9.046   8.420  1.00  0.00     0.157 A 
ATOM     16  C   UNL     1      -2.105  -8.215   6.961  1.00  0.00     0.062 A 
ATOM     17  C   UNL     1      -0.860  -8.839   7.131  1.00  0.00     0.158 A 
BRANCH  15  18
ATOM     18  O   UNL     1       0.884  -9.664   8.586  1.00  0.00    -0.504 OA
ATOM     19  H   UNL     1       1.615  -9.244   9.147  1.00  0.00     0.293 HD
ENDBRANCH  15  18
BRANCH  17  20
ATOM     20  O   UNL     1      -0.126  -9.262   6.025  1.00  0.00    -0.504 OA
ATOM     21  H   UNL     1       0.120  -8.625   5.276  1.00  0.00     0.293 HD
ENDBRANCH  17  20
ENDBRANCH   1  12
BRANCH   2  22
ATOM     22  O   UNL     1      -5.223  -9.244   7.302  1.00  0.00    -0.502 OA
ATOM     23  H   UNL     1      -4.863  -9.908   7.976  1.00  0.00     0.293 HD
ENDBRANCH   2  22
BRANCH   6  24
ATOM     24  O   UNL     1      -9.097  -5.595   7.534  1.00  0.00    -0.507 OA
ATOM     25  H   UNL     1      -9.403  -6.457   7.960  1.00  0.00     0.293 HD
ENDBRANCH   6  24
BRANCH   8  26
ATOM     26  O   UNL     1      -6.508  -1.629   8.221  1.00  0.00    -0.508 OA
ATOM     27  H   UNL     1      -5.726  -1.162   8.666  1.00  0.00     0.293 HD
ENDBRANCH   8  26
TORSDOF 6
ENDMDL
MODEL 6
REMARK VINA RESULT:    -4.893     12.333     13.752
REMARK INTER + INTRA:          -6.112
REMARK INTER:                  -5.987
REMARK INTRA:                  -0.124
REMARK UNBOUND:                -0.218
REMARK SMILES O=c1c(O)c(-c2ccc(O)c(O)c2)oc2cc(O)cc(O)c12
REMARK SMILES IDX 5 1 3 2 2 3 1 4 22 5 20 6 19 7 17 8 16 9 15 10 14 11 6 12
REMARK SMILES IDX 7 13 8 14 9 15 13 16 11 17 10 18 12 20 4 22 21 24 18 26
REMARK H PARENT 10 19 12 21 4 23 21 25 18 27
REMARK Flexibility Score: inf
ROOT
ATOM      1  C   UNL     1       6.304   7.990  -3.896  1.00  0.00     0.180 A 
ATOM      2  C   UNL     1       5.268   8.831  -3.456  1.00  0.00     0.208 A 
ATOM      3  C   UNL     1       5.306   9.329  -2.143  1.00  0.00     0.238 A 
ATOM      4  O   UNL     1       4.404  10.125  -1.772  1.00  0.00    -0.285 OA
ATOM      5  C   UNL     1       6.369   8.965  -1.283  1.00  0.00     0.111 A 
ATOM      6  C   UNL     1       6.488   9.378   0.079  1.00  0.00     0.134 A 
ATOM      7  C   UNL     1       7.649   9.064   0.796  1.00  0.00     0.093 A 
ATOM      8  C   UNL     1       8.666   8.301   0.224  1.00  0.00     0.123 A 
ATOM      9  C   UNL     1       8.534   7.843  -1.087  1.00  0.00     0.094 A 
ATOM     10  C   UNL     1       7.403   8.168  -1.840  1.00  0.00     0.146 A 
ATOM     11  O   UNL     1       7.321   7.721  -3.087  1.00  0.00    -0.452 OA
ENDROOT
BRANCH   1  12
ATOM     12  C   UNL     1       6.320   7.408  -5.258  1.00  0.00     0.025 A 
ATOM     13  C   UNL     1       6.413   8.257  -6.372  1.00  0.00     0.016 A 
ATOM     14  C   UNL     1       6.453   7.727  -7.664  1.00  0.00     0.051 A 
ATOM     15  C   UNL     1       6.414   6.341  -7.861  1.00  0.00     0.157 A 
ATOM     16  C   UNL     1       6.303   6.016  -5.459  1.00  0.00     0.062 A 
ATOM     17  C   UNL     1       6.343   5.483  -6.757  1.00  0.00     0.158 A 
BRANCH  15  18
ATOM     18  O   UNL     1       6.451   5.810  -9.149  1.00  0.00    -0.504 OA
ATOM     19  H   UNL     1       6.403   4.812  -9.312  1.00  0.00     0.293 HD
ENDBRANCH  15  18
BRANCH  17  20
ATOM     20  O   UNL     1       6.319   4.104  -6.955  1.00  0.00    -0.504 OA
ATOM     21  H   UNL     1       5.830   3.689  -7.740  1.00  0.00     0.293 HD
ENDBRANCH  17  20
ENDBRANCH   1  12
BRANCH   2  22
ATOM     22  O   UNL     1       4.238   9.196  -4.328  1.00  0.00    -0.502 OA
ATOM     23  H   UNL     1       3.265   9.199  -4.050  1.00  0.00     0.293 HD
ENDBRANCH   2  22
BRANCH   6  24
ATOM     24  O   UNL     1       5.491  10.066   0.776  1.00  0.00    -0.507 OA
ATOM     25  H   UNL     1       5.602  10.459   1.698  1.00  0.00     0.293 HD
ENDBRANCH   6  24
BRANCH   8  26
ATOM     26  O   UNL     1       9.801   7.995   0.973  1.00  0.00    -0.508 OA
ATOM     27  H   UNL     1      10.725   7.997   0.558  1.00  0.00     0.293 HD
ENDBRANCH   8  26
TORSDOF 6
ENDMDL
MODEL 7
REMARK VINA RESULT:    -4.864     13.504     16.310
REMARK INTER + INTRA:          -6.077
REMARK INTER:                  -5.751
REMARK INTRA:                  -0.326
REMARK UNBOUND:                -0.218
REMARK SMILES O=c1c(O)c(-c2ccc(O)c(O)c2)oc2cc(O)cc(O)c12
REMARK SMILES IDX 5 1 3 2 2 3 1 4 22 5 20 6 19 7 17 8 16 9 15 10 14 11 6 12
REMARK SMILES IDX 7 13 8 14 9 15 13 16 11 17 10 18 12 20 4 22 21 24 18 26
REMARK H PARENT 10 19 12 21 4 23 21 25 18 27
REMARK Flexibility Score: inf
ROOT
ATOM      1  C   UNL     1       6.715   6.813  -4.501  1.00  0.00     0.180 A 
ATOM      2  C   UNL     1       7.888   7.097  -5.221  1.00  0.00     0.208 A 
ATOM      3  C   UNL     1       8.204   6.314  -6.344  1.00  0.00     0.238 A 
ATOM      4  O   UNL     1       9.227   6.607  -7.016  1.00  0.00    -0.285 OA
ATOM      5  C   UNL     1       7.352   5.250  -6.722  1.00  0.00     0.111 A 
ATOM      6  C   UNL     1       7.595   4.367  -7.818  1.00  0.00     0.134 A 
ATOM      7  C   UNL     1       6.617   3.432  -8.180  1.00  0.00     0.093 A 
ATOM      8  C   UNL     1       5.437   3.303  -7.450  1.00  0.00     0.123 A 
ATOM      9  C   UNL     1       5.216   4.120  -6.341  1.00  0.00     0.094 A 
ATOM     10  C   UNL     1       6.156   5.087  -5.975  1.00  0.00     0.146 A 
ATOM     11  O   UNL     1       5.902   5.851  -4.920  1.00  0.00    -0.452 OA
ENDROOT
BRANCH   1  12
ATOM     12  C   UNL     1       6.328   7.578  -3.293  1.00  0.00     0.025 A 
ATOM     13  C   UNL     1       5.531   8.726  -3.427  1.00  0.00     0.016 A 
ATOM     14  C   UNL     1       5.136   9.450  -2.299  1.00  0.00     0.051 A 
ATOM     15  C   UNL     1       5.521   9.028  -1.020  1.00  0.00     0.157 A 
ATOM     16  C   UNL     1       6.694   7.147  -2.005  1.00  0.00     0.062 A 
ATOM     17  C   UNL     1       6.298   7.873  -0.872  1.00  0.00     0.158 A 
BRANCH  15  18
ATOM     18  O   UNL     1       5.131   9.749   0.108  1.00  0.00    -0.504 OA
ATOM     19  H   UNL     1       4.338   9.465   0.670  1.00  0.00     0.293 HD
ENDBRANCH  15  18
BRANCH  17  20
ATOM     20  O   UNL     1       6.667   7.448   0.403  1.00  0.00    -0.504 OA
ATOM     21  H   UNL     1       6.101   6.791   0.928  1.00  0.00     0.293 HD
ENDBRANCH  17  20
ENDBRANCH   1  12
BRANCH   2  22
ATOM     22  O   UNL     1       8.704   8.166  -4.843  1.00  0.00    -0.502 OA
ATOM     23  H   UNL     1       9.087   8.256  -3.910  1.00  0.00     0.293 HD
ENDBRANCH   2  22
BRANCH   6  24
ATOM     24  O   UNL     1       8.780   4.351  -8.559  1.00  0.00    -0.507 OA
ATOM     25  H   UNL     1       9.283   5.174  -8.855  1.00  0.00     0.293 HD
ENDBRANCH   6  24
BRANCH   8  26
ATOM     26  O   UNL     1       4.494   2.350  -7.830  1.00  0.00    -0.508 OA
ATOM     27  H   UNL     1       4.762   1.503  -8.317  1.00  0.00     0.293 HD
ENDBRANCH   8  26
TORSDOF 6
ENDMDL
MODEL 8
REMARK VINA RESULT:    -4.764     13.126     16.148
REMARK INTER + INTRA:          -5.956
REMARK INTER:                  -5.636
REMARK INTRA:                  -0.321
REMARK UNBOUND:                -0.218
REMARK SMILES O=c1c(O)c(-c2ccc(O)c(O)c2)oc2cc(O)cc(O)c12
REMARK SMILES IDX 5 1 3 2 2 3 1 4 22 5 20 6 19 7 17 8 16 9 15 10 14 11 6 12
REMARK SMILES IDX 7 13 8 14 9 15 13 16 11 17 10 18 12 20 4 22 21 24 18 26
REMARK H PARENT 10 19 12 21 4 23 21 25 18 27
REMARK Flexibility Score: inf
ROOT
ATOM      1  C   UNL     1       6.504   7.198  -4.548  1.00  0.00     0.180 A 
ATOM      2  C   UNL     1       6.940   7.963  -5.643  1.00  0.00     0.208 A 
ATOM      3  C   UNL     1       6.872   7.409  -6.932  1.00  0.00     0.238 A 
ATOM      4  O   UNL     1       7.214   8.119  -7.913  1.00  0.00    -0.285 OA
ATOM      5  C   UNL     1       6.383   6.092  -7.107  1.00  0.00     0.111 A 
ATOM      6  C   UNL     1       6.307   5.416  -8.362  1.00  0.00     0.134 A 
ATOM      7  C   UNL     1       5.685   4.163  -8.434  1.00  0.00     0.093 A 
ATOM      8  C   UNL     1       5.195   3.535  -7.291  1.00  0.00     0.123 A 
ATOM      9  C   UNL     1       5.317   4.160  -6.050  1.00  0.00     0.094 A 
ATOM     10  C   UNL     1       5.901   5.426  -5.950  1.00  0.00     0.146 A 
ATOM     11  O   UNL     1       5.989   5.991  -4.752  1.00  0.00    -0.452 OA
ENDROOT
BRANCH   1  12
ATOM     12  C   UNL     1       6.568   7.704  -3.158  1.00  0.00     0.025 A 
ATOM     13  C   UNL     1       7.718   7.467  -2.388  1.00  0.00     0.016 A 
ATOM     14  C   UNL     1       7.808   7.955  -1.081  1.00  0.00     0.051 A 
ATOM     15  C   UNL     1       6.756   8.699  -0.531  1.00  0.00     0.157 A 
ATOM     16  C   UNL     1       5.523   8.469  -2.608  1.00  0.00     0.062 A 
ATOM     17  C   UNL     1       5.614   8.960  -1.297  1.00  0.00     0.158 A 
BRANCH  15  18
ATOM     18  O   UNL     1       6.842   9.185   0.772  1.00  0.00    -0.504 OA
ATOM     19  H   UNL     1       7.413   9.989   1.002  1.00  0.00     0.293 HD
ENDBRANCH  15  18
BRANCH  17  20
ATOM     20  O   UNL     1       4.575   9.713  -0.752  1.00  0.00    -0.504 OA
ATOM     21  H   UNL     1       4.143  10.471  -1.267  1.00  0.00     0.293 HD
ENDBRANCH  17  20
ENDBRANCH   1  12
BRANCH   2  22
ATOM     22  O   UNL     1       7.399   9.269  -5.450  1.00  0.00    -0.502 OA
ATOM     23  H   UNL     1       8.016   9.731  -6.106  1.00  0.00     0.293 HD
ENDBRANCH   2  22
BRANCH   6  24
ATOM     24  O   UNL     1       6.847   5.915  -9.551  1.00  0.00    -0.507 OA
ATOM     25  H   UNL     1       7.706   6.440  -9.616  1.00  0.00     0.293 HD
ENDBRANCH   6  24
BRANCH   8  26
ATOM     26  O   UNL     1       4.595   2.281  -7.398  1.00  0.00    -0.508 OA
ATOM     27  H   UNL     1       4.660   1.734  -8.249  1.00  0.00     0.293 HD
ENDBRANCH   8  26
TORSDOF 6
ENDMDL
MODEL 9
REMARK VINA RESULT:    -4.448     12.728     14.355
REMARK INTER + INTRA:          -5.576
REMARK INTER:                  -5.298
REMARK INTRA:                  -0.278
REMARK UNBOUND:                -0.218
REMARK SMILES O=c1c(O)c(-c2ccc(O)c(O)c2)oc2cc(O)cc(O)c12
REMARK SMILES IDX 5 1 3 2 2 3 1 4 22 5 20 6 19 7 17 8 16 9 15 10 14 11 6 12
REMARK SMILES IDX 7 13 8 14 9 15 13 16 11 17 10 18 12 20 4 22 21 24 18 26
REMARK H PARENT 10 19 12 21 4 23 21 25 18 27
REMARK Flexibility Score: inf
ROOT
ATOM      1  C   UNL     1       7.195   7.477  -3.818  1.00  0.00     0.180 A 
ATOM      2  C   UNL     1       8.479   7.157  -3.345  1.00  0.00     0.208 A 
ATOM      3  C   UNL     1       8.831   7.517  -2.034  1.00  0.00     0.238 A 
ATOM      4  O   UNL     1       9.963   7.180  -1.598  1.00  0.00    -0.285 OA
ATOM      5  C   UNL     1       7.901   8.205  -1.219  1.00  0.00     0.111 A 
ATOM      6  C   UNL     1       8.164   8.653   0.111  1.00  0.00     0.134 A 
ATOM      7  C   UNL     1       7.126   9.208   0.870  1.00  0.00     0.093 A 
ATOM      8  C   UNL     1       5.855   9.389   0.329  1.00  0.00     0.123 A 
ATOM      9  C   UNL     1       5.602   9.009  -0.989  1.00  0.00     0.094 A 
ATOM     10  C   UNL     1       6.607   8.420  -1.761  1.00  0.00     0.146 A 
ATOM     11  O   UNL     1       6.322   8.064  -3.008  1.00  0.00    -0.452 OA
ENDROOT
BRANCH   1  12
ATOM     12  C   UNL     1       6.760   7.153  -5.196  1.00  0.00     0.025 A 
ATOM     13  C   UNL     1       6.772   8.156  -6.179  1.00  0.00     0.016 A 
ATOM     14  C   UNL     1       6.387   7.866  -7.491  1.00  0.00     0.051 A 
ATOM     15  C   UNL     1       5.997   6.567  -7.842  1.00  0.00     0.157 A 
ATOM     16  C   UNL     1       6.388   5.845  -5.559  1.00  0.00     0.062 A 
ATOM     17  C   UNL     1       6.001   5.554  -6.875  1.00  0.00     0.158 A 
BRANCH  15  18
ATOM     18  O   UNL     1       5.610   6.275  -9.149  1.00  0.00    -0.504 OA
ATOM     19  H   UNL     1       4.687   5.916  -9.360  1.00  0.00     0.293 HD
ENDBRANCH  15  18
BRANCH  17  20
ATOM     20  O   UNL     1       5.627   4.259  -7.231  1.00  0.00    -0.504 OA
ATOM     21  H   UNL     1       6.216   3.461  -7.023  1.00  0.00     0.293 HD
ENDBRANCH  17  20
ENDBRANCH   1  12
BRANCH   2  22
ATOM     22  O   UNL     1       9.375   6.458  -4.159  1.00  0.00    -0.502 OA
ATOM     23  H   UNL     1      10.252   6.091  -3.812  1.00  0.00     0.293 HD
ENDBRANCH   2  22
BRANCH   6  24
ATOM     24  O   UNL     1       9.422   8.602   0.717  1.00  0.00    -0.507 OA
ATOM     25  H   UNL     1       9.613   8.168   1.608  1.00  0.00     0.293 HD
ENDBRANCH   6  24
BRANCH   8  26
ATOM     26  O   UNL     1       4.850   9.959   1.109  1.00  0.00    -0.508 OA
ATOM     27  H   UNL     1       4.049  10.417   0.690  1.00  0.00     0.293 HD
ENDBRANCH   8  26
TORSDOF 6
ENDMDL
