MODEL 1
REMARK VINA RESULT:    -4.787      0.000      0.000
REMARK INTER + INTRA:          -5.037
REMARK INTER:                  -5.207
REMARK INTRA:                   0.170
REMARK UNBOUND:                 0.170
REMARK SMILES COc1cc2ccc(=O)oc2cc1O
REMARK SMILES IDX 3 1 13 2 12 3 11 4 5 5 4 6 6 7 7 8 8 9 9 10 10 11 2 12 1 13
REMARK SMILES IDX 14 14
REMARK H PARENT 14 15
REMARK Flexibility Score: inf
ROOT
ATOM      1  C   UNL     1      41.978  20.324  -1.559  1.00  0.00     0.161 A 
ATOM      2  C   UNL     1      42.321  18.989  -1.293  1.00  0.00     0.161 A 
ATOM      3  C   UNL     1      43.115  18.269  -2.197  1.00  0.00     0.098 A 
ATOM      4  C   UNL     1      43.572  18.874  -3.370  1.00  0.00     0.142 A 
ATOM      5  C   UNL     1      43.232  20.215  -3.645  1.00  0.00     0.022 A 
ATOM      6  C   UNL     1      42.439  20.936  -2.743  1.00  0.00     0.062 A 
ATOM      7  C   UNL     1      43.705  20.792  -4.828  1.00  0.00     0.019 A 
ATOM      8  C   UNL     1      44.491  20.034  -5.694  1.00  0.00     0.094 A 
ATOM      9  C   UNL     1      44.788  18.710  -5.356  1.00  0.00     0.336 A 
ATOM     10  O   UNL     1      45.496  18.009  -6.125  1.00  0.00    -0.246 OA
ATOM     11  O   UNL     1      44.325  18.184  -4.224  1.00  0.00    -0.423 OA
ENDROOT
BRANCH   1  12
ATOM     12  O   UNL     1      41.182  21.008  -0.627  1.00  0.00    -0.493 OA
ATOM     13  C   UNL     1      39.822  20.694  -0.343  1.00  0.00     0.278 C 
ENDBRANCH   1  12
BRANCH   2  14
ATOM     14  O   UNL     1      41.867  18.383  -0.123  1.00  0.00    -0.504 OA
ATOM     15  H   UNL     1      41.658  18.923   0.708  1.00  0.00     0.293 HD
ENDBRANCH   2  14
TORSDOF 2
ENDMDL
MODEL 2
REMARK VINA RESULT:    -4.463      6.800      9.247
REMARK INTER + INTRA:          -4.685
REMARK INTER:                  -4.638
REMARK INTRA:                  -0.046
REMARK UNBOUND:                 0.170
REMARK SMILES COc1cc2ccc(=O)oc2cc1O
REMARK SMILES IDX 3 1 13 2 12 3 11 4 5 5 4 6 6 7 7 8 8 9 9 10 10 11 2 12 1 13
REMARK SMILES IDX 14 14
REMARK H PARENT 14 15
REMARK Flexibility Score: inf
ROOT
ATOM      1  C   UNL     1      49.823  15.339  -4.661  1.00  0.00     0.161 A 
ATOM      2  C   UNL     1      48.613  15.967  -4.326  1.00  0.00     0.161 A 
ATOM      3  C   UNL     1      47.652  15.291  -3.561  1.00  0.00     0.098 A 
ATOM      4  C   UNL     1      47.890  13.986  -3.124  1.00  0.00     0.142 A 
ATOM      5  C   UNL     1      49.103  13.347  -3.456  1.00  0.00     0.022 A 
ATOM      6  C   UNL     1      50.064  14.021  -4.221  1.00  0.00     0.062 A 
ATOM      7  C   UNL     1      49.313  12.039  -3.004  1.00  0.00     0.019 A 
ATOM      8  C   UNL     1      48.327  11.411  -2.246  1.00  0.00     0.094 A 
ATOM      9  C   UNL     1      47.148  12.106  -1.956  1.00  0.00     0.336 A 
ATOM     10  O   UNL     1      46.246  11.555  -1.273  1.00  0.00    -0.246 OA
ATOM     11  O   UNL     1      46.974  13.349  -2.398  1.00  0.00    -0.423 OA
ENDROOT
BRANCH   1  12
ATOM     12  O   UNL     1      50.756  16.053  -5.428  1.00  0.00    -0.493 OA
ATOM     13  C   UNL     1      52.151  15.771  -5.471  1.00  0.00     0.278 C 
ENDBRANCH   1  12
BRANCH   2  14
ATOM     14  O   UNL     1      48.372  17.270  -4.760  1.00  0.00    -0.504 OA
ATOM     15  H   UNL     1      47.773  17.900  -4.240  1.00  0.00     0.293 HD
ENDBRANCH   2  14
TORSDOF 2
ENDMDL
MODEL 3
REMARK VINA RESULT:    -4.423      1.831      5.001
REMARK INTER + INTRA:          -4.640
REMARK INTER:                  -4.588
REMARK INTRA:                  -0.053
REMARK UNBOUND:                 0.170
REMARK SMILES COc1cc2ccc(=O)oc2cc1O
REMARK SMILES IDX 3 1 13 2 12 3 11 4 5 5 4 6 6 7 7 8 8 9 9 10 10 11 2 12 1 13
REMARK SMILES IDX 14 14
REMARK H PARENT 14 15
REMARK Flexibility Score: inf
ROOT
ATOM      1  C   UNL     1      43.803  16.980  -3.204  1.00  0.00     0.161 A 
ATOM      2  C   UNL     1      42.839  16.270  -2.472  1.00  0.00     0.161 A 
ATOM      3  C   UNL     1      41.895  16.955  -1.694  1.00  0.00     0.098 A 
ATOM      4  C   UNL     1      41.906  18.351  -1.641  1.00  0.00     0.142 A 
ATOM      5  C   UNL     1      42.872  19.073  -2.373  1.00  0.00     0.022 A 
ATOM      6  C   UNL     1      43.816  18.389  -3.151  1.00  0.00     0.062 A 
ATOM      7  C   UNL     1      42.857  20.470  -2.299  1.00  0.00     0.019 A 
ATOM      8  C   UNL     1      41.897  21.104  -1.512  1.00  0.00     0.094 A 
ATOM      9  C   UNL     1      40.971  20.323  -0.813  1.00  0.00     0.336 A 
ATOM     10  O   UNL     1      40.097  20.877  -0.096  1.00  0.00    -0.246 OA
ATOM     11  O   UNL     1      41.007  18.996  -0.900  1.00  0.00    -0.423 OA
ENDROOT
BRANCH   1  12
ATOM     12  O   UNL     1      44.729  16.254  -3.970  1.00  0.00    -0.493 OA
ATOM     13  C   UNL     1      46.128  16.519  -4.011  1.00  0.00     0.278 C 
ENDBRANCH   1  12
BRANCH   2  14
ATOM     14  O   UNL     1      42.825  14.878  -2.524  1.00  0.00    -0.504 OA
ATOM     15  H   UNL     1      43.443  14.363  -3.139  1.00  0.00     0.293 HD
ENDBRANCH   2  14
TORSDOF 2
ENDMDL
MODEL 4
REMARK VINA RESULT:    -4.385      5.697      8.160
REMARK INTER + INTRA:          -4.600
REMARK INTER:                  -4.554
REMARK INTRA:                  -0.045
REMARK UNBOUND:                 0.170
REMARK SMILES COc1cc2ccc(=O)oc2cc1O
REMARK SMILES IDX 3 1 13 2 12 3 11 4 5 5 4 6 6 7 7 8 8 9 9 10 10 11 2 12 1 13
REMARK SMILES IDX 14 14
REMARK H PARENT 14 15
REMARK Flexibility Score: inf
ROOT
ATOM      1  C   UNL     1      49.384  13.886  -3.823  1.00  0.00     0.161 A 
ATOM      2  C   UNL     1      48.741  13.021  -2.923  1.00  0.00     0.161 A 
ATOM      3  C   UNL     1      47.449  13.311  -2.463  1.00  0.00     0.098 A 
ATOM      4  C   UNL     1      46.789  14.463  -2.896  1.00  0.00     0.142 A 
ATOM      5  C   UNL     1      47.428  15.339  -3.800  1.00  0.00     0.022 A 
ATOM      6  C   UNL     1      48.719  15.050  -4.260  1.00  0.00     0.062 A 
ATOM      7  C   UNL     1      46.741  16.485  -4.215  1.00  0.00     0.019 A 
ATOM      8  C   UNL     1      45.458  16.728  -3.729  1.00  0.00     0.094 A 
ATOM      9  C   UNL     1      44.888  15.816  -2.835  1.00  0.00     0.336 A 
ATOM     10  O   UNL     1      43.729  16.019  -2.384  1.00  0.00    -0.246 OA
ATOM     11  O   UNL     1      45.562  14.733  -2.456  1.00  0.00    -0.423 OA
ENDROOT
BRANCH   1  12
ATOM     12  O   UNL     1      50.677  13.557  -4.257  1.00  0.00    -0.493 OA
ATOM     13  C   UNL     1      51.355  14.198  -5.333  1.00  0.00     0.278 C 
ENDBRANCH   1  12
BRANCH   2  14
ATOM     14  O   UNL     1      49.396  11.870  -2.490  1.00  0.00    -0.504 OA
ATOM     15  H   UNL     1      50.061  11.383  -3.079  1.00  0.00     0.293 HD
ENDBRANCH   2  14
TORSDOF 2
ENDMDL
MODEL 5
REMARK VINA RESULT:    -4.371      7.283      8.973
REMARK INTER + INTRA:          -4.584
REMARK INTER:                  -4.527
REMARK INTRA:                  -0.057
REMARK UNBOUND:                 0.170
REMARK SMILES COc1cc2ccc(=O)oc2cc1O
REMARK SMILES IDX 3 1 13 2 12 3 11 4 5 5 4 6 6 7 7 8 8 9 9 10 10 11 2 12 1 13
REMARK SMILES IDX 14 14
REMARK H PARENT 14 15
REMARK Flexibility Score: inf
ROOT
ATOM      1  C   UNL     1      48.211  12.902  -2.902  1.00  0.00     0.161 A 
ATOM      2  C   UNL     1      47.851  14.257  -2.842  1.00  0.00     0.161 A 
ATOM      3  C   UNL     1      48.622  15.224  -3.503  1.00  0.00     0.098 A 
ATOM      4  C   UNL     1      49.755  14.847  -4.227  1.00  0.00     0.142 A 
ATOM      5  C   UNL     1      50.125  13.487  -4.292  1.00  0.00     0.022 A 
ATOM      6  C   UNL     1      49.355  12.519  -3.632  1.00  0.00     0.062 A 
ATOM      7  C   UNL     1      51.265  13.140  -5.024  1.00  0.00     0.019 A 
ATOM      8  C   UNL     1      51.998  14.139  -5.664  1.00  0.00     0.094 A 
ATOM      9  C   UNL     1      51.572  15.467  -5.555  1.00  0.00     0.336 A 
ATOM     10  O   UNL     1      52.221  16.383  -6.124  1.00  0.00    -0.246 OA
ATOM     11  O   UNL     1      50.484  15.770  -4.851  1.00  0.00    -0.423 OA
ENDROOT
BRANCH   1  12
ATOM     12  O   UNL     1      47.410  11.968  -2.226  1.00  0.00    -0.493 OA
ATOM     13  C   UNL     1      47.671  11.481  -0.913  1.00  0.00     0.278 C 
ENDBRANCH   1  12
BRANCH   2  14
ATOM     14  O   UNL     1      46.720  14.636  -2.121  1.00  0.00    -0.504 OA
ATOM     15  H   UNL     1      45.859  14.903  -2.585  1.00  0.00     0.293 HD
ENDBRANCH   2  14
TORSDOF 2
ENDMDL
MODEL 6
REMARK VINA RESULT:    -4.260      6.212      7.928
REMARK INTER + INTRA:          -4.463
REMARK INTER:                  -4.431
REMARK INTRA:                  -0.032
REMARK UNBOUND:                 0.170
REMARK SMILES COc1cc2ccc(=O)oc2cc1O
REMARK SMILES IDX 3 1 13 2 12 3 11 4 5 5 4 6 6 7 7 8 8 9 9 10 10 11 2 12 1 13
REMARK SMILES IDX 14 14
REMARK H PARENT 14 15
REMARK Flexibility Score: inf
ROOT
ATOM      1  C   UNL     1      47.220  12.292  -1.978  1.00  0.00     0.161 A 
ATOM      2  C   UNL     1      48.544  12.318  -2.443  1.00  0.00     0.161 A 
ATOM      3  C   UNL     1      48.995  13.384  -3.234  1.00  0.00     0.098 A 
ATOM      4  C   UNL     1      48.131  14.430  -3.567  1.00  0.00     0.142 A 
ATOM      5  C   UNL     1      46.799  14.412  -3.104  1.00  0.00     0.022 A 
ATOM      6  C   UNL     1      46.346  13.347  -2.313  1.00  0.00     0.062 A 
ATOM      7  C   UNL     1      45.957  15.473  -3.455  1.00  0.00     0.019 A 
ATOM      8  C   UNL     1      46.454  16.509  -4.244  1.00  0.00     0.094 A 
ATOM      9  C   UNL     1      47.786  16.460  -4.666  1.00  0.00     0.336 A 
ATOM     10  O   UNL     1      48.254  17.386  -5.380  1.00  0.00    -0.246 OA
ATOM     11  O   UNL     1      48.566  15.439  -4.320  1.00  0.00    -0.423 OA
ENDROOT
BRANCH   1  12
ATOM     12  O   UNL     1      46.810  11.207  -1.188  1.00  0.00    -0.493 OA
ATOM     13  C   UNL     1      46.926  11.151   0.230  1.00  0.00     0.278 C 
ENDBRANCH   1  12
BRANCH   2  14
ATOM     14  O   UNL     1      49.409  11.277  -2.112  1.00  0.00    -0.504 OA
ATOM     15  H   UNL     1      50.002  11.319  -1.292  1.00  0.00     0.293 HD
ENDBRANCH   2  14
TORSDOF 2
ENDMDL
MODEL 7
REMARK VINA RESULT:    -4.156      5.306      7.105
REMARK INTER + INTRA:          -4.350
REMARK INTER:                  -4.287
REMARK INTRA:                  -0.063
REMARK UNBOUND:                 0.170
REMARK SMILES COc1cc2ccc(=O)oc2cc1O
REMARK SMILES IDX 3 1 13 2 12 3 11 4 5 5 4 6 6 7 7 8 8 9 9 10 10 11 2 12 1 13
REMARK SMILES IDX 14 14
REMARK H PARENT 14 15
REMARK Flexibility Score: inf
ROOT
ATOM      1  C   UNL     1      45.882  14.801  -3.202  1.00  0.00     0.161 A 
ATOM      2  C   UNL     1      45.998  16.087  -3.754  1.00  0.00     0.161 A 
ATOM      3  C   UNL     1      47.227  16.528  -4.266  1.00  0.00     0.098 A 
ATOM      4  C   UNL     1      48.345  15.692  -4.232  1.00  0.00     0.142 A 
ATOM      5  C   UNL     1      48.237  14.399  -3.680  1.00  0.00     0.022 A 
ATOM      6  C   UNL     1      47.010  13.957  -3.167  1.00  0.00     0.062 A 
ATOM      7  C   UNL     1      49.375  13.585  -3.660  1.00  0.00     0.019 A 
ATOM      8  C   UNL     1      50.573  14.071  -4.182  1.00  0.00     0.094 A 
ATOM      9  C   UNL     1      50.606  15.364  -4.713  1.00  0.00     0.336 A 
ATOM     10  O   UNL     1      51.678  15.820  -5.189  1.00  0.00    -0.246 OA
ATOM     11  O   UNL     1      49.509  16.117  -4.720  1.00  0.00    -0.423 OA
ENDROOT
BRANCH   1  12
ATOM     12  O   UNL     1      44.633  14.401  -2.702  1.00  0.00    -0.493 OA
ATOM     13  C   UNL     1      43.825  13.377  -3.273  1.00  0.00     0.278 C 
ENDBRANCH   1  12
BRANCH   2  14
ATOM     14  O   UNL     1      44.884  16.923  -3.789  1.00  0.00    -0.504 OA
ATOM     15  H   UNL     1      43.978  16.615  -3.456  1.00  0.00     0.293 HD
ENDBRANCH   2  14
TORSDOF 2
ENDMDL
MODEL 8
REMARK VINA RESULT:    -4.101      5.654      7.894
REMARK INTER + INTRA:          -4.290
REMARK INTER:                  -4.244
REMARK INTRA:                  -0.046
REMARK UNBOUND:                 0.170
REMARK SMILES COc1cc2ccc(=O)oc2cc1O
REMARK SMILES IDX 3 1 13 2 12 3 11 4 5 5 4 6 6 7 7 8 8 9 9 10 10 11 2 12 1 13
REMARK SMILES IDX 14 14
REMARK H PARENT 14 15
REMARK Flexibility Score: inf
ROOT
ATOM      1  C   UNL     1      48.406  13.028  -2.751  1.00  0.00     0.161 A 
ATOM      2  C   UNL     1      49.185  13.850  -3.581  1.00  0.00     0.161 A 
ATOM      3  C   UNL     1      48.640  15.018  -4.132  1.00  0.00     0.098 A 
ATOM      4  C   UNL     1      47.317  15.374  -3.861  1.00  0.00     0.142 A 
ATOM      5  C   UNL     1      46.527  14.554  -3.029  1.00  0.00     0.022 A 
ATOM      6  C   UNL     1      47.071  13.386  -2.477  1.00  0.00     0.062 A 
ATOM      7  C   UNL     1      45.205  14.937  -2.776  1.00  0.00     0.019 A 
ATOM      8  C   UNL     1      44.710  16.107  -3.348  1.00  0.00     0.094 A 
ATOM      9  C   UNL     1      45.551  16.871  -4.164  1.00  0.00     0.336 A 
ATOM     10  O   UNL     1      45.123  17.932  -4.690  1.00  0.00    -0.246 OA
ATOM     11  O   UNL     1      46.805  16.485  -4.388  1.00  0.00    -0.423 OA
ENDROOT
BRANCH   1  12
ATOM     12  O   UNL     1      48.993  11.868  -2.220  1.00  0.00    -0.493 OA
ATOM     13  C   UNL     1      48.534  11.193  -1.053  1.00  0.00     0.278 C 
ENDBRANCH   1  12
BRANCH   2  14
ATOM     14  O   UNL     1      50.506  13.498  -3.853  1.00  0.00    -0.504 OA
ATOM     15  H   UNL     1      50.792  13.180  -4.771  1.00  0.00     0.293 HD
ENDBRANCH   2  14
TORSDOF 2
ENDMDL
