MODEL 1
REMARK VINA RESULT:    -5.094      0.000      0.000
REMARK INTER + INTRA:          -9.144
REMARK INTER:                  -8.072
REMARK INTRA:                  -1.072
REMARK UNBOUND:                -1.072
REMARK SMILES CCCCCCCCCCCC(=O)[O-]
REMARK SMILES IDX 7 1 8 2 9 3 10 4 11 5 12 6 13 7 14 8 6 9 5 10 4 11 3 12 2 13
REMARK SMILES IDX 1 14
REMARK H PARENT
REMARK Flexibility Score: inf
ROOT
ATOM      1  C   UNL     1       9.856  21.551  -7.933  1.00  0.00     0.000 C 
ENDROOT
BRANCH   1   2
ATOM      2  C   UNL     1       9.540  22.067  -9.348  1.00  0.00     0.000 C 
BRANCH   2   3
ATOM      3  C   UNL     1       8.159  22.741  -9.446  1.00  0.00     0.000 C 
BRANCH   3   4
ATOM      4  C   UNL     1       8.020  24.061  -8.664  1.00  0.00     0.006 C 
BRANCH   4   5
ATOM      5  C   UNL     1       6.693  24.166  -7.900  1.00  0.00     0.053 C 
BRANCH   5   6
ATOM      6  C   UNL     1       6.945  24.305  -6.432  1.00  0.00     0.041 C 
ATOM      7  O   UNL     1       6.610  25.357  -5.828  1.00  0.00    -0.550 OA
ATOM      8  O   UNL     1       7.595  23.291  -5.739  1.00  0.00    -0.550 OA
ENDBRANCH   5   6
ENDBRANCH   4   5
ENDBRANCH   3   4
ENDBRANCH   2   3
ENDBRANCH   1   2
BRANCH   1   9
ATOM      9  C   UNL     1      10.953  20.474  -7.929  1.00  0.00     0.000 C 
BRANCH   9  10
ATOM     10  C   UNL     1      12.352  21.052  -8.191  1.00  0.00    -0.000 C 
BRANCH  10  11
ATOM     11  C   UNL     1      12.580  22.328  -7.372  1.00  0.00    -0.000 C 
BRANCH  11  12
ATOM     12  C   UNL     1      13.159  23.449  -8.249  1.00  0.00    -0.000 C 
BRANCH  12  13
ATOM     13  C   UNL     1      12.105  24.495  -8.641  1.00  0.00    -0.003 C 
ATOM     14  C   UNL     1      11.988  24.681 -10.153  1.00  0.00     0.004 C 
ENDBRANCH  12  13
ENDBRANCH  11  12
ENDBRANCH  10  11
ENDBRANCH   9  10
ENDBRANCH   1   9
TORSDOF 10
ENDMDL
MODEL 2
REMARK VINA RESULT:    -5.087      0.885      2.525
REMARK INTER + INTRA:          -9.132
REMARK INTER:                  -8.036
REMARK INTRA:                  -1.096
REMARK UNBOUND:                -1.072
REMARK SMILES CCCCCCCCCCCC(=O)[O-]
REMARK SMILES IDX 7 1 8 2 9 3 10 4 11 5 12 6 13 7 14 8 6 9 5 10 4 11 3 12 2 13
REMARK SMILES IDX 1 14
REMARK H PARENT
REMARK Flexibility Score: inf
ROOT
ATOM      1  C   UNL     1      10.410  22.989 -10.142  1.00  0.00     0.000 C 
ENDROOT
BRANCH   1   2
ATOM      2  C   UNL     1       8.949  22.693  -9.763  1.00  0.00     0.000 C 
BRANCH   2   3
ATOM      3  C   UNL     1       8.537  23.329  -8.423  1.00  0.00     0.000 C 
BRANCH   3   4
ATOM      4  C   UNL     1       7.187  24.071  -8.439  1.00  0.00     0.006 C 
BRANCH   4   5
ATOM      5  C   UNL     1       6.246  23.626  -7.311  1.00  0.00     0.053 C 
BRANCH   5   6
ATOM      6  C   UNL     1       6.775  24.074  -5.985  1.00  0.00     0.041 C 
ATOM      7  O   UNL     1       6.644  25.273  -5.622  1.00  0.00    -0.550 OA
ATOM      8  O   UNL     1       7.457  23.179  -5.169  1.00  0.00    -0.550 OA
ENDBRANCH   5   6
ENDBRANCH   4   5
ENDBRANCH   3   4
ENDBRANCH   2   3
ENDBRANCH   1   2
BRANCH   1   9
ATOM      9  C   UNL     1      11.046  24.064  -9.245  1.00  0.00     0.000 C 
BRANCH   9  10
ATOM     10  C   UNL     1      12.311  23.566  -8.528  1.00  0.00    -0.000 C 
BRANCH  10  11
ATOM     11  C   UNL     1      11.972  22.452  -7.531  1.00  0.00    -0.000 C 
BRANCH  11  12
ATOM     12  C   UNL     1      12.686  21.143  -7.904  1.00  0.00    -0.000 C 
BRANCH  12  13
ATOM     13  C   UNL     1      11.704  20.016  -8.255  1.00  0.00    -0.003 C 
ATOM     14  C   UNL     1      10.353  20.166  -7.556  1.00  0.00     0.004 C 
ENDBRANCH  12  13
ENDBRANCH  11  12
ENDBRANCH  10  11
ENDBRANCH   9  10
ENDBRANCH   1   9
TORSDOF 10
ENDMDL
MODEL 3
REMARK VINA RESULT:    -4.975      2.818      5.189
REMARK INTER + INTRA:          -8.955
REMARK INTER:                  -7.684
REMARK INTRA:                  -1.271
REMARK UNBOUND:                -1.072
REMARK SMILES CCCCCCCCCCCC(=O)[O-]
REMARK SMILES IDX 7 1 8 2 9 3 10 4 11 5 12 6 13 7 14 8 6 9 5 10 4 11 3 12 2 13
REMARK SMILES IDX 1 14
REMARK H PARENT
REMARK Flexibility Score: inf
ROOT
ATOM      1  C   UNL     1       8.853  21.739  -5.744  1.00  0.00     0.000 C 
ENDROOT
BRANCH   1   2
ATOM      2  C   UNL     1       9.971  22.142  -6.720  1.00  0.00     0.000 C 
BRANCH   2   3
ATOM      3  C   UNL     1       9.871  21.421  -8.077  1.00  0.00     0.000 C 
BRANCH   3   4
ATOM      4  C   UNL     1      10.437  22.203  -9.277  1.00  0.00     0.006 C 
BRANCH   4   5
ATOM      5  C   UNL     1      10.561  23.708  -9.005  1.00  0.00     0.053 C 
BRANCH   5   6
ATOM      6  C   UNL     1      11.945  24.183  -9.321  1.00  0.00     0.041 C 
ATOM      7  O   UNL     1      12.905  23.885  -8.564  1.00  0.00    -0.550 OA
ATOM      8  O   UNL     1      12.165  24.997 -10.425  1.00  0.00    -0.550 OA
ENDBRANCH   5   6
ENDBRANCH   4   5
ENDBRANCH   3   4
ENDBRANCH   2   3
ENDBRANCH   1   2
BRANCH   1   9
ATOM      9  C   UNL     1       8.033  22.945  -5.256  1.00  0.00     0.000 C 
BRANCH   9  10
ATOM     10  C   UNL     1       6.734  23.140  -6.055  1.00  0.00    -0.000 C 
BRANCH  10  11
ATOM     11  C   UNL     1       6.798  24.415  -6.902  1.00  0.00    -0.000 C 
BRANCH  11  12
ATOM     12  C   UNL     1       7.248  24.101  -8.338  1.00  0.00    -0.000 C 
BRANCH  12  13
ATOM     13  C   UNL     1       6.234  23.232  -9.097  1.00  0.00    -0.003 C 
ATOM     14  C   UNL     1       6.788  22.688 -10.413  1.00  0.00     0.004 C 
ENDBRANCH  12  13
ENDBRANCH  11  12
ENDBRANCH  10  11
ENDBRANCH   9  10
ENDBRANCH   1   9
TORSDOF 10
ENDMDL
MODEL 4
REMARK VINA RESULT:    -4.963      2.607      5.540
REMARK INTER + INTRA:          -8.936
REMARK INTER:                  -7.999
REMARK INTRA:                  -0.937
REMARK UNBOUND:                -1.072
REMARK SMILES CCCCCCCCCCCC(=O)[O-]
REMARK SMILES IDX 7 1 8 2 9 3 10 4 11 5 12 6 13 7 14 8 6 9 5 10 4 11 3 12 2 13
REMARK SMILES IDX 1 14
REMARK H PARENT
REMARK Flexibility Score: inf
ROOT
ATOM      1  C   UNL     1      10.046  22.169  -9.402  1.00  0.00     0.000 C 
ENDROOT
BRANCH   1   2
ATOM      2  C   UNL     1      10.010  21.295  -8.137  1.00  0.00     0.000 C 
BRANCH   2   3
ATOM      3  C   UNL     1      11.285  20.452  -7.954  1.00  0.00     0.000 C 
BRANCH   3   4
ATOM      4  C   UNL     1      12.608  21.219  -8.135  1.00  0.00     0.006 C 
BRANCH   4   5
ATOM      5  C   UNL     1      12.788  22.351  -7.115  1.00  0.00     0.053 C 
BRANCH   5   6
ATOM      6  C   UNL     1      13.364  23.563  -7.776  1.00  0.00     0.041 C 
ATOM      7  O   UNL     1      12.616  24.359  -8.402  1.00  0.00    -0.550 OA
ATOM      8  O   UNL     1      14.734  23.789  -7.743  1.00  0.00    -0.550 OA
ENDBRANCH   5   6
ENDBRANCH   4   5
ENDBRANCH   3   4
ENDBRANCH   2   3
ENDBRANCH   1   2
BRANCH   1   9
ATOM      9  C   UNL     1       9.004  23.299  -9.368  1.00  0.00     0.000 C 
BRANCH   9  10
ATOM     10  C   UNL     1       7.587  22.810  -9.704  1.00  0.00    -0.000 C 
BRANCH  10  11
ATOM     11  C   UNL     1       6.531  23.626  -8.948  1.00  0.00    -0.000 C 
BRANCH  11  12
ATOM     12  C   UNL     1       7.183  24.509  -7.874  1.00  0.00    -0.000 C 
BRANCH  12  13
ATOM     13  C   UNL     1       6.700  24.168  -6.456  1.00  0.00    -0.003 C 
ATOM     14  C   UNL     1       7.618  23.179  -5.739  1.00  0.00     0.004 C 
ENDBRANCH  12  13
ENDBRANCH  11  12
ENDBRANCH  10  11
ENDBRANCH   9  10
ENDBRANCH   1   9
TORSDOF 10
ENDMDL
MODEL 5
REMARK VINA RESULT:    -4.952      2.741      5.445
REMARK INTER + INTRA:          -8.918
REMARK INTER:                  -7.748
REMARK INTRA:                  -1.170
REMARK UNBOUND:                -1.072
REMARK SMILES CCCCCCCCCCCC(=O)[O-]
REMARK SMILES IDX 7 1 8 2 9 3 10 4 11 5 12 6 13 7 14 8 6 9 5 10 4 11 3 12 2 13
REMARK SMILES IDX 1 14
REMARK H PARENT
REMARK Flexibility Score: inf
ROOT
ATOM      1  C   UNL     1       7.175  22.119 -10.177  1.00  0.00     0.000 C 
ENDROOT
BRANCH   1   2
ATOM      2  C   UNL     1       8.643  22.567 -10.074  1.00  0.00     0.000 C 
BRANCH   2   3
ATOM      3  C   UNL     1       9.381  21.929  -8.883  1.00  0.00     0.000 C 
BRANCH   3   4
ATOM      4  C   UNL     1      10.333  22.871  -8.122  1.00  0.00     0.006 C 
BRANCH   4   5
ATOM      5  C   UNL     1      11.803  22.687  -8.523  1.00  0.00     0.053 C 
BRANCH   5   6
ATOM      6  C   UNL     1      12.438  24.013  -8.800  1.00  0.00     0.041 C 
ATOM      7  O   UNL     1      13.322  24.467  -8.026  1.00  0.00    -0.550 OA
ATOM      8  O   UNL     1      12.019  24.772  -9.886  1.00  0.00    -0.550 OA
ENDBRANCH   5   6
ENDBRANCH   4   5
ENDBRANCH   3   4
ENDBRANCH   2   3
ENDBRANCH   1   2
BRANCH   1   9
ATOM      9  C   UNL     1       6.223  23.034  -9.389  1.00  0.00     0.000 C 
BRANCH   9  10
ATOM     10  C   UNL     1       6.756  24.468  -9.252  1.00  0.00    -0.000 C 
BRANCH  10  11
ATOM     11  C   UNL     1       7.111  24.785  -7.794  1.00  0.00    -0.000 C 
BRANCH  11  12
ATOM     12  C   UNL     1       6.480  23.760  -6.839  1.00  0.00    -0.000 C 
BRANCH  12  13
ATOM     13  C   UNL     1       7.178  23.721  -5.471  1.00  0.00    -0.003 C 
ATOM     14  C   UNL     1       8.032  22.469  -5.277  1.00  0.00     0.004 C 
ENDBRANCH  12  13
ENDBRANCH  11  12
ENDBRANCH  10  11
ENDBRANCH   9  10
ENDBRANCH   1   9
TORSDOF 10
ENDMDL
MODEL 6
REMARK VINA RESULT:    -4.942      2.300      5.372
REMARK INTER + INTRA:          -8.903
REMARK INTER:                  -8.067
REMARK INTRA:                  -0.836
REMARK UNBOUND:                -1.072
REMARK SMILES CCCCCCCCCCCC(=O)[O-]
REMARK SMILES IDX 7 1 8 2 9 3 10 4 11 5 12 6 13 7 14 8 6 9 5 10 4 11 3 12 2 13
REMARK SMILES IDX 1 14
REMARK H PARENT
REMARK Flexibility Score: inf
ROOT
ATOM      1  C   UNL     1      10.019  22.483  -9.748  1.00  0.00     0.000 C 
ENDROOT
BRANCH   1   2
ATOM      2  C   UNL     1      11.263  23.271 -10.192  1.00  0.00     0.000 C 
BRANCH   2   3
ATOM      3  C   UNL     1      11.604  24.437  -9.246  1.00  0.00     0.000 C 
BRANCH   3   4
ATOM      4  C   UNL     1      12.914  24.274  -8.453  1.00  0.00     0.006 C 
BRANCH   4   5
ATOM      5  C   UNL     1      13.230  22.812  -8.113  1.00  0.00     0.053 C 
BRANCH   5   6
ATOM      6  C   UNL     1      12.735  22.476  -6.741  1.00  0.00     0.041 C 
ATOM      7  O   UNL     1      11.532  22.151  -6.563  1.00  0.00    -0.550 OA
ATOM      8  O   UNL     1      13.592  22.570  -5.651  1.00  0.00    -0.550 OA
ENDBRANCH   5   6
ENDBRANCH   4   5
ENDBRANCH   3   4
ENDBRANCH   2   3
ENDBRANCH   1   2
BRANCH   1   9
ATOM      9  C   UNL     1       9.188  23.237  -8.696  1.00  0.00     0.000 C 
BRANCH   9  10
ATOM     10  C   UNL     1       7.722  23.419  -9.119  1.00  0.00    -0.000 C 
BRANCH  10  11
ATOM     11  C   UNL     1       6.994  24.383  -8.174  1.00  0.00    -0.000 C 
BRANCH  11  12
ATOM     12  C   UNL     1       6.383  23.630  -6.982  1.00  0.00    -0.000 C 
BRANCH  12  13
ATOM     13  C   UNL     1       7.134  23.895  -5.669  1.00  0.00    -0.003 C 
ATOM     14  C   UNL     1       7.871  22.662  -5.147  1.00  0.00     0.004 C 
ENDBRANCH  12  13
ENDBRANCH  11  12
ENDBRANCH  10  11
ENDBRANCH   9  10
ENDBRANCH   1   9
TORSDOF 10
ENDMDL
MODEL 7
REMARK VINA RESULT:    -4.869      2.227      2.426
REMARK INTER + INTRA:          -8.788
REMARK INTER:                  -7.693
REMARK INTRA:                  -1.095
REMARK UNBOUND:                -1.072
REMARK SMILES CCCCCCCCCCCC(=O)[O-]
REMARK SMILES IDX 7 1 8 2 9 3 10 4 11 5 12 6 13 7 14 8 6 9 5 10 4 11 3 12 2 13
REMARK SMILES IDX 1 14
REMARK H PARENT
REMARK Flexibility Score: inf
ROOT
ATOM      1  C   UNL     1      10.001  22.109  -7.189  1.00  0.00     0.000 C 
ENDROOT
BRANCH   1   2
ATOM      2  C   UNL     1       8.860  22.827  -7.930  1.00  0.00     0.000 C 
BRANCH   2   3
ATOM      3  C   UNL     1       8.808  22.481  -9.429  1.00  0.00     0.000 C 
BRANCH   3   4
ATOM      4  C   UNL     1       7.405  22.532 -10.063  1.00  0.00     0.006 C 
BRANCH   4   5
ATOM      5  C   UNL     1       6.475  23.541  -9.378  1.00  0.00     0.053 C 
BRANCH   5   6
ATOM      6  C   UNL     1       5.056  23.309  -9.793  1.00  0.00     0.041 C 
ATOM      7  O   UNL     1       4.588  23.894 -10.805  1.00  0.00    -0.550 OA
ATOM      8  O   UNL     1       4.236  22.483  -9.035  1.00  0.00    -0.550 OA
ENDBRANCH   5   6
ENDBRANCH   4   5
ENDBRANCH   3   4
ENDBRANCH   2   3
ENDBRANCH   1   2
BRANCH   1   9
ATOM      9  C   UNL     1      10.701  21.056  -8.063  1.00  0.00     0.000 C 
BRANCH   9  10
ATOM     10  C   UNL     1      12.227  21.051  -7.878  1.00  0.00    -0.000 C 
BRANCH  10  11
ATOM     11  C   UNL     1      12.696  22.323  -7.162  1.00  0.00    -0.000 C 
BRANCH  11  12
ATOM     12  C   UNL     1      13.401  23.277  -8.139  1.00  0.00    -0.000 C 
BRANCH  12  13
ATOM     13  C   UNL     1      12.540  24.496  -8.499  1.00  0.00    -0.003 C 
ATOM     14  C   UNL     1      11.930  24.400  -9.897  1.00  0.00     0.004 C 
ENDBRANCH  12  13
ENDBRANCH  11  12
ENDBRANCH  10  11
ENDBRANCH   9  10
ENDBRANCH   1   9
TORSDOF 10
ENDMDL
MODEL 8
REMARK VINA RESULT:    -4.864      2.017      5.252
REMARK INTER + INTRA:          -8.780
REMARK INTER:                  -7.821
REMARK INTRA:                  -0.959
REMARK UNBOUND:                -1.072
REMARK SMILES CCCCCCCCCCCC(=O)[O-]
REMARK SMILES IDX 7 1 8 2 9 3 10 4 11 5 12 6 13 7 14 8 6 9 5 10 4 11 3 12 2 13
REMARK SMILES IDX 1 14
REMARK H PARENT
REMARK Flexibility Score: inf
ROOT
ATOM      1  C   UNL     1      10.623  23.103 -10.166  1.00  0.00     0.000 C 
ENDROOT
BRANCH   1   2
ATOM      2  C   UNL     1      11.261  24.265  -9.386  1.00  0.00     0.000 C 
BRANCH   2   3
ATOM      3  C   UNL     1      12.424  23.813  -8.483  1.00  0.00     0.000 C 
BRANCH   3   4
ATOM      4  C   UNL     1      12.380  22.336  -8.050  1.00  0.00     0.006 C 
BRANCH   4   5
ATOM      5  C   UNL     1      11.805  22.142  -6.641  1.00  0.00     0.053 C 
BRANCH   5   6
ATOM      6  C   UNL     1      10.484  21.443  -6.708  1.00  0.00     0.041 C 
ATOM      7  O   UNL     1       9.522  21.837  -5.997  1.00  0.00    -0.550 OA
ATOM      8  O   UNL     1      10.328  20.327  -7.519  1.00  0.00    -0.550 OA
ENDBRANCH   5   6
ENDBRANCH   4   5
ENDBRANCH   3   4
ENDBRANCH   2   3
ENDBRANCH   1   2
BRANCH   1   9
ATOM      9  C   UNL     1       9.175  22.825  -9.730  1.00  0.00     0.000 C 
BRANCH   9  10
ATOM     10  C   UNL     1       8.629  23.894  -8.770  1.00  0.00    -0.000 C 
BRANCH  10  11
ATOM     11  C   UNL     1       7.176  23.595  -8.385  1.00  0.00    -0.000 C 
BRANCH  11  12
ATOM     12  C   UNL     1       6.228  23.858  -9.566  1.00  0.00    -0.000 C 
BRANCH  12  13
ATOM     13  C   UNL     1       5.310  22.664  -9.863  1.00  0.00    -0.003 C 
ATOM     14  C   UNL     1       4.132  22.566  -8.895  1.00  0.00     0.004 C 
ENDBRANCH  12  13
ENDBRANCH  11  12
ENDBRANCH  10  11
ENDBRANCH   9  10
ENDBRANCH   1   9
TORSDOF 10
ENDMDL
MODEL 9
REMARK VINA RESULT:    -4.838      2.818      5.806
REMARK INTER + INTRA:          -8.738
REMARK INTER:                  -7.540
REMARK INTRA:                  -1.198
REMARK UNBOUND:                -1.072
REMARK SMILES CCCCCCCCCCCC(=O)[O-]
REMARK SMILES IDX 7 1 8 2 9 3 10 4 11 5 12 6 13 7 14 8 6 9 5 10 4 11 3 12 2 13
REMARK SMILES IDX 1 14
REMARK H PARENT
REMARK Flexibility Score: inf
ROOT
ATOM      1  C   UNL     1       6.729  23.226  -6.138  1.00  0.00     0.000 C 
ENDROOT
BRANCH   1   2
ATOM      2  C   UNL     1       7.986  23.043  -5.270  1.00  0.00     0.000 C 
BRANCH   2   3
ATOM      3  C   UNL     1       8.709  21.711  -5.536  1.00  0.00     0.000 C 
BRANCH   3   4
ATOM      4  C   UNL     1      10.030  21.828  -6.320  1.00  0.00     0.006 C 
BRANCH   4   5
ATOM      5  C   UNL     1      10.007  21.060  -7.648  1.00  0.00     0.053 C 
BRANCH   5   6
ATOM      6  C   UNL     1      11.089  21.556  -8.556  1.00  0.00     0.041 C 
ATOM      7  O   UNL     1      10.803  22.274  -9.549  1.00  0.00    -0.550 OA
ATOM      8  O   UNL     1      12.409  21.185  -8.332  1.00  0.00    -0.550 OA
ENDBRANCH   5   6
ENDBRANCH   4   5
ENDBRANCH   3   4
ENDBRANCH   2   3
ENDBRANCH   1   2
BRANCH   1   9
ATOM      9  C   UNL     1       6.852  24.411  -7.111  1.00  0.00     0.000 C 
BRANCH   9  10
ATOM     10  C   UNL     1       7.824  24.130  -8.267  1.00  0.00    -0.000 C 
BRANCH  10  11
ATOM     11  C   UNL     1       7.206  23.160  -9.280  1.00  0.00    -0.000 C 
BRANCH  11  12
ATOM     12  C   UNL     1       5.932  23.751  -9.902  1.00  0.00    -0.000 C 
BRANCH  12  13
ATOM     13  C   UNL     1       4.803  22.717 -10.029  1.00  0.00    -0.003 C 
ATOM     14  C   UNL     1       4.025  22.525  -8.727  1.00  0.00     0.004 C 
ENDBRANCH  12  13
ENDBRANCH  11  12
ENDBRANCH  10  11
ENDBRANCH   9  10
ENDBRANCH   1   9
TORSDOF 10
ENDMDL
