MODEL 1
REMARK VINA RESULT:    -6.608      0.000      0.000
REMARK INTER + INTRA:         -11.811
REMARK INTER:                 -11.244
REMARK INTRA:                  -0.567
REMARK UNBOUND:                -0.567
REMARK SMILES CCCCCCCCCCCCCC(=O)[O-]
REMARK SMILES IDX 8 1 9 2 10 3 11 4 12 5 13 6 14 7 15 8 16 9 7 10 6 11 5 12
REMARK SMILES IDX 4 13 3 14 2 15 1 16
REMARK H PARENT
REMARK Flexibility Score: inf
ROOT
ATOM      1  C   UNL     1      -4.411   4.478   5.403  1.00  0.00     0.000 C 
ENDROOT
BRANCH   1   2
ATOM      2  C   UNL     1      -3.105   3.663   5.427  1.00  0.00     0.000 C 
BRANCH   2   3
ATOM      3  C   UNL     1      -2.992   2.638   6.573  1.00  0.00     0.000 C 
BRANCH   3   4
ATOM      4  C   UNL     1      -3.200   3.209   7.989  1.00  0.00     0.000 C 
BRANCH   4   5
ATOM      5  C   UNL     1      -2.701   2.307   9.135  1.00  0.00     0.006 C 
BRANCH   5   6
ATOM      6  C   UNL     1      -2.095   0.972   8.673  1.00  0.00     0.053 C 
BRANCH   6   7
ATOM      7  C   UNL     1      -0.698   0.786   9.180  1.00  0.00     0.041 C 
ATOM      8  O   UNL     1      -0.461  -0.050  10.091  1.00  0.00    -0.550 OA
ATOM      9  O   UNL     1       0.336   1.560   8.669  1.00  0.00    -0.550 OA
ENDBRANCH   6   7
ENDBRANCH   5   6
ENDBRANCH   4   5
ENDBRANCH   3   4
ENDBRANCH   2   3
ENDBRANCH   1   2
BRANCH   1  10
ATOM     10  C   UNL     1      -4.288   5.781   4.596  1.00  0.00     0.000 C 
BRANCH  10  11
ATOM     11  C   UNL     1      -5.643   6.295   4.073  1.00  0.00    -0.000 C 
BRANCH  11  12
ATOM     12  C   UNL     1      -5.686   6.626   2.569  1.00  0.00    -0.000 C 
BRANCH  12  13
ATOM     13  C   UNL     1      -7.041   6.298   1.921  1.00  0.00    -0.000 C 
BRANCH  13  14
ATOM     14  C   UNL     1      -8.020   5.633   2.904  1.00  0.00    -0.000 C 
BRANCH  14  15
ATOM     15  C   UNL     1      -9.488   5.805   2.484  1.00  0.00    -0.003 C 
ATOM     16  C   UNL     1      -9.615   5.933   0.969  1.00  0.00     0.004 C 
ENDBRANCH  14  15
ENDBRANCH  13  14
ENDBRANCH  12  13
ENDBRANCH  11  12
ENDBRANCH  10  11
ENDBRANCH   1  10
TORSDOF 12
ENDMDL
MODEL 2
REMARK VINA RESULT:    -6.480      3.318      4.136
REMARK INTER + INTRA:         -11.592
REMARK INTER:                 -10.856
REMARK INTRA:                  -0.736
REMARK UNBOUND:                -0.567
REMARK SMILES CCCCCCCCCCCCCC(=O)[O-]
REMARK SMILES IDX 8 1 9 2 10 3 11 4 12 5 13 6 14 7 15 8 16 9 7 10 6 11 5 12
REMARK SMILES IDX 4 13 3 14 2 15 1 16
REMARK H PARENT
REMARK Flexibility Score: inf
ROOT
ATOM      1  C   UNL     1      -3.896   5.649   4.654  1.00  0.00     0.000 C 
ENDROOT
BRANCH   1   2
ATOM      2  C   UNL     1      -4.207   4.484   5.612  1.00  0.00     0.000 C 
BRANCH   2   3
ATOM      3  C   UNL     1      -3.300   3.247   5.455  1.00  0.00     0.000 C 
BRANCH   3   4
ATOM      4  C   UNL     1      -3.218   2.667   4.030  1.00  0.00     0.000 C 
BRANCH   4   5
ATOM      5  C   UNL     1      -4.497   1.958   3.541  1.00  0.00     0.006 C 
BRANCH   5   6
ATOM      6  C   UNL     1      -4.241   0.693   2.707  1.00  0.00     0.053 C 
BRANCH   6   7
ATOM      7  C   UNL     1      -4.671  -0.549   3.425  1.00  0.00     0.041 C 
ATOM      8  O   UNL     1      -5.860  -0.671   3.823  1.00  0.00    -0.550 OA
ATOM      9  O   UNL     1      -3.750  -1.556   3.685  1.00  0.00    -0.550 OA
ENDBRANCH   6   7
ENDBRANCH   5   6
ENDBRANCH   4   5
ENDBRANCH   3   4
ENDBRANCH   2   3
ENDBRANCH   1   2
BRANCH   1  10
ATOM     10  C   UNL     1      -5.122   6.534   4.373  1.00  0.00     0.000 C 
BRANCH  10  11
ATOM     11  C   UNL     1      -6.187   5.829   3.511  1.00  0.00    -0.000 C 
BRANCH  11  12
ATOM     12  C   UNL     1      -6.445   6.465   2.132  1.00  0.00    -0.000 C 
BRANCH  12  13
ATOM     13  C   UNL     1      -7.809   6.076   1.537  1.00  0.00    -0.000 C 
BRANCH  13  14
ATOM     14  C   UNL     1      -8.896   5.911   2.613  1.00  0.00    -0.000 C 
BRANCH  14  15
ATOM     15  C   UNL     1     -10.268   5.559   2.019  1.00  0.00    -0.003 C 
ATOM     16  C   UNL     1     -10.370   6.013   0.566  1.00  0.00     0.004 C 
ENDBRANCH  14  15
ENDBRANCH  13  14
ENDBRANCH  12  13
ENDBRANCH  11  12
ENDBRANCH  10  11
ENDBRANCH   1  10
TORSDOF 12
ENDMDL
MODEL 3
REMARK VINA RESULT:    -6.389      3.549      4.474
REMARK INTER + INTRA:         -11.438
REMARK INTER:                 -10.659
REMARK INTRA:                  -0.780
REMARK UNBOUND:                -0.567
REMARK SMILES CCCCCCCCCCCCCC(=O)[O-]
REMARK SMILES IDX 8 1 9 2 10 3 11 4 12 5 13 6 14 7 15 8 16 9 7 10 6 11 5 12
REMARK SMILES IDX 4 13 3 14 2 15 1 16
REMARK H PARENT
REMARK Flexibility Score: inf
ROOT
ATOM      1  C   UNL     1      -4.465   2.243   3.655  1.00  0.00     0.000 C 
ENDROOT
BRANCH   1   2
ATOM      2  C   UNL     1      -4.380   0.867   2.970  1.00  0.00     0.000 C 
BRANCH   2   3
ATOM      3  C   UNL     1      -5.677   0.034   3.004  1.00  0.00     0.000 C 
BRANCH   3   4
ATOM      4  C   UNL     1      -5.755  -1.015   4.130  1.00  0.00     0.000 C 
BRANCH   4   5
ATOM      5  C   UNL     1      -4.420  -1.707   4.469  1.00  0.00     0.006 C 
BRANCH   5   6
ATOM      6  C   UNL     1      -3.990  -1.571   5.939  1.00  0.00     0.053 C 
BRANCH   6   7
ATOM      7  C   UNL     1      -3.115  -2.706   6.374  1.00  0.00     0.041 C 
ATOM      8  O   UNL     1      -1.870  -2.542   6.478  1.00  0.00    -0.550 OA
ATOM      9  O   UNL     1      -3.670  -3.953   6.633  1.00  0.00    -0.550 OA
ENDBRANCH   6   7
ENDBRANCH   5   6
ENDBRANCH   4   5
ENDBRANCH   3   4
ENDBRANCH   2   3
ENDBRANCH   1   2
BRANCH   1  10
ATOM     10  C   UNL     1      -3.286   2.512   4.605  1.00  0.00     0.000 C 
BRANCH  10  11
ATOM     11  C   UNL     1      -3.192   3.986   5.043  1.00  0.00    -0.000 C 
BRANCH  11  12
ATOM     12  C   UNL     1      -4.537   4.670   5.351  1.00  0.00    -0.000 C 
BRANCH  12  13
ATOM     13  C   UNL     1      -4.820   5.875   4.439  1.00  0.00    -0.000 C 
BRANCH  13  14
ATOM     14  C   UNL     1      -6.325   6.138   4.261  1.00  0.00    -0.000 C 
BRANCH  14  15
ATOM     15  C   UNL     1      -6.802   5.896   2.821  1.00  0.00    -0.003 C 
ATOM     16  C   UNL     1      -6.081   6.816   1.841  1.00  0.00     0.004 C 
ENDBRANCH  14  15
ENDBRANCH  13  14
ENDBRANCH  12  13
ENDBRANCH  11  12
ENDBRANCH  10  11
ENDBRANCH   1  10
TORSDOF 12
ENDMDL
MODEL 4
REMARK VINA RESULT:    -6.326      3.988      4.792
REMARK INTER + INTRA:         -11.331
REMARK INTER:                 -10.507
REMARK INTRA:                  -0.824
REMARK UNBOUND:                -0.567
REMARK SMILES CCCCCCCCCCCCCC(=O)[O-]
REMARK SMILES IDX 8 1 9 2 10 3 11 4 12 5 13 6 14 7 15 8 16 9 7 10 6 11 5 12
REMARK SMILES IDX 4 13 3 14 2 15 1 16
REMARK H PARENT
REMARK Flexibility Score: inf
ROOT
ATOM      1  C   UNL     1      -4.448   2.491   3.665  1.00  0.00     0.000 C 
ENDROOT
BRANCH   1   2
ATOM      2  C   UNL     1      -4.160   1.047   3.215  1.00  0.00     0.000 C 
BRANCH   2   3
ATOM      3  C   UNL     1      -5.279   0.381   2.390  1.00  0.00     0.000 C 
BRANCH   3   4
ATOM      4  C   UNL     1      -6.552   0.019   3.180  1.00  0.00     0.000 C 
BRANCH   4   5
ATOM      5  C   UNL     1      -6.575  -1.409   3.760  1.00  0.00     0.006 C 
BRANCH   5   6
ATOM      6  C   UNL     1      -6.016  -1.523   5.187  1.00  0.00     0.053 C 
BRANCH   6   7
ATOM      7  C   UNL     1      -4.576  -1.933   5.194  1.00  0.00     0.041 C 
ATOM      8  O   UNL     1      -3.904  -1.869   6.258  1.00  0.00    -0.550 OA
ATOM      9  O   UNL     1      -3.967  -2.354   4.019  1.00  0.00    -0.550 OA
ENDBRANCH   6   7
ENDBRANCH   5   6
ENDBRANCH   4   5
ENDBRANCH   3   4
ENDBRANCH   2   3
ENDBRANCH   1   2
BRANCH   1  10
ATOM     10  C   UNL     1      -3.356   3.059   4.587  1.00  0.00     0.000 C 
BRANCH  10  11
ATOM     11  C   UNL     1      -3.505   4.572   4.833  1.00  0.00    -0.000 C 
BRANCH  11  12
ATOM     12  C   UNL     1      -4.925   5.045   5.198  1.00  0.00    -0.000 C 
BRANCH  12  13
ATOM     13  C   UNL     1      -5.499   6.055   4.190  1.00  0.00    -0.000 C 
BRANCH  13  14
ATOM     14  C   UNL     1      -6.684   5.484   3.393  1.00  0.00    -0.000 C 
BRANCH  14  15
ATOM     15  C   UNL     1      -6.920   6.227   2.070  1.00  0.00    -0.003 C 
ATOM     16  C   UNL     1      -5.669   6.982   1.633  1.00  0.00     0.004 C 
ENDBRANCH  14  15
ENDBRANCH  13  14
ENDBRANCH  12  13
ENDBRANCH  11  12
ENDBRANCH  10  11
ENDBRANCH   1  10
TORSDOF 12
ENDMDL
MODEL 5
REMARK VINA RESULT:    -6.323      3.623      4.378
REMARK INTER + INTRA:         -11.326
REMARK INTER:                 -10.712
REMARK INTRA:                  -0.614
REMARK UNBOUND:                -0.567
REMARK SMILES CCCCCCCCCCCCCC(=O)[O-]
REMARK SMILES IDX 8 1 9 2 10 3 11 4 12 5 13 6 14 7 15 8 16 9 7 10 6 11 5 12
REMARK SMILES IDX 4 13 3 14 2 15 1 16
REMARK H PARENT
REMARK Flexibility Score: inf
ROOT
ATOM      1  C   UNL     1      -4.214   4.462   5.718  1.00  0.00     0.000 C 
ENDROOT
BRANCH   1   2
ATOM      2  C   UNL     1      -3.487   3.624   4.650  1.00  0.00     0.000 C 
BRANCH   2   3
ATOM      3  C   UNL     1      -4.404   2.795   3.730  1.00  0.00     0.000 C 
BRANCH   3   4
ATOM      4  C   UNL     1      -3.983   1.326   3.533  1.00  0.00     0.000 C 
BRANCH   4   5
ATOM      5  C   UNL     1      -4.898   0.505   2.602  1.00  0.00     0.006 C 
BRANCH   5   6
ATOM      6  C   UNL     1      -5.960  -0.331   3.334  1.00  0.00     0.053 C 
BRANCH   6   7
ATOM      7  C   UNL     1      -5.343  -1.382   4.205  1.00  0.00     0.041 C 
ATOM      8  O   UNL     1      -4.265  -1.937   3.862  1.00  0.00    -0.550 OA
ATOM      9  O   UNL     1      -5.976  -1.773   5.378  1.00  0.00    -0.550 OA
ENDBRANCH   6   7
ENDBRANCH   5   6
ENDBRANCH   4   5
ENDBRANCH   3   4
ENDBRANCH   2   3
ENDBRANCH   1   2
BRANCH   1  10
ATOM     10  C   UNL     1      -5.365   5.300   5.139  1.00  0.00     0.000 C 
BRANCH  10  11
ATOM     11  C   UNL     1      -4.880   6.423   4.204  1.00  0.00    -0.000 C 
BRANCH  11  12
ATOM     12  C   UNL     1      -5.759   6.677   2.965  1.00  0.00    -0.000 C 
BRANCH  12  13
ATOM     13  C   UNL     1      -7.068   5.869   2.982  1.00  0.00    -0.000 C 
BRANCH  13  14
ATOM     14  C   UNL     1      -7.899   6.067   1.704  1.00  0.00    -0.000 C 
BRANCH  14  15
ATOM     15  C   UNL     1      -9.394   5.786   1.921  1.00  0.00    -0.003 C 
ATOM     16  C   UNL     1     -10.172   5.910   0.615  1.00  0.00     0.004 C 
ENDBRANCH  14  15
ENDBRANCH  13  14
ENDBRANCH  12  13
ENDBRANCH  11  12
ENDBRANCH  10  11
ENDBRANCH   1  10
TORSDOF 12
ENDMDL
MODEL 6
REMARK VINA RESULT:    -6.311      5.292      8.039
REMARK INTER + INTRA:         -11.305
REMARK INTER:                 -10.457
REMARK INTRA:                  -0.848
REMARK UNBOUND:                -0.567
REMARK SMILES CCCCCCCCCCCCCC(=O)[O-]
REMARK SMILES IDX 8 1 9 2 10 3 11 4 12 5 13 6 14 7 15 8 16 9 7 10 6 11 5 12
REMARK SMILES IDX 4 13 3 14 2 15 1 16
REMARK H PARENT
REMARK Flexibility Score: inf
ROOT
ATOM      1  C   UNL     1      -4.885   4.930   5.351  1.00  0.00     0.000 C 
ENDROOT
BRANCH   1   2
ATOM      2  C   UNL     1      -5.571   6.128   4.670  1.00  0.00     0.000 C 
BRANCH   2   3
ATOM      3  C   UNL     1      -5.143   6.388   3.212  1.00  0.00     0.000 C 
BRANCH   3   4
ATOM      4  C   UNL     1      -6.288   6.390   2.180  1.00  0.00     0.000 C 
BRANCH   4   5
ATOM      5  C   UNL     1      -7.553   5.620   2.611  1.00  0.00     0.006 C 
BRANCH   5   6
ATOM      6  C   UNL     1      -8.816   5.979   1.812  1.00  0.00     0.053 C 
BRANCH   6   7
ATOM      7  C   UNL     1     -10.067   5.679   2.578  1.00  0.00     0.041 C 
ATOM      8  O   UNL     1     -11.012   6.513   2.600  1.00  0.00    -0.550 OA
ATOM      9  O   UNL     1     -10.177   4.494   3.294  1.00  0.00    -0.550 OA
ENDBRANCH   6   7
ENDBRANCH   5   6
ENDBRANCH   4   5
ENDBRANCH   3   4
ENDBRANCH   2   3
ENDBRANCH   1   2
BRANCH   1  10
ATOM     10  C   UNL     1      -3.508   4.608   4.747  1.00  0.00     0.000 C 
BRANCH  10  11
ATOM     11  C   UNL     1      -3.301   3.103   4.490  1.00  0.00    -0.000 C 
BRANCH  11  12
ATOM     12  C   UNL     1      -4.429   2.406   3.706  1.00  0.00    -0.000 C 
BRANCH  12  13
ATOM     13  C   UNL     1      -4.067   0.974   3.279  1.00  0.00    -0.000 C 
BRANCH  13  14
ATOM     14  C   UNL     1      -5.126   0.350   2.354  1.00  0.00    -0.000 C 
BRANCH  14  15
ATOM     15  C   UNL     1      -6.422  -0.009   3.096  1.00  0.00    -0.003 C 
ATOM     16  C   UNL     1      -6.188  -1.135   4.099  1.00  0.00     0.004 C 
ENDBRANCH  14  15
ENDBRANCH  13  14
ENDBRANCH  12  13
ENDBRANCH  11  12
ENDBRANCH  10  11
ENDBRANCH   1  10
TORSDOF 12
ENDMDL
MODEL 7
REMARK VINA RESULT:    -6.308      5.051      7.720
REMARK INTER + INTRA:         -11.299
REMARK INTER:                 -10.252
REMARK INTRA:                  -1.047
REMARK UNBOUND:                -0.567
REMARK SMILES CCCCCCCCCCCCCC(=O)[O-]
REMARK SMILES IDX 8 1 9 2 10 3 11 4 12 5 13 6 14 7 15 8 16 9 7 10 6 11 5 12
REMARK SMILES IDX 4 13 3 14 2 15 1 16
REMARK H PARENT
REMARK Flexibility Score: inf
ROOT
ATOM      1  C   UNL     1      -4.004   0.973   2.980  1.00  0.00     0.000 C 
ENDROOT
BRANCH   1   2
ATOM      2  C   UNL     1      -4.334   2.305   3.679  1.00  0.00     0.000 C 
BRANCH   2   3
ATOM      3  C   UNL     1      -3.354   2.720   4.795  1.00  0.00     0.000 C 
BRANCH   3   4
ATOM      4  C   UNL     1      -3.381   4.215   5.170  1.00  0.00     0.000 C 
BRANCH   4   5
ATOM      5  C   UNL     1      -4.787   4.846   5.233  1.00  0.00     0.006 C 
BRANCH   5   6
ATOM      6  C   UNL     1      -4.959   6.098   4.358  1.00  0.00     0.053 C 
BRANCH   6   7
ATOM      7  C   UNL     1      -6.084   5.948   3.380  1.00  0.00     0.041 C 
ATOM      8  O   UNL     1      -6.941   5.038   3.535  1.00  0.00    -0.550 OA
ATOM      9  O   UNL     1      -6.166   6.791   2.280  1.00  0.00    -0.550 OA
ENDBRANCH   6   7
ENDBRANCH   5   6
ENDBRANCH   4   5
ENDBRANCH   3   4
ENDBRANCH   2   3
ENDBRANCH   1   2
BRANCH   1  10
ATOM     10  C   UNL     1      -5.217   0.359   2.262  1.00  0.00     0.000 C 
BRANCH  10  11
ATOM     11  C   UNL     1      -6.430   0.162   3.192  1.00  0.00    -0.000 C 
BRANCH  11  12
ATOM     12  C   UNL     1      -6.733  -1.298   3.579  1.00  0.00    -0.000 C 
BRANCH  12  13
ATOM     13  C   UNL     1      -6.261  -1.653   4.999  1.00  0.00    -0.000 C 
BRANCH  13  14
ATOM     14  C   UNL     1      -4.805  -2.148   5.029  1.00  0.00    -0.000 C 
BRANCH  14  15
ATOM     15  C   UNL     1      -3.925  -1.340   5.995  1.00  0.00    -0.003 C 
ATOM     16  C   UNL     1      -2.854  -2.222   6.630  1.00  0.00     0.004 C 
ENDBRANCH  14  15
ENDBRANCH  13  14
ENDBRANCH  12  13
ENDBRANCH  11  12
ENDBRANCH  10  11
ENDBRANCH   1  10
TORSDOF 12
ENDMDL
MODEL 8
REMARK VINA RESULT:    -6.264      0.704      1.439
REMARK INTER + INTRA:         -11.226
REMARK INTER:                 -10.754
REMARK INTRA:                  -0.472
REMARK UNBOUND:                -0.567
REMARK SMILES CCCCCCCCCCCCCC(=O)[O-]
REMARK SMILES IDX 8 1 9 2 10 3 11 4 12 5 13 6 14 7 15 8 16 9 7 10 6 11 5 12
REMARK SMILES IDX 4 13 3 14 2 15 1 16
REMARK H PARENT
REMARK Flexibility Score: inf
ROOT
ATOM      1  C   UNL     1      -4.006   5.396   4.581  1.00  0.00     0.000 C 
ENDROOT
BRANCH   1   2
ATOM      2  C   UNL     1      -4.191   4.157   5.476  1.00  0.00     0.000 C 
BRANCH   2   3
ATOM      3  C   UNL     1      -2.895   3.392   5.814  1.00  0.00     0.000 C 
BRANCH   3   4
ATOM      4  C   UNL     1      -3.010   2.385   6.975  1.00  0.00     0.000 C 
BRANCH   4   5
ATOM      5  C   UNL     1      -3.067   3.016   8.381  1.00  0.00     0.006 C 
BRANCH   5   6
ATOM      6  C   UNL     1      -2.416   2.166   9.483  1.00  0.00     0.053 C 
BRANCH   6   7
ATOM      7  C   UNL     1      -1.263   1.362   8.965  1.00  0.00     0.041 C 
ATOM      8  O   UNL     1      -0.153   1.915   8.746  1.00  0.00    -0.550 OA
ATOM      9  O   UNL     1      -1.425   0.009   8.692  1.00  0.00    -0.550 OA
ENDBRANCH   6   7
ENDBRANCH   5   6
ENDBRANCH   4   5
ENDBRANCH   3   4
ENDBRANCH   2   3
ENDBRANCH   1   2
BRANCH   1  10
ATOM     10  C   UNL     1      -5.272   6.264   4.494  1.00  0.00     0.000 C 
BRANCH  10  11
ATOM     11  C   UNL     1      -5.578   6.739   3.060  1.00  0.00    -0.000 C 
BRANCH  11  12
ATOM     12  C   UNL     1      -6.788   6.066   2.387  1.00  0.00    -0.000 C 
BRANCH  12  13
ATOM     13  C   UNL     1      -7.905   5.707   3.380  1.00  0.00    -0.000 C 
BRANCH  13  14
ATOM     14  C   UNL     1      -9.304   5.769   2.743  1.00  0.00    -0.000 C 
BRANCH  14  15
ATOM     15  C   UNL     1      -9.253   5.993   1.224  1.00  0.00    -0.003 C 
ATOM     16  C   UNL     1     -10.594   5.665   0.575  1.00  0.00     0.004 C 
ENDBRANCH  14  15
ENDBRANCH  13  14
ENDBRANCH  12  13
ENDBRANCH  11  12
ENDBRANCH  10  11
ENDBRANCH   1  10
TORSDOF 12
ENDMDL
MODEL 9
REMARK VINA RESULT:    -6.093      7.841      9.993
REMARK INTER + INTRA:         -10.934
REMARK INTER:                 -10.270
REMARK INTRA:                  -0.664
REMARK UNBOUND:                -0.567
REMARK SMILES CCCCCCCCCCCCCC(=O)[O-]
REMARK SMILES IDX 8 1 9 2 10 3 11 4 12 5 13 6 14 7 15 8 16 9 7 10 6 11 5 12
REMARK SMILES IDX 4 13 3 14 2 15 1 16
REMARK H PARENT
REMARK Flexibility Score: inf
ROOT
ATOM      1  C   UNL     1      -4.302   0.388   2.025  1.00  0.00     0.000 C 
ENDROOT
BRANCH   1   2
ATOM      2  C   UNL     1      -5.096   0.399   0.706  1.00  0.00     0.000 C 
BRANCH   2   3
ATOM      3  C   UNL     1      -4.290   0.003  -0.548  1.00  0.00     0.000 C 
BRANCH   3   4
ATOM      4  C   UNL     1      -5.033   0.174  -1.887  1.00  0.00     0.000 C 
BRANCH   4   5
ATOM      5  C   UNL     1      -4.876  -0.999  -2.874  1.00  0.00     0.006 C 
BRANCH   5   6
ATOM      6  C   UNL     1      -3.421  -1.423  -3.128  1.00  0.00     0.053 C 
BRANCH   6   7
ATOM      7  C   UNL     1      -3.248  -2.909  -3.052  1.00  0.00     0.041 C 
ATOM      8  O   UNL     1      -4.252  -3.656  -2.906  1.00  0.00    -0.550 OA
ATOM      9  O   UNL     1      -1.977  -3.466  -3.109  1.00  0.00    -0.550 OA
ENDBRANCH   6   7
ENDBRANCH   5   6
ENDBRANCH   4   5
ENDBRANCH   3   4
ENDBRANCH   2   3
ENDBRANCH   1   2
BRANCH   1  10
ATOM     10  C   UNL     1      -5.171   0.721   3.249  1.00  0.00     0.000 C 
BRANCH  10  11
ATOM     11  C   UNL     1      -6.561   0.057   3.197  1.00  0.00    -0.000 C 
BRANCH  11  12
ATOM     12  C   UNL     1      -6.618  -1.396   3.704  1.00  0.00    -0.000 C 
BRANCH  12  13
ATOM     13  C   UNL     1      -5.908  -1.589   5.054  1.00  0.00    -0.000 C 
BRANCH  13  14
ATOM     14  C   UNL     1      -4.516  -2.227   4.902  1.00  0.00    -0.000 C 
BRANCH  14  15
ATOM     15  C   UNL     1      -3.774  -2.354   6.241  1.00  0.00    -0.003 C 
ATOM     16  C   UNL     1      -3.294  -0.993   6.735  1.00  0.00     0.004 C 
ENDBRANCH  14  15
ENDBRANCH  13  14
ENDBRANCH  12  13
ENDBRANCH  11  12
ENDBRANCH  10  11
ENDBRANCH   1  10
TORSDOF 12
ENDMDL
