MODEL 1
REMARK VINA RESULT:    -6.651      0.000      0.000
REMARK INTER + INTRA:          -7.937
REMARK INTER:                  -7.818
REMARK INTRA:                  -0.119
REMARK UNBOUND:                -0.119
REMARK SMILES O=c1c(O)c(-c2ccc(O)cc2)oc2cc(O)cc(O)c12
REMARK SMILES IDX 5 1 3 2 2 3 1 4 21 5 19 6 18 7 16 8 15 9 14 10 13 11 6 12
REMARK SMILES IDX 7 13 8 14 9 15 12 16 11 17 10 18 4 20 20 22 17 24
REMARK H PARENT 10 19 4 21 20 23 17 25
REMARK Flexibility Score: inf
ROOT
ATOM      1  C   UNL     1       4.857 -60.229 190.022  1.00  0.00     0.180 A 
ATOM      2  C   UNL     1       3.524 -60.420 189.620  1.00  0.00     0.208 A 
ATOM      3  C   UNL     1       3.198 -61.554 188.859  1.00  0.00     0.238 A 
ATOM      4  O   UNL     1       2.014 -61.692 188.456  1.00  0.00    -0.285 OA
ATOM      5  C   UNL     1       4.205 -62.491 188.523  1.00  0.00     0.111 A 
ATOM      6  C   UNL     1       3.980 -63.695 187.792  1.00  0.00     0.134 A 
ATOM      7  C   UNL     1       5.072 -64.483 187.405  1.00  0.00     0.093 A 
ATOM      8  C   UNL     1       6.374 -64.142 187.780  1.00  0.00     0.123 A 
ATOM      9  C   UNL     1       6.597 -63.001 188.545  1.00  0.00     0.094 A 
ATOM     10  C   UNL     1       5.533 -62.176 188.915  1.00  0.00     0.146 A 
ATOM     11  O   UNL     1       5.791 -61.091 189.636  1.00  0.00    -0.452 OA
ENDROOT
BRANCH   1  12
ATOM     12  C   UNL     1       5.274 -59.072 190.847  1.00  0.00     0.021 A 
ATOM     13  C   UNL     1       5.196 -57.776 190.310  1.00  0.00     0.016 A 
ATOM     14  C   UNL     1       5.603 -56.671 191.063  1.00  0.00     0.047 A 
ATOM     15  C   UNL     1       6.108 -56.847 192.355  1.00  0.00     0.115 A 
ATOM     16  C   UNL     1       5.800 -59.245 192.140  1.00  0.00     0.016 A 
ATOM     17  C   UNL     1       6.209 -58.138 192.890  1.00  0.00     0.047 A 
BRANCH  15  18
ATOM     18  O   UNL     1       6.510 -55.738 193.095  1.00  0.00    -0.508 OA
ATOM     19  H   UNL     1       5.920 -54.919 193.184  1.00  0.00     0.293 HD
ENDBRANCH  15  18
ENDBRANCH   1  12
BRANCH   2  20
ATOM     20  O   UNL     1       2.550 -59.472 189.942  1.00  0.00    -0.502 OA
ATOM     21  H   UNL     1       2.457 -58.596 189.443  1.00  0.00     0.293 HD
ENDBRANCH   2  20
BRANCH   6  22
ATOM     22  O   UNL     1       2.713 -64.174 187.447  1.00  0.00    -0.507 OA
ATOM     23  H   UNL     1       1.874 -64.019 187.985  1.00  0.00     0.293 HD
ENDBRANCH   6  22
BRANCH   8  24
ATOM     24  O   UNL     1       7.453 -64.940 187.404  1.00  0.00    -0.508 OA
ATOM     25  H   UNL     1       7.786 -65.693 187.994  1.00  0.00     0.293 HD
ENDBRANCH   8  24
TORSDOF 5
ENDMDL
MODEL 2
REMARK VINA RESULT:    -6.462      1.374      2.994
REMARK INTER + INTRA:          -7.715
REMARK INTER:                  -7.735
REMARK INTRA:                   0.021
REMARK UNBOUND:                -0.119
REMARK SMILES O=c1c(O)c(-c2ccc(O)cc2)oc2cc(O)cc(O)c12
REMARK SMILES IDX 5 1 3 2 2 3 1 4 21 5 19 6 18 7 16 8 15 9 14 10 13 11 6 12
REMARK SMILES IDX 7 13 8 14 9 15 12 16 11 17 10 18 4 20 20 22 17 24
REMARK H PARENT 10 19 4 21 20 23 17 25
REMARK Flexibility Score: inf
ROOT
ATOM      1  C   UNL     1       5.668 -60.975 189.981  1.00  0.00     0.180 A 
ATOM      2  C   UNL     1       6.908 -61.637 190.004  1.00  0.00     0.208 A 
ATOM      3  C   UNL     1       7.070 -62.804 189.240  1.00  0.00     0.238 A 
ATOM      4  O   UNL     1       8.163 -63.423 189.307  1.00  0.00    -0.285 OA
ATOM      5  C   UNL     1       5.997 -63.285 188.451  1.00  0.00     0.111 A 
ATOM      6  C   UNL     1       6.064 -64.434 187.607  1.00  0.00     0.134 A 
ATOM      7  C   UNL     1       4.902 -64.892 186.972  1.00  0.00     0.093 A 
ATOM      8  C   UNL     1       3.693 -64.204 187.100  1.00  0.00     0.123 A 
ATOM      9  C   UNL     1       3.633 -63.048 187.872  1.00  0.00     0.094 A 
ATOM     10  C   UNL     1       4.765 -62.587 188.547  1.00  0.00     0.146 A 
ATOM     11  O   UNL     1       4.661 -61.486 189.282  1.00  0.00    -0.452 OA
ENDROOT
BRANCH   1  12
ATOM     12  C   UNL     1       5.429 -59.725 190.739  1.00  0.00     0.021 A 
ATOM     13  C   UNL     1       4.965 -58.584 190.063  1.00  0.00     0.016 A 
ATOM     14  C   UNL     1       4.753 -57.388 190.754  1.00  0.00     0.047 A 
ATOM     15  C   UNL     1       5.015 -57.311 192.125  1.00  0.00     0.115 A 
ATOM     16  C   UNL     1       5.709 -59.637 192.115  1.00  0.00     0.016 A 
ATOM     17  C   UNL     1       5.497 -58.438 192.804  1.00  0.00     0.047 A 
BRANCH  15  18
ATOM     18  O   UNL     1       4.798 -56.114 192.802  1.00  0.00    -0.508 OA
ATOM     19  H   UNL     1       4.258 -55.362 192.390  1.00  0.00     0.293 HD
ENDBRANCH  15  18
ENDBRANCH   1  12
BRANCH   2  20
ATOM     20  O   UNL     1       7.946 -61.160 190.808  1.00  0.00    -0.502 OA
ATOM     21  H   UNL     1       8.011 -60.191 191.095  1.00  0.00     0.293 HD
ENDBRANCH   2  20
BRANCH   6  22
ATOM     22  O   UNL     1       7.240 -65.139 187.339  1.00  0.00    -0.507 OA
ATOM     23  H   UNL     1       8.132 -64.713 187.138  1.00  0.00     0.293 HD
ENDBRANCH   6  22
BRANCH   8  24
ATOM     24  O   UNL     1       2.545 -64.658 186.451  1.00  0.00    -0.508 OA
ATOM     25  H   UNL     1       1.642 -64.228 186.610  1.00  0.00     0.293 HD
ENDBRANCH   8  24
TORSDOF 5
ENDMDL
MODEL 3
REMARK VINA RESULT:    -6.154      2.016      2.531
REMARK INTER + INTRA:          -7.352
REMARK INTER:                  -7.052
REMARK INTRA:                  -0.300
REMARK UNBOUND:                -0.119
REMARK SMILES O=c1c(O)c(-c2ccc(O)cc2)oc2cc(O)cc(O)c12
REMARK SMILES IDX 5 1 3 2 2 3 1 4 21 5 19 6 18 7 16 8 15 9 14 10 13 11 6 12
REMARK SMILES IDX 7 13 8 14 9 15 12 16 11 17 10 18 4 20 20 22 17 24
REMARK H PARENT 10 19 4 21 20 23 17 25
REMARK Flexibility Score: inf
ROOT
ATOM      1  C   UNL     1       5.101 -59.186 191.723  1.00  0.00     0.180 A 
ATOM      2  C   UNL     1       4.122 -59.332 190.725  1.00  0.00     0.208 A 
ATOM      3  C   UNL     1       4.289 -60.326 189.748  1.00  0.00     0.238 A 
ATOM      4  O   UNL     1       3.438 -60.416 188.826  1.00  0.00    -0.285 OA
ATOM      5  C   UNL     1       5.424 -61.172 189.790  1.00  0.00     0.111 A 
ATOM      6  C   UNL     1       5.674 -62.239 188.875  1.00  0.00     0.134 A 
ATOM      7  C   UNL     1       6.892 -62.927 188.933  1.00  0.00     0.093 A 
ATOM      8  C   UNL     1       7.841 -62.629 189.915  1.00  0.00     0.123 A 
ATOM      9  C   UNL     1       7.580 -61.632 190.849  1.00  0.00     0.094 A 
ATOM     10  C   UNL     1       6.390 -60.903 190.795  1.00  0.00     0.146 A 
ATOM     11  O   UNL     1       6.186 -59.952 191.698  1.00  0.00    -0.452 OA
ENDROOT
BRANCH   1  12
ATOM     12  C   UNL     1       4.982 -58.178 192.802  1.00  0.00     0.021 A 
ATOM     13  C   UNL     1       5.604 -56.927 192.651  1.00  0.00     0.016 A 
ATOM     14  C   UNL     1       5.523 -55.968 193.665  1.00  0.00     0.047 A 
ATOM     15  C   UNL     1       4.835 -56.252 194.848  1.00  0.00     0.115 A 
ATOM     16  C   UNL     1       4.308 -58.465 194.002  1.00  0.00     0.016 A 
ATOM     17  C   UNL     1       4.230 -57.505 195.016  1.00  0.00     0.047 A 
BRANCH  15  18
ATOM     18  O   UNL     1       4.761 -55.288 195.851  1.00  0.00    -0.508 OA
ATOM     19  H   UNL     1       3.960 -55.226 196.468  1.00  0.00     0.293 HD
ENDBRANCH  15  18
ENDBRANCH   1  12
BRANCH   2  20
ATOM     20  O   UNL     1       3.022 -58.471 190.687  1.00  0.00    -0.502 OA
ATOM     21  H   UNL     1       2.754 -57.896 191.476  1.00  0.00     0.293 HD
ENDBRANCH   2  20
BRANCH   6  22
ATOM     22  O   UNL     1       4.755 -62.676 187.917  1.00  0.00    -0.507 OA
ATOM     23  H   UNL     1       3.763 -62.767 188.071  1.00  0.00     0.293 HD
ENDBRANCH   6  22
BRANCH   8  24
ATOM     24  O   UNL     1       9.044 -63.331 189.976  1.00  0.00    -0.508 OA
ATOM     25  H   UNL     1       9.071 -64.320 190.193  1.00  0.00     0.293 HD
ENDBRANCH   8  24
TORSDOF 5
ENDMDL
MODEL 4
REMARK VINA RESULT:    -6.115      1.415      6.477
REMARK INTER + INTRA:          -7.307
REMARK INTER:                  -7.595
REMARK INTRA:                   0.289
REMARK UNBOUND:                -0.119
REMARK SMILES O=c1c(O)c(-c2ccc(O)cc2)oc2cc(O)cc(O)c12
REMARK SMILES IDX 5 1 3 2 2 3 1 4 21 5 19 6 18 7 16 8 15 9 14 10 13 11 6 12
REMARK SMILES IDX 7 13 8 14 9 15 12 16 11 17 10 18 4 20 20 22 17 24
REMARK H PARENT 10 19 4 21 20 23 17 25
REMARK Flexibility Score: inf
ROOT
ATOM      1  C   UNL     1       5.150 -60.782 189.734  1.00  0.00     0.180 A 
ATOM      2  C   UNL     1       3.985 -60.163 189.250  1.00  0.00     0.208 A 
ATOM      3  C   UNL     1       3.496 -59.023 189.907  1.00  0.00     0.238 A 
ATOM      4  O   UNL     1       2.423 -58.506 189.502  1.00  0.00    -0.285 OA
ATOM      5  C   UNL     1       4.187 -58.505 191.029  1.00  0.00     0.111 A 
ATOM      6  C   UNL     1       3.805 -57.332 191.746  1.00  0.00     0.134 A 
ATOM      7  C   UNL     1       4.488 -56.987 192.920  1.00  0.00     0.093 A 
ATOM      8  C   UNL     1       5.580 -57.737 193.364  1.00  0.00     0.123 A 
ATOM      9  C   UNL     1       5.998 -58.848 192.638  1.00  0.00     0.094 A 
ATOM     10  C   UNL     1       5.315 -59.239 191.485  1.00  0.00     0.146 A 
ATOM     11  O   UNL     1       5.740 -60.312 190.828  1.00  0.00    -0.452 OA
ENDROOT
BRANCH   1  12
ATOM     12  C   UNL     1       5.741 -61.972 189.080  1.00  0.00     0.021 A 
ATOM     13  C   UNL     1       7.136 -62.132 189.064  1.00  0.00     0.016 A 
ATOM     14  C   UNL     1       7.717 -63.236 188.434  1.00  0.00     0.047 A 
ATOM     15  C   UNL     1       6.912 -64.186 187.798  1.00  0.00     0.115 A 
ATOM     16  C   UNL     1       4.937 -62.921 188.422  1.00  0.00     0.016 A 
ATOM     17  C   UNL     1       5.521 -64.024 187.791  1.00  0.00     0.047 A 
BRANCH  15  18
ATOM     18  O   UNL     1       7.503 -65.283 187.174  1.00  0.00    -0.508 OA
ATOM     19  H   UNL     1       8.487 -65.493 187.293  1.00  0.00     0.293 HD
ENDBRANCH  15  18
ENDBRANCH   1  12
BRANCH   2  20
ATOM     20  O   UNL     1       3.305 -60.703 188.155  1.00  0.00    -0.502 OA
ATOM     21  H   UNL     1       3.685 -60.691 187.217  1.00  0.00     0.293 HD
ENDBRANCH   2  20
BRANCH   6  22
ATOM     22  O   UNL     1       2.789 -56.464 191.337  1.00  0.00    -0.507 OA
ATOM     23  H   UNL     1       1.803 -56.640 191.452  1.00  0.00     0.293 HD
ENDBRANCH   6  22
BRANCH   8  24
ATOM     24  O   UNL     1       6.264 -57.377 194.524  1.00  0.00    -0.508 OA
ATOM     25  H   UNL     1       6.742 -56.487 194.603  1.00  0.00     0.293 HD
ENDBRANCH   8  24
TORSDOF 5
ENDMDL
MODEL 5
REMARK VINA RESULT:    -6.049      2.036      2.646
REMARK INTER + INTRA:          -7.228
REMARK INTER:                  -7.029
REMARK INTRA:                  -0.199
REMARK UNBOUND:                -0.119
REMARK SMILES O=c1c(O)c(-c2ccc(O)cc2)oc2cc(O)cc(O)c12
REMARK SMILES IDX 5 1 3 2 2 3 1 4 21 5 19 6 18 7 16 8 15 9 14 10 13 11 6 12
REMARK SMILES IDX 7 13 8 14 9 15 12 16 11 17 10 18 4 20 20 22 17 24
REMARK H PARENT 10 19 4 21 20 23 17 25
REMARK Flexibility Score: inf
ROOT
ATOM      1  C   UNL     1       5.074 -59.128 191.668  1.00  0.00     0.180 A 
ATOM      2  C   UNL     1       4.097 -59.283 190.669  1.00  0.00     0.208 A 
ATOM      3  C   UNL     1       4.261 -60.291 189.706  1.00  0.00     0.238 A 
ATOM      4  O   UNL     1       3.412 -60.390 188.783  1.00  0.00    -0.285 OA
ATOM      5  C   UNL     1       5.391 -61.143 189.763  1.00  0.00     0.111 A 
ATOM      6  C   UNL     1       5.638 -62.223 188.864  1.00  0.00     0.134 A 
ATOM      7  C   UNL     1       6.853 -62.917 188.934  1.00  0.00     0.093 A 
ATOM      8  C   UNL     1       7.800 -62.611 189.915  1.00  0.00     0.123 A 
ATOM      9  C   UNL     1       7.542 -61.599 190.834  1.00  0.00     0.094 A 
ATOM     10  C   UNL     1       6.356 -60.865 190.766  1.00  0.00     0.146 A 
ATOM     11  O   UNL     1       6.155 -59.900 191.656  1.00  0.00    -0.452 OA
ENDROOT
BRANCH   1  12
ATOM     12  C   UNL     1       4.957 -58.106 192.732  1.00  0.00     0.021 A 
ATOM     13  C   UNL     1       3.987 -58.260 193.737  1.00  0.00     0.016 A 
ATOM     14  C   UNL     1       3.845 -57.296 194.739  1.00  0.00     0.047 A 
ATOM     15  C   UNL     1       4.658 -56.159 194.743  1.00  0.00     0.115 A 
ATOM     16  C   UNL     1       5.760 -56.950 192.730  1.00  0.00     0.016 A 
ATOM     17  C   UNL     1       5.614 -55.986 193.733  1.00  0.00     0.047 A 
BRANCH  15  18
ATOM     18  O   UNL     1       4.507 -55.206 195.747  1.00  0.00    -0.508 OA
ATOM     19  H   UNL     1       5.285 -54.636 196.058  1.00  0.00     0.293 HD
ENDBRANCH  15  18
ENDBRANCH   1  12
BRANCH   2  20
ATOM     20  O   UNL     1       3.001 -58.417 190.616  1.00  0.00    -0.502 OA
ATOM     21  H   UNL     1       2.047 -58.749 190.554  1.00  0.00     0.293 HD
ENDBRANCH   2  20
BRANCH   6  22
ATOM     22  O   UNL     1       4.720 -62.669 187.909  1.00  0.00    -0.507 OA
ATOM     23  H   UNL     1       4.336 -63.601 187.871  1.00  0.00     0.293 HD
ENDBRANCH   6  22
BRANCH   8  24
ATOM     24  O   UNL     1       8.999 -63.318 189.988  1.00  0.00    -0.508 OA
ATOM     25  H   UNL     1       9.134 -64.187 189.486  1.00  0.00     0.293 HD
ENDBRANCH   8  24
TORSDOF 5
ENDMDL
MODEL 6
REMARK VINA RESULT:    -5.851      9.909     11.981
REMARK INTER + INTRA:          -6.997
REMARK INTER:                  -6.773
REMARK INTRA:                  -0.223
REMARK UNBOUND:                -0.119
REMARK SMILES O=c1c(O)c(-c2ccc(O)cc2)oc2cc(O)cc(O)c12
REMARK SMILES IDX 5 1 3 2 2 3 1 4 21 5 19 6 18 7 16 8 15 9 14 10 13 11 6 12
REMARK SMILES IDX 7 13 8 14 9 15 12 16 11 17 10 18 4 20 20 22 17 24
REMARK H PARENT 10 19 4 21 20 23 17 25
REMARK Flexibility Score: inf
ROOT
ATOM      1  C   UNL     1      11.447 -56.349 197.444  1.00  0.00     0.180 A 
ATOM      2  C   UNL     1      10.557 -56.293 196.357  1.00  0.00     0.208 A 
ATOM      3  C   UNL     1      11.027 -55.841 195.114  1.00  0.00     0.238 A 
ATOM      4  O   UNL     1      10.213 -55.742 194.160  1.00  0.00    -0.285 OA
ATOM      5  C   UNL     1      12.385 -55.466 194.968  1.00  0.00     0.111 A 
ATOM      6  C   UNL     1      12.979 -55.033 193.745  1.00  0.00     0.134 A 
ATOM      7  C   UNL     1      14.298 -54.563 193.746  1.00  0.00     0.093 A 
ATOM      8  C   UNL     1      15.064 -54.573 194.915  1.00  0.00     0.123 A 
ATOM      9  C   UNL     1      14.513 -55.051 196.100  1.00  0.00     0.094 A 
ATOM     10  C   UNL     1      13.188 -55.492 196.138  1.00  0.00     0.146 A 
ATOM     11  O   UNL     1      12.698 -55.929 197.292  1.00  0.00    -0.452 OA
ENDROOT
BRANCH   1  12
ATOM     12  C   UNL     1      11.032 -56.838 198.778  1.00  0.00     0.021 A 
ATOM     13  C   UNL     1      11.398 -58.132 199.185  1.00  0.00     0.016 A 
ATOM     14  C   UNL     1      11.000 -58.623 200.431  1.00  0.00     0.047 A 
ATOM     15  C   UNL     1      10.217 -57.835 201.281  1.00  0.00     0.115 A 
ATOM     16  C   UNL     1      10.228 -56.057 199.629  1.00  0.00     0.016 A 
ATOM     17  C   UNL     1       9.829 -56.552 200.874  1.00  0.00     0.047 A 
BRANCH  15  18
ATOM     18  O   UNL     1       9.826 -58.336 202.520  1.00  0.00    -0.508 OA
ATOM     19  H   UNL     1      10.247 -59.171 202.911  1.00  0.00     0.293 HD
ENDBRANCH  15  18
ENDBRANCH   1  12
BRANCH   2  20
ATOM     20  O   UNL     1       9.215 -56.645 196.528  1.00  0.00    -0.502 OA
ATOM     21  H   UNL     1       8.454 -56.076 196.179  1.00  0.00     0.293 HD
ENDBRANCH   2  20
BRANCH   6  22
ATOM     22  O   UNL     1      12.331 -55.069 192.507  1.00  0.00    -0.507 OA
ATOM     23  H   UNL     1      12.658 -55.579 191.702  1.00  0.00     0.293 HD
ENDBRANCH   6  22
BRANCH   8  24
ATOM     24  O   UNL     1      16.382 -54.119 194.904  1.00  0.00    -0.508 OA
ATOM     25  H   UNL     1      17.159 -54.750 194.747  1.00  0.00     0.293 HD
ENDBRANCH   8  24
TORSDOF 5
ENDMDL
MODEL 7
REMARK VINA RESULT:    -5.758      1.986      6.793
REMARK INTER + INTRA:          -6.886
REMARK INTER:                  -7.266
REMARK INTRA:                   0.380
REMARK UNBOUND:                -0.119
REMARK SMILES O=c1c(O)c(-c2ccc(O)cc2)oc2cc(O)cc(O)c12
REMARK SMILES IDX 5 1 3 2 2 3 1 4 21 5 19 6 18 7 16 8 15 9 14 10 13 11 6 12
REMARK SMILES IDX 7 13 8 14 9 15 12 16 11 17 10 18 4 20 20 22 17 24
REMARK H PARENT 10 19 4 21 20 23 17 25
REMARK Flexibility Score: inf
ROOT
ATOM      1  C   UNL     1       5.603 -60.203 191.053  1.00  0.00     0.180 A 
ATOM      2  C   UNL     1       4.219 -59.962 191.051  1.00  0.00     0.208 A 
ATOM      3  C   UNL     1       3.710 -58.912 191.833  1.00  0.00     0.238 A 
ATOM      4  O   UNL     1       2.465 -58.735 191.871  1.00  0.00    -0.285 OA
ATOM      5  C   UNL     1       4.593 -58.106 192.592  1.00  0.00     0.111 A 
ATOM      6  C   UNL     1       4.191 -56.991 193.387  1.00  0.00     0.134 A 
ATOM      7  C   UNL     1       5.134 -56.347 194.199  1.00  0.00     0.093 A 
ATOM      8  C   UNL     1       6.475 -56.738 194.193  1.00  0.00     0.123 A 
ATOM      9  C   UNL     1       6.888 -57.786 193.376  1.00  0.00     0.094 A 
ATOM     10  C   UNL     1       5.965 -58.471 192.583  1.00  0.00     0.146 A 
ATOM     11  O   UNL     1       6.398 -59.472 191.826  1.00  0.00    -0.452 OA
ENDROOT
BRANCH   1  12
ATOM     12  C   UNL     1       6.217 -61.275 190.235  1.00  0.00     0.021 A 
ATOM     13  C   UNL     1       7.514 -61.719 190.539  1.00  0.00     0.016 A 
ATOM     14  C   UNL     1       8.122 -62.714 189.767  1.00  0.00     0.047 A 
ATOM     15  C   UNL     1       7.448 -63.267 188.674  1.00  0.00     0.115 A 
ATOM     16  C   UNL     1       5.551 -61.820 189.122  1.00  0.00     0.016 A 
ATOM     17  C   UNL     1       6.162 -62.814 188.351  1.00  0.00     0.047 A 
BRANCH  15  18
ATOM     18  O   UNL     1       8.064 -64.258 187.914  1.00  0.00    -0.508 OA
ATOM     19  H   UNL     1       9.072 -64.308 187.826  1.00  0.00     0.293 HD
ENDBRANCH  15  18
ENDBRANCH   1  12
BRANCH   2  20
ATOM     20  O   UNL     1       3.362 -60.783 190.314  1.00  0.00    -0.502 OA
ATOM     21  H   UNL     1       2.780 -60.430 189.565  1.00  0.00     0.293 HD
ENDBRANCH   2  20
BRANCH   6  22
ATOM     22  O   UNL     1       2.897 -56.464 193.395  1.00  0.00    -0.507 OA
ATOM     23  H   UNL     1       2.546 -55.814 194.081  1.00  0.00     0.293 HD
ENDBRANCH   6  22
BRANCH   8  24
ATOM     24  O   UNL     1       7.410 -56.081 194.992  1.00  0.00    -0.508 OA
ATOM     25  H   UNL     1       7.840 -56.536 195.788  1.00  0.00     0.293 HD
ENDBRANCH   8  24
TORSDOF 5
ENDMDL
MODEL 8
REMARK VINA RESULT:    -5.688     10.356     12.150
REMARK INTER + INTRA:          -6.805
REMARK INTER:                  -6.516
REMARK INTRA:                  -0.288
REMARK UNBOUND:                -0.119
REMARK SMILES O=c1c(O)c(-c2ccc(O)cc2)oc2cc(O)cc(O)c12
REMARK SMILES IDX 5 1 3 2 2 3 1 4 21 5 19 6 18 7 16 8 15 9 14 10 13 11 6 12
REMARK SMILES IDX 7 13 8 14 9 15 12 16 11 17 10 18 4 20 20 22 17 24
REMARK H PARENT 10 19 4 21 20 23 17 25
REMARK Flexibility Score: inf
ROOT
ATOM      1  C   UNL     1      12.227 -55.629 196.689  1.00  0.00     0.180 A 
ATOM      2  C   UNL     1      10.947 -55.401 196.155  1.00  0.00     0.208 A 
ATOM      3  C   UNL     1       9.825 -55.885 196.846  1.00  0.00     0.238 A 
ATOM      4  O   UNL     1       8.686 -55.725 196.336  1.00  0.00    -0.285 OA
ATOM      5  C   UNL     1       9.995 -56.575 198.071  1.00  0.00     0.111 A 
ATOM      6  C   UNL     1       8.927 -57.071 198.876  1.00  0.00     0.134 A 
ATOM      7  C   UNL     1       9.216 -57.853 200.002  1.00  0.00     0.093 A 
ATOM      8  C   UNL     1      10.537 -58.098 200.387  1.00  0.00     0.123 A 
ATOM      9  C   UNL     1      11.585 -57.567 199.642  1.00  0.00     0.094 A 
ATOM     10  C   UNL     1      11.329 -56.815 198.494  1.00  0.00     0.146 A 
ATOM     11  O   UNL     1      12.358 -56.336 197.806  1.00  0.00    -0.452 OA
ENDROOT
BRANCH   1  12
ATOM     12  C   UNL     1      13.456 -55.129 196.031  1.00  0.00     0.021 A 
ATOM     13  C   UNL     1      13.940 -53.849 196.352  1.00  0.00     0.016 A 
ATOM     14  C   UNL     1      15.086 -53.348 195.728  1.00  0.00     0.047 A 
ATOM     15  C   UNL     1      15.754 -54.110 194.765  1.00  0.00     0.115 A 
ATOM     16  C   UNL     1      14.121 -55.883 195.048  1.00  0.00     0.016 A 
ATOM     17  C   UNL     1      15.266 -55.378 194.424  1.00  0.00     0.047 A 
BRANCH  15  18
ATOM     18  O   UNL     1      16.894 -53.599 194.151  1.00  0.00    -0.508 OA
ATOM     19  H   UNL     1      17.044 -52.601 194.059  1.00  0.00     0.293 HD
ENDBRANCH  15  18
ENDBRANCH   1  12
BRANCH   2  20
ATOM     20  O   UNL     1      10.803 -54.739 194.933  1.00  0.00    -0.502 OA
ATOM     21  H   UNL     1      11.275 -53.868 194.726  1.00  0.00     0.293 HD
ENDBRANCH   2  20
BRANCH   6  22
ATOM     22  O   UNL     1       7.577 -56.806 198.631  1.00  0.00    -0.507 OA
ATOM     23  H   UNL     1       6.844 -56.870 199.322  1.00  0.00     0.293 HD
ENDBRANCH   6  22
BRANCH   8  24
ATOM     24  O   UNL     1      10.816 -58.863 201.519  1.00  0.00    -0.508 OA
ATOM     25  H   UNL     1      11.591 -59.515 201.540  1.00  0.00     0.293 HD
ENDBRANCH   8  24
TORSDOF 5
ENDMDL
MODEL 9
REMARK VINA RESULT:    -5.441      9.011     10.686
REMARK INTER + INTRA:          -6.514
REMARK INTER:                  -6.320
REMARK INTRA:                  -0.195
REMARK UNBOUND:                -0.119
REMARK SMILES O=c1c(O)c(-c2ccc(O)cc2)oc2cc(O)cc(O)c12
REMARK SMILES IDX 5 1 3 2 2 3 1 4 21 5 19 6 18 7 16 8 15 9 14 10 13 11 6 12
REMARK SMILES IDX 7 13 8 14 9 15 12 16 11 17 10 18 4 20 20 22 17 24
REMARK H PARENT 10 19 4 21 20 23 17 25
REMARK Flexibility Score: inf
ROOT
ATOM      1  C   UNL     1       6.222 -59.160 200.168  1.00  0.00     0.180 A 
ATOM      2  C   UNL     1       5.396 -58.873 199.067  1.00  0.00     0.208 A 
ATOM      3  C   UNL     1       4.683 -59.918 198.459  1.00  0.00     0.238 A 
ATOM      4  O   UNL     1       3.989 -59.664 197.441  1.00  0.00    -0.285 OA
ATOM      5  C   UNL     1       4.790 -61.235 198.970  1.00  0.00     0.111 A 
ATOM      6  C   UNL     1       4.080 -62.362 198.459  1.00  0.00     0.134 A 
ATOM      7  C   UNL     1       4.362 -63.640 198.958  1.00  0.00     0.093 A 
ATOM      8  C   UNL     1       5.281 -63.821 199.995  1.00  0.00     0.123 A 
ATOM      9  C   UNL     1       5.933 -62.719 200.542  1.00  0.00     0.094 A 
ATOM     10  C   UNL     1       5.701 -61.437 200.040  1.00  0.00     0.146 A 
ATOM     11  O   UNL     1       6.352 -60.415 200.583  1.00  0.00    -0.452 OA
ENDROOT
BRANCH   1  12
ATOM     12  C   UNL     1       6.985 -58.108 200.877  1.00  0.00     0.021 A 
ATOM     13  C   UNL     1       8.389 -58.128 200.840  1.00  0.00     0.016 A 
ATOM     14  C   UNL     1       9.131 -57.157 201.520  1.00  0.00     0.047 A 
ATOM     15  C   UNL     1       8.480 -56.163 202.257  1.00  0.00     0.115 A 
ATOM     16  C   UNL     1       6.336 -57.117 201.635  1.00  0.00     0.016 A 
ATOM     17  C   UNL     1       7.080 -56.147 202.316  1.00  0.00     0.047 A 
BRANCH  15  18
ATOM     18  O   UNL     1       9.230 -55.201 202.929  1.00  0.00    -0.508 OA
ATOM     19  H   UNL     1       9.302 -55.197 203.939  1.00  0.00     0.293 HD
ENDBRANCH  15  18
ENDBRANCH   1  12
BRANCH   2  20
ATOM     20  O   UNL     1       5.323 -57.571 198.564  1.00  0.00    -0.502 OA
ATOM     21  H   UNL     1       5.423 -56.753 199.152  1.00  0.00     0.293 HD
ENDBRANCH   2  20
BRANCH   6  22
ATOM     22  O   UNL     1       3.078 -62.279 197.488  1.00  0.00    -0.507 OA
ATOM     23  H   UNL     1       2.464 -61.489 197.363  1.00  0.00     0.293 HD
ENDBRANCH   6  22
BRANCH   8  24
ATOM     24  O   UNL     1       5.544 -65.094 200.498  1.00  0.00    -0.508 OA
ATOM     25  H   UNL     1       4.942 -65.882 200.286  1.00  0.00     0.293 HD
ENDBRANCH   8  24
TORSDOF 5
ENDMDL
