MODEL 1
REMARK VINA RESULT:    -3.740      0.000      0.000
REMARK INTER + INTRA:         -16.101
REMARK INTER:                  -9.862
REMARK INTRA:                  -6.239
REMARK UNBOUND:                -6.239
REMARK SMILES CCCCCCCCCCCCCCCCCCCCCCCCCCCCCC(=O)[O-]
REMARK SMILES IDX 16 1 17 2 18 3 19 4 20 5 21 6 22 7 23 8 24 9 25 10 26 11
REMARK SMILES IDX 27 12 28 13 29 14 30 15 31 16 32 17 15 18 14 19 13 20 12 21
REMARK SMILES IDX 11 22 10 23 9 24 8 25 7 26 6 27 5 28 4 29 3 30 2 31 1 32
REMARK H PARENT
REMARK Flexibility Score: inf
ROOT
ATOM      1  C   UNL     1     -10.927   9.317 -19.230  1.00  0.00     0.000 C 
ENDROOT
BRANCH   1   2
ATOM      2  C   UNL     1     -12.194   8.441 -19.243  1.00  0.00     0.000 C 
BRANCH   2   3
ATOM      3  C   UNL     1     -12.979   8.550 -20.563  1.00  0.00     0.000 C 
BRANCH   3   4
ATOM      4  C   UNL     1     -12.925   7.254 -21.388  1.00  0.00     0.000 C 
BRANCH   4   5
ATOM      5  C   UNL     1     -12.217   6.108 -20.642  1.00  0.00     0.000 C 
BRANCH   5   6
ATOM      6  C   UNL     1     -11.612   5.067 -21.597  1.00  0.00     0.000 C 
BRANCH   6   7
ATOM      7  C   UNL     1     -10.119   4.813 -21.324  1.00  0.00     0.000 C 
BRANCH   7   8
ATOM      8  C   UNL     1      -9.614   5.606 -20.099  1.00  0.00     0.000 C 
BRANCH   8   9
ATOM      9  C   UNL     1      -8.199   5.208 -19.642  1.00  0.00     0.000 C 
BRANCH   9  10
ATOM     10  C   UNL     1      -7.179   6.344 -19.800  1.00  0.00     0.000 C 
BRANCH  10  11
ATOM     11  C   UNL     1      -7.347   7.441 -18.735  1.00  0.00     0.000 C 
BRANCH  11  12
ATOM     12  C   UNL     1      -6.014   8.131 -18.382  1.00  0.00     0.000 C 
BRANCH  12  13
ATOM     13  C   UNL     1      -6.218   9.433 -17.590  1.00  0.00     0.006 C 
BRANCH  13  14
ATOM     14  C   UNL     1      -7.603  10.054 -17.833  1.00  0.00     0.053 C 
BRANCH  14  15
ATOM     15  C   UNL     1      -8.379  10.143 -16.554  1.00  0.00     0.041 C 
ATOM     16  O   UNL     1      -9.230   9.258 -16.269  1.00  0.00    -0.550 OA
ATOM     17  O   UNL     1      -8.148  11.190 -15.667  1.00  0.00    -0.550 OA
ENDBRANCH  14  15
ENDBRANCH  13  14
ENDBRANCH  12  13
ENDBRANCH  11  12
ENDBRANCH  10  11
ENDBRANCH   9  10
ENDBRANCH   8   9
ENDBRANCH   7   8
ENDBRANCH   6   7
ENDBRANCH   5   6
ENDBRANCH   4   5
ENDBRANCH   3   4
ENDBRANCH   2   3
ENDBRANCH   1   2
BRANCH   1  18
ATOM     18  C   UNL     1     -10.518   9.893 -20.598  1.00  0.00     0.000 C 
BRANCH  18  19
ATOM     19  C   UNL     1      -9.339   9.133 -21.232  1.00  0.00     0.000 C 
BRANCH  19  20
ATOM     20  C   UNL     1      -9.692   8.483 -22.582  1.00  0.00     0.000 C 
BRANCH  20  21
ATOM     21  C   UNL     1      -8.589   7.610 -23.210  1.00  0.00     0.000 C 
BRANCH  21  22
ATOM     22  C   UNL     1      -7.381   8.425 -23.703  1.00  0.00     0.000 C 
BRANCH  22  23
ATOM     23  C   UNL     1      -6.120   8.202 -22.845  1.00  0.00     0.000 C 
BRANCH  23  24
ATOM     24  C   UNL     1      -5.325   9.479 -22.500  1.00  0.00    -0.000 C 
BRANCH  24  25
ATOM     25  C   UNL     1      -5.899  10.320 -21.342  1.00  0.00    -0.000 C 
BRANCH  25  26
ATOM     26  C   UNL     1      -6.611  11.618 -21.771  1.00  0.00    -0.000 C 
BRANCH  26  27
ATOM     27  C   UNL     1      -6.404  12.020 -23.246  1.00  0.00    -0.000 C 
BRANCH  27  28
ATOM     28  C   UNL     1      -7.698  12.275 -24.050  1.00  0.00    -0.000 C 
BRANCH  28  29
ATOM     29  C   UNL     1      -9.005  12.117 -23.250  1.00  0.00    -0.000 C 
BRANCH  29  30
ATOM     30  C   UNL     1      -9.885  13.390 -23.233  1.00  0.00    -0.000 C 
BRANCH  30  31
ATOM     31  C   UNL     1     -10.520  13.683 -21.861  1.00  0.00    -0.003 C 
ATOM     32  C   UNL     1     -10.468  15.164 -21.488  1.00  0.00     0.004 C 
ENDBRANCH  30  31
ENDBRANCH  29  30
ENDBRANCH  28  29
ENDBRANCH  27  28
ENDBRANCH  26  27
ENDBRANCH  25  26
ENDBRANCH  24  25
ENDBRANCH  23  24
ENDBRANCH  22  23
ENDBRANCH  21  22
ENDBRANCH  20  21
ENDBRANCH  19  20
ENDBRANCH  18  19
ENDBRANCH   1  18
TORSDOF 28
ENDMDL
MODEL 2
REMARK VINA RESULT:    -3.651      2.323      6.720
REMARK INTER + INTRA:         -15.868
REMARK INTER:                 -10.119
REMARK INTRA:                  -5.749
REMARK UNBOUND:                -6.239
REMARK SMILES CCCCCCCCCCCCCCCCCCCCCCCCCCCCCC(=O)[O-]
REMARK SMILES IDX 16 1 17 2 18 3 19 4 20 5 21 6 22 7 23 8 24 9 25 10 26 11
REMARK SMILES IDX 27 12 28 13 29 14 30 15 31 16 32 17 15 18 14 19 13 20 12 21
REMARK SMILES IDX 11 22 10 23 9 24 8 25 7 26 6 27 5 28 4 29 3 30 2 31 1 32
REMARK H PARENT
REMARK Flexibility Score: inf
ROOT
ATOM      1  C   UNL     1      -7.029   8.545 -21.673  1.00  0.00     0.000 C 
ENDROOT
BRANCH   1   2
ATOM      2  C   UNL     1      -7.225   9.997 -21.199  1.00  0.00     0.000 C 
BRANCH   2   3
ATOM      3  C   UNL     1      -6.255  10.391 -20.070  1.00  0.00     0.000 C 
BRANCH   3   4
ATOM      4  C   UNL     1      -5.323   9.238 -19.666  1.00  0.00     0.000 C 
BRANCH   4   5
ATOM      5  C   UNL     1      -4.561   9.525 -18.359  1.00  0.00     0.000 C 
BRANCH   5   6
ATOM      6  C   UNL     1      -4.844   8.480 -17.269  1.00  0.00     0.000 C 
BRANCH   6   7
ATOM      7  C   UNL     1      -4.198   8.842 -15.921  1.00  0.00     0.000 C 
BRANCH   7   8
ATOM      8  C   UNL     1      -3.096   9.913 -16.079  1.00  0.00     0.000 C 
BRANCH   8   9
ATOM      9  C   UNL     1      -3.030  10.913 -14.911  1.00  0.00     0.000 C 
BRANCH   9  10
ATOM     10  C   UNL     1      -3.329  12.355 -15.343  1.00  0.00     0.000 C 
BRANCH  10  11
ATOM     11  C   UNL     1      -3.535  12.487 -16.861  1.00  0.00     0.000 C 
BRANCH  11  12
ATOM     12  C   UNL     1      -4.957  12.960 -17.226  1.00  0.00     0.000 C 
BRANCH  12  13
ATOM     13  C   UNL     1      -5.936  12.841 -16.047  1.00  0.00     0.006 C 
BRANCH  13  14
ATOM     14  C   UNL     1      -6.959  11.713 -16.248  1.00  0.00     0.053 C 
BRANCH  14  15
ATOM     15  C   UNL     1      -7.201  10.976 -14.966  1.00  0.00     0.041 C 
ATOM     16  O   UNL     1      -6.345  11.018 -14.042  1.00  0.00    -0.550 OA
ATOM     17  O   UNL     1      -8.382  10.262 -14.781  1.00  0.00    -0.550 OA
ENDBRANCH  14  15
ENDBRANCH  13  14
ENDBRANCH  12  13
ENDBRANCH  11  12
ENDBRANCH  10  11
ENDBRANCH   9  10
ENDBRANCH   8   9
ENDBRANCH   7   8
ENDBRANCH   6   7
ENDBRANCH   5   6
ENDBRANCH   4   5
ENDBRANCH   3   4
ENDBRANCH   2   3
ENDBRANCH   1   2
BRANCH   1  18
ATOM     18  C   UNL     1      -8.247   7.624 -21.472  1.00  0.00     0.000 C 
BRANCH  18  19
ATOM     19  C   UNL     1      -7.952   6.451 -20.521  1.00  0.00     0.000 C 
BRANCH  19  20
ATOM     20  C   UNL     1      -8.668   6.576 -19.164  1.00  0.00     0.000 C 
BRANCH  20  21
ATOM     21  C   UNL     1      -8.182   7.723 -18.257  1.00  0.00     0.000 C 
BRANCH  21  22
ATOM     22  C   UNL     1      -9.332   8.461 -17.549  1.00  0.00     0.000 C 
BRANCH  22  23
ATOM     23  C   UNL     1      -9.644   9.829 -18.186  1.00  0.00     0.000 C 
BRANCH  23  24
ATOM     24  C   UNL     1     -10.721   9.809 -19.292  1.00  0.00    -0.000 C 
BRANCH  24  25
ATOM     25  C   UNL     1     -11.689   8.610 -19.247  1.00  0.00    -0.000 C 
BRANCH  25  26
ATOM     26  C   UNL     1     -13.015   8.815 -20.007  1.00  0.00    -0.000 C 
BRANCH  26  27
ATOM     27  C   UNL     1     -13.189   7.938 -21.264  1.00  0.00    -0.000 C 
BRANCH  27  28
ATOM     28  C   UNL     1     -11.920   7.754 -22.125  1.00  0.00    -0.000 C 
BRANCH  28  29
ATOM     29  C   UNL     1     -11.667   6.316 -22.614  1.00  0.00    -0.000 C 
BRANCH  29  30
ATOM     30  C   UNL     1     -11.433   5.298 -21.472  1.00  0.00    -0.000 C 
BRANCH  30  31
ATOM     31  C   UNL     1     -10.618   4.065 -21.903  1.00  0.00    -0.003 C 
ATOM     32  C   UNL     1      -9.644   4.366 -23.042  1.00  0.00     0.004 C 
ENDBRANCH  30  31
ENDBRANCH  29  30
ENDBRANCH  28  29
ENDBRANCH  27  28
ENDBRANCH  26  27
ENDBRANCH  25  26
ENDBRANCH  24  25
ENDBRANCH  23  24
ENDBRANCH  22  23
ENDBRANCH  21  22
ENDBRANCH  20  21
ENDBRANCH  19  20
ENDBRANCH  18  19
ENDBRANCH   1  18
TORSDOF 28
ENDMDL
MODEL 3
REMARK VINA RESULT:    -3.644      2.641      6.355
REMARK INTER + INTRA:         -15.849
REMARK INTER:                 -10.936
REMARK INTRA:                  -4.913
REMARK UNBOUND:                -6.239
REMARK SMILES CCCCCCCCCCCCCCCCCCCCCCCCCCCCCC(=O)[O-]
REMARK SMILES IDX 16 1 17 2 18 3 19 4 20 5 21 6 22 7 23 8 24 9 25 10 26 11
REMARK SMILES IDX 27 12 28 13 29 14 30 15 31 16 32 17 15 18 14 19 13 20 12 21
REMARK SMILES IDX 11 22 10 23 9 24 8 25 7 26 6 27 5 28 4 29 3 30 2 31 1 32
REMARK H PARENT
REMARK Flexibility Score: inf
ROOT
ATOM      1  C   UNL     1     -10.633   6.697 -22.961  1.00  0.00     0.000 C 
ENDROOT
BRANCH   1   2
ATOM      2  C   UNL     1     -11.293   5.331 -22.700  1.00  0.00     0.000 C 
BRANCH   2   3
ATOM      3  C   UNL     1     -10.499   4.467 -21.703  1.00  0.00     0.000 C 
BRANCH   3   4
ATOM      4  C   UNL     1      -9.094   5.025 -21.430  1.00  0.00     0.000 C 
BRANCH   4   5
ATOM      5  C   UNL     1      -8.772   5.106 -19.926  1.00  0.00     0.000 C 
BRANCH   5   6
ATOM      6  C   UNL     1      -7.337   5.583 -19.654  1.00  0.00     0.000 C 
BRANCH   6   7
ATOM      7  C   UNL     1      -7.293   6.941 -18.933  1.00  0.00     0.000 C 
BRANCH   7   8
ATOM      8  C   UNL     1      -6.874   8.085 -19.883  1.00  0.00     0.000 C 
BRANCH   8   9
ATOM      9  C   UNL     1      -7.997   8.550 -20.827  1.00  0.00     0.000 C 
BRANCH   9  10
ATOM     10  C   UNL     1      -7.528   8.703 -22.280  1.00  0.00     0.000 C 
BRANCH  10  11
ATOM     11  C   UNL     1      -8.317   9.778 -23.046  1.00  0.00     0.000 C 
BRANCH  11  12
ATOM     12  C   UNL     1      -8.608  11.024 -22.185  1.00  0.00     0.000 C 
BRANCH  12  13
ATOM     13  C   UNL     1      -9.729  11.896 -22.774  1.00  0.00     0.006 C 
BRANCH  13  14
ATOM     14  C   UNL     1     -10.447  12.729 -21.700  1.00  0.00     0.053 C 
BRANCH  14  15
ATOM     15  C   UNL     1     -10.138  14.186 -21.860  1.00  0.00     0.041 C 
ATOM     16  O   UNL     1      -9.092  14.547 -22.464  1.00  0.00    -0.550 OA
ATOM     17  O   UNL     1     -11.014  15.146 -21.362  1.00  0.00    -0.550 OA
ENDBRANCH  14  15
ENDBRANCH  13  14
ENDBRANCH  12  13
ENDBRANCH  11  12
ENDBRANCH  10  11
ENDBRANCH   9  10
ENDBRANCH   8   9
ENDBRANCH   7   8
ENDBRANCH   6   7
ENDBRANCH   5   6
ENDBRANCH   4   5
ENDBRANCH   3   4
ENDBRANCH   2   3
ENDBRANCH   1   2
BRANCH   1  18
ATOM     18  C   UNL     1     -11.444   7.915 -22.482  1.00  0.00     0.000 C 
BRANCH  18  19
ATOM     19  C   UNL     1     -12.808   7.522 -21.886  1.00  0.00     0.000 C 
BRANCH  19  20
ATOM     20  C   UNL     1     -12.924   7.832 -20.383  1.00  0.00     0.000 C 
BRANCH  20  21
ATOM     21  C   UNL     1     -12.042   6.976 -19.455  1.00  0.00     0.000 C 
BRANCH  21  22
ATOM     22  C   UNL     1     -10.878   7.766 -18.831  1.00  0.00     0.000 C 
BRANCH  22  23
ATOM     23  C   UNL     1     -11.081   9.291 -18.909  1.00  0.00     0.000 C 
BRANCH  23  24
ATOM     24  C   UNL     1      -9.962  10.138 -18.268  1.00  0.00    -0.000 C 
BRANCH  24  25
ATOM     25  C   UNL     1      -9.212   9.465 -17.102  1.00  0.00    -0.000 C 
BRANCH  25  26
ATOM     26  C   UNL     1      -8.289  10.399 -16.295  1.00  0.00    -0.000 C 
BRANCH  26  27
ATOM     27  C   UNL     1      -7.062  10.929 -17.066  1.00  0.00    -0.000 C 
BRANCH  27  28
ATOM     28  C   UNL     1      -5.751  11.003 -16.253  1.00  0.00    -0.000 C 
BRANCH  28  29
ATOM     29  C   UNL     1      -5.933  11.034 -14.723  1.00  0.00    -0.000 C 
BRANCH  29  30
ATOM     30  C   UNL     1      -5.111   9.959 -13.973  1.00  0.00    -0.000 C 
BRANCH  30  31
ATOM     31  C   UNL     1      -3.759   9.642 -14.638  1.00  0.00    -0.003 C 
ATOM     32  C   UNL     1      -2.585  10.348 -13.960  1.00  0.00     0.004 C 
ENDBRANCH  30  31
ENDBRANCH  29  30
ENDBRANCH  28  29
ENDBRANCH  27  28
ENDBRANCH  26  27
ENDBRANCH  25  26
ENDBRANCH  24  25
ENDBRANCH  23  24
ENDBRANCH  22  23
ENDBRANCH  21  22
ENDBRANCH  20  21
ENDBRANCH  19  20
ENDBRANCH  18  19
ENDBRANCH   1  18
TORSDOF 28
ENDMDL
MODEL 4
REMARK VINA RESULT:    -3.612      2.311      5.680
REMARK INTER + INTRA:         -15.765
REMARK INTER:                 -10.041
REMARK INTRA:                  -5.724
REMARK UNBOUND:                -6.239
REMARK SMILES CCCCCCCCCCCCCCCCCCCCCCCCCCCCCC(=O)[O-]
REMARK SMILES IDX 16 1 17 2 18 3 19 4 20 5 21 6 22 7 23 8 24 9 25 10 26 11
REMARK SMILES IDX 27 12 28 13 29 14 30 15 31 16 32 17 15 18 14 19 13 20 12 21
REMARK SMILES IDX 11 22 10 23 9 24 8 25 7 26 6 27 5 28 4 29 3 30 2 31 1 32
REMARK H PARENT
REMARK Flexibility Score: inf
ROOT
ATOM      1  C   UNL     1      -8.108   6.328 -19.695  1.00  0.00     0.000 C 
ENDROOT
BRANCH   1   2
ATOM      2  C   UNL     1      -7.885   4.806 -19.623  1.00  0.00     0.000 C 
BRANCH   2   3
ATOM      3  C   UNL     1      -6.973   4.284 -20.748  1.00  0.00     0.000 C 
BRANCH   3   4
ATOM      4  C   UNL     1      -7.743   4.015 -22.051  1.00  0.00     0.000 C 
BRANCH   4   5
ATOM      5  C   UNL     1      -7.162   4.787 -23.251  1.00  0.00     0.000 C 
BRANCH   5   6
ATOM      6  C   UNL     1      -5.899   5.583 -22.884  1.00  0.00     0.000 C 
BRANCH   6   7
ATOM      7  C   UNL     1      -6.055   7.091 -23.149  1.00  0.00     0.000 C 
BRANCH   7   8
ATOM      8  C   UNL     1      -5.614   7.938 -21.935  1.00  0.00     0.000 C 
BRANCH   8   9
ATOM      9  C   UNL     1      -4.847   9.217 -22.317  1.00  0.00     0.000 C 
BRANCH   9  10
ATOM     10  C   UNL     1      -4.310   9.977 -21.097  1.00  0.00     0.000 C 
BRANCH  10  11
ATOM     11  C   UNL     1      -2.861   9.595 -20.753  1.00  0.00     0.000 C 
BRANCH  11  12
ATOM     12  C   UNL     1      -2.565   9.695 -19.243  1.00  0.00     0.000 C 
BRANCH  12  13
ATOM     13  C   UNL     1      -3.842   9.861 -18.404  1.00  0.00     0.006 C 
BRANCH  13  14
ATOM     14  C   UNL     1      -3.991   8.760 -17.342  1.00  0.00     0.053 C 
BRANCH  14  15
ATOM     15  C   UNL     1      -3.631   9.277 -15.983  1.00  0.00     0.041 C 
ATOM     16  O   UNL     1      -4.412   9.096 -15.010  1.00  0.00    -0.550 OA
ATOM     17  O   UNL     1      -2.423   9.940 -15.783  1.00  0.00    -0.550 OA
ENDBRANCH  14  15
ENDBRANCH  13  14
ENDBRANCH  12  13
ENDBRANCH  11  12
ENDBRANCH  10  11
ENDBRANCH   9  10
ENDBRANCH   8   9
ENDBRANCH   7   8
ENDBRANCH   6   7
ENDBRANCH   5   6
ENDBRANCH   4   5
ENDBRANCH   3   4
ENDBRANCH   2   3
ENDBRANCH   1   2
BRANCH   1  18
ATOM     18  C   UNL     1      -7.119   7.173 -18.870  1.00  0.00     0.000 C 
BRANCH  18  19
ATOM     19  C   UNL     1      -7.768   8.439 -18.284  1.00  0.00     0.000 C 
BRANCH  19  20
ATOM     20  C   UNL     1      -9.281   8.290 -18.044  1.00  0.00     0.000 C 
BRANCH  20  21
ATOM     21  C   UNL     1     -10.105   9.586 -18.152  1.00  0.00     0.000 C 
BRANCH  21  22
ATOM     22  C   UNL     1     -11.021   9.618 -19.388  1.00  0.00     0.000 C 
BRANCH  22  23
ATOM     23  C   UNL     1     -12.370   8.911 -19.150  1.00  0.00     0.000 C 
BRANCH  23  24
ATOM     24  C   UNL     1     -12.687   7.755 -20.121  1.00  0.00    -0.000 C 
BRANCH  24  25
ATOM     25  C   UNL     1     -11.850   6.477 -19.920  1.00  0.00    -0.000 C 
BRANCH  25  26
ATOM     26  C   UNL     1     -12.030   5.401 -21.010  1.00  0.00    -0.000 C 
BRANCH  26  27
ATOM     27  C   UNL     1     -10.936   5.385 -22.098  1.00  0.00    -0.000 C 
BRANCH  27  28
ATOM     28  C   UNL     1     -11.088   6.450 -23.205  1.00  0.00    -0.000 C 
BRANCH  28  29
ATOM     29  C   UNL     1      -9.841   7.322 -23.446  1.00  0.00    -0.000 C 
BRANCH  29  30
ATOM     30  C   UNL     1      -9.482   8.242 -22.254  1.00  0.00    -0.000 C 
BRANCH  30  31
ATOM     31  C   UNL     1      -8.953   9.624 -22.680  1.00  0.00    -0.003 C 
ATOM     32  C   UNL     1      -8.282  10.382 -21.533  1.00  0.00     0.004 C 
ENDBRANCH  30  31
ENDBRANCH  29  30
ENDBRANCH  28  29
ENDBRANCH  27  28
ENDBRANCH  26  27
ENDBRANCH  25  26
ENDBRANCH  24  25
ENDBRANCH  23  24
ENDBRANCH  22  23
ENDBRANCH  21  22
ENDBRANCH  20  21
ENDBRANCH  19  20
ENDBRANCH  18  19
ENDBRANCH   1  18
TORSDOF 28
ENDMDL
MODEL 5
REMARK VINA RESULT:    -3.598      1.629      5.683
REMARK INTER + INTRA:         -15.727
REMARK INTER:                  -9.292
REMARK INTRA:                  -6.435
REMARK UNBOUND:                -6.239
REMARK SMILES CCCCCCCCCCCCCCCCCCCCCCCCCCCCCC(=O)[O-]
REMARK SMILES IDX 16 1 17 2 18 3 19 4 20 5 21 6 22 7 23 8 24 9 25 10 26 11
REMARK SMILES IDX 27 12 28 13 29 14 30 15 31 16 32 17 15 18 14 19 13 20 12 21
REMARK SMILES IDX 11 22 10 23 9 24 8 25 7 26 6 27 5 28 4 29 3 30 2 31 1 32
REMARK H PARENT
REMARK Flexibility Score: inf
ROOT
ATOM      1  C   UNL     1      -8.303   8.334 -21.848  1.00  0.00     0.000 C 
ENDROOT
BRANCH   1   2
ATOM      2  C   UNL     1      -8.739   9.539 -22.703  1.00  0.00     0.000 C 
BRANCH   2   3
ATOM      3  C   UNL     1      -9.389  10.657 -21.868  1.00  0.00     0.000 C 
BRANCH   3   4
ATOM      4  C   UNL     1      -8.735  12.027 -22.108  1.00  0.00     0.000 C 
BRANCH   4   5
ATOM      5  C   UNL     1      -7.304  12.105 -21.544  1.00  0.00     0.000 C 
BRANCH   5   6
ATOM      6  C   UNL     1      -6.253  12.364 -22.635  1.00  0.00     0.000 C 
BRANCH   6   7
ATOM      7  C   UNL     1      -4.925  11.636 -22.360  1.00  0.00     0.000 C 
BRANCH   7   8
ATOM      8  C   UNL     1      -5.036  10.117 -22.620  1.00  0.00     0.000 C 
BRANCH   8   9
ATOM      9  C   UNL     1      -4.510   9.251 -21.461  1.00  0.00     0.000 C 
BRANCH   9  10
ATOM     10  C   UNL     1      -4.653   9.933 -20.094  1.00  0.00     0.000 C 
BRANCH  10  11
ATOM     11  C   UNL     1      -5.903   9.470 -19.328  1.00  0.00     0.000 C 
BRANCH  11  12
ATOM     12  C   UNL     1      -5.556   8.766 -18.001  1.00  0.00     0.000 C 
BRANCH  12  13
ATOM     13  C   UNL     1      -5.145   9.757 -16.900  1.00  0.00     0.006 C 
BRANCH  13  14
ATOM     14  C   UNL     1      -6.358  10.342 -16.158  1.00  0.00     0.053 C 
BRANCH  14  15
ATOM     15  C   UNL     1      -6.423  11.828 -16.331  1.00  0.00     0.041 C 
ATOM     16  O   UNL     1      -7.071  12.532 -15.510  1.00  0.00    -0.550 OA
ATOM     17  O   UNL     1      -5.750  12.441 -17.384  1.00  0.00    -0.550 OA
ENDBRANCH  14  15
ENDBRANCH  13  14
ENDBRANCH  12  13
ENDBRANCH  11  12
ENDBRANCH  10  11
ENDBRANCH   9  10
ENDBRANCH   8   9
ENDBRANCH   7   8
ENDBRANCH   6   7
ENDBRANCH   5   6
ENDBRANCH   4   5
ENDBRANCH   3   4
ENDBRANCH   2   3
ENDBRANCH   1   2
BRANCH   1  18
ATOM     18  C   UNL     1      -7.466   7.276 -22.591  1.00  0.00     0.000 C 
BRANCH  18  19
ATOM     19  C   UNL     1      -6.776   6.288 -21.634  1.00  0.00     0.000 C 
BRANCH  19  20
ATOM     20  C   UNL     1      -7.356   6.321 -20.208  1.00  0.00     0.000 C 
BRANCH  20  21
ATOM     21  C   UNL     1      -8.114   5.056 -19.766  1.00  0.00     0.000 C 
BRANCH  21  22
ATOM     22  C   UNL     1      -9.638   5.174 -19.938  1.00  0.00     0.000 C 
BRANCH  22  23
ATOM     23  C   UNL     1     -10.113   4.778 -21.349  1.00  0.00     0.000 C 
BRANCH  23  24
ATOM     24  C   UNL     1     -11.490   5.338 -21.762  1.00  0.00    -0.000 C 
BRANCH  24  25
ATOM     25  C   UNL     1     -11.451   6.530 -22.738  1.00  0.00    -0.000 C 
BRANCH  25  26
ATOM     26  C   UNL     1     -11.968   7.862 -22.161  1.00  0.00    -0.000 C 
BRANCH  26  27
ATOM     27  C   UNL     1     -13.124   7.729 -21.147  1.00  0.00    -0.000 C 
BRANCH  27  28
ATOM     28  C   UNL     1     -12.858   8.342 -19.755  1.00  0.00    -0.000 C 
BRANCH  28  29
ATOM     29  C   UNL     1     -11.381   8.342 -19.314  1.00  0.00    -0.000 C 
BRANCH  29  30
ATOM     30  C   UNL     1     -10.881   9.714 -18.804  1.00  0.00    -0.000 C 
BRANCH  30  31
ATOM     31  C   UNL     1      -9.497   9.654 -18.130  1.00  0.00    -0.003 C 
ATOM     32  C   UNL     1      -9.155   8.261 -17.601  1.00  0.00     0.004 C 
ENDBRANCH  30  31
ENDBRANCH  29  30
ENDBRANCH  28  29
ENDBRANCH  27  28
ENDBRANCH  26  27
ENDBRANCH  25  26
ENDBRANCH  24  25
ENDBRANCH  23  24
ENDBRANCH  22  23
ENDBRANCH  21  22
ENDBRANCH  20  21
ENDBRANCH  19  20
ENDBRANCH  18  19
ENDBRANCH   1  18
TORSDOF 28
ENDMDL
MODEL 6
REMARK VINA RESULT:    -3.584      1.450      6.019
REMARK INTER + INTRA:         -15.689
REMARK INTER:                  -9.222
REMARK INTRA:                  -6.468
REMARK UNBOUND:                -6.239
REMARK SMILES CCCCCCCCCCCCCCCCCCCCCCCCCCCCCC(=O)[O-]
REMARK SMILES IDX 16 1 17 2 18 3 19 4 20 5 21 6 22 7 23 8 24 9 25 10 26 11
REMARK SMILES IDX 27 12 28 13 29 14 30 15 31 16 32 17 15 18 14 19 13 20 12 21
REMARK SMILES IDX 11 22 10 23 9 24 8 25 7 26 6 27 5 28 4 29 3 30 2 31 1 32
REMARK H PARENT
REMARK Flexibility Score: inf
ROOT
ATOM      1  C   UNL     1     -10.479  11.487 -21.269  1.00  0.00     0.000 C 
ENDROOT
BRANCH   1   2
ATOM      2  C   UNL     1     -10.433  12.855 -21.975  1.00  0.00     0.000 C 
BRANCH   2   3
ATOM      3  C   UNL     1     -10.377  12.732 -23.509  1.00  0.00     0.000 C 
BRANCH   3   4
ATOM      4  C   UNL     1      -9.247  13.573 -24.125  1.00  0.00     0.000 C 
BRANCH   4   5
ATOM      5  C   UNL     1      -8.074  13.790 -23.151  1.00  0.00     0.000 C 
BRANCH   5   6
ATOM      6  C   UNL     1      -6.739  13.274 -23.711  1.00  0.00     0.000 C 
BRANCH   6   7
ATOM      7  C   UNL     1      -6.630  11.740 -23.655  1.00  0.00     0.000 C 
BRANCH   7   8
ATOM      8  C   UNL     1      -5.766  11.266 -22.466  1.00  0.00     0.000 C 
BRANCH   8   9
ATOM      9  C   UNL     1      -5.086   9.905 -22.697  1.00  0.00     0.000 C 
BRANCH   9  10
ATOM     10  C   UNL     1      -4.822   9.141 -21.393  1.00  0.00     0.000 C 
BRANCH  10  11
ATOM     11  C   UNL     1      -5.662   9.669 -20.218  1.00  0.00     0.000 C 
BRANCH  11  12
ATOM     12  C   UNL     1      -6.176   8.539 -19.303  1.00  0.00     0.000 C 
BRANCH  12  13
ATOM     13  C   UNL     1      -6.680   9.063 -17.948  1.00  0.00     0.006 C 
BRANCH  13  14
ATOM     14  C   UNL     1      -7.358  10.437 -18.068  1.00  0.00     0.053 C 
BRANCH  14  15
ATOM     15  C   UNL     1      -6.840  11.380 -17.027  1.00  0.00     0.041 C 
ATOM     16  O   UNL     1      -5.926  12.199 -17.315  1.00  0.00    -0.550 OA
ATOM     17  O   UNL     1      -7.381  11.373 -15.744  1.00  0.00    -0.550 OA
ENDBRANCH  14  15
ENDBRANCH  13  14
ENDBRANCH  12  13
ENDBRANCH  11  12
ENDBRANCH  10  11
ENDBRANCH   9  10
ENDBRANCH   8   9
ENDBRANCH   7   8
ENDBRANCH   6   7
ENDBRANCH   5   6
ENDBRANCH   4   5
ENDBRANCH   3   4
ENDBRANCH   2   3
ENDBRANCH   1   2
BRANCH   1  18
ATOM     18  C   UNL     1      -9.135  10.737 -21.214  1.00  0.00     0.000 C 
BRANCH  18  19
ATOM     19  C   UNL     1      -9.111   9.498 -22.126  1.00  0.00     0.000 C 
BRANCH  19  20
ATOM     20  C   UNL     1     -10.512   9.065 -22.598  1.00  0.00     0.000 C 
BRANCH  20  21
ATOM     21  C   UNL     1     -10.657   7.580 -22.980  1.00  0.00     0.000 C 
BRANCH  21  22
ATOM     22  C   UNL     1     -11.935   6.934 -22.416  1.00  0.00     0.000 C 
BRANCH  22  23
ATOM     23  C   UNL     1     -12.750   7.896 -21.530  1.00  0.00     0.000 C 
BRANCH  23  24
ATOM     24  C   UNL     1     -12.638   7.647 -20.011  1.00  0.00    -0.000 C 
BRANCH  24  25
ATOM     25  C   UNL     1     -12.134   8.845 -19.183  1.00  0.00    -0.000 C 
BRANCH  25  26
ATOM     26  C   UNL     1     -10.661   8.755 -18.736  1.00  0.00    -0.000 C 
BRANCH  26  27
ATOM     27  C   UNL     1     -10.128   7.322 -18.530  1.00  0.00    -0.000 C 
BRANCH  27  28
ATOM     28  C   UNL     1      -9.221   6.784 -19.658  1.00  0.00    -0.000 C 
BRANCH  28  29
ATOM     29  C   UNL     1      -9.549   5.356 -20.133  1.00  0.00    -0.000 C 
BRANCH  29  30
ATOM     30  C   UNL     1      -8.557   4.802 -21.184  1.00  0.00    -0.000 C 
BRANCH  30  31
ATOM     31  C   UNL     1      -7.187   5.506 -21.169  1.00  0.00    -0.003 C 
ATOM     32  C   UNL     1      -6.968   6.402 -22.388  1.00  0.00     0.004 C 
ENDBRANCH  30  31
ENDBRANCH  29  30
ENDBRANCH  28  29
ENDBRANCH  27  28
ENDBRANCH  26  27
ENDBRANCH  25  26
ENDBRANCH  24  25
ENDBRANCH  23  24
ENDBRANCH  22  23
ENDBRANCH  21  22
ENDBRANCH  20  21
ENDBRANCH  19  20
ENDBRANCH  18  19
ENDBRANCH   1  18
TORSDOF 28
ENDMDL
MODEL 7
REMARK VINA RESULT:    -3.567      2.613      5.053
REMARK INTER + INTRA:         -15.646
REMARK INTER:                  -9.062
REMARK INTRA:                  -6.584
REMARK UNBOUND:                -6.239
REMARK SMILES CCCCCCCCCCCCCCCCCCCCCCCCCCCCCC(=O)[O-]
REMARK SMILES IDX 16 1 17 2 18 3 19 4 20 5 21 6 22 7 23 8 24 9 25 10 26 11
REMARK SMILES IDX 27 12 28 13 29 14 30 15 31 16 32 17 15 18 14 19 13 20 12 21
REMARK SMILES IDX 11 22 10 23 9 24 8 25 7 26 6 27 5 28 4 29 3 30 2 31 1 32
REMARK H PARENT
REMARK Flexibility Score: inf
ROOT
ATOM      1  C   UNL     1     -10.056   9.790 -23.334  1.00  0.00     0.000 C 
ENDROOT
BRANCH   1   2
ATOM      2  C   UNL     1      -9.027   8.898 -22.615  1.00  0.00     0.000 C 
BRANCH   2   3
ATOM      3  C   UNL     1      -9.423   7.410 -22.619  1.00  0.00     0.000 C 
BRANCH   3   4
ATOM      4  C   UNL     1     -10.793   7.168 -23.271  1.00  0.00     0.000 C 
BRANCH   4   5
ATOM      5  C   UNL     1     -11.831   6.613 -22.276  1.00  0.00     0.000 C 
BRANCH   5   6
ATOM      6  C   UNL     1     -12.861   7.670 -21.849  1.00  0.00     0.000 C 
BRANCH   6   7
ATOM      7  C   UNL     1     -12.792   7.987 -20.345  1.00  0.00     0.000 C 
BRANCH   7   8
ATOM      8  C   UNL     1     -11.879   9.199 -20.053  1.00  0.00     0.000 C 
BRANCH   8   9
ATOM      9  C   UNL     1     -10.576   8.831 -19.320  1.00  0.00     0.000 C 
BRANCH   9  10
ATOM     10  C   UNL     1     -10.533   7.361 -18.883  1.00  0.00     0.000 C 
BRANCH  10  11
ATOM     11  C   UNL     1      -9.106   6.788 -18.877  1.00  0.00     0.000 C 
BRANCH  11  12
ATOM     12  C   UNL     1      -9.011   5.430 -19.601  1.00  0.00     0.000 C 
BRANCH  12  13
ATOM     13  C   UNL     1      -7.568   5.070 -19.989  1.00  0.00     0.006 C 
BRANCH  13  14
ATOM     14  C   UNL     1      -7.500   4.241 -21.281  1.00  0.00     0.053 C 
BRANCH  14  15
ATOM     15  C   UNL     1      -6.209   4.482 -22.003  1.00  0.00     0.041 C 
ATOM     16  O   UNL     1      -5.330   3.579 -22.044  1.00  0.00    -0.550 OA
ATOM     17  O   UNL     1      -5.984   5.694 -22.650  1.00  0.00    -0.550 OA
ENDBRANCH  14  15
ENDBRANCH  13  14
ENDBRANCH  12  13
ENDBRANCH  11  12
ENDBRANCH  10  11
ENDBRANCH   9  10
ENDBRANCH   8   9
ENDBRANCH   7   8
ENDBRANCH   6   7
ENDBRANCH   5   6
ENDBRANCH   4   5
ENDBRANCH   3   4
ENDBRANCH   2   3
ENDBRANCH   1   2
BRANCH   1  18
ATOM     18  C   UNL     1     -10.107  11.250 -22.847  1.00  0.00     0.000 C 
BRANCH  18  19
ATOM     19  C   UNL     1      -9.328  11.464 -21.536  1.00  0.00     0.000 C 
BRANCH  19  20
ATOM     20  C   UNL     1      -8.169  12.468 -21.677  1.00  0.00     0.000 C 
BRANCH  20  21
ATOM     21  C   UNL     1      -7.977  13.071 -23.081  1.00  0.00     0.000 C 
BRANCH  21  22
ATOM     22  C   UNL     1      -6.630  12.693 -23.722  1.00  0.00     0.000 C 
BRANCH  22  23
ATOM     23  C   UNL     1      -6.372  11.174 -23.716  1.00  0.00     0.000 C 
BRANCH  23  24
ATOM     24  C   UNL     1      -5.003  10.741 -23.149  1.00  0.00    -0.000 C 
BRANCH  24  25
ATOM     25  C   UNL     1      -5.000  10.362 -21.654  1.00  0.00    -0.000 C 
BRANCH  25  26
ATOM     26  C   UNL     1      -5.173   8.858 -21.364  1.00  0.00    -0.000 C 
BRANCH  26  27
ATOM     27  C   UNL     1      -6.222   8.519 -20.284  1.00  0.00    -0.000 C 
BRANCH  27  28
ATOM     28  C   UNL     1      -6.759   9.724 -19.481  1.00  0.00    -0.000 C 
BRANCH  28  29
ATOM     29  C   UNL     1      -6.788   9.528 -17.953  1.00  0.00    -0.000 C 
BRANCH  29  30
ATOM     30  C   UNL     1      -7.215  10.792 -17.168  1.00  0.00    -0.000 C 
BRANCH  30  31
ATOM     31  C   UNL     1      -8.667  10.738 -16.657  1.00  0.00    -0.003 C 
ATOM     32  C   UNL     1      -9.032   9.383 -16.050  1.00  0.00     0.004 C 
ENDBRANCH  30  31
ENDBRANCH  29  30
ENDBRANCH  28  29
ENDBRANCH  27  28
ENDBRANCH  26  27
ENDBRANCH  25  26
ENDBRANCH  24  25
ENDBRANCH  23  24
ENDBRANCH  22  23
ENDBRANCH  21  22
ENDBRANCH  20  21
ENDBRANCH  19  20
ENDBRANCH  18  19
ENDBRANCH   1  18
TORSDOF 28
ENDMDL
MODEL 8
REMARK VINA RESULT:    -3.529      2.528      5.346
REMARK INTER + INTRA:         -15.544
REMARK INTER:                  -9.973
REMARK INTRA:                  -5.571
REMARK UNBOUND:                -6.239
REMARK SMILES CCCCCCCCCCCCCCCCCCCCCCCCCCCCCC(=O)[O-]
REMARK SMILES IDX 16 1 17 2 18 3 19 4 20 5 21 6 22 7 23 8 24 9 25 10 26 11
REMARK SMILES IDX 27 12 28 13 29 14 30 15 31 16 32 17 15 18 14 19 13 20 12 21
REMARK SMILES IDX 11 22 10 23 9 24 8 25 7 26 6 27 5 28 4 29 3 30 2 31 1 32
REMARK H PARENT
REMARK Flexibility Score: inf
ROOT
ATOM      1  C   UNL     1     -12.149   8.889 -19.800  1.00  0.00     0.000 C 
ENDROOT
BRANCH   1   2
ATOM      2  C   UNL     1     -10.944   8.509 -18.921  1.00  0.00     0.000 C 
BRANCH   2   3
ATOM      3  C   UNL     1     -10.155   9.736 -18.428  1.00  0.00     0.000 C 
BRANCH   3   4
ATOM      4  C   UNL     1      -9.187   9.393 -17.285  1.00  0.00     0.000 C 
BRANCH   4   5
ATOM      5  C   UNL     1      -7.977  10.345 -17.230  1.00  0.00     0.000 C 
BRANCH   5   6
ATOM      6  C   UNL     1      -7.855  11.065 -15.878  1.00  0.00     0.000 C 
BRANCH   6   7
ATOM      7  C   UNL     1      -6.762  12.147 -15.882  1.00  0.00     0.000 C 
BRANCH   7   8
ATOM      8  C   UNL     1      -5.683  11.883 -14.808  1.00  0.00     0.000 C 
BRANCH   8   9
ATOM      9  C   UNL     1      -5.610  10.415 -14.352  1.00  0.00     0.000 C 
BRANCH   9  10
ATOM     10  C   UNL     1      -4.176   9.954 -14.055  1.00  0.00     0.000 C 
BRANCH  10  11
ATOM     11  C   UNL     1      -3.520   9.252 -15.255  1.00  0.00     0.000 C 
BRANCH  11  12
ATOM     12  C   UNL     1      -4.536   8.885 -16.354  1.00  0.00     0.000 C 
BRANCH  12  13
ATOM     13  C   UNL     1      -3.949   9.026 -17.768  1.00  0.00     0.006 C 
BRANCH  13  14
ATOM     14  C   UNL     1      -4.451  10.289 -18.486  1.00  0.00     0.053 C 
BRANCH  14  15
ATOM     15  C   UNL     1      -3.604  10.594 -19.683  1.00  0.00     0.041 C 
ATOM     16  O   UNL     1      -3.011   9.663 -20.292  1.00  0.00    -0.550 OA
ATOM     17  O   UNL     1      -3.488  11.903 -20.143  1.00  0.00    -0.550 OA
ENDBRANCH  14  15
ENDBRANCH  13  14
ENDBRANCH  12  13
ENDBRANCH  11  12
ENDBRANCH  10  11
ENDBRANCH   9  10
ENDBRANCH   8   9
ENDBRANCH   7   8
ENDBRANCH   6   7
ENDBRANCH   5   6
ENDBRANCH   4   5
ENDBRANCH   3   4
ENDBRANCH   2   3
ENDBRANCH   1   2
BRANCH   1  18
ATOM     18  C   UNL     1     -12.715   7.744 -20.661  1.00  0.00     0.000 C 
BRANCH  18  19
ATOM     19  C   UNL     1     -12.044   7.656 -22.043  1.00  0.00     0.000 C 
BRANCH  19  20
ATOM     20  C   UNL     1     -11.602   6.228 -22.412  1.00  0.00     0.000 C 
BRANCH  20  21
ATOM     21  C   UNL     1     -10.166   5.849 -22.006  1.00  0.00     0.000 C 
BRANCH  21  22
ATOM     22  C   UNL     1     -10.111   4.875 -20.816  1.00  0.00     0.000 C 
BRANCH  22  23
ATOM     23  C   UNL     1      -9.342   5.448 -19.610  1.00  0.00     0.000 C 
BRANCH  23  24
ATOM     24  C   UNL     1      -7.824   5.626 -19.822  1.00  0.00    -0.000 C 
BRANCH  24  25
ATOM     25  C   UNL     1      -7.198   6.842 -19.110  1.00  0.00    -0.000 C 
BRANCH  25  26
ATOM     26  C   UNL     1      -6.607   7.913 -20.049  1.00  0.00    -0.000 C 
BRANCH  26  27
ATOM     27  C   UNL     1      -6.600   7.537 -21.545  1.00  0.00    -0.000 C 
BRANCH  27  28
ATOM     28  C   UNL     1      -7.538   8.375 -22.442  1.00  0.00    -0.000 C 
BRANCH  28  29
ATOM     29  C   UNL     1      -8.652   9.132 -21.693  1.00  0.00    -0.000 C 
BRANCH  29  30
ATOM     30  C   UNL     1      -8.958  10.532 -22.277  1.00  0.00    -0.000 C 
BRANCH  30  31
ATOM     31  C   UNL     1      -7.827  11.553 -22.057  1.00  0.00    -0.003 C 
ATOM     32  C   UNL     1      -7.277  11.530 -20.630  1.00  0.00     0.004 C 
ENDBRANCH  30  31
ENDBRANCH  29  30
ENDBRANCH  28  29
ENDBRANCH  27  28
ENDBRANCH  26  27
ENDBRANCH  25  26
ENDBRANCH  24  25
ENDBRANCH  23  24
ENDBRANCH  22  23
ENDBRANCH  21  22
ENDBRANCH  20  21
ENDBRANCH  19  20
ENDBRANCH  18  19
ENDBRANCH   1  18
TORSDOF 28
ENDMDL
MODEL 9
REMARK VINA RESULT:    -3.524      1.831      4.034
REMARK INTER + INTRA:         -15.532
REMARK INTER:                  -9.911
REMARK INTRA:                  -5.622
REMARK UNBOUND:                -6.239
REMARK SMILES CCCCCCCCCCCCCCCCCCCCCCCCCCCCCC(=O)[O-]
REMARK SMILES IDX 16 1 17 2 18 3 19 4 20 5 21 6 22 7 23 8 24 9 25 10 26 11
REMARK SMILES IDX 27 12 28 13 29 14 30 15 31 16 32 17 15 18 14 19 13 20 12 21
REMARK SMILES IDX 11 22 10 23 9 24 8 25 7 26 6 27 5 28 4 29 3 30 2 31 1 32
REMARK H PARENT
REMARK Flexibility Score: inf
ROOT
ATOM      1  C   UNL     1     -10.854  10.364 -20.402  1.00  0.00     0.000 C 
ENDROOT
BRANCH   1   2
ATOM      2  C   UNL     1     -11.057   9.591 -19.086  1.00  0.00     0.000 C 
BRANCH   2   3
ATOM      3  C   UNL     1     -11.934   8.337 -19.261  1.00  0.00     0.000 C 
BRANCH   3   4
ATOM      4  C   UNL     1     -13.116   8.575 -20.214  1.00  0.00     0.000 C 
BRANCH   4   5
ATOM      5  C   UNL     1     -13.099   7.623 -21.425  1.00  0.00     0.000 C 
BRANCH   5   6
ATOM      6  C   UNL     1     -11.777   6.851 -21.550  1.00  0.00     0.000 C 
BRANCH   6   7
ATOM      7  C   UNL     1     -11.932   5.357 -21.218  1.00  0.00     0.000 C 
BRANCH   7   8
ATOM      8  C   UNL     1     -10.607   4.734 -20.726  1.00  0.00     0.000 C 
BRANCH   8   9
ATOM      9  C   UNL     1      -9.702   5.722 -19.968  1.00  0.00     0.000 C 
BRANCH   9  10
ATOM     10  C   UNL     1      -8.306   5.152 -19.682  1.00  0.00     0.000 C 
BRANCH  10  11
ATOM     11  C   UNL     1      -7.325   6.219 -19.169  1.00  0.00     0.000 C 
BRANCH  11  12
ATOM     12  C   UNL     1      -8.028   7.540 -18.800  1.00  0.00     0.000 C 
BRANCH  12  13
ATOM     13  C   UNL     1      -7.096   8.515 -18.062  1.00  0.00     0.006 C 
BRANCH  13  14
ATOM     14  C   UNL     1      -7.644   9.951 -18.051  1.00  0.00     0.053 C 
BRANCH  14  15
ATOM     15  C   UNL     1      -8.251  10.281 -16.721  1.00  0.00     0.041 C 
ATOM     16  O   UNL     1      -9.035   9.465 -16.165  1.00  0.00    -0.550 OA
ATOM     17  O   UNL     1      -7.934  11.478 -16.084  1.00  0.00    -0.550 OA
ENDBRANCH  14  15
ENDBRANCH  13  14
ENDBRANCH  12  13
ENDBRANCH  11  12
ENDBRANCH  10  11
ENDBRANCH   9  10
ENDBRANCH   8   9
ENDBRANCH   7   8
ENDBRANCH   6   7
ENDBRANCH   5   6
ENDBRANCH   4   5
ENDBRANCH   3   4
ENDBRANCH   2   3
ENDBRANCH   1   2
BRANCH   1  18
ATOM     18  C   UNL     1      -9.606   9.962 -21.209  1.00  0.00     0.000 C 
BRANCH  18  19
ATOM     19  C   UNL     1      -9.888   9.844 -22.717  1.00  0.00     0.000 C 
BRANCH  19  20
ATOM     20  C   UNL     1      -9.161   8.660 -23.379  1.00  0.00     0.000 C 
BRANCH  20  21
ATOM     21  C   UNL     1      -8.369   7.746 -22.425  1.00  0.00     0.000 C 
BRANCH  21  22
ATOM     22  C   UNL     1      -7.159   7.074 -23.097  1.00  0.00     0.000 C 
BRANCH  22  23
ATOM     23  C   UNL     1      -5.848   7.289 -22.317  1.00  0.00     0.000 C 
BRANCH  23  24
ATOM     24  C   UNL     1      -5.711   8.662 -21.626  1.00  0.00    -0.000 C 
BRANCH  24  25
ATOM     25  C   UNL     1      -4.464   9.478 -22.023  1.00  0.00    -0.000 C 
BRANCH  25  26
ATOM     26  C   UNL     1      -3.393   9.607 -20.923  1.00  0.00    -0.000 C 
BRANCH  26  27
ATOM     27  C   UNL     1      -3.925   9.511 -19.478  1.00  0.00    -0.000 C 
BRANCH  27  28
ATOM     28  C   UNL     1      -3.948  10.839 -18.690  1.00  0.00    -0.000 C 
BRANCH  28  29
ATOM     29  C   UNL     1      -4.149  10.692 -17.170  1.00  0.00    -0.000 C 
BRANCH  29  30
ATOM     30  C   UNL     1      -3.277   9.586 -16.528  1.00  0.00    -0.000 C 
BRANCH  30  31
ATOM     31  C   UNL     1      -3.754   9.161 -15.127  1.00  0.00    -0.003 C 
ATOM     32  C   UNL     1      -4.882  10.043 -14.591  1.00  0.00     0.004 C 
ENDBRANCH  30  31
ENDBRANCH  29  30
ENDBRANCH  28  29
ENDBRANCH  27  28
ENDBRANCH  26  27
ENDBRANCH  25  26
ENDBRANCH  24  25
ENDBRANCH  23  24
ENDBRANCH  22  23
ENDBRANCH  21  22
ENDBRANCH  20  21
ENDBRANCH  19  20
ENDBRANCH  18  19
ENDBRANCH   1  18
TORSDOF 28
ENDMDL
