MODEL 1
REMARK VINA RESULT:    -3.786      0.000      0.000
REMARK INTER + INTRA:          -4.714
REMARK INTER:                  -4.450
REMARK INTRA:                  -0.264
REMARK UNBOUND:                -0.264
REMARK SMILES O=c1cc(-c2ccc(O)c(O)c2)oc2cc(O)cc(O)c12
REMARK SMILES IDX 4 1 3 2 2 3 1 4 21 5 19 6 18 7 16 8 15 9 14 10 13 11 5 12
REMARK SMILES IDX 6 13 7 14 8 15 12 16 10 17 9 18 11 20 20 22 17 24
REMARK H PARENT 9 19 11 21 20 23 17 25
REMARK Flexibility Score: inf
ROOT
ATOM      1  C   UNL     1      24.133 -12.915  54.839  1.00  0.00     0.138 A 
ATOM      2  C   UNL     1      22.966 -12.143  54.773  1.00  0.00     0.100 A 
ATOM      3  C   UNL     1      22.606 -11.341  55.858  1.00  0.00     0.197 A 
ATOM      4  O   UNL     1      21.586 -10.613  55.746  1.00  0.00    -0.289 OA
ATOM      5  C   UNL     1      23.406 -11.339  57.025  1.00  0.00     0.107 A 
ATOM      6  C   UNL     1      23.115 -10.592  58.207  1.00  0.00     0.134 A 
ATOM      7  C   UNL     1      24.040 -10.577  59.258  1.00  0.00     0.093 A 
ATOM      8  C   UNL     1      25.217 -11.328  59.194  1.00  0.00     0.123 A 
ATOM      9  C   UNL     1      25.483 -12.102  58.068  1.00  0.00     0.094 A 
ATOM     10  C   UNL     1      24.597 -12.111  56.988  1.00  0.00     0.146 A 
ATOM     11  O   UNL     1      24.896 -12.852  55.926  1.00  0.00    -0.456 OA
ENDROOT
BRANCH   1  12
ATOM     12  C   UNL     1      24.562 -13.787  53.715  1.00  0.00     0.021 A 
ATOM     13  C   UNL     1      25.362 -13.251  52.691  1.00  0.00     0.016 A 
ATOM     14  C   UNL     1      25.784 -14.051  51.627  1.00  0.00     0.051 A 
ATOM     15  C   UNL     1      25.423 -15.403  51.573  1.00  0.00     0.157 A 
ATOM     16  C   UNL     1      24.214 -15.151  53.662  1.00  0.00     0.062 A 
ATOM     17  C   UNL     1      24.638 -15.954  52.597  1.00  0.00     0.158 A 
BRANCH  15  18
ATOM     18  O   UNL     1      25.846 -16.198  50.509  1.00  0.00    -0.504 OA
ATOM     19  H   UNL     1      26.829 -16.338  50.308  1.00  0.00     0.293 HD
ENDBRANCH  15  18
BRANCH  17  20
ATOM     20  O   UNL     1      24.271 -17.301  52.578  1.00  0.00    -0.504 OA
ATOM     21  H   UNL     1      24.788 -18.007  53.089  1.00  0.00     0.293 HD
ENDBRANCH  17  20
ENDBRANCH   1  12
BRANCH   6  22
ATOM     22  O   UNL     1      21.932  -9.877  58.407  1.00  0.00    -0.507 OA
ATOM     23  H   UNL     1      21.019 -10.172  58.096  1.00  0.00     0.293 HD
ENDBRANCH   6  22
BRANCH   8  24
ATOM     24  O   UNL     1      26.125 -11.318  60.251  1.00  0.00    -0.508 OA
ATOM     25  H   UNL     1      27.124 -11.364  60.092  1.00  0.00     0.293 HD
ENDBRANCH   8  24
TORSDOF 5
ENDMDL
MODEL 2
REMARK VINA RESULT:    -1.811      2.297      7.517
REMARK INTER + INTRA:          -2.393
REMARK INTER:                  -2.129
REMARK INTRA:                  -0.263
REMARK UNBOUND:                -0.264
REMARK SMILES O=c1cc(-c2ccc(O)c(O)c2)oc2cc(O)cc(O)c12
REMARK SMILES IDX 4 1 3 2 2 3 1 4 21 5 19 6 18 7 16 8 15 9 14 10 13 11 5 12
REMARK SMILES IDX 6 13 7 14 8 15 12 16 10 17 9 18 11 20 20 22 17 24
REMARK H PARENT 9 19 11 21 20 23 17 25
REMARK Flexibility Score: inf
ROOT
ATOM      1  C   UNL     1      24.271 -11.130  57.970  1.00  0.00     0.138 A 
ATOM      2  C   UNL     1      25.159 -10.364  57.203  1.00  0.00     0.100 A 
ATOM      3  C   UNL     1      25.366 -10.685  55.860  1.00  0.00     0.197 A 
ATOM      4  O   UNL     1      26.121  -9.942  55.181  1.00  0.00    -0.289 OA
ATOM      5  C   UNL     1      24.700 -11.798  55.293  1.00  0.00     0.107 A 
ATOM      6  C   UNL     1      24.865 -12.243  53.947  1.00  0.00     0.134 A 
ATOM      7  C   UNL     1      24.066 -13.286  53.463  1.00  0.00     0.093 A 
ATOM      8  C   UNL     1      23.152 -13.939  54.294  1.00  0.00     0.123 A 
ATOM      9  C   UNL     1      23.023 -13.548  55.624  1.00  0.00     0.094 A 
ATOM     10  C   UNL     1      23.781 -12.487  56.127  1.00  0.00     0.146 A 
ATOM     11  O   UNL     1      23.617 -12.135  57.398  1.00  0.00    -0.456 OA
ENDROOT
BRANCH   1  12
ATOM     12  C   UNL     1      24.015 -10.833  59.403  1.00  0.00     0.021 A 
ATOM     13  C   UNL     1      22.837 -10.159  59.770  1.00  0.00     0.016 A 
ATOM     14  C   UNL     1      22.570  -9.875  61.111  1.00  0.00     0.051 A 
ATOM     15  C   UNL     1      23.469 -10.268  62.109  1.00  0.00     0.157 A 
ATOM     16  C   UNL     1      24.909 -11.238  60.413  1.00  0.00     0.062 A 
ATOM     17  C   UNL     1      24.641 -10.956  61.758  1.00  0.00     0.158 A 
BRANCH  15  18
ATOM     18  O   UNL     1      23.199  -9.982  63.447  1.00  0.00    -0.504 OA
ATOM     19  H   UNL     1      22.904  -9.059  63.743  1.00  0.00     0.293 HD
ENDBRANCH  15  18
BRANCH  17  20
ATOM     20  O   UNL     1      25.552 -11.371  62.730  1.00  0.00    -0.504 OA
ATOM     21  H   UNL     1      25.456 -12.256  63.215  1.00  0.00     0.293 HD
ENDBRANCH  17  20
ENDBRANCH   1  12
BRANCH   6  22
ATOM     22  O   UNL     1      25.807 -11.716  53.060  1.00  0.00    -0.507 OA
ATOM     23  H   UNL     1      26.192 -12.208  52.267  1.00  0.00     0.293 HD
ENDBRANCH   6  22
BRANCH   8  24
ATOM     24  O   UNL     1      22.372 -14.987  53.808  1.00  0.00    -0.508 OA
ATOM     25  H   UNL     1      21.910 -15.638  54.432  1.00  0.00     0.293 HD
ENDBRANCH   8  24
TORSDOF 5
ENDMDL
MODEL 3
REMARK VINA RESULT:    -1.148      1.372      7.078
REMARK INTER + INTRA:          -1.613
REMARK INTER:                  -1.344
REMARK INTRA:                  -0.269
REMARK UNBOUND:                -0.264
REMARK SMILES O=c1cc(-c2ccc(O)c(O)c2)oc2cc(O)cc(O)c12
REMARK SMILES IDX 4 1 3 2 2 3 1 4 21 5 19 6 18 7 16 8 15 9 14 10 13 11 5 12
REMARK SMILES IDX 6 13 7 14 8 15 12 16 10 17 9 18 11 20 20 22 17 24
REMARK H PARENT 9 19 11 21 20 23 17 25
REMARK Flexibility Score: inf
ROOT
ATOM      1  C   UNL     1      24.470 -12.496  55.198  1.00  0.00     0.138 A 
ATOM      2  C   UNL     1      25.135 -11.832  54.158  1.00  0.00     0.100 A 
ATOM      3  C   UNL     1      25.422 -12.515  52.975  1.00  0.00     0.197 A 
ATOM      4  O   UNL     1      25.965 -11.875  52.037  1.00  0.00    -0.289 OA
ATOM      5  C   UNL     1      25.067 -13.879  52.848  1.00  0.00     0.107 A 
ATOM      6  C   UNL     1      25.346 -14.687  51.704  1.00  0.00     0.134 A 
ATOM      7  C   UNL     1      24.844 -15.992  51.643  1.00  0.00     0.093 A 
ATOM      8  C   UNL     1      24.125 -16.539  52.710  1.00  0.00     0.123 A 
ATOM      9  C   UNL     1      23.895 -15.776  53.852  1.00  0.00     0.094 A 
ATOM     10  C   UNL     1      24.352 -14.459  53.929  1.00  0.00     0.146 A 
ATOM     11  O   UNL     1      24.099 -13.761  55.031  1.00  0.00    -0.456 OA
ENDROOT
BRANCH   1  12
ATOM     12  C   UNL     1      24.141 -11.817  56.478  1.00  0.00     0.021 A 
ATOM     13  C   UNL     1      23.078 -10.899  56.521  1.00  0.00     0.016 A 
ATOM     14  C   UNL     1      22.744 -10.253  57.713  1.00  0.00     0.051 A 
ATOM     15  C   UNL     1      23.460 -10.522  58.887  1.00  0.00     0.157 A 
ATOM     16  C   UNL     1      24.848 -12.094  57.665  1.00  0.00     0.062 A 
ATOM     17  C   UNL     1      24.513 -11.449  58.862  1.00  0.00     0.158 A 
BRANCH  15  18
ATOM     18  O   UNL     1      23.124  -9.875  60.075  1.00  0.00    -0.504 OA
ATOM     19  H   UNL     1      22.773 -10.386  60.877  1.00  0.00     0.293 HD
ENDBRANCH  15  18
BRANCH  17  20
ATOM     20  O   UNL     1      25.237 -11.748  60.016  1.00  0.00    -0.504 OA
ATOM     21  H   UNL     1      25.402 -11.060  60.742  1.00  0.00     0.293 HD
ENDBRANCH  17  20
ENDBRANCH   1  12
BRANCH   6  22
ATOM     22  O   UNL     1      26.125 -14.267  50.623  1.00  0.00    -0.507 OA
ATOM     23  H   UNL     1      25.899 -14.426  49.652  1.00  0.00     0.293 HD
ENDBRANCH   6  22
BRANCH   8  24
ATOM     24  O   UNL     1      23.642 -17.844  52.646  1.00  0.00    -0.508 OA
ATOM     25  H   UNL     1      22.744 -18.097  53.042  1.00  0.00     0.293 HD
ENDBRANCH   8  24
TORSDOF 5
ENDMDL
MODEL 4
REMARK VINA RESULT:    -0.994      1.362      7.094
REMARK INTER + INTRA:          -1.433
REMARK INTER:                  -1.169
REMARK INTRA:                  -0.264
REMARK UNBOUND:                -0.264
REMARK SMILES O=c1cc(-c2ccc(O)c(O)c2)oc2cc(O)cc(O)c12
REMARK SMILES IDX 4 1 3 2 2 3 1 4 21 5 19 6 18 7 16 8 15 9 14 10 13 11 5 12
REMARK SMILES IDX 6 13 7 14 8 15 12 16 10 17 9 18 11 20 20 22 17 24
REMARK H PARENT 9 19 11 21 20 23 17 25
REMARK Flexibility Score: inf
ROOT
ATOM      1  C   UNL     1      24.629 -12.446  55.228  1.00  0.00     0.138 A 
ATOM      2  C   UNL     1      25.228 -11.755  54.166  1.00  0.00     0.100 A 
ATOM      3  C   UNL     1      25.481 -12.419  52.965  1.00  0.00     0.197 A 
ATOM      4  O   UNL     1      25.963 -11.757  52.010  1.00  0.00    -0.289 OA
ATOM      5  C   UNL     1      25.158 -13.791  52.840  1.00  0.00     0.107 A 
ATOM      6  C   UNL     1      25.407 -14.581  51.677  1.00  0.00     0.134 A 
ATOM      7  C   UNL     1      24.938 -15.899  51.625  1.00  0.00     0.093 A 
ATOM      8  C   UNL     1      24.283 -16.475  52.717  1.00  0.00     0.123 A 
ATOM      9  C   UNL     1      24.083 -15.729  53.875  1.00  0.00     0.094 A 
ATOM     10  C   UNL     1      24.508 -14.400  53.946  1.00  0.00     0.146 A 
ATOM     11  O   UNL     1      24.285 -13.719  55.065  1.00  0.00    -0.456 OA
ENDROOT
BRANCH   1  12
ATOM     12  C   UNL     1      24.339 -11.788  56.528  1.00  0.00     0.021 A 
ATOM     13  C   UNL     1      25.319 -11.787  57.536  1.00  0.00     0.016 A 
ATOM     14  C   UNL     1      25.074 -11.169  58.764  1.00  0.00     0.051 A 
ATOM     15  C   UNL     1      23.850 -10.532  59.003  1.00  0.00     0.157 A 
ATOM     16  C   UNL     1      23.116 -11.134  56.770  1.00  0.00     0.062 A 
ATOM     17  C   UNL     1      22.869 -10.512  57.999  1.00  0.00     0.158 A 
BRANCH  15  18
ATOM     18  O   UNL     1      23.609  -9.917  60.231  1.00  0.00    -0.504 OA
ATOM     19  H   UNL     1      22.668  -9.719  60.550  1.00  0.00     0.293 HD
ENDBRANCH  15  18
BRANCH  17  20
ATOM     20  O   UNL     1      21.644  -9.875  58.202  1.00  0.00    -0.504 OA
ATOM     21  H   UNL     1      21.090 -10.027  59.036  1.00  0.00     0.293 HD
ENDBRANCH  17  20
ENDBRANCH   1  12
BRANCH   6  22
ATOM     22  O   UNL     1      26.125 -14.130  50.566  1.00  0.00    -0.507 OA
ATOM     23  H   UNL     1      26.949 -14.577  50.191  1.00  0.00     0.293 HD
ENDBRANCH   6  22
BRANCH   8  24
ATOM     24  O   UNL     1      23.834 -17.792  52.662  1.00  0.00    -0.508 OA
ATOM     25  H   UNL     1      24.318 -18.495  52.116  1.00  0.00     0.293 HD
ENDBRANCH   8  24
TORSDOF 5
ENDMDL
