MODEL 1
REMARK VINA RESULT:    -3.438      0.000      0.000
REMARK INTER + INTRA:          -8.497
REMARK INTER:                  -6.251
REMARK INTRA:                  -2.246
REMARK UNBOUND:                -2.246
REMARK SMILES CCCCCCCCCCCCCCCC(=O)[O-]
REMARK SMILES IDX 9 1 10 2 11 3 12 4 13 5 14 6 15 7 16 8 17 9 18 10 8 11 7 12
REMARK SMILES IDX 6 13 5 14 4 15 3 16 2 17 1 18
REMARK H PARENT
REMARK Flexibility Score: inf
ROOT
ATOM      1  C   UNL     1     -94.155 146.098 240.126  1.00  0.00     0.000 C 
ENDROOT
BRANCH   1   2
ATOM      2  C   UNL     1     -93.178 146.813 239.186  1.00  0.00     0.000 C 
BRANCH   2   3
ATOM      3  C   UNL     1     -91.869 146.026 239.049  1.00  0.00     0.000 C 
BRANCH   3   4
ATOM      4  C   UNL     1     -91.619 145.623 237.588  1.00  0.00     0.000 C 
BRANCH   4   5
ATOM      5  C   UNL     1     -92.803 145.959 236.668  1.00  0.00     0.000 C 
BRANCH   5   6
ATOM      6  C   UNL     1     -92.371 146.213 235.214  1.00  0.00     0.006 C 
BRANCH   6   7
ATOM      7  C   UNL     1     -93.505 145.943 234.216  1.00  0.00     0.053 C 
BRANCH   7   8
ATOM      8  C   UNL     1     -94.216 147.202 233.828  1.00  0.00     0.041 C 
ATOM      9  O   UNL     1     -93.599 148.300 233.808  1.00  0.00    -0.550 OA
ATOM     10  O   UNL     1     -95.555 147.160 233.460  1.00  0.00    -0.550 OA
ENDBRANCH   7   8
ENDBRANCH   6   7
ENDBRANCH   5   6
ENDBRANCH   4   5
ENDBRANCH   3   4
ENDBRANCH   2   3
ENDBRANCH   1   2
BRANCH   1  11
ATOM     11  C   UNL     1     -94.642 147.040 241.234  1.00  0.00     0.000 C 
BRANCH  11  12
ATOM     12  C   UNL     1     -94.466 148.509 240.822  1.00  0.00    -0.000 C 
BRANCH  12  13
ATOM     13  C   UNL     1     -95.758 149.329 240.979  1.00  0.00    -0.000 C 
BRANCH  13  14
ATOM     14  C   UNL     1     -96.997 148.585 240.454  1.00  0.00    -0.000 C 
BRANCH  14  15
ATOM     15  C   UNL     1     -97.217 148.796 238.947  1.00  0.00    -0.000 C 
BRANCH  15  16
ATOM     16  C   UNL     1     -96.963 147.523 238.125  1.00  0.00    -0.000 C 
BRANCH  16  17
ATOM     17  C   UNL     1     -96.086 147.826 236.904  1.00  0.00    -0.003 C 
ATOM     18  C   UNL     1     -95.174 149.022 237.163  1.00  0.00     0.004 C 
ENDBRANCH  16  17
ENDBRANCH  15  16
ENDBRANCH  14  15
ENDBRANCH  13  14
ENDBRANCH  12  13
ENDBRANCH  11  12
ENDBRANCH   1  11
TORSDOF 14
ENDMDL
MODEL 2
REMARK VINA RESULT:    -3.377      3.303      6.051
REMARK INTER + INTRA:          -8.386
REMARK INTER:                  -7.142
REMARK INTRA:                  -1.244
REMARK UNBOUND:                -2.246
REMARK SMILES CCCCCCCCCCCCCCCC(=O)[O-]
REMARK SMILES IDX 9 1 10 2 11 3 12 4 13 5 14 6 15 7 16 8 17 9 18 10 8 11 7 12
REMARK SMILES IDX 6 13 5 14 4 15 3 16 2 17 1 18
REMARK H PARENT
REMARK Flexibility Score: inf
ROOT
ATOM      1  C   UNL     1     -91.557 145.639 237.696  1.00  0.00     0.000 C 
ENDROOT
BRANCH   1   2
ATOM      2  C   UNL     1     -91.997 146.055 239.104  1.00  0.00     0.000 C 
BRANCH   2   3
ATOM      3  C   UNL     1     -93.455 146.530 239.109  1.00  0.00     0.000 C 
BRANCH   3   4
ATOM      4  C   UNL     1     -93.543 148.031 239.422  1.00  0.00     0.000 C 
BRANCH   4   5
ATOM      5  C   UNL     1     -94.736 148.713 238.734  1.00  0.00     0.000 C 
BRANCH   5   6
ATOM      6  C   UNL     1     -96.013 148.677 239.590  1.00  0.00     0.006 C 
BRANCH   6   7
ATOM      7  C   UNL     1     -95.747 149.082 241.045  1.00  0.00     0.053 C 
BRANCH   7   8
ATOM      8  C   UNL     1     -96.978 149.621 241.707  1.00  0.00     0.041 C 
ATOM      9  O   UNL     1     -97.630 150.556 241.172  1.00  0.00    -0.550 OA
ATOM     10  O   UNL     1     -97.422 149.071 242.903  1.00  0.00    -0.550 OA
ENDBRANCH   7   8
ENDBRANCH   6   7
ENDBRANCH   5   6
ENDBRANCH   4   5
ENDBRANCH   3   4
ENDBRANCH   2   3
ENDBRANCH   1   2
BRANCH   1  11
ATOM     11  C   UNL     1     -92.622 146.005 236.655  1.00  0.00     0.000 C 
BRANCH  11  12
ATOM     12  C   UNL     1     -92.518 145.096 235.420  1.00  0.00    -0.000 C 
BRANCH  12  13
ATOM     13  C   UNL     1     -93.045 145.769 234.142  1.00  0.00    -0.000 C 
BRANCH  13  14
ATOM     14  C   UNL     1     -92.655 147.255 234.053  1.00  0.00    -0.000 C 
BRANCH  14  15
ATOM     15  C   UNL     1     -93.846 148.157 233.696  1.00  0.00    -0.000 C 
BRANCH  15  16
ATOM     16  C   UNL     1     -94.916 148.192 234.798  1.00  0.00    -0.000 C 
BRANCH  16  17
ATOM     17  C   UNL     1     -95.197 149.632 235.244  1.00  0.00    -0.003 C 
ATOM     18  C   UNL     1     -96.628 149.784 235.751  1.00  0.00     0.004 C 
ENDBRANCH  16  17
ENDBRANCH  15  16
ENDBRANCH  14  15
ENDBRANCH  13  14
ENDBRANCH  12  13
ENDBRANCH  11  12
ENDBRANCH   1  11
TORSDOF 14
ENDMDL
MODEL 3
REMARK VINA RESULT:    -3.360      4.413      6.985
REMARK INTER + INTRA:          -8.357
REMARK INTER:                  -6.061
REMARK INTRA:                  -2.296
REMARK UNBOUND:                -2.246
REMARK SMILES CCCCCCCCCCCCCCCC(=O)[O-]
REMARK SMILES IDX 9 1 10 2 11 3 12 4 13 5 14 6 15 7 16 8 17 9 18 10 8 11 7 12
REMARK SMILES IDX 6 13 5 14 4 15 3 16 2 17 1 18
REMARK H PARENT
REMARK Flexibility Score: inf
ROOT
ATOM      1  C   UNL     1     -94.554 146.898 241.400  1.00  0.00     0.000 C 
ENDROOT
BRANCH   1   2
ATOM      2  C   UNL     1     -96.027 146.727 241.787  1.00  0.00     0.000 C 
BRANCH   2   3
ATOM      3  C   UNL     1     -96.917 147.711 241.019  1.00  0.00     0.000 C 
BRANCH   3   4
ATOM      4  C   UNL     1     -96.381 149.145 241.137  1.00  0.00     0.000 C 
BRANCH   4   5
ATOM      5  C   UNL     1     -97.480 150.163 241.479  1.00  0.00     0.000 C 
BRANCH   5   6
ATOM      6  C   UNL     1     -98.777 149.494 241.967  1.00  0.00     0.006 C 
BRANCH   6   7
ATOM      7  C   UNL     1     -99.252 150.062 243.311  1.00  0.00     0.053 C 
BRANCH   7   8
ATOM      8  C   UNL     1     -98.467 149.505 244.458  1.00  0.00     0.041 C 
ATOM      9  O   UNL     1     -98.001 148.337 244.402  1.00  0.00    -0.550 OA
ATOM     10  O   UNL     1     -98.226 150.288 245.581  1.00  0.00    -0.550 OA
ENDBRANCH   7   8
ENDBRANCH   6   7
ENDBRANCH   5   6
ENDBRANCH   4   5
ENDBRANCH   3   4
ENDBRANCH   2   3
ENDBRANCH   1   2
BRANCH   1  11
ATOM     11  C   UNL     1     -94.108 145.799 240.427  1.00  0.00     0.000 C 
BRANCH  11  12
ATOM     12  C   UNL     1     -93.643 146.403 239.093  1.00  0.00    -0.000 C 
BRANCH  12  13
ATOM     13  C   UNL     1     -93.516 147.935 239.147  1.00  0.00    -0.000 C 
BRANCH  13  14
ATOM     14  C   UNL     1     -94.490 148.642 238.188  1.00  0.00    -0.000 C 
BRANCH  14  15
ATOM     15  C   UNL     1     -95.200 147.662 237.240  1.00  0.00    -0.000 C 
BRANCH  15  16
ATOM     16  C   UNL     1     -96.729 147.692 237.392  1.00  0.00    -0.000 C 
BRANCH  16  17
ATOM     17  C   UNL     1     -97.274 149.108 237.170  1.00  0.00    -0.003 C 
ATOM     18  C   UNL     1     -98.536 149.349 237.994  1.00  0.00     0.004 C 
ENDBRANCH  16  17
ENDBRANCH  15  16
ENDBRANCH  14  15
ENDBRANCH  13  14
ENDBRANCH  12  13
ENDBRANCH  11  12
ENDBRANCH   1  11
TORSDOF 14
ENDMDL
MODEL 4
REMARK VINA RESULT:    -3.341      4.089      6.768
REMARK INTER + INTRA:          -8.321
REMARK INTER:                  -6.719
REMARK INTRA:                  -1.602
REMARK UNBOUND:                -2.246
REMARK SMILES CCCCCCCCCCCCCCCC(=O)[O-]
REMARK SMILES IDX 9 1 10 2 11 3 12 4 13 5 14 6 15 7 16 8 17 9 18 10 8 11 7 12
REMARK SMILES IDX 6 13 5 14 4 15 3 16 2 17 1 18
REMARK H PARENT
REMARK Flexibility Score: inf
ROOT
ATOM      1  C   UNL     1     -93.222 145.652 239.981  1.00  0.00     0.000 C 
ENDROOT
BRANCH   1   2
ATOM      2  C   UNL     1     -94.634 146.159 240.296  1.00  0.00     0.000 C 
BRANCH   2   3
ATOM      3  C   UNL     1     -94.587 147.373 241.231  1.00  0.00     0.000 C 
BRANCH   3   4
ATOM      4  C   UNL     1     -95.990 147.965 241.434  1.00  0.00     0.000 C 
BRANCH   4   5
ATOM      5  C   UNL     1     -96.045 149.474 241.150  1.00  0.00     0.000 C 
BRANCH   5   6
ATOM      6  C   UNL     1     -97.345 150.125 241.654  1.00  0.00     0.006 C 
BRANCH   6   7
ATOM      7  C   UNL     1     -98.335 149.091 242.206  1.00  0.00     0.053 C 
BRANCH   7   8
ATOM      8  C   UNL     1     -98.513 149.227 243.687  1.00  0.00     0.041 C 
ATOM      9  O   UNL     1     -97.994 148.389 244.469  1.00  0.00    -0.550 OA
ATOM     10  O   UNL     1     -99.230 150.299 244.205  1.00  0.00    -0.550 OA
ENDBRANCH   7   8
ENDBRANCH   6   7
ENDBRANCH   5   6
ENDBRANCH   4   5
ENDBRANCH   3   4
ENDBRANCH   2   3
ENDBRANCH   1   2
BRANCH   1  11
ATOM     11  C   UNL     1     -92.560 146.505 238.891  1.00  0.00     0.000 C 
BRANCH  11  12
ATOM     12  C   UNL     1     -91.632 145.652 238.014  1.00  0.00    -0.000 C 
BRANCH  12  13
ATOM     13  C   UNL     1     -92.036 145.670 236.530  1.00  0.00    -0.000 C 
BRANCH  13  14
ATOM     14  C   UNL     1     -93.544 145.897 236.331  1.00  0.00    -0.000 C 
BRANCH  14  15
ATOM     15  C   UNL     1     -93.846 147.141 235.480  1.00  0.00    -0.000 C 
BRANCH  15  16
ATOM     16  C   UNL     1     -95.281 147.657 235.669  1.00  0.00    -0.000 C 
BRANCH  16  17
ATOM     17  C   UNL     1     -95.610 147.829 237.157  1.00  0.00    -0.003 C 
ATOM     18  C   UNL     1     -94.935 149.072 237.731  1.00  0.00     0.004 C 
ENDBRANCH  16  17
ENDBRANCH  15  16
ENDBRANCH  14  15
ENDBRANCH  13  14
ENDBRANCH  12  13
ENDBRANCH  11  12
ENDBRANCH   1  11
TORSDOF 14
ENDMDL
MODEL 5
REMARK VINA RESULT:    -3.302      1.636      3.311
REMARK INTER + INTRA:          -8.250
REMARK INTER:                  -5.572
REMARK INTRA:                  -2.678
REMARK UNBOUND:                -2.246
REMARK SMILES CCCCCCCCCCCCCCCC(=O)[O-]
REMARK SMILES IDX 9 1 10 2 11 3 12 4 13 5 14 6 15 7 16 8 17 9 18 10 8 11 7 12
REMARK SMILES IDX 6 13 5 14 4 15 3 16 2 17 1 18
REMARK H PARENT
REMARK Flexibility Score: inf
ROOT
ATOM      1  C   UNL     1     -96.146 146.642 241.584  1.00  0.00     0.000 C 
ENDROOT
BRANCH   1   2
ATOM      2  C   UNL     1     -94.691 147.084 241.394  1.00  0.00     0.000 C 
BRANCH   2   3
ATOM      3  C   UNL     1     -94.613 148.418 240.643  1.00  0.00     0.000 C 
BRANCH   3   4
ATOM      4  C   UNL     1     -93.925 148.243 239.280  1.00  0.00     0.000 C 
BRANCH   4   5
ATOM      5  C   UNL     1     -93.187 146.901 239.156  1.00  0.00     0.000 C 
BRANCH   5   6
ATOM      6  C   UNL     1     -93.147 146.379 237.709  1.00  0.00     0.006 C 
BRANCH   6   7
ATOM      7  C   UNL     1     -94.145 147.110 236.802  1.00  0.00     0.053 C 
BRANCH   7   8
ATOM      8  C   UNL     1     -93.740 147.041 235.361  1.00  0.00     0.041 C 
ATOM      9  O   UNL     1     -93.027 146.091 234.946  1.00  0.00    -0.550 OA
ATOM     10  O   UNL     1     -94.176 148.014 234.470  1.00  0.00    -0.550 OA
ENDBRANCH   7   8
ENDBRANCH   6   7
ENDBRANCH   5   6
ENDBRANCH   4   5
ENDBRANCH   3   4
ENDBRANCH   2   3
ENDBRANCH   1   2
BRANCH   1  11
ATOM     11  C   UNL     1     -96.445 145.371 240.778  1.00  0.00     0.000 C 
BRANCH  11  12
ATOM     12  C   UNL     1     -96.813 145.715 239.327  1.00  0.00    -0.000 C 
BRANCH  12  13
ATOM     13  C   UNL     1     -97.912 146.787 239.231  1.00  0.00    -0.000 C 
BRANCH  13  14
ATOM     14  C   UNL     1     -97.513 147.962 238.321  1.00  0.00    -0.000 C 
BRANCH  14  15
ATOM     15  C   UNL     1     -97.976 149.319 238.873  1.00  0.00    -0.000 C 
BRANCH  15  16
ATOM     16  C   UNL     1     -98.512 149.226 240.310  1.00  0.00    -0.000 C 
BRANCH  16  17
ATOM     17  C   UNL     1     -97.734 150.157 241.247  1.00  0.00    -0.003 C 
ATOM     18  C   UNL     1     -97.871 149.717 242.702  1.00  0.00     0.004 C 
ENDBRANCH  16  17
ENDBRANCH  15  16
ENDBRANCH  14  15
ENDBRANCH  13  14
ENDBRANCH  12  13
ENDBRANCH  11  12
ENDBRANCH   1  11
TORSDOF 14
ENDMDL
MODEL 6
REMARK VINA RESULT:    -3.279      2.064      3.767
REMARK INTER + INTRA:          -8.210
REMARK INTER:                  -6.275
REMARK INTRA:                  -1.934
REMARK UNBOUND:                -2.246
REMARK SMILES CCCCCCCCCCCCCCCC(=O)[O-]
REMARK SMILES IDX 9 1 10 2 11 3 12 4 13 5 14 6 15 7 16 8 17 9 18 10 8 11 7 12
REMARK SMILES IDX 6 13 5 14 4 15 3 16 2 17 1 18
REMARK H PARENT
REMARK Flexibility Score: inf
ROOT
ATOM      1  C   UNL     1     -94.316 146.681 241.110  1.00  0.00     0.000 C 
ENDROOT
BRANCH   1   2
ATOM      2  C   UNL     1     -93.495 145.919 240.063  1.00  0.00     0.000 C 
BRANCH   2   3
ATOM      3  C   UNL     1     -92.958 146.867 238.985  1.00  0.00     0.000 C 
BRANCH   3   4
ATOM      4  C   UNL     1     -93.272 146.335 237.578  1.00  0.00     0.000 C 
BRANCH   4   5
ATOM      5  C   UNL     1     -94.240 147.242 236.802  1.00  0.00     0.000 C 
BRANCH   5   6
ATOM      6  C   UNL     1     -94.675 148.475 237.612  1.00  0.00     0.006 C 
BRANCH   6   7
ATOM      7  C   UNL     1     -96.070 148.971 237.210  1.00  0.00     0.053 C 
BRANCH   7   8
ATOM      8  C   UNL     1     -96.067 149.596 235.849  1.00  0.00     0.041 C 
ATOM      9  O   UNL     1     -96.759 149.101 234.921  1.00  0.00    -0.550 OA
ATOM     10  O   UNL     1     -95.320 150.743 235.613  1.00  0.00    -0.550 OA
ENDBRANCH   7   8
ENDBRANCH   6   7
ENDBRANCH   5   6
ENDBRANCH   4   5
ENDBRANCH   3   4
ENDBRANCH   2   3
ENDBRANCH   1   2
BRANCH   1  11
ATOM     11  C   UNL     1     -95.809 146.359 240.980  1.00  0.00     0.000 C 
BRANCH  11  12
ATOM     12  C   UNL     1     -96.623 147.631 240.695  1.00  0.00    -0.000 C 
BRANCH  12  13
ATOM     13  C   UNL     1     -95.835 148.918 240.989  1.00  0.00    -0.000 C 
BRANCH  13  14
ATOM     14  C   UNL     1     -96.735 150.059 241.493  1.00  0.00    -0.000 C 
BRANCH  14  15
ATOM     15  C   UNL     1     -98.227 149.787 241.246  1.00  0.00    -0.000 C 
BRANCH  15  16
ATOM     16  C   UNL     1     -99.037 149.690 242.548  1.00  0.00    -0.000 C 
BRANCH  16  17
ATOM     17  C   UNL     1     -98.118 149.431 243.748  1.00  0.00    -0.003 C 
ATOM     18  C   UNL     1     -98.202 147.977 244.203  1.00  0.00     0.004 C 
ENDBRANCH  16  17
ENDBRANCH  15  16
ENDBRANCH  14  15
ENDBRANCH  13  14
ENDBRANCH  12  13
ENDBRANCH  11  12
ENDBRANCH   1  11
TORSDOF 14
ENDMDL
MODEL 7
REMARK VINA RESULT:    -3.273      3.829      6.482
REMARK INTER + INTRA:          -8.198
REMARK INTER:                  -6.534
REMARK INTRA:                  -1.664
REMARK UNBOUND:                -2.246
REMARK SMILES CCCCCCCCCCCCCCCC(=O)[O-]
REMARK SMILES IDX 9 1 10 2 11 3 12 4 13 5 14 6 15 7 16 8 17 9 18 10 8 11 7 12
REMARK SMILES IDX 6 13 5 14 4 15 3 16 2 17 1 18
REMARK H PARENT
REMARK Flexibility Score: inf
ROOT
ATOM      1  C   UNL     1     -93.548 146.359 237.396  1.00  0.00     0.000 C 
ENDROOT
BRANCH   1   2
ATOM      2  C   UNL     1     -92.990 146.624 238.799  1.00  0.00     0.000 C 
BRANCH   2   3
ATOM      3  C   UNL     1     -93.474 147.974 239.340  1.00  0.00     0.000 C 
BRANCH   3   4
ATOM      4  C   UNL     1     -94.556 147.781 240.414  1.00  0.00     0.000 C 
BRANCH   4   5
ATOM      5  C   UNL     1     -95.286 149.087 240.764  1.00  0.00     0.000 C 
BRANCH   5   6
ATOM      6  C   UNL     1     -96.801 148.889 240.942  1.00  0.00     0.006 C 
BRANCH   6   7
ATOM      7  C   UNL     1     -97.440 150.016 241.764  1.00  0.00     0.053 C 
BRANCH   7   8
ATOM      8  C   UNL     1     -98.040 149.505 243.037  1.00  0.00     0.041 C 
ATOM      9  O   UNL     1     -97.592 148.459 243.576  1.00  0.00    -0.550 OA
ATOM     10  O   UNL     1     -99.077 150.202 243.645  1.00  0.00    -0.550 OA
ENDBRANCH   7   8
ENDBRANCH   6   7
ENDBRANCH   5   6
ENDBRANCH   4   5
ENDBRANCH   3   4
ENDBRANCH   2   3
ENDBRANCH   1   2
BRANCH   1  11
ATOM     11  C   UNL     1     -92.437 145.918 236.436  1.00  0.00     0.000 C 
BRANCH  11  12
ATOM     12  C   UNL     1     -92.724 146.400 235.005  1.00  0.00    -0.000 C 
BRANCH  12  13
ATOM     13  C   UNL     1     -94.177 146.867 234.817  1.00  0.00    -0.000 C 
BRANCH  13  14
ATOM     14  C   UNL     1     -94.271 148.329 234.345  1.00  0.00    -0.000 C 
BRANCH  14  15
ATOM     15  C   UNL     1     -95.491 149.059 234.929  1.00  0.00    -0.000 C 
BRANCH  15  16
ATOM     16  C   UNL     1     -95.356 149.333 236.435  1.00  0.00    -0.000 C 
BRANCH  16  17
ATOM     17  C   UNL     1     -96.472 148.635 237.221  1.00  0.00    -0.003 C 
ATOM     18  C   UNL     1     -97.760 149.454 237.196  1.00  0.00     0.004 C 
ENDBRANCH  16  17
ENDBRANCH  15  16
ENDBRANCH  14  15
ENDBRANCH  13  14
ENDBRANCH  12  13
ENDBRANCH  11  12
ENDBRANCH   1  11
TORSDOF 14
ENDMDL
MODEL 8
REMARK VINA RESULT:    -3.269      5.449      8.278
REMARK INTER + INTRA:          -8.190
REMARK INTER:                  -5.943
REMARK INTRA:                  -2.248
REMARK UNBOUND:                -2.246
REMARK SMILES CCCCCCCCCCCCCCCC(=O)[O-]
REMARK SMILES IDX 9 1 10 2 11 3 12 4 13 5 14 6 15 7 16 8 17 9 18 10 8 11 7 12
REMARK SMILES IDX 6 13 5 14 4 15 3 16 2 17 1 18
REMARK H PARENT
REMARK Flexibility Score: inf
ROOT
ATOM      1  C   UNL     1     -96.479 148.018 241.647  1.00  0.00     0.000 C 
ENDROOT
BRANCH   1   2
ATOM      2  C   UNL     1     -96.375 149.533 241.434  1.00  0.00     0.000 C 
BRANCH   2   3
ATOM      3  C   UNL     1     -97.757 150.153 241.196  1.00  0.00     0.000 C 
BRANCH   3   4
ATOM      4  C   UNL     1     -98.872 149.219 241.691  1.00  0.00     0.000 C 
BRANCH   4   5
ATOM      5  C   UNL     1     -99.580 149.752 242.946  1.00  0.00     0.000 C 
BRANCH   5   6
ATOM      6  C   UNL     1     -98.850 149.371 244.245  1.00  0.00     0.006 C 
BRANCH   6   7
ATOM      7  C   UNL     1     -98.534 150.597 245.113  1.00  0.00     0.053 C 
BRANCH   7   8
ATOM      8  C   UNL     1     -99.703 150.993 245.962  1.00  0.00     0.041 C 
ATOM      9  O   UNL     1    -100.535 150.129 246.342  1.00  0.00    -0.550 OA
ATOM     10  O   UNL     1     -99.857 152.317 246.357  1.00  0.00    -0.550 OA
ENDBRANCH   7   8
ENDBRANCH   6   7
ENDBRANCH   5   6
ENDBRANCH   4   5
ENDBRANCH   3   4
ENDBRANCH   2   3
ENDBRANCH   1   2
BRANCH   1  11
ATOM     11  C   UNL     1     -95.239 147.299 241.103  1.00  0.00     0.000 C 
BRANCH  11  12
ATOM     12  C   UNL     1     -94.204 148.308 240.581  1.00  0.00    -0.000 C 
BRANCH  12  13
ATOM     13  C   UNL     1     -93.456 147.800 239.337  1.00  0.00    -0.000 C 
BRANCH  13  14
ATOM     14  C   UNL     1     -94.388 147.588 238.132  1.00  0.00    -0.000 C 
BRANCH  14  15
ATOM     15  C   UNL     1     -95.055 148.892 237.665  1.00  0.00    -0.000 C 
BRANCH  15  16
ATOM     16  C   UNL     1     -96.589 148.834 237.737  1.00  0.00    -0.000 C 
BRANCH  16  17
ATOM     17  C   UNL     1     -97.077 147.385 237.848  1.00  0.00    -0.003 C 
ATOM     18  C   UNL     1     -98.437 147.312 238.538  1.00  0.00     0.004 C 
ENDBRANCH  16  17
ENDBRANCH  15  16
ENDBRANCH  14  15
ENDBRANCH  13  14
ENDBRANCH  12  13
ENDBRANCH  11  12
ENDBRANCH   1  11
TORSDOF 14
ENDMDL
MODEL 9
REMARK VINA RESULT:    -3.264      3.210      6.232
REMARK INTER + INTRA:          -8.182
REMARK INTER:                  -6.021
REMARK INTRA:                  -2.160
REMARK UNBOUND:                -2.246
REMARK SMILES CCCCCCCCCCCCCCCC(=O)[O-]
REMARK SMILES IDX 9 1 10 2 11 3 12 4 13 5 14 6 15 7 16 8 17 9 18 10 8 11 7 12
REMARK SMILES IDX 6 13 5 14 4 15 3 16 2 17 1 18
REMARK H PARENT
REMARK Flexibility Score: inf
ROOT
ATOM      1  C   UNL     1     -96.757 146.153 240.068  1.00  0.00     0.000 C 
ENDROOT
BRANCH   1   2
ATOM      2  C   UNL     1     -96.839 146.950 241.375  1.00  0.00     0.000 C 
BRANCH   2   3
ATOM      3  C   UNL     1     -95.758 148.037 241.427  1.00  0.00     0.000 C 
BRANCH   3   4
ATOM      4  C   UNL     1     -96.382 149.438 241.333  1.00  0.00     0.000 C 
BRANCH   4   5
ATOM      5  C   UNL     1     -97.619 149.599 242.231  1.00  0.00     0.000 C 
BRANCH   5   6
ATOM      6  C   UNL     1     -98.820 150.203 241.483  1.00  0.00     0.006 C 
BRANCH   6   7
ATOM      7  C   UNL     1     -98.626 150.179 239.961  1.00  0.00     0.053 C 
BRANCH   7   8
ATOM      8  C   UNL     1     -99.735 150.889 239.248  1.00  0.00     0.041 C 
ATOM      9  O   UNL     1    -100.924 150.496 239.370  1.00  0.00    -0.550 OA
ATOM     10  O   UNL     1     -99.457 152.005 238.468  1.00  0.00    -0.550 OA
ENDBRANCH   7   8
ENDBRANCH   6   7
ENDBRANCH   5   6
ENDBRANCH   4   5
ENDBRANCH   3   4
ENDBRANCH   2   3
ENDBRANCH   1   2
BRANCH   1  11
ATOM     11  C   UNL     1     -97.526 146.859 238.944  1.00  0.00     0.000 C 
BRANCH  11  12
ATOM     12  C   UNL     1     -96.609 147.138 237.743  1.00  0.00    -0.000 C 
BRANCH  12  13
ATOM     13  C   UNL     1     -96.073 148.580 237.728  1.00  0.00    -0.000 C 
BRANCH  13  14
ATOM     14  C   UNL     1     -94.569 148.654 238.039  1.00  0.00    -0.000 C 
BRANCH  14  15
ATOM     15  C   UNL     1     -93.872 147.289 237.912  1.00  0.00    -0.000 C 
BRANCH  15  16
ATOM     16  C   UNL     1     -93.157 146.864 239.204  1.00  0.00    -0.000 C 
BRANCH  16  17
ATOM     17  C   UNL     1     -91.919 146.016 238.891  1.00  0.00    -0.003 C 
ATOM     18  C   UNL     1     -91.843 145.678 237.405  1.00  0.00     0.004 C 
ENDBRANCH  16  17
ENDBRANCH  15  16
ENDBRANCH  14  15
ENDBRANCH  13  14
ENDBRANCH  12  13
ENDBRANCH  11  12
ENDBRANCH   1  11
TORSDOF 14
ENDMDL
