MODEL 1
REMARK VINA RESULT:    -5.916      0.000      0.000
REMARK INTER + INTRA:          -7.232
REMARK INTER:                  -6.954
REMARK INTRA:                  -0.278
REMARK UNBOUND:                -0.278
REMARK SMILES O=c1cc(-c2ccc(O)c(O)c2)oc2cc(O)cc(O)c12
REMARK SMILES IDX 4 1 3 2 2 3 1 4 21 5 19 6 18 7 16 8 15 9 14 10 13 11 5 12
REMARK SMILES IDX 6 13 7 14 8 15 12 16 10 17 9 18 11 20 20 22 17 24
REMARK H PARENT 9 19 11 21 20 23 17 25
REMARK Flexibility Score: inf
ROOT
ATOM      1  C   UNL     1       3.757  21.214 -15.547  1.00  0.00     0.138 A 
ATOM      2  C   UNL     1       3.008  22.077 -16.364  1.00  0.00     0.100 A 
ATOM      3  C   UNL     1       3.335  23.432 -16.413  1.00  0.00     0.197 A 
ATOM      4  O   UNL     1       2.656  24.199 -17.148  1.00  0.00    -0.289 OA
ATOM      5  C   UNL     1       4.410  23.916 -15.642  1.00  0.00     0.107 A 
ATOM      6  C   UNL     1       4.809  25.274 -15.636  1.00  0.00     0.134 A 
ATOM      7  C   UNL     1       5.888  25.678 -14.835  1.00  0.00     0.093 A 
ATOM      8  C   UNL     1       6.572  24.753 -14.042  1.00  0.00     0.123 A 
ATOM      9  C   UNL     1       6.182  23.410 -14.044  1.00  0.00     0.094 A 
ATOM     10  C   UNL     1       5.111  22.987 -14.836  1.00  0.00     0.146 A 
ATOM     11  O   UNL     1       4.760  21.705 -14.823  1.00  0.00    -0.456 OA
ENDROOT
BRANCH   1  12
ATOM     12  C   UNL     1       3.453  19.763 -15.454  1.00  0.00     0.021 A 
ATOM     13  C   UNL     1       2.190  19.350 -14.996  1.00  0.00     0.016 A 
ATOM     14  C   UNL     1       1.881  17.992 -14.893  1.00  0.00     0.051 A 
ATOM     15  C   UNL     1       2.832  17.023 -15.234  1.00  0.00     0.157 A 
ATOM     16  C   UNL     1       4.409  18.782 -15.784  1.00  0.00     0.062 A 
ATOM     17  C   UNL     1       4.102  17.421 -15.679  1.00  0.00     0.158 A 
BRANCH  15  18
ATOM     18  O   UNL     1       2.519  15.667 -15.131  1.00  0.00    -0.504 OA
ATOM     19  H   UNL     1       1.905  15.317 -14.405  1.00  0.00     0.293 HD
ENDBRANCH  15  18
BRANCH  17  20
ATOM     20  O   UNL     1       5.075  16.480 -16.016  1.00  0.00    -0.504 OA
ATOM     21  H   UNL     1       4.935  15.803 -16.756  1.00  0.00     0.293 HD
ENDBRANCH  17  20
ENDBRANCH   1  12
BRANCH   6  22
ATOM     22  O   UNL     1       4.144  26.221 -16.416  1.00  0.00    -0.507 OA
ATOM     23  H   UNL     1       3.133  26.248 -16.475  1.00  0.00     0.293 HD
ENDBRANCH   6  22
BRANCH   8  24
ATOM     24  O   UNL     1       7.639  25.180 -13.256  1.00  0.00    -0.508 OA
ATOM     25  H   UNL     1       7.536  25.933 -12.584  1.00  0.00     0.293 HD
ENDBRANCH   8  24
TORSDOF 5
ENDMDL
MODEL 2
REMARK VINA RESULT:    -5.850      5.676      8.707
REMARK INTER + INTRA:          -7.154
REMARK INTER:                  -6.890
REMARK INTRA:                  -0.264
REMARK UNBOUND:                -0.278
REMARK SMILES O=c1cc(-c2ccc(O)c(O)c2)oc2cc(O)cc(O)c12
REMARK SMILES IDX 4 1 3 2 2 3 1 4 21 5 19 6 18 7 16 8 15 9 14 10 13 11 5 12
REMARK SMILES IDX 6 13 7 14 8 15 12 16 10 17 9 18 11 20 20 22 17 24
REMARK H PARENT 9 19 11 21 20 23 17 25
REMARK Flexibility Score: inf
ROOT
ATOM      1  C   UNL     1       5.599  23.275  -9.979  1.00  0.00     0.138 A 
ATOM      2  C   UNL     1       4.241  23.504  -9.701  1.00  0.00     0.100 A 
ATOM      3  C   UNL     1       3.547  22.609  -8.885  1.00  0.00     0.197 A 
ATOM      4  O   UNL     1       2.328  22.822  -8.642  1.00  0.00    -0.289 OA
ATOM      5  C   UNL     1       4.217  21.489  -8.355  1.00  0.00     0.107 A 
ATOM      6  C   UNL     1       3.589  20.535  -7.519  1.00  0.00     0.134 A 
ATOM      7  C   UNL     1       4.325  19.443  -7.035  1.00  0.00     0.093 A 
ATOM      8  C   UNL     1       5.672  19.286  -7.372  1.00  0.00     0.123 A 
ATOM      9  C   UNL     1       6.298  20.225  -8.198  1.00  0.00     0.094 A 
ATOM     10  C   UNL     1       5.582  21.322  -8.689  1.00  0.00     0.146 A 
ATOM     11  O   UNL     1       6.199  22.201  -9.471  1.00  0.00    -0.456 OA
ENDROOT
BRANCH   1  12
ATOM     12  C   UNL     1       6.386  24.192 -10.841  1.00  0.00     0.021 A 
ATOM     13  C   UNL     1       7.118  25.238 -10.251  1.00  0.00     0.016 A 
ATOM     14  C   UNL     1       7.861  26.118 -11.039  1.00  0.00     0.051 A 
ATOM     15  C   UNL     1       7.879  25.978 -12.432  1.00  0.00     0.157 A 
ATOM     16  C   UNL     1       6.398  24.064 -12.244  1.00  0.00     0.062 A 
ATOM     17  C   UNL     1       7.141  24.947 -13.036  1.00  0.00     0.158 A 
BRANCH  15  18
ATOM     18  O   UNL     1       8.623  26.858 -13.217  1.00  0.00    -0.504 OA
ATOM     19  H   UNL     1       9.089  27.663 -12.815  1.00  0.00     0.293 HD
ENDBRANCH  15  18
BRANCH  17  20
ATOM     20  O   UNL     1       7.129  24.787 -14.422  1.00  0.00    -0.504 OA
ATOM     21  H   UNL     1       7.961  24.536 -14.942  1.00  0.00     0.293 HD
ENDBRANCH  17  20
ENDBRANCH   1  12
BRANCH   6  22
ATOM     22  O   UNL     1       2.245  20.664  -7.166  1.00  0.00    -0.507 OA
ATOM     23  H   UNL     1       1.512  20.178  -7.669  1.00  0.00     0.293 HD
ENDBRANCH   6  22
BRANCH   8  24
ATOM     24  O   UNL     1       6.379  18.192  -6.879  1.00  0.00    -0.508 OA
ATOM     25  H   UNL     1       6.599  18.103  -5.893  1.00  0.00     0.293 HD
ENDBRANCH   8  24
TORSDOF 5
ENDMDL
MODEL 3
REMARK VINA RESULT:    -5.775      6.784      7.439
REMARK INTER + INTRA:          -7.066
REMARK INTER:                  -6.783
REMARK INTRA:                  -0.283
REMARK UNBOUND:                -0.278
REMARK SMILES O=c1cc(-c2ccc(O)c(O)c2)oc2cc(O)cc(O)c12
REMARK SMILES IDX 4 1 3 2 2 3 1 4 21 5 19 6 18 7 16 8 15 9 14 10 13 11 5 12
REMARK SMILES IDX 6 13 7 14 8 15 12 16 10 17 9 18 11 20 20 22 17 24
REMARK H PARENT 9 19 11 21 20 23 17 25
REMARK Flexibility Score: inf
ROOT
ATOM      1  C   UNL     1       5.567  20.889  -8.337  1.00  0.00     0.138 A 
ATOM      2  C   UNL     1       6.857  21.399  -8.112  1.00  0.00     0.100 A 
ATOM      3  C   UNL     1       7.090  22.767  -8.264  1.00  0.00     0.197 A 
ATOM      4  O   UNL     1       8.250  23.215  -8.061  1.00  0.00    -0.289 OA
ATOM      5  C   UNL     1       6.030  23.615  -8.641  1.00  0.00     0.107 A 
ATOM      6  C   UNL     1       6.180  25.011  -8.815  1.00  0.00     0.134 A 
ATOM      7  C   UNL     1       5.076  25.787  -9.199  1.00  0.00     0.093 A 
ATOM      8  C   UNL     1       3.829  25.194  -9.413  1.00  0.00     0.123 A 
ATOM      9  C   UNL     1       3.674  23.814  -9.243  1.00  0.00     0.094 A 
ATOM     10  C   UNL     1       4.762  23.024  -8.859  1.00  0.00     0.146 A 
ATOM     11  O   UNL     1       4.591  21.716  -8.703  1.00  0.00    -0.456 OA
ENDROOT
BRANCH   1  12
ATOM     12  C   UNL     1       5.261  19.443  -8.192  1.00  0.00     0.021 A 
ATOM     13  C   UNL     1       4.034  19.049  -7.631  1.00  0.00     0.016 A 
ATOM     14  C   UNL     1       3.724  17.696  -7.478  1.00  0.00     0.051 A 
ATOM     15  C   UNL     1       4.640  16.712  -7.870  1.00  0.00     0.157 A 
ATOM     16  C   UNL     1       6.183  18.448  -8.573  1.00  0.00     0.062 A 
ATOM     17  C   UNL     1       5.875  17.091  -8.418  1.00  0.00     0.158 A 
BRANCH  15  18
ATOM     18  O   UNL     1       4.327  15.362  -7.717  1.00  0.00    -0.504 OA
ATOM     19  H   UNL     1       4.313  14.727  -8.506  1.00  0.00     0.293 HD
ENDBRANCH  15  18
BRANCH  17  20
ATOM     20  O   UNL     1       6.813  16.135  -8.809  1.00  0.00    -0.504 OA
ATOM     21  H   UNL     1       7.288  16.181  -9.702  1.00  0.00     0.293 HD
ENDBRANCH  17  20
ENDBRANCH   1  12
BRANCH   6  22
ATOM     22  O   UNL     1       7.413  25.632  -8.610  1.00  0.00    -0.507 OA
ATOM     23  H   UNL     1       8.162  25.567  -9.290  1.00  0.00     0.293 HD
ENDBRANCH   6  22
BRANCH   8  24
ATOM     24  O   UNL     1       2.749  25.986  -9.793  1.00  0.00    -0.508 OA
ATOM     25  H   UNL     1       2.867  26.786 -10.406  1.00  0.00     0.293 HD
ENDBRANCH   8  24
TORSDOF 5
ENDMDL
MODEL 4
REMARK VINA RESULT:    -5.774      5.741      7.060
REMARK INTER + INTRA:          -7.065
REMARK INTER:                  -6.800
REMARK INTRA:                  -0.264
REMARK UNBOUND:                -0.278
REMARK SMILES O=c1cc(-c2ccc(O)c(O)c2)oc2cc(O)cc(O)c12
REMARK SMILES IDX 4 1 3 2 2 3 1 4 21 5 19 6 18 7 16 8 15 9 14 10 13 11 5 12
REMARK SMILES IDX 6 13 7 14 8 15 12 16 10 17 9 18 11 20 20 22 17 24
REMARK H PARENT 9 19 11 21 20 23 17 25
REMARK Flexibility Score: inf
ROOT
ATOM      1  C   UNL     1       6.457  22.450  -9.102  1.00  0.00     0.138 A 
ATOM      2  C   UNL     1       6.603  23.530  -8.216  1.00  0.00     0.100 A 
ATOM      3  C   UNL     1       6.895  24.798  -8.721  1.00  0.00     0.197 A 
ATOM      4  O   UNL     1       7.025  25.761  -7.918  1.00  0.00    -0.289 OA
ATOM      5  C   UNL     1       7.042  24.976 -10.111  1.00  0.00     0.107 A 
ATOM      6  C   UNL     1       7.336  26.226 -10.705  1.00  0.00     0.134 A 
ATOM      7  C   UNL     1       7.473  26.319 -12.098  1.00  0.00     0.093 A 
ATOM      8  C   UNL     1       7.322  25.189 -12.906  1.00  0.00     0.123 A 
ATOM      9  C   UNL     1       7.032  23.950 -12.324  1.00  0.00     0.094 A 
ATOM     10  C   UNL     1       6.890  23.837 -10.938  1.00  0.00     0.146 A 
ATOM     11  O   UNL     1       6.613  22.650 -10.409  1.00  0.00    -0.456 OA
ENDROOT
BRANCH   1  12
ATOM     12  C   UNL     1       6.148  21.079  -8.622  1.00  0.00     0.021 A 
ATOM     13  C   UNL     1       7.098  20.057  -8.791  1.00  0.00     0.016 A 
ATOM     14  C   UNL     1       6.829  18.759  -8.354  1.00  0.00     0.051 A 
ATOM     15  C   UNL     1       5.603  18.455  -7.751  1.00  0.00     0.157 A 
ATOM     16  C   UNL     1       4.911  20.764  -8.025  1.00  0.00     0.062 A 
ATOM     17  C   UNL     1       4.639  19.462  -7.588  1.00  0.00     0.158 A 
BRANCH  15  18
ATOM     18  O   UNL     1       5.338  17.157  -7.314  1.00  0.00    -0.504 OA
ATOM     19  H   UNL     1       6.069  16.458  -7.252  1.00  0.00     0.293 HD
ENDBRANCH  15  18
BRANCH  17  20
ATOM     20  O   UNL     1       3.404  19.190  -7.001  1.00  0.00    -0.504 OA
ATOM     21  H   UNL     1       3.247  18.365  -6.434  1.00  0.00     0.293 HD
ENDBRANCH  17  20
ENDBRANCH   1  12
BRANCH   6  22
ATOM     22  O   UNL     1       7.493  27.372  -9.925  1.00  0.00    -0.507 OA
ATOM     23  H   UNL     1       8.080  27.379  -9.099  1.00  0.00     0.293 HD
ENDBRANCH   6  22
BRANCH   8  24
ATOM     24  O   UNL     1       7.463  25.308 -14.286  1.00  0.00    -0.508 OA
ATOM     25  H   UNL     1       8.375  25.295 -14.730  1.00  0.00     0.293 HD
ENDBRANCH   8  24
TORSDOF 5
ENDMDL
MODEL 5
REMARK VINA RESULT:    -5.675      4.919      7.073
REMARK INTER + INTRA:          -6.949
REMARK INTER:                  -6.659
REMARK INTRA:                  -0.290
REMARK UNBOUND:                -0.278
REMARK SMILES O=c1cc(-c2ccc(O)c(O)c2)oc2cc(O)cc(O)c12
REMARK SMILES IDX 4 1 3 2 2 3 1 4 21 5 19 6 18 7 16 8 15 9 14 10 13 11 5 12
REMARK SMILES IDX 6 13 7 14 8 15 12 16 10 17 9 18 11 20 20 22 17 24
REMARK H PARENT 9 19 11 21 20 23 17 25
REMARK Flexibility Score: inf
ROOT
ATOM      1  C   UNL     1       6.866  27.025 -13.500  1.00  0.00     0.138 A 
ATOM      2  C   UNL     1       5.832  27.321 -14.404  1.00  0.00     0.100 A 
ATOM      3  C   UNL     1       5.636  28.641 -14.814  1.00  0.00     0.197 A 
ATOM      4  O   UNL     1       4.705  28.897 -15.624  1.00  0.00    -0.289 OA
ATOM      5  C   UNL     1       6.474  29.656 -14.313  1.00  0.00     0.107 A 
ATOM      6  C   UNL     1       6.345  31.018 -14.678  1.00  0.00     0.134 A 
ATOM      7  C   UNL     1       7.217  31.970 -14.130  1.00  0.00     0.093 A 
ATOM      8  C   UNL     1       8.213  31.589 -13.227  1.00  0.00     0.123 A 
ATOM      9  C   UNL     1       8.345  30.244 -12.862  1.00  0.00     0.094 A 
ATOM     10  C   UNL     1       7.487  29.280 -13.398  1.00  0.00     0.146 A 
ATOM     11  O   UNL     1       7.634  28.009 -13.038  1.00  0.00    -0.456 OA
ENDROOT
BRANCH   1  12
ATOM     12  C   UNL     1       7.120  25.640 -13.029  1.00  0.00     0.021 A 
ATOM     13  C   UNL     1       7.726  25.436 -11.777  1.00  0.00     0.016 A 
ATOM     14  C   UNL     1       7.982  24.145 -11.313  1.00  0.00     0.051 A 
ATOM     15  C   UNL     1       7.649  23.033 -12.096  1.00  0.00     0.157 A 
ATOM     16  C   UNL     1       6.799  24.517 -13.817  1.00  0.00     0.062 A 
ATOM     17  C   UNL     1       7.057  23.221 -13.355  1.00  0.00     0.158 A 
BRANCH  15  18
ATOM     18  O   UNL     1       7.906  21.744 -11.630  1.00  0.00    -0.504 OA
ATOM     19  H   UNL     1       8.668  21.552 -10.990  1.00  0.00     0.293 HD
ENDBRANCH  15  18
BRANCH  17  20
ATOM     20  O   UNL     1       6.723  22.135 -14.164  1.00  0.00    -0.504 OA
ATOM     21  H   UNL     1       5.821  22.058 -14.616  1.00  0.00     0.293 HD
ENDBRANCH  17  20
ENDBRANCH   1  12
BRANCH   6  22
ATOM     22  O   UNL     1       5.360  31.429 -15.576  1.00  0.00    -0.507 OA
ATOM     23  H   UNL     1       5.593  31.813 -16.485  1.00  0.00     0.293 HD
ENDBRANCH   6  22
BRANCH   8  24
ATOM     24  O   UNL     1       9.065  32.554 -12.697  1.00  0.00    -0.508 OA
ATOM     25  H   UNL     1       8.877  33.544 -12.804  1.00  0.00     0.293 HD
ENDBRANCH   8  24
TORSDOF 5
ENDMDL
MODEL 6
REMARK VINA RESULT:    -5.615      5.272     10.150
REMARK INTER + INTRA:          -6.878
REMARK INTER:                  -6.596
REMARK INTRA:                  -0.282
REMARK UNBOUND:                -0.278
REMARK SMILES O=c1cc(-c2ccc(O)c(O)c2)oc2cc(O)cc(O)c12
REMARK SMILES IDX 4 1 3 2 2 3 1 4 21 5 19 6 18 7 16 8 15 9 14 10 13 11 5 12
REMARK SMILES IDX 6 13 7 14 8 15 12 16 10 17 9 18 11 20 20 22 17 24
REMARK H PARENT 9 19 11 21 20 23 17 25
REMARK Flexibility Score: inf
ROOT
ATOM      1  C   UNL     1       7.550  28.120 -12.801  1.00  0.00     0.138 A 
ATOM      2  C   UNL     1       7.007  27.643 -14.005  1.00  0.00     0.100 A 
ATOM      3  C   UNL     1       6.797  26.273 -14.168  1.00  0.00     0.197 A 
ATOM      4  O   UNL     1       6.311  25.854 -15.254  1.00  0.00    -0.289 OA
ATOM      5  C   UNL     1       7.136  25.389 -13.126  1.00  0.00     0.107 A 
ATOM      6  C   UNL     1       6.954  23.987 -13.209  1.00  0.00     0.134 A 
ATOM      7  C   UNL     1       7.322  23.173 -12.127  1.00  0.00     0.093 A 
ATOM      8  C   UNL     1       7.868  23.732 -10.968  1.00  0.00     0.123 A 
ATOM      9  C   UNL     1       8.049  25.116 -10.880  1.00  0.00     0.094 A 
ATOM     10  C   UNL     1       7.688  25.945 -11.946  1.00  0.00     0.146 A 
ATOM     11  O   UNL     1       7.868  27.257 -11.839  1.00  0.00    -0.456 OA
ENDROOT
BRANCH   1  12
ATOM     12  C   UNL     1       7.796  29.567 -12.571  1.00  0.00     0.021 A 
ATOM     13  C   UNL     1       7.535  30.120 -11.305  1.00  0.00     0.016 A 
ATOM     14  C   UNL     1       7.752  31.478 -11.066  1.00  0.00     0.051 A 
ATOM     15  C   UNL     1       8.221  32.311 -12.088  1.00  0.00     0.157 A 
ATOM     16  C   UNL     1       8.256  30.413 -13.600  1.00  0.00     0.062 A 
ATOM     17  C   UNL     1       8.471  31.775 -13.361  1.00  0.00     0.158 A 
BRANCH  15  18
ATOM     18  O   UNL     1       8.437  33.667 -11.845  1.00  0.00    -0.504 OA
ATOM     19  H   UNL     1       9.330  34.105 -12.036  1.00  0.00     0.293 HD
ENDBRANCH  15  18
BRANCH  17  20
ATOM     20  O   UNL     1       8.929  32.581 -14.404  1.00  0.00    -0.504 OA
ATOM     21  H   UNL     1       9.632  33.295 -14.264  1.00  0.00     0.293 HD
ENDBRANCH  17  20
ENDBRANCH   1  12
BRANCH   6  22
ATOM     22  O   UNL     1       6.414  23.400 -14.353  1.00  0.00    -0.507 OA
ATOM     23  H   UNL     1       6.634  23.740 -15.282  1.00  0.00     0.293 HD
ENDBRANCH   6  22
BRANCH   8  24
ATOM     24  O   UNL     1       8.225  22.902  -9.908  1.00  0.00    -0.508 OA
ATOM     25  H   UNL     1       7.807  21.986  -9.788  1.00  0.00     0.293 HD
ENDBRANCH   8  24
TORSDOF 5
ENDMDL
MODEL 7
REMARK VINA RESULT:    -5.568      1.215      2.704
REMARK INTER + INTRA:          -6.822
REMARK INTER:                  -6.560
REMARK INTRA:                  -0.263
REMARK UNBOUND:                -0.278
REMARK SMILES O=c1cc(-c2ccc(O)c(O)c2)oc2cc(O)cc(O)c12
REMARK SMILES IDX 4 1 3 2 2 3 1 4 21 5 19 6 18 7 16 8 15 9 14 10 13 11 5 12
REMARK SMILES IDX 6 13 7 14 8 15 12 16 10 17 9 18 11 20 20 22 17 24
REMARK H PARENT 9 19 11 21 20 23 17 25
REMARK Flexibility Score: inf
ROOT
ATOM      1  C   UNL     1       4.048  20.893 -15.551  1.00  0.00     0.138 A 
ATOM      2  C   UNL     1       5.177  21.277 -14.808  1.00  0.00     0.100 A 
ATOM      3  C   UNL     1       5.551  22.621 -14.773  1.00  0.00     0.197 A 
ATOM      4  O   UNL     1       6.567  22.955 -14.105  1.00  0.00    -0.289 OA
ATOM      5  C   UNL     1       4.795  23.571 -15.485  1.00  0.00     0.107 A 
ATOM      6  C   UNL     1       5.104  24.953 -15.502  1.00  0.00     0.134 A 
ATOM      7  C   UNL     1       4.303  25.836 -16.241  1.00  0.00     0.093 A 
ATOM      8  C   UNL     1       3.203  25.366 -16.963  1.00  0.00     0.123 A 
ATOM      9  C   UNL     1       2.892  24.002 -16.951  1.00  0.00     0.094 A 
ATOM     10  C   UNL     1       3.677  23.106 -16.219  1.00  0.00     0.146 A 
ATOM     11  O   UNL     1       3.361  21.815 -16.221  1.00  0.00    -0.456 OA
ENDROOT
BRANCH   1  12
ATOM     12  C   UNL     1       3.604  19.477 -15.625  1.00  0.00     0.021 A 
ATOM     13  C   UNL     1       2.393  19.101 -15.019  1.00  0.00     0.016 A 
ATOM     14  C   UNL     1       1.955  17.776 -15.068  1.00  0.00     0.051 A 
ATOM     15  C   UNL     1       2.725  16.801 -15.713  1.00  0.00     0.157 A 
ATOM     16  C   UNL     1       4.379  18.489 -16.262  1.00  0.00     0.062 A 
ATOM     17  C   UNL     1       3.943  17.160 -16.310  1.00  0.00     0.158 A 
BRANCH  15  18
ATOM     18  O   UNL     1       2.284  15.479 -15.762  1.00  0.00    -0.504 OA
ATOM     19  H   UNL     1       1.304  15.249 -15.873  1.00  0.00     0.293 HD
ENDBRANCH  15  18
BRANCH  17  20
ATOM     20  O   UNL     1       4.739  16.209 -16.952  1.00  0.00    -0.504 OA
ATOM     21  H   UNL     1       5.095  16.350 -17.889  1.00  0.00     0.293 HD
ENDBRANCH  17  20
ENDBRANCH   1  12
BRANCH   6  22
ATOM     22  O   UNL     1       6.197  25.452 -14.792  1.00  0.00    -0.507 OA
ATOM     23  H   UNL     1       6.260  25.371 -13.784  1.00  0.00     0.293 HD
ENDBRANCH   6  22
BRANCH   8  24
ATOM     24  O   UNL     1       2.424  26.263 -17.689  1.00  0.00    -0.508 OA
ATOM     25  H   UNL     1       1.531  25.992 -18.084  1.00  0.00     0.293 HD
ENDBRANCH   8  24
TORSDOF 5
ENDMDL
MODEL 8
REMARK VINA RESULT:    -5.565      5.261     10.444
REMARK INTER + INTRA:          -6.819
REMARK INTER:                  -6.528
REMARK INTRA:                  -0.291
REMARK UNBOUND:                -0.278
REMARK SMILES O=c1cc(-c2ccc(O)c(O)c2)oc2cc(O)cc(O)c12
REMARK SMILES IDX 4 1 3 2 2 3 1 4 21 5 19 6 18 7 16 8 15 9 14 10 13 11 5 12
REMARK SMILES IDX 6 13 7 14 8 15 12 16 10 17 9 18 11 20 20 22 17 24
REMARK H PARENT 9 19 11 21 20 23 17 25
REMARK Flexibility Score: inf
ROOT
ATOM      1  C   UNL     1       7.515  28.296 -12.378  1.00  0.00     0.138 A 
ATOM      2  C   UNL     1       7.371  28.144 -10.989  1.00  0.00     0.100 A 
ATOM      3  C   UNL     1       7.171  26.870 -10.455  1.00  0.00     0.197 A 
ATOM      4  O   UNL     1       7.042  26.744  -9.207  1.00  0.00    -0.289 OA
ATOM      5  C   UNL     1       7.114  25.757 -11.316  1.00  0.00     0.107 A 
ATOM      6  C   UNL     1       6.916  24.432 -10.857  1.00  0.00     0.134 A 
ATOM      7  C   UNL     1       6.865  23.377 -11.780  1.00  0.00     0.093 A 
ATOM      8  C   UNL     1       7.006  23.620 -13.149  1.00  0.00     0.123 A 
ATOM      9  C   UNL     1       7.202  24.927 -13.608  1.00  0.00     0.094 A 
ATOM     10  C   UNL     1       7.257  25.992 -12.705  1.00  0.00     0.146 A 
ATOM     11  O   UNL     1       7.445  27.225 -13.165  1.00  0.00    -0.456 OA
ENDROOT
BRANCH   1  12
ATOM     12  C   UNL     1       7.728  29.627 -13.002  1.00  0.00     0.021 A 
ATOM     13  C   UNL     1       7.383  29.821 -14.351  1.00  0.00     0.016 A 
ATOM     14  C   UNL     1       7.579  31.060 -14.962  1.00  0.00     0.051 A 
ATOM     15  C   UNL     1       8.135  32.125 -14.243  1.00  0.00     0.157 A 
ATOM     16  C   UNL     1       8.299  30.698 -12.287  1.00  0.00     0.062 A 
ATOM     17  C   UNL     1       8.499  31.941 -12.899  1.00  0.00     0.158 A 
BRANCH  15  18
ATOM     18  O   UNL     1       8.329  33.362 -14.857  1.00  0.00    -0.504 OA
ATOM     19  H   UNL     1       7.564  33.867 -15.287  1.00  0.00     0.293 HD
ENDBRANCH  15  18
BRANCH  17  20
ATOM     20  O   UNL     1       9.065  32.978 -12.158  1.00  0.00    -0.504 OA
ATOM     21  H   UNL     1       9.698  33.652 -12.571  1.00  0.00     0.293 HD
ENDBRANCH  17  20
ENDBRANCH   1  12
BRANCH   6  22
ATOM     22  O   UNL     1       6.771  24.158  -9.497  1.00  0.00    -0.507 OA
ATOM     23  H   UNL     1       7.364  23.488  -9.021  1.00  0.00     0.293 HD
ENDBRANCH   6  22
BRANCH   8  24
ATOM     24  O   UNL     1       6.952  22.555 -14.045  1.00  0.00    -0.508 OA
ATOM     25  H   UNL     1       7.742  22.315 -14.632  1.00  0.00     0.293 HD
ENDBRANCH   8  24
TORSDOF 5
ENDMDL
MODEL 9
REMARK VINA RESULT:    -5.544      6.820      7.448
REMARK INTER + INTRA:          -6.794
REMARK INTER:                  -6.499
REMARK INTRA:                  -0.295
REMARK UNBOUND:                -0.278
REMARK SMILES O=c1cc(-c2ccc(O)c(O)c2)oc2cc(O)cc(O)c12
REMARK SMILES IDX 4 1 3 2 2 3 1 4 21 5 19 6 18 7 16 8 15 9 14 10 13 11 5 12
REMARK SMILES IDX 6 13 7 14 8 15 12 16 10 17 9 18 11 20 20 22 17 24
REMARK H PARENT 9 19 11 21 20 23 17 25
REMARK Flexibility Score: inf
ROOT
ATOM      1  C   UNL     1       4.574  20.945  -8.071  1.00  0.00     0.138 A 
ATOM      2  C   UNL     1       3.542  21.639  -7.416  1.00  0.00     0.100 A 
ATOM      3  C   UNL     1       3.513  23.034  -7.467  1.00  0.00     0.197 A 
ATOM      4  O   UNL     1       2.585  23.647  -6.875  1.00  0.00    -0.289 OA
ATOM      5  C   UNL     1       4.519  23.724  -8.171  1.00  0.00     0.107 A 
ATOM      6  C   UNL     1       4.562  25.135  -8.273  1.00  0.00     0.134 A 
ATOM      7  C   UNL     1       5.602  25.749  -8.989  1.00  0.00     0.093 A 
ATOM      8  C   UNL     1       6.595  24.980  -9.602  1.00  0.00     0.123 A 
ATOM      9  C   UNL     1       6.557  23.585  -9.504  1.00  0.00     0.094 A 
ATOM     10  C   UNL     1       5.530  22.955  -8.796  1.00  0.00     0.146 A 
ATOM     11  O   UNL     1       5.514  21.628  -8.719  1.00  0.00    -0.456 OA
ENDROOT
BRANCH   1  12
ATOM     12  C   UNL     1       4.656  19.462  -8.049  1.00  0.00     0.021 A 
ATOM     13  C   UNL     1       5.854  18.831  -8.428  1.00  0.00     0.016 A 
ATOM     14  C   UNL     1       5.955  17.439  -8.423  1.00  0.00     0.051 A 
ATOM     15  C   UNL     1       4.859  16.651  -8.051  1.00  0.00     0.157 A 
ATOM     16  C   UNL     1       3.553  18.664  -7.688  1.00  0.00     0.062 A 
ATOM     17  C   UNL     1       3.652  17.267  -7.685  1.00  0.00     0.158 A 
BRANCH  15  18
ATOM     18  O   UNL     1       4.964  15.260  -8.046  1.00  0.00    -0.504 OA
ATOM     19  H   UNL     1       4.184  14.670  -7.783  1.00  0.00     0.293 HD
ENDBRANCH  15  18
BRANCH  17  20
ATOM     20  O   UNL     1       2.539  16.510  -7.319  1.00  0.00    -0.504 OA
ATOM     21  H   UNL     1       2.626  15.610  -6.865  1.00  0.00     0.293 HD
ENDBRANCH  17  20
ENDBRANCH   1  12
BRANCH   6  22
ATOM     22  O   UNL     1       3.586  25.929  -7.672  1.00  0.00    -0.507 OA
ATOM     23  H   UNL     1       3.652  26.940  -7.660  1.00  0.00     0.293 HD
ENDBRANCH   6  22
BRANCH   8  24
ATOM     24  O   UNL     1       7.616  25.614 -10.306  1.00  0.00    -0.508 OA
ATOM     25  H   UNL     1       7.990  25.224 -11.164  1.00  0.00     0.293 HD
ENDBRANCH   8  24
TORSDOF 5
ENDMDL
