MODEL 1
REMARK VINA RESULT:    -3.932      0.000      0.000
REMARK INTER + INTRA:         -12.184
REMARK INTER:                  -8.529
REMARK INTRA:                  -3.655
REMARK UNBOUND:                -3.655
REMARK SMILES CCCCCCCCCCCCCCCCCCCCCC(=O)[O-]
REMARK SMILES IDX 12 1 11 2 10 3 9 4 8 5 7 6 6 7 5 8 4 9 3 10 2 11 1 12 13 13
REMARK SMILES IDX 14 14 15 15 16 16 17 17 18 18 19 19 20 20 21 21 22 22 23 23
REMARK SMILES IDX 24 24
REMARK H PARENT
REMARK Flexibility Score: inf
ROOT
ATOM      1  C   UNL     1     -12.939   8.107 -20.118  1.00  0.00     0.000 C 
ENDROOT
BRANCH   1   2
ATOM      2  C   UNL     1     -13.120   7.737 -21.601  1.00  0.00     0.000 C 
BRANCH   2   3
ATOM      3  C   UNL     1     -12.216   6.570 -22.041  1.00  0.00     0.000 C 
BRANCH   3   4
ATOM      4  C   UNL     1     -11.013   6.971 -22.915  1.00  0.00    -0.000 C 
BRANCH   4   5
ATOM      5  C   UNL     1     -10.817   8.494 -23.003  1.00  0.00    -0.000 C 
BRANCH   5   6
ATOM      6  C   UNL     1      -9.526   8.964 -22.314  1.00  0.00    -0.000 C 
BRANCH   6   7
ATOM      7  C   UNL     1      -8.689   7.798 -21.759  1.00  0.00    -0.000 C 
BRANCH   7   8
ATOM      8  C   UNL     1      -7.571   8.270 -20.815  1.00  0.00    -0.000 C 
BRANCH   8   9
ATOM      9  C   UNL     1      -6.823   7.101 -20.156  1.00  0.00    -0.000 C 
BRANCH   9  10
ATOM     10  C   UNL     1      -7.783   6.231 -19.331  1.00  0.00    -0.000 C 
BRANCH  10  11
ATOM     11  C   UNL     1      -7.551   4.727 -19.547  1.00  0.00    -0.003 C 
ATOM     12  C   UNL     1      -7.172   4.388 -20.988  1.00  0.00     0.004 C 
ENDBRANCH  10  11
ENDBRANCH   9  10
ENDBRANCH   8   9
ENDBRANCH   7   8
ENDBRANCH   6   7
ENDBRANCH   5   6
ENDBRANCH   4   5
ENDBRANCH   3   4
ENDBRANCH   2   3
ENDBRANCH   1   2
BRANCH   1  13
ATOM     13  C   UNL     1     -12.026   7.121 -19.373  1.00  0.00     0.000 C 
BRANCH  13  14
ATOM     14  C   UNL     1     -10.795   7.810 -18.756  1.00  0.00     0.000 C 
BRANCH  14  15
ATOM     15  C   UNL     1     -10.800   9.336 -18.958  1.00  0.00     0.000 C 
BRANCH  15  16
ATOM     16  C   UNL     1      -9.751  10.103 -18.132  1.00  0.00     0.000 C 
BRANCH  16  17
ATOM     17  C   UNL     1      -8.817   9.172 -17.339  1.00  0.00     0.000 C 
BRANCH  17  18
ATOM     18  C   UNL     1      -7.627   9.923 -16.719  1.00  0.00     0.000 C 
BRANCH  18  19
ATOM     19  C   UNL     1      -6.857  10.761 -17.754  1.00  0.00     0.000 C 
BRANCH  19  20
ATOM     20  C   UNL     1      -5.592  10.057 -18.278  1.00  0.00     0.006 C 
BRANCH  20  21
ATOM     21  C   UNL     1      -5.104   8.899 -17.387  1.00  0.00     0.053 C 
BRANCH  21  22
ATOM     22  C   UNL     1      -3.729   9.130 -16.838  1.00  0.00     0.041 C 
ATOM     23  O   UNL     1      -3.532   9.131 -15.595  1.00  0.00    -0.550 OA
ATOM     24  O   UNL     1      -2.658   9.313 -17.704  1.00  0.00    -0.550 OA
ENDBRANCH  21  22
ENDBRANCH  20  21
ENDBRANCH  19  20
ENDBRANCH  18  19
ENDBRANCH  17  18
ENDBRANCH  16  17
ENDBRANCH  15  16
ENDBRANCH  14  15
ENDBRANCH  13  14
ENDBRANCH   1  13
TORSDOF 20
ENDMDL
MODEL 2
REMARK VINA RESULT:    -3.787      1.216      2.752
REMARK INTER + INTRA:         -11.869
REMARK INTER:                  -8.531
REMARK INTRA:                  -3.338
REMARK UNBOUND:                -3.655
REMARK SMILES CCCCCCCCCCCCCCCCCCCCCC(=O)[O-]
REMARK SMILES IDX 12 1 11 2 10 3 9 4 8 5 7 6 6 7 5 8 4 9 3 10 2 11 1 12 13 13
REMARK SMILES IDX 14 14 15 15 16 16 17 17 18 18 19 19 20 20 21 21 22 22 23 23
REMARK SMILES IDX 24 24
REMARK H PARENT
REMARK Flexibility Score: inf
ROOT
ATOM      1  C   UNL     1     -10.969   9.449 -18.877  1.00  0.00     0.000 C 
ENDROOT
BRANCH   1   2
ATOM      2  C   UNL     1     -11.682   9.272 -20.229  1.00  0.00     0.000 C 
BRANCH   2   3
ATOM      3  C   UNL     1     -12.772   8.184 -20.193  1.00  0.00     0.000 C 
BRANCH   3   4
ATOM      4  C   UNL     1     -12.958   7.402 -21.507  1.00  0.00    -0.000 C 
BRANCH   4   5
ATOM      5  C   UNL     1     -11.752   6.511 -21.850  1.00  0.00    -0.000 C 
BRANCH   5   6
ATOM      6  C   UNL     1     -11.486   5.440 -20.780  1.00  0.00    -0.000 C 
BRANCH   6   7
ATOM      7  C   UNL     1     -10.095   4.797 -20.913  1.00  0.00    -0.000 C 
BRANCH   7   8
ATOM      8  C   UNL     1      -9.170   5.137 -19.734  1.00  0.00    -0.000 C 
BRANCH   8   9
ATOM      9  C   UNL     1      -7.686   5.142 -20.130  1.00  0.00    -0.000 C 
BRANCH   9  10
ATOM     10  C   UNL     1      -7.132   6.573 -20.165  1.00  0.00    -0.000 C 
BRANCH  10  11
ATOM     11  C   UNL     1      -7.288   7.234 -21.544  1.00  0.00    -0.003 C 
ATOM     12  C   UNL     1      -8.309   8.371 -21.542  1.00  0.00     0.004 C 
ENDBRANCH  10  11
ENDBRANCH   9  10
ENDBRANCH   8   9
ENDBRANCH   7   8
ENDBRANCH   6   7
ENDBRANCH   5   6
ENDBRANCH   4   5
ENDBRANCH   3   4
ENDBRANCH   2   3
ENDBRANCH   1   2
BRANCH   1  13
ATOM     13  C   UNL     1     -10.247   8.172 -18.421  1.00  0.00     0.000 C 
BRANCH  13  14
ATOM     14  C   UNL     1      -8.981   8.473 -17.598  1.00  0.00     0.000 C 
BRANCH  14  15
ATOM     15  C   UNL     1      -8.921   9.930 -17.104  1.00  0.00     0.000 C 
BRANCH  15  16
ATOM     16  C   UNL     1      -7.574  10.638 -17.334  1.00  0.00     0.000 C 
BRANCH  16  17
ATOM     17  C   UNL     1      -7.102  10.565 -18.797  1.00  0.00     0.000 C 
BRANCH  17  18
ATOM     18  C   UNL     1      -5.570  10.583 -18.922  1.00  0.00     0.000 C 
BRANCH  18  19
ATOM     19  C   UNL     1      -4.963   9.169 -18.932  1.00  0.00     0.000 C 
BRANCH  19  20
ATOM     20  C   UNL     1      -3.924   8.953 -17.816  1.00  0.00     0.006 C 
BRANCH  20  21
ATOM     21  C   UNL     1      -4.523   8.931 -16.397  1.00  0.00     0.053 C 
BRANCH  21  22
ATOM     22  C   UNL     1      -3.615   9.542 -15.375  1.00  0.00     0.041 C 
ATOM     23  O   UNL     1      -2.474   9.961 -15.706  1.00  0.00    -0.550 OA
ATOM     24  O   UNL     1      -4.042   9.678 -14.060  1.00  0.00    -0.550 OA
ENDBRANCH  21  22
ENDBRANCH  20  21
ENDBRANCH  19  20
ENDBRANCH  18  19
ENDBRANCH  17  18
ENDBRANCH  16  17
ENDBRANCH  15  16
ENDBRANCH  14  15
ENDBRANCH  13  14
ENDBRANCH   1  13
TORSDOF 20
ENDMDL
MODEL 3
REMARK VINA RESULT:    -3.768      2.686      4.465
REMARK INTER + INTRA:         -11.829
REMARK INTER:                  -7.550
REMARK INTRA:                  -4.279
REMARK UNBOUND:                -3.655
REMARK SMILES CCCCCCCCCCCCCCCCCCCCCC(=O)[O-]
REMARK SMILES IDX 12 1 11 2 10 3 9 4 8 5 7 6 6 7 5 8 4 9 3 10 2 11 1 12 13 13
REMARK SMILES IDX 14 14 15 15 16 16 17 17 18 18 19 19 20 20 21 21 22 22 23 23
REMARK SMILES IDX 24 24
REMARK H PARENT
REMARK Flexibility Score: inf
ROOT
ATOM      1  C   UNL     1     -12.191   6.093 -21.069  1.00  0.00     0.000 C 
ENDROOT
BRANCH   1   2
ATOM      2  C   UNL     1     -11.483   5.424 -22.260  1.00  0.00     0.000 C 
BRANCH   2   3
ATOM      3  C   UNL     1     -11.281   6.380 -23.451  1.00  0.00     0.000 C 
BRANCH   3   4
ATOM      4  C   UNL     1      -9.813   6.718 -23.774  1.00  0.00    -0.000 C 
BRANCH   4   5
ATOM      5  C   UNL     1      -9.501   8.219 -23.649  1.00  0.00    -0.000 C 
BRANCH   5   6
ATOM      6  C   UNL     1      -9.803   8.769 -22.246  1.00  0.00    -0.000 C 
BRANCH   6   7
ATOM      7  C   UNL     1      -9.145  10.136 -21.988  1.00  0.00    -0.000 C 
BRANCH   7   8
ATOM      8  C   UNL     1      -7.678  10.012 -21.548  1.00  0.00    -0.000 C 
BRANCH   8   9
ATOM      9  C   UNL     1      -7.262  11.115 -20.563  1.00  0.00    -0.000 C 
BRANCH   9  10
ATOM     10  C   UNL     1      -6.387  10.545 -19.437  1.00  0.00    -0.000 C 
BRANCH  10  11
ATOM     11  C   UNL     1      -6.806  11.051 -18.048  1.00  0.00    -0.003 C 
ATOM     12  C   UNL     1      -6.513  10.043 -16.937  1.00  0.00     0.004 C 
ENDBRANCH  10  11
ENDBRANCH   9  10
ENDBRANCH   8   9
ENDBRANCH   7   8
ENDBRANCH   6   7
ENDBRANCH   5   6
ENDBRANCH   4   5
ENDBRANCH   3   4
ENDBRANCH   2   3
ENDBRANCH   1   2
BRANCH   1  13
ATOM     13  C   UNL     1     -13.024   7.314 -21.491  1.00  0.00     0.000 C 
BRANCH  13  14
ATOM     14  C   UNL     1     -13.033   8.419 -20.420  1.00  0.00     0.000 C 
BRANCH  14  15
ATOM     15  C   UNL     1     -12.038   8.151 -19.275  1.00  0.00     0.000 C 
BRANCH  15  16
ATOM     16  C   UNL     1     -11.138   9.344 -18.904  1.00  0.00     0.000 C 
BRANCH  16  17
ATOM     17  C   UNL     1      -9.741   8.913 -18.426  1.00  0.00     0.000 C 
BRANCH  17  18
ATOM     18  C   UNL     1      -9.443   7.437 -18.737  1.00  0.00     0.000 C 
BRANCH  18  19
ATOM     19  C   UNL     1      -7.945   7.174 -18.965  1.00  0.00     0.000 C 
BRANCH  19  20
ATOM     20  C   UNL     1      -7.649   6.513 -20.324  1.00  0.00     0.006 C 
BRANCH  20  21
ATOM     21  C   UNL     1      -8.367   5.168 -20.536  1.00  0.00     0.053 C 
BRANCH  21  22
ATOM     22  C   UNL     1      -7.622   4.252 -21.459  1.00  0.00     0.041 C 
ATOM     23  O   UNL     1      -8.162   3.839 -22.518  1.00  0.00    -0.550 OA
ATOM     24  O   UNL     1      -6.317   3.879 -21.162  1.00  0.00    -0.550 OA
ENDBRANCH  21  22
ENDBRANCH  20  21
ENDBRANCH  19  20
ENDBRANCH  18  19
ENDBRANCH  17  18
ENDBRANCH  16  17
ENDBRANCH  15  16
ENDBRANCH  14  15
ENDBRANCH  13  14
ENDBRANCH   1  13
TORSDOF 20
ENDMDL
MODEL 4
REMARK VINA RESULT:    -3.752      1.790      3.399
REMARK INTER + INTRA:         -11.793
REMARK INTER:                  -7.834
REMARK INTRA:                  -3.959
REMARK UNBOUND:                -3.655
REMARK SMILES CCCCCCCCCCCCCCCCCCCCCC(=O)[O-]
REMARK SMILES IDX 12 1 11 2 10 3 9 4 8 5 7 6 6 7 5 8 4 9 3 10 2 11 1 12 13 13
REMARK SMILES IDX 14 14 15 15 16 16 17 17 18 18 19 19 20 20 21 21 22 22 23 23
REMARK SMILES IDX 24 24
REMARK H PARENT
REMARK Flexibility Score: inf
ROOT
ATOM      1  C   UNL     1      -9.765   9.602 -18.232  1.00  0.00     0.000 C 
ENDROOT
BRANCH   1   2
ATOM      2  C   UNL     1      -9.818   9.643 -19.769  1.00  0.00     0.000 C 
BRANCH   2   3
ATOM      3  C   UNL     1     -11.248   9.814 -20.314  1.00  0.00     0.000 C 
BRANCH   3   4
ATOM      4  C   UNL     1     -12.296   8.859 -19.711  1.00  0.00    -0.000 C 
BRANCH   4   5
ATOM      5  C   UNL     1     -12.559   7.625 -20.590  1.00  0.00    -0.000 C 
BRANCH   5   6
ATOM      6  C   UNL     1     -11.975   6.337 -19.988  1.00  0.00    -0.000 C 
BRANCH   6   7
ATOM      7  C   UNL     1     -10.872   5.717 -20.863  1.00  0.00    -0.000 C 
BRANCH   7   8
ATOM      8  C   UNL     1     -10.455   6.633 -22.025  1.00  0.00    -0.000 C 
BRANCH   8   9
ATOM      9  C   UNL     1      -8.971   6.478 -22.395  1.00  0.00    -0.000 C 
BRANCH   9  10
ATOM     10  C   UNL     1      -8.488   5.044 -22.137  1.00  0.00    -0.000 C 
BRANCH  10  11
ATOM     11  C   UNL     1      -7.086   4.996 -21.510  1.00  0.00    -0.003 C 
ATOM     12  C   UNL     1      -7.004   4.042 -20.319  1.00  0.00     0.004 C 
ENDBRANCH  10  11
ENDBRANCH   9  10
ENDBRANCH   8   9
ENDBRANCH   7   8
ENDBRANCH   6   7
ENDBRANCH   5   6
ENDBRANCH   4   5
ENDBRANCH   3   4
ENDBRANCH   2   3
ENDBRANCH   1   2
BRANCH   1  13
ATOM     13  C   UNL     1      -9.219   8.269 -17.698  1.00  0.00     0.000 C 
BRANCH  13  14
ATOM     14  C   UNL     1      -8.561   7.418 -18.799  1.00  0.00     0.000 C 
BRANCH  14  15
ATOM     15  C   UNL     1      -7.022   7.442 -18.733  1.00  0.00     0.000 C 
BRANCH  15  16
ATOM     16  C   UNL     1      -6.338   8.251 -19.850  1.00  0.00     0.000 C 
BRANCH  16  17
ATOM     17  C   UNL     1      -5.359   9.308 -19.309  1.00  0.00     0.000 C 
BRANCH  17  18
ATOM     18  C   UNL     1      -5.742   9.798 -17.902  1.00  0.00     0.000 C 
BRANCH  18  19
ATOM     19  C   UNL     1      -6.425  11.175 -17.924  1.00  0.00     0.000 C 
BRANCH  19  20
ATOM     20  C   UNL     1      -7.018  11.575 -16.560  1.00  0.00     0.006 C 
BRANCH  20  21
ATOM     21  C   UNL     1      -6.857  10.502 -15.467  1.00  0.00     0.053 C 
BRANCH  21  22
ATOM     22  C   UNL     1      -5.826  10.867 -14.443  1.00  0.00     0.041 C 
ATOM     23  O   UNL     1      -5.319   9.981 -13.706  1.00  0.00    -0.550 OA
ATOM     24  O   UNL     1      -5.403  12.185 -14.323  1.00  0.00    -0.550 OA
ENDBRANCH  21  22
ENDBRANCH  20  21
ENDBRANCH  19  20
ENDBRANCH  18  19
ENDBRANCH  17  18
ENDBRANCH  16  17
ENDBRANCH  15  16
ENDBRANCH  14  15
ENDBRANCH  13  14
ENDBRANCH   1  13
TORSDOF 20
ENDMDL
MODEL 5
REMARK VINA RESULT:    -3.746      1.356      1.946
REMARK INTER + INTRA:         -11.780
REMARK INTER:                  -8.217
REMARK INTRA:                  -3.563
REMARK UNBOUND:                -3.655
REMARK SMILES CCCCCCCCCCCCCCCCCCCCCC(=O)[O-]
REMARK SMILES IDX 12 1 11 2 10 3 9 4 8 5 7 6 6 7 5 8 4 9 3 10 2 11 1 12 13 13
REMARK SMILES IDX 14 14 15 15 16 16 17 17 18 18 19 19 20 20 21 21 22 22 23 23
REMARK SMILES IDX 24 24
REMARK H PARENT
REMARK Flexibility Score: inf
ROOT
ATOM      1  C   UNL     1     -12.413   7.360 -21.387  1.00  0.00     0.000 C 
ENDROOT
BRANCH   1   2
ATOM      2  C   UNL     1     -11.180   6.634 -21.954  1.00  0.00     0.000 C 
BRANCH   2   3
ATOM      3  C   UNL     1     -10.215   7.580 -22.693  1.00  0.00     0.000 C 
BRANCH   3   4
ATOM      4  C   UNL     1     -10.675   9.049 -22.773  1.00  0.00    -0.000 C 
BRANCH   4   5
ATOM      5  C   UNL     1      -9.678  10.025 -22.127  1.00  0.00    -0.000 C 
BRANCH   5   6
ATOM      6  C   UNL     1      -8.232   9.505 -22.166  1.00  0.00    -0.000 C 
BRANCH   6   7
ATOM      7  C   UNL     1      -7.531   9.589 -20.799  1.00  0.00    -0.000 C 
BRANCH   7   8
ATOM      8  C   UNL     1      -6.613   8.386 -20.531  1.00  0.00    -0.000 C 
BRANCH   8   9
ATOM      9  C   UNL     1      -6.571   7.400 -21.708  1.00  0.00    -0.000 C 
BRANCH   9  10
ATOM     10  C   UNL     1      -6.771   5.956 -21.222  1.00  0.00    -0.000 C 
BRANCH  10  11
ATOM     11  C   UNL     1      -7.963   5.815 -20.263  1.00  0.00    -0.003 C 
ATOM     12  C   UNL     1      -7.749   4.729 -19.210  1.00  0.00     0.004 C 
ENDBRANCH  10  11
ENDBRANCH   9  10
ENDBRANCH   8   9
ENDBRANCH   7   8
ENDBRANCH   6   7
ENDBRANCH   5   6
ENDBRANCH   4   5
ENDBRANCH   3   4
ENDBRANCH   2   3
ENDBRANCH   1   2
BRANCH   1  13
ATOM     13  C   UNL     1     -12.400   7.430 -19.852  1.00  0.00     0.000 C 
BRANCH  13  14
ATOM     14  C   UNL     1     -12.427   8.877 -19.328  1.00  0.00     0.000 C 
BRANCH  14  15
ATOM     15  C   UNL     1     -11.050   9.361 -18.837  1.00  0.00     0.000 C 
BRANCH  15  16
ATOM     16  C   UNL     1     -10.005   8.248 -18.636  1.00  0.00     0.000 C 
BRANCH  16  17
ATOM     17  C   UNL     1      -9.118   8.478 -17.400  1.00  0.00     0.000 C 
BRANCH  17  18
ATOM     18  C   UNL     1      -8.805   9.966 -17.170  1.00  0.00     0.000 C 
BRANCH  18  19
ATOM     19  C   UNL     1      -7.298  10.235 -17.026  1.00  0.00     0.000 C 
BRANCH  19  20
ATOM     20  C   UNL     1      -6.912  10.779 -15.638  1.00  0.00     0.006 C 
BRANCH  20  21
ATOM     21  C   UNL     1      -5.398  10.978 -15.442  1.00  0.00     0.053 C 
BRANCH  21  22
ATOM     22  C   UNL     1      -4.743   9.813 -14.766  1.00  0.00     0.041 C 
ATOM     23  O   UNL     1      -4.964   9.577 -13.549  1.00  0.00    -0.550 OA
ATOM     24  O   UNL     1      -3.911   8.968 -15.490  1.00  0.00    -0.550 OA
ENDBRANCH  21  22
ENDBRANCH  20  21
ENDBRANCH  19  20
ENDBRANCH  18  19
ENDBRANCH  17  18
ENDBRANCH  16  17
ENDBRANCH  15  16
ENDBRANCH  14  15
ENDBRANCH  13  14
ENDBRANCH   1  13
TORSDOF 20
ENDMDL
MODEL 6
REMARK VINA RESULT:    -3.732      2.142      4.336
REMARK INTER + INTRA:         -11.751
REMARK INTER:                  -8.017
REMARK INTRA:                  -3.734
REMARK UNBOUND:                -3.655
REMARK SMILES CCCCCCCCCCCCCCCCCCCCCC(=O)[O-]
REMARK SMILES IDX 12 1 11 2 10 3 9 4 8 5 7 6 6 7 5 8 4 9 3 10 2 11 1 12 13 13
REMARK SMILES IDX 14 14 15 15 16 16 17 17 18 18 19 19 20 20 21 21 22 22 23 23
REMARK SMILES IDX 24 24
REMARK H PARENT
REMARK Flexibility Score: inf
ROOT
ATOM      1  C   UNL     1      -9.455   8.164 -17.863  1.00  0.00     0.000 C 
ENDROOT
BRANCH   1   2
ATOM      2  C   UNL     1      -9.925   9.568 -18.283  1.00  0.00     0.000 C 
BRANCH   2   3
ATOM      3  C   UNL     1      -9.346  10.013 -19.639  1.00  0.00     0.000 C 
BRANCH   3   4
ATOM      4  C   UNL     1     -10.359  10.666 -20.598  1.00  0.00    -0.000 C 
BRANCH   4   5
ATOM      5  C   UNL     1     -10.199  10.193 -22.053  1.00  0.00    -0.000 C 
BRANCH   5   6
ATOM      6  C   UNL     1      -8.915   9.376 -22.270  1.00  0.00    -0.000 C 
BRANCH   6   7
ATOM      7  C   UNL     1      -9.197   7.920 -22.676  1.00  0.00    -0.000 C 
BRANCH   7   8
ATOM      8  C   UNL     1     -10.690   7.655 -22.934  1.00  0.00    -0.000 C 
BRANCH   8   9
ATOM      9  C   UNL     1     -11.314   6.724 -21.883  1.00  0.00    -0.000 C 
BRANCH   9  10
ATOM     10  C   UNL     1     -12.596   7.337 -21.300  1.00  0.00    -0.000 C 
BRANCH  10  11
ATOM     11  C   UNL     1     -12.514   7.541 -19.779  1.00  0.00    -0.003 C 
ATOM     12  C   UNL     1     -13.237   8.805 -19.313  1.00  0.00     0.004 C 
ENDBRANCH  10  11
ENDBRANCH   9  10
ENDBRANCH   8   9
ENDBRANCH   7   8
ENDBRANCH   6   7
ENDBRANCH   5   6
ENDBRANCH   4   5
ENDBRANCH   3   4
ENDBRANCH   2   3
ENDBRANCH   1   2
BRANCH   1  13
ATOM     13  C   UNL     1      -8.891   7.356 -19.042  1.00  0.00     0.000 C 
BRANCH  13  14
ATOM     14  C   UNL     1      -7.390   7.053 -18.885  1.00  0.00     0.000 C 
BRANCH  14  15
ATOM     15  C   UNL     1      -6.509   7.887 -19.833  1.00  0.00     0.000 C 
BRANCH  15  16
ATOM     16  C   UNL     1      -5.647   8.960 -19.143  1.00  0.00     0.000 C 
BRANCH  16  17
ATOM     17  C   UNL     1      -5.744   8.908 -17.608  1.00  0.00     0.000 C 
BRANCH  17  18
ATOM     18  C   UNL     1      -5.731  10.308 -16.971  1.00  0.00     0.000 C 
BRANCH  18  19
ATOM     19  C   UNL     1      -7.111  10.985 -17.010  1.00  0.00     0.000 C 
BRANCH  19  20
ATOM     20  C   UNL     1      -7.522  11.594 -15.657  1.00  0.00     0.006 C 
BRANCH  20  21
ATOM     21  C   UNL     1      -6.406  11.572 -14.595  1.00  0.00     0.053 C 
BRANCH  21  22
ATOM     22  C   UNL     1      -5.822  12.928 -14.340  1.00  0.00     0.041 C 
ATOM     23  O   UNL     1      -4.573  13.091 -14.327  1.00  0.00    -0.550 OA
ATOM     24  O   UNL     1      -6.659  14.020 -14.146  1.00  0.00    -0.550 OA
ENDBRANCH  21  22
ENDBRANCH  20  21
ENDBRANCH  19  20
ENDBRANCH  18  19
ENDBRANCH  17  18
ENDBRANCH  16  17
ENDBRANCH  15  16
ENDBRANCH  14  15
ENDBRANCH  13  14
ENDBRANCH   1  13
TORSDOF 20
ENDMDL
MODEL 7
REMARK VINA RESULT:    -3.710      2.979      4.253
REMARK INTER + INTRA:         -11.702
REMARK INTER:                  -7.267
REMARK INTRA:                  -4.434
REMARK UNBOUND:                -3.655
REMARK SMILES CCCCCCCCCCCCCCCCCCCCCC(=O)[O-]
REMARK SMILES IDX 12 1 11 2 10 3 9 4 8 5 7 6 6 7 5 8 4 9 3 10 2 11 1 12 13 13
REMARK SMILES IDX 14 14 15 15 16 16 17 17 18 18 19 19 20 20 21 21 22 22 23 23
REMARK SMILES IDX 24 24
REMARK H PARENT
REMARK Flexibility Score: inf
ROOT
ATOM      1  C   UNL     1     -12.166   6.117 -20.984  1.00  0.00     0.000 C 
ENDROOT
BRANCH   1   2
ATOM      2  C   UNL     1     -11.563   5.334 -22.163  1.00  0.00     0.000 C 
BRANCH   2   3
ATOM      3  C   UNL     1     -11.167   6.239 -23.344  1.00  0.00     0.000 C 
BRANCH   3   4
ATOM      4  C   UNL     1      -9.843   7.007 -23.162  1.00  0.00    -0.000 C 
BRANCH   4   5
ATOM      5  C   UNL     1      -9.987   8.518 -23.412  1.00  0.00    -0.000 C 
BRANCH   5   6
ATOM      6  C   UNL     1      -9.751   9.350 -22.141  1.00  0.00    -0.000 C 
BRANCH   6   7
ATOM      7  C   UNL     1      -9.332  10.799 -22.447  1.00  0.00    -0.000 C 
BRANCH   7   8
ATOM      8  C   UNL     1      -7.916  11.123 -21.945  1.00  0.00    -0.000 C 
BRANCH   8   9
ATOM      9  C   UNL     1      -7.287   9.962 -21.160  1.00  0.00    -0.000 C 
BRANCH   9  10
ATOM     10  C   UNL     1      -5.968   9.515 -21.805  1.00  0.00    -0.000 C 
BRANCH  10  11
ATOM     11  C   UNL     1      -6.151   9.034 -23.253  1.00  0.00    -0.003 C 
ATOM     12  C   UNL     1      -6.158   7.510 -23.374  1.00  0.00     0.004 C 
ENDBRANCH  10  11
ENDBRANCH   9  10
ENDBRANCH   8   9
ENDBRANCH   7   8
ENDBRANCH   6   7
ENDBRANCH   5   6
ENDBRANCH   4   5
ENDBRANCH   3   4
ENDBRANCH   2   3
ENDBRANCH   1   2
BRANCH   1  13
ATOM     13  C   UNL     1     -13.003   7.321 -21.445  1.00  0.00     0.000 C 
BRANCH  13  14
ATOM     14  C   UNL     1     -12.946   8.494 -20.451  1.00  0.00     0.000 C 
BRANCH  14  15
ATOM     15  C   UNL     1     -12.023   8.215 -19.250  1.00  0.00     0.000 C 
BRANCH  15  16
ATOM     16  C   UNL     1     -11.131   9.397 -18.829  1.00  0.00     0.000 C 
BRANCH  16  17
ATOM     17  C   UNL     1      -9.704   8.964 -18.450  1.00  0.00     0.000 C 
BRANCH  17  18
ATOM     18  C   UNL     1      -9.426   7.492 -18.794  1.00  0.00     0.000 C 
BRANCH  18  19
ATOM     19  C   UNL     1      -7.924   7.162 -18.803  1.00  0.00     0.000 C 
BRANCH  19  20
ATOM     20  C   UNL     1      -7.471   6.446 -20.089  1.00  0.00     0.006 C 
BRANCH  20  21
ATOM     21  C   UNL     1      -8.249   5.151 -20.392  1.00  0.00     0.053 C 
BRANCH  21  22
ATOM     22  C   UNL     1      -7.602   4.323 -21.459  1.00  0.00     0.041 C 
ATOM     23  O   UNL     1      -6.380   4.026 -21.381  1.00  0.00    -0.550 OA
ATOM     24  O   UNL     1      -8.357   3.851 -22.526  1.00  0.00    -0.550 OA
ENDBRANCH  21  22
ENDBRANCH  20  21
ENDBRANCH  19  20
ENDBRANCH  18  19
ENDBRANCH  17  18
ENDBRANCH  16  17
ENDBRANCH  15  16
ENDBRANCH  14  15
ENDBRANCH  13  14
ENDBRANCH   1  13
TORSDOF 20
ENDMDL
MODEL 8
REMARK VINA RESULT:    -3.697      1.882      3.301
REMARK INTER + INTRA:         -11.674
REMARK INTER:                  -7.912
REMARK INTRA:                  -3.762
REMARK UNBOUND:                -3.655
REMARK SMILES CCCCCCCCCCCCCCCCCCCCCC(=O)[O-]
REMARK SMILES IDX 12 1 11 2 10 3 9 4 8 5 7 6 6 7 5 8 4 9 3 10 2 11 1 12 13 13
REMARK SMILES IDX 14 14 15 15 16 16 17 17 18 18 19 19 20 20 21 21 22 22 23 23
REMARK SMILES IDX 24 24
REMARK H PARENT
REMARK Flexibility Score: inf
ROOT
ATOM      1  C   UNL     1     -12.962   7.696 -21.474  1.00  0.00     0.000 C 
ENDROOT
BRANCH   1   2
ATOM      2  C   UNL     1     -12.141   6.564 -22.116  1.00  0.00     0.000 C 
BRANCH   2   3
ATOM      3  C   UNL     1     -11.704   5.491 -21.101  1.00  0.00     0.000 C 
BRANCH   3   4
ATOM      4  C   UNL     1     -10.845   4.353 -21.684  1.00  0.00    -0.000 C 
BRANCH   4   5
ATOM      5  C   UNL     1      -9.341   4.545 -21.430  1.00  0.00    -0.000 C 
BRANCH   5   6
ATOM      6  C   UNL     1      -9.050   5.180 -20.061  1.00  0.00    -0.000 C 
BRANCH   6   7
ATOM      7  C   UNL     1      -7.593   5.653 -19.921  1.00  0.00    -0.000 C 
BRANCH   7   8
ATOM      8  C   UNL     1      -7.124   6.490 -21.123  1.00  0.00    -0.000 C 
BRANCH   8   9
ATOM      9  C   UNL     1      -7.744   7.895 -21.141  1.00  0.00    -0.000 C 
BRANCH   9  10
ATOM     10  C   UNL     1      -8.689   8.062 -22.340  1.00  0.00    -0.000 C 
BRANCH  10  11
ATOM     11  C   UNL     1      -9.633   9.266 -22.185  1.00  0.00    -0.003 C 
ATOM     12  C   UNL     1      -8.932  10.497 -21.613  1.00  0.00     0.004 C 
ENDBRANCH  10  11
ENDBRANCH   9  10
ENDBRANCH   8   9
ENDBRANCH   7   8
ENDBRANCH   6   7
ENDBRANCH   5   6
ENDBRANCH   4   5
ENDBRANCH   3   4
ENDBRANCH   2   3
ENDBRANCH   1   2
BRANCH   1  13
ATOM     13  C   UNL     1     -12.743   7.793 -19.956  1.00  0.00     0.000 C 
BRANCH  13  14
ATOM     14  C   UNL     1     -12.479   9.236 -19.490  1.00  0.00     0.000 C 
BRANCH  14  15
ATOM     15  C   UNL     1     -11.086   9.416 -18.859  1.00  0.00     0.000 C 
BRANCH  15  16
ATOM     16  C   UNL     1     -10.366   8.105 -18.493  1.00  0.00     0.000 C 
BRANCH  16  17
ATOM     17  C   UNL     1      -9.055   8.339 -17.722  1.00  0.00     0.000 C 
BRANCH  17  18
ATOM     18  C   UNL     1      -8.509   9.764 -17.910  1.00  0.00     0.000 C 
BRANCH  18  19
ATOM     19  C   UNL     1      -7.005   9.781 -18.233  1.00  0.00     0.000 C 
BRANCH  19  20
ATOM     20  C   UNL     1      -6.130  10.111 -17.009  1.00  0.00     0.006 C 
BRANCH  20  21
ATOM     21  C   UNL     1      -6.142  11.600 -16.614  1.00  0.00     0.053 C 
BRANCH  21  22
ATOM     22  C   UNL     1      -6.830  11.847 -15.307  1.00  0.00     0.041 C 
ATOM     23  O   UNL     1      -7.452  10.917 -14.729  1.00  0.00    -0.550 OA
ATOM     24  O   UNL     1      -6.758  13.100 -14.710  1.00  0.00    -0.550 OA
ENDBRANCH  21  22
ENDBRANCH  20  21
ENDBRANCH  19  20
ENDBRANCH  18  19
ENDBRANCH  17  18
ENDBRANCH  16  17
ENDBRANCH  15  16
ENDBRANCH  14  15
ENDBRANCH  13  14
ENDBRANCH   1  13
TORSDOF 20
ENDMDL
MODEL 9
REMARK VINA RESULT:    -3.672      1.750      3.716
REMARK INTER + INTRA:         -11.620
REMARK INTER:                  -8.092
REMARK INTRA:                  -3.528
REMARK UNBOUND:                -3.655
REMARK SMILES CCCCCCCCCCCCCCCCCCCCCC(=O)[O-]
REMARK SMILES IDX 12 1 11 2 10 3 9 4 8 5 7 6 6 7 5 8 4 9 3 10 2 11 1 12 13 13
REMARK SMILES IDX 14 14 15 15 16 16 17 17 18 18 19 19 20 20 21 21 22 22 23 23
REMARK SMILES IDX 24 24
REMARK H PARENT
REMARK Flexibility Score: inf
ROOT
ATOM      1  C   UNL     1     -11.369   9.506 -18.896  1.00  0.00     0.000 C 
ENDROOT
BRANCH   1   2
ATOM      2  C   UNL     1     -12.210   8.266 -19.245  1.00  0.00     0.000 C 
BRANCH   2   3
ATOM      3  C   UNL     1     -13.112   8.480 -20.475  1.00  0.00     0.000 C 
BRANCH   3   4
ATOM      4  C   UNL     1     -13.130   7.314 -21.482  1.00  0.00    -0.000 C 
BRANCH   4   5
ATOM      5  C   UNL     1     -12.315   6.099 -21.007  1.00  0.00    -0.000 C 
BRANCH   5   6
ATOM      6  C   UNL     1     -11.224   5.693 -22.011  1.00  0.00    -0.000 C 
BRANCH   6   7
ATOM      7  C   UNL     1     -11.340   6.439 -23.351  1.00  0.00    -0.000 C 
BRANCH   7   8
ATOM      8  C   UNL     1     -10.149   7.377 -23.611  1.00  0.00    -0.000 C 
BRANCH   8   9
ATOM      9  C   UNL     1     -10.444   8.830 -23.210  1.00  0.00    -0.000 C 
BRANCH   9  10
ATOM     10  C   UNL     1      -9.448   9.320 -22.149  1.00  0.00    -0.000 C 
BRANCH  10  11
ATOM     11  C   UNL     1      -9.550  10.832 -21.896  1.00  0.00    -0.003 C 
ATOM     12  C   UNL     1      -8.346  11.387 -21.135  1.00  0.00     0.004 C 
ENDBRANCH  10  11
ENDBRANCH   9  10
ENDBRANCH   8   9
ENDBRANCH   7   8
ENDBRANCH   6   7
ENDBRANCH   5   6
ENDBRANCH   4   5
ENDBRANCH   3   4
ENDBRANCH   2   3
ENDBRANCH   1   2
BRANCH   1  13
ATOM     13  C   UNL     1      -9.926   9.148 -18.510  1.00  0.00     0.000 C 
BRANCH  13  14
ATOM     14  C   UNL     1      -9.687   7.628 -18.467  1.00  0.00     0.000 C 
BRANCH  14  15
ATOM     15  C   UNL     1      -8.461   7.192 -19.290  1.00  0.00     0.000 C 
BRANCH  15  16
ATOM     16  C   UNL     1      -7.323   8.226 -19.357  1.00  0.00     0.000 C 
BRANCH  16  17
ATOM     17  C   UNL     1      -6.373   8.148 -18.148  1.00  0.00     0.000 C 
BRANCH  17  18
ATOM     18  C   UNL     1      -5.715   9.501 -17.830  1.00  0.00     0.000 C 
BRANCH  18  19
ATOM     19  C   UNL     1      -6.747  10.612 -17.574  1.00  0.00     0.000 C 
BRANCH  19  20
ATOM     20  C   UNL     1      -7.509  10.433 -16.247  1.00  0.00     0.006 C 
BRANCH  20  21
ATOM     21  C   UNL     1      -7.115  11.446 -15.157  1.00  0.00     0.053 C 
BRANCH  21  22
ATOM     22  C   UNL     1      -5.765  11.169 -14.568  1.00  0.00     0.041 C 
ATOM     23  O   UNL     1      -5.539  10.080 -13.978  1.00  0.00    -0.550 OA
ATOM     24  O   UNL     1      -4.745  12.103 -14.701  1.00  0.00    -0.550 OA
ENDBRANCH  21  22
ENDBRANCH  20  21
ENDBRANCH  19  20
ENDBRANCH  18  19
ENDBRANCH  17  18
ENDBRANCH  16  17
ENDBRANCH  15  16
ENDBRANCH  14  15
ENDBRANCH  13  14
ENDBRANCH   1  13
TORSDOF 20
ENDMDL
