MODEL 1
REMARK VINA RESULT:    -3.875      0.000      0.000
REMARK INTER + INTRA:          -5.188
REMARK INTER:                  -5.007
REMARK INTRA:                  -0.181
REMARK UNBOUND:                -0.181
REMARK SMILES CCOC(=O)C=Cc1ccc(O)c(O)c1
REMARK SMILES IDX 6 1 7 2 4 3 5 4 3 5 2 6 1 7 8 8 15 9 9 10 13 11 10 12 11 13
REMARK SMILES IDX 14 14 12 16
REMARK H PARENT 14 15 12 17
REMARK Flexibility Score: inf
ROOT
ATOM      1  C   UNL     1      -9.979 -21.627  18.115  1.00  0.00     0.094 C 
ATOM      2  C   UNL     1     -10.785 -20.729  18.706  1.00  0.00     0.016 C 
ENDROOT
BRANCH   1   3
ATOM      3  C   UNL     1      -8.726 -22.163  18.681  1.00  0.00     0.330 C 
ATOM      4  O   UNL     1      -8.739 -23.125  19.496  1.00  0.00    -0.247 OA
BRANCH   3   5
ATOM      5  O   UNL     1      -7.511 -21.625  18.247  1.00  0.00    -0.463 OA
BRANCH   5   6
ATOM      6  C   UNL     1      -6.537 -22.393  17.549  1.00  0.00     0.230 C 
ATOM      7  C   UNL     1      -6.844 -22.373  16.060  1.00  0.00     0.049 C 
ENDBRANCH   5   6
ENDBRANCH   3   5
ENDBRANCH   1   3
BRANCH   2   8
ATOM      8  C   UNL     1     -10.473 -19.983  19.942  1.00  0.00    -0.021 A 
ATOM      9  C   UNL     1     -10.375 -20.678  21.156  1.00  0.00     0.058 A 
ATOM     10  C   UNL     1     -10.375 -18.582  19.941  1.00  0.00     0.012 A 
ATOM     11  C   UNL     1     -10.128 -19.988  22.353  1.00  0.00     0.157 A 
ATOM     12  C   UNL     1     -10.129 -17.893  21.132  1.00  0.00     0.051 A 
ATOM     13  C   UNL     1     -10.000 -18.590  22.339  1.00  0.00     0.157 A 
BRANCH  11  14
ATOM     14  O   UNL     1     -10.012 -20.689  23.553  1.00  0.00    -0.504 OA
ATOM     15  H   UNL     1      -9.441 -21.522  23.629  1.00  0.00     0.293 HD
ENDBRANCH  11  14
BRANCH  13  16
ATOM     16  O   UNL     1      -9.752 -17.875  23.510  1.00  0.00    -0.504 OA
ATOM     17  H   UNL     1     -10.223 -18.090  24.381  1.00  0.00     0.293 HD
ENDBRANCH  13  16
ENDBRANCH   2   8
TORSDOF 6
ENDMDL
MODEL 2
REMARK VINA RESULT:    -3.531      2.096      5.790
REMARK INTER + INTRA:          -4.744
REMARK INTER:                  -4.199
REMARK INTRA:                  -0.545
REMARK UNBOUND:                -0.181
REMARK SMILES CCOC(=O)C=Cc1ccc(O)c(O)c1
REMARK SMILES IDX 6 1 7 2 4 3 5 4 3 5 2 6 1 7 8 8 15 9 9 10 13 11 10 12 11 13
REMARK SMILES IDX 14 14 12 16
REMARK H PARENT 14 15 12 17
REMARK Flexibility Score: inf
ROOT
ATOM      1  C   UNL     1     -10.733 -22.241  20.258  1.00  0.00     0.094 C 
ATOM      2  C   UNL     1     -10.031 -23.105  19.507  1.00  0.00     0.016 C 
ENDROOT
BRANCH   1   3
ATOM      3  C   UNL     1     -10.382 -20.828  20.501  1.00  0.00     0.330 C 
ATOM      4  O   UNL     1     -10.396 -19.983  19.565  1.00  0.00    -0.247 OA
BRANCH   3   5
ATOM      5  O   UNL     1     -10.090 -20.426  21.808  1.00  0.00    -0.463 OA
BRANCH   5   6
ATOM      6  C   UNL     1     -10.171 -21.312  22.919  1.00  0.00     0.230 C 
ATOM      7  C   UNL     1      -8.777 -21.786  23.295  1.00  0.00     0.049 C 
ENDBRANCH   5   6
ENDBRANCH   3   5
ENDBRANCH   1   3
BRANCH   2   8
ATOM      8  C   UNL     1      -8.691 -22.852  18.939  1.00  0.00    -0.021 A 
ATOM      9  C   UNL     1      -8.579 -22.446  17.601  1.00  0.00     0.058 A 
ATOM     10  C   UNL     1      -7.526 -23.110  19.680  1.00  0.00     0.012 A 
ATOM     11  C   UNL     1      -7.316 -22.245  17.022  1.00  0.00     0.157 A 
ATOM     12  C   UNL     1      -6.268 -22.911  19.106  1.00  0.00     0.051 A 
ATOM     13  C   UNL     1      -6.156 -22.475  17.781  1.00  0.00     0.157 A 
BRANCH  11  14
ATOM     14  O   UNL     1      -7.213 -21.822  15.698  1.00  0.00    -0.504 OA
ATOM     15  H   UNL     1      -7.999 -21.413  15.208  1.00  0.00     0.293 HD
ENDBRANCH  11  14
BRANCH  13  16
ATOM     16  O   UNL     1      -4.887 -22.283  17.236  1.00  0.00    -0.504 OA
ATOM     17  H   UNL     1      -4.606 -21.401  16.826  1.00  0.00     0.293 HD
ENDBRANCH  13  16
ENDBRANCH   2   8
TORSDOF 6
ENDMDL
MODEL 3
REMARK VINA RESULT:    -3.521      1.884      5.481
REMARK INTER + INTRA:          -4.731
REMARK INTER:                  -4.370
REMARK INTRA:                  -0.361
REMARK UNBOUND:                -0.181
REMARK SMILES CCOC(=O)C=Cc1ccc(O)c(O)c1
REMARK SMILES IDX 6 1 7 2 4 3 5 4 3 5 2 6 1 7 8 8 15 9 9 10 13 11 10 12 11 13
REMARK SMILES IDX 14 14 12 16
REMARK H PARENT 14 15 12 17
REMARK Flexibility Score: inf
ROOT
ATOM      1  C   UNL     1     -11.122 -21.971  19.976  1.00  0.00     0.094 C 
ATOM      2  C   UNL     1     -10.401 -22.950  19.405  1.00  0.00     0.016 C 
ENDROOT
BRANCH   1   3
ATOM      3  C   UNL     1     -10.776 -20.536  19.978  1.00  0.00     0.330 C 
ATOM      4  O   UNL     1     -10.932 -19.827  18.948  1.00  0.00    -0.247 OA
BRANCH   3   5
ATOM      5  O   UNL     1     -10.327 -19.959  21.169  1.00  0.00    -0.463 OA
BRANCH   5   6
ATOM      6  C   UNL     1     -10.422 -18.562  21.428  1.00  0.00     0.230 C 
ATOM      7  C   UNL     1      -9.658 -18.227  22.699  1.00  0.00     0.049 C 
ENDBRANCH   5   6
ENDBRANCH   3   5
ENDBRANCH   1   3
BRANCH   2   8
ATOM      8  C   UNL     1      -9.047 -22.795  18.836  1.00  0.00    -0.021 A 
ATOM      9  C   UNL     1      -7.936 -22.825  19.692  1.00  0.00     0.058 A 
ATOM     10  C   UNL     1      -8.857 -22.515  17.473  1.00  0.00     0.012 A 
ATOM     11  C   UNL     1      -6.641 -22.632  19.185  1.00  0.00     0.157 A 
ATOM     12  C   UNL     1      -7.569 -22.322  16.966  1.00  0.00     0.051 A 
ATOM     13  C   UNL     1      -6.459 -22.384  17.814  1.00  0.00     0.157 A 
BRANCH  11  14
ATOM     14  O   UNL     1      -5.540 -22.684  20.039  1.00  0.00    -0.504 OA
ATOM     15  H   UNL     1      -5.071 -21.842  20.352  1.00  0.00     0.293 HD
ENDBRANCH  11  14
BRANCH  13  16
ATOM     16  O   UNL     1      -5.186 -22.190  17.279  1.00  0.00    -0.504 OA
ATOM     17  H   UNL     1      -4.904 -22.603  16.399  1.00  0.00     0.293 HD
ENDBRANCH  13  16
ENDBRANCH   2   8
TORSDOF 6
ENDMDL
MODEL 4
REMARK VINA RESULT:    -3.277      1.671      2.502
REMARK INTER + INTRA:          -4.416
REMARK INTER:                  -4.054
REMARK INTRA:                  -0.361
REMARK UNBOUND:                -0.181
REMARK SMILES CCOC(=O)C=Cc1ccc(O)c(O)c1
REMARK SMILES IDX 6 1 7 2 4 3 5 4 3 5 2 6 1 7 8 8 15 9 9 10 13 11 10 12 11 13
REMARK SMILES IDX 14 14 12 16
REMARK H PARENT 14 15 12 17
REMARK Flexibility Score: inf
ROOT
ATOM      1  C   UNL     1      -8.524 -23.125  17.924  1.00  0.00     0.094 C 
ATOM      2  C   UNL     1      -9.769 -22.842  18.342  1.00  0.00     0.016 C 
ENDROOT
BRANCH   1   3
ATOM      3  C   UNL     1      -7.276 -22.621  18.531  1.00  0.00     0.330 C 
ATOM      4  O   UNL     1      -6.953 -22.935  19.708  1.00  0.00    -0.247 OA
BRANCH   3   5
ATOM      5  O   UNL     1      -6.422 -21.837  17.751  1.00  0.00    -0.463 OA
BRANCH   5   6
ATOM      6  C   UNL     1      -5.945 -22.256  16.477  1.00  0.00     0.230 C 
ATOM      7  C   UNL     1      -4.708 -23.120  16.655  1.00  0.00     0.049 C 
ENDBRANCH   5   6
ENDBRANCH   3   5
ENDBRANCH   1   3
BRANCH   2   8
ATOM      8  C   UNL     1     -10.119 -21.836  19.366  1.00  0.00    -0.021 A 
ATOM      9  C   UNL     1     -10.281 -20.496  18.984  1.00  0.00     0.058 A 
ATOM     10  C   UNL     1     -10.192 -22.178  20.726  1.00  0.00     0.012 A 
ATOM     11  C   UNL     1     -10.566 -19.513  19.944  1.00  0.00     0.157 A 
ATOM     12  C   UNL     1     -10.476 -21.200  21.683  1.00  0.00     0.051 A 
ATOM     13  C   UNL     1     -10.668 -19.868  21.299  1.00  0.00     0.157 A 
BRANCH  11  14
ATOM     14  O   UNL     1     -10.745 -18.186  19.554  1.00  0.00    -0.504 OA
ATOM     15  H   UNL     1     -11.616 -17.695  19.723  1.00  0.00     0.293 HD
ENDBRANCH  11  14
BRANCH  13  16
ATOM     16  O   UNL     1     -10.953 -18.916  22.276  1.00  0.00    -0.504 OA
ATOM     17  H   UNL     1     -10.523 -17.998  22.274  1.00  0.00     0.293 HD
ENDBRANCH  13  16
ENDBRANCH   2   8
TORSDOF 6
ENDMDL
MODEL 5
REMARK VINA RESULT:    -3.221      1.576      5.405
REMARK INTER + INTRA:          -4.343
REMARK INTER:                  -3.823
REMARK INTRA:                  -0.520
REMARK UNBOUND:                -0.181
REMARK SMILES CCOC(=O)C=Cc1ccc(O)c(O)c1
REMARK SMILES IDX 6 1 7 2 4 3 5 4 3 5 2 6 1 7 8 8 15 9 9 10 13 11 10 12 11 13
REMARK SMILES IDX 14 14 12 16
REMARK H PARENT 14 15 12 17
REMARK Flexibility Score: inf
ROOT
ATOM      1  C   UNL     1     -11.032 -20.568  22.790  1.00  0.00     0.094 C 
ATOM      2  C   UNL     1     -11.074 -21.605  21.938  1.00  0.00     0.016 C 
ENDROOT
BRANCH   1   3
ATOM      3  C   UNL     1     -10.010 -19.503  22.801  1.00  0.00     0.330 C 
ATOM      4  O   UNL     1      -8.812 -19.753  23.107  1.00  0.00    -0.247 OA
BRANCH   3   5
ATOM      5  O   UNL     1     -10.381 -18.216  22.403  1.00  0.00    -0.463 OA
BRANCH   5   6
ATOM      6  C   UNL     1     -10.050 -17.683  21.125  1.00  0.00     0.230 C 
ATOM      7  C   UNL     1     -11.113 -18.082  20.115  1.00  0.00     0.049 C 
ENDBRANCH   5   6
ENDBRANCH   3   5
ENDBRANCH   1   3
BRANCH   2   8
ATOM      8  C   UNL     1     -10.011 -21.967  20.978  1.00  0.00    -0.021 A 
ATOM      9  C   UNL     1     -10.155 -21.611  19.629  1.00  0.00     0.058 A 
ATOM     10  C   UNL     1      -8.912 -22.749  21.369  1.00  0.00     0.012 A 
ATOM     11  C   UNL     1      -9.184 -21.985  18.687  1.00  0.00     0.157 A 
ATOM     12  C   UNL     1      -7.944 -23.122  20.433  1.00  0.00     0.051 A 
ATOM     13  C   UNL     1      -8.072 -22.740  19.093  1.00  0.00     0.157 A 
BRANCH  11  14
ATOM     14  O   UNL     1      -9.324 -21.610  17.351  1.00  0.00    -0.504 OA
ATOM     15  H   UNL     1     -10.223 -21.344  16.966  1.00  0.00     0.293 HD
ENDBRANCH  11  14
BRANCH  13  16
ATOM     16  O   UNL     1      -7.089 -23.125  18.183  1.00  0.00    -0.504 OA
ATOM     17  H   UNL     1      -6.126 -22.822  18.270  1.00  0.00     0.293 HD
ENDBRANCH  13  16
ENDBRANCH   2   8
TORSDOF 6
ENDMDL
MODEL 6
REMARK VINA RESULT:    -2.917     16.646     18.427
REMARK INTER + INTRA:          -3.950
REMARK INTER:                  -3.325
REMARK INTRA:                  -0.626
REMARK UNBOUND:                -0.181
REMARK SMILES CCOC(=O)C=Cc1ccc(O)c(O)c1
REMARK SMILES IDX 6 1 7 2 4 3 5 4 3 5 2 6 1 7 8 8 15 9 9 10 13 11 10 12 11 13
REMARK SMILES IDX 14 14 12 16
REMARK H PARENT 14 15 12 17
REMARK Flexibility Score: inf
ROOT
ATOM      1  C   UNL     1       6.689 -22.432  11.664  1.00  0.00     0.094 C 
ATOM      2  C   UNL     1       6.471 -23.124  12.794  1.00  0.00     0.016 C 
ENDROOT
BRANCH   1   3
ATOM      3  C   UNL     1       7.747 -21.423  11.463  1.00  0.00     0.330 C 
ATOM      4  O   UNL     1       8.830 -21.721  10.889  1.00  0.00    -0.247 OA
BRANCH   3   5
ATOM      5  O   UNL     1       7.503 -20.108  11.868  1.00  0.00    -0.463 OA
BRANCH   5   6
ATOM      6  C   UNL     1       8.537 -19.240  12.320  1.00  0.00     0.230 C 
ATOM      7  C   UNL     1       8.892 -19.577  13.759  1.00  0.00     0.049 C 
ENDBRANCH   5   6
ENDBRANCH   3   5
ENDBRANCH   1   3
BRANCH   2   8
ATOM      8  C   UNL     1       7.130 -22.874  14.092  1.00  0.00    -0.021 A 
ATOM      9  C   UNL     1       6.396 -22.284  15.132  1.00  0.00     0.058 A 
ATOM     10  C   UNL     1       8.502 -23.119  14.271  1.00  0.00     0.012 A 
ATOM     11  C   UNL     1       7.011 -21.991  16.359  1.00  0.00     0.157 A 
ATOM     12  C   UNL     1       9.116 -22.827  15.492  1.00  0.00     0.051 A 
ATOM     13  C   UNL     1       8.376 -22.268  16.540  1.00  0.00     0.157 A 
BRANCH  11  14
ATOM     14  O   UNL     1       6.270 -21.423  17.395  1.00  0.00    -0.504 OA
ATOM     15  H   UNL     1       6.373 -20.447  17.648  1.00  0.00     0.293 HD
ENDBRANCH  11  14
BRANCH  13  16
ATOM     16  O   UNL     1       9.016 -21.991  17.747  1.00  0.00    -0.504 OA
ATOM     17  H   UNL     1       9.704 -21.252  17.834  1.00  0.00     0.293 HD
ENDBRANCH  13  16
ENDBRANCH   2   8
TORSDOF 6
ENDMDL
MODEL 7
REMARK VINA RESULT:    -2.864     14.608     18.248
REMARK INTER + INTRA:          -3.882
REMARK INTER:                  -4.051
REMARK INTRA:                   0.168
REMARK UNBOUND:                -0.181
REMARK SMILES CCOC(=O)C=Cc1ccc(O)c(O)c1
REMARK SMILES IDX 6 1 7 2 4 3 5 4 3 5 2 6 1 7 8 8 15 9 9 10 13 11 10 12 11 13
REMARK SMILES IDX 14 14 12 16
REMARK H PARENT 14 15 12 17
REMARK Flexibility Score: inf
ROOT
ATOM      1  C   UNL     1       6.814 -22.126  16.278  1.00  0.00     0.094 C 
ATOM      2  C   UNL     1       7.999 -21.648  15.865  1.00  0.00     0.016 C 
ENDROOT
BRANCH   1   3
ATOM      3  C   UNL     1       5.699 -22.539  15.402  1.00  0.00     0.330 C 
ATOM      4  O   UNL     1       5.916 -23.050  14.270  1.00  0.00    -0.247 OA
BRANCH   3   5
ATOM      5  O   UNL     1       4.392 -22.410  15.878  1.00  0.00    -0.463 OA
BRANCH   5   6
ATOM      6  C   UNL     1       3.254 -22.775  15.104  1.00  0.00     0.230 C 
ATOM      7  C   UNL     1       1.987 -22.478  15.890  1.00  0.00     0.049 C 
ENDBRANCH   5   6
ENDBRANCH   3   5
ENDBRANCH   1   3
BRANCH   2   8
ATOM      8  C   UNL     1       8.335 -21.279  14.475  1.00  0.00    -0.021 A 
ATOM      9  C   UNL     1       8.048 -19.984  14.021  1.00  0.00     0.058 A 
ATOM     10  C   UNL     1       8.842 -22.228  13.572  1.00  0.00     0.012 A 
ATOM     11  C   UNL     1       8.312 -19.621  12.691  1.00  0.00     0.157 A 
ATOM     12  C   UNL     1       9.106 -21.869  12.248  1.00  0.00     0.051 A 
ATOM     13  C   UNL     1       8.848 -20.568  11.803  1.00  0.00     0.157 A 
BRANCH  11  14
ATOM     14  O   UNL     1       8.042 -18.325  12.252  1.00  0.00    -0.504 OA
ATOM     15  H   UNL     1       7.783 -18.133  11.292  1.00  0.00     0.293 HD
ENDBRANCH  11  14
BRANCH  13  16
ATOM     16  O   UNL     1       9.124 -20.238  10.477  1.00  0.00    -0.504 OA
ATOM     17  H   UNL     1       8.770 -19.392  10.048  1.00  0.00     0.293 HD
ENDBRANCH  13  16
ENDBRANCH   2   8
TORSDOF 6
ENDMDL
MODEL 8
REMARK VINA RESULT:    -2.721     15.548     18.658
REMARK INTER + INTRA:          -3.697
REMARK INTER:                  -3.081
REMARK INTRA:                  -0.616
REMARK UNBOUND:                -0.181
REMARK SMILES CCOC(=O)C=Cc1ccc(O)c(O)c1
REMARK SMILES IDX 6 1 7 2 4 3 5 4 3 5 2 6 1 7 8 8 15 9 9 10 13 11 10 12 11 13
REMARK SMILES IDX 14 14 12 16
REMARK H PARENT 14 15 12 17
REMARK Flexibility Score: inf
ROOT
ATOM      1  C   UNL     1       7.719 -22.467  16.961  1.00  0.00     0.094 C 
ATOM      2  C   UNL     1       8.760 -22.364  16.119  1.00  0.00     0.016 C 
ENDROOT
BRANCH   1   3
ATOM      3  C   UNL     1       6.314 -22.153  16.636  1.00  0.00     0.330 C 
ATOM      4  O   UNL     1       5.798 -21.054  16.974  1.00  0.00    -0.247 OA
BRANCH   3   5
ATOM      5  O   UNL     1       5.579 -23.077  15.888  1.00  0.00    -0.463 OA
BRANCH   5   6
ATOM      6  C   UNL     1       4.776 -22.697  14.775  1.00  0.00     0.230 C 
ATOM      7  C   UNL     1       5.496 -23.052  13.484  1.00  0.00     0.049 C 
ENDBRANCH   5   6
ENDBRANCH   3   5
ENDBRANCH   1   3
BRANCH   2   8
ATOM      8  C   UNL     1       8.717 -21.747  14.777  1.00  0.00    -0.021 A 
ATOM      9  C   UNL     1       8.923 -22.551  13.646  1.00  0.00     0.058 A 
ATOM     10  C   UNL     1       8.577 -20.358  14.619  1.00  0.00     0.012 A 
ATOM     11  C   UNL     1       8.935 -21.983  12.363  1.00  0.00     0.157 A 
ATOM     12  C   UNL     1       8.589 -19.791  13.342  1.00  0.00     0.051 A 
ATOM     13  C   UNL     1       8.763 -20.597  12.211  1.00  0.00     0.157 A 
BRANCH  11  14
ATOM     14  O   UNL     1       9.121 -22.791  11.242  1.00  0.00    -0.504 OA
ATOM     15  H   UNL     1       9.018 -23.798  11.290  1.00  0.00     0.293 HD
ENDBRANCH  11  14
BRANCH  13  16
ATOM     16  O   UNL     1       8.768 -20.003  10.950  1.00  0.00    -0.504 OA
ATOM     17  H   UNL     1       9.344 -20.352  10.193  1.00  0.00     0.293 HD
ENDBRANCH  13  16
ENDBRANCH   2   8
TORSDOF 6
ENDMDL
MODEL 9
REMARK VINA RESULT:    -2.705     17.654     19.681
REMARK INTER + INTRA:          -3.676
REMARK INTER:                  -3.367
REMARK INTRA:                  -0.310
REMARK UNBOUND:                -0.181
REMARK SMILES CCOC(=O)C=Cc1ccc(O)c(O)c1
REMARK SMILES IDX 6 1 7 2 4 3 5 4 3 5 2 6 1 7 8 8 15 9 9 10 13 11 10 12 11 13
REMARK SMILES IDX 14 14 12 16
REMARK H PARENT 14 15 12 17
REMARK Flexibility Score: inf
ROOT
ATOM      1  C   UNL     1       6.776 -22.517  14.634  1.00  0.00     0.094 C 
ATOM      2  C   UNL     1       6.330 -22.972  13.452  1.00  0.00     0.016 C 
ENDROOT
BRANCH   1   3
ATOM      3  C   UNL     1       7.991 -21.706  14.843  1.00  0.00     0.330 C 
ATOM      4  O   UNL     1       9.051 -22.224  15.286  1.00  0.00    -0.247 OA
BRANCH   3   5
ATOM      5  O   UNL     1       7.965 -20.357  14.479  1.00  0.00    -0.463 OA
BRANCH   5   6
ATOM      6  C   UNL     1       9.044 -19.724  13.798  1.00  0.00     0.230 C 
ATOM      7  C   UNL     1       8.620 -19.385  12.378  1.00  0.00     0.049 C 
ENDBRANCH   5   6
ENDBRANCH   3   5
ENDBRANCH   1   3
BRANCH   2   8
ATOM      8  C   UNL     1       7.068 -22.898  12.174  1.00  0.00    -0.021 A 
ATOM      9  C   UNL     1       6.357 -22.701  10.982  1.00  0.00     0.058 A 
ATOM     10  C   UNL     1       8.454 -23.125  12.120  1.00  0.00     0.012 A 
ATOM     11  C   UNL     1       7.028 -22.676   9.749  1.00  0.00     0.157 A 
ATOM     12  C   UNL     1       9.123 -23.100  10.894  1.00  0.00     0.051 A 
ATOM     13  C   UNL     1       8.418 -22.871   9.707  1.00  0.00     0.157 A 
BRANCH  11  14
ATOM     14  O   UNL     1       6.316 -22.459   8.570  1.00  0.00    -0.504 OA
ATOM     15  H   UNL     1       5.747 -21.632   8.437  1.00  0.00     0.293 HD
ENDBRANCH  11  14
BRANCH  13  16
ATOM     16  O   UNL     1       9.114 -22.850   8.499  1.00  0.00    -0.504 OA
ATOM     17  H   UNL     1       9.289 -23.692   7.964  1.00  0.00     0.293 HD
ENDBRANCH  13  16
ENDBRANCH   2   8
TORSDOF 6
ENDMDL
