MODEL 1
REMARK VINA RESULT:    -5.645      0.000      0.000
REMARK INTER + INTRA:         -11.341
REMARK INTER:                  -9.606
REMARK INTRA:                  -1.735
REMARK UNBOUND:                -1.735
REMARK SMILES CCCCCCCCCCCCCC(=O)[O-]
REMARK SMILES IDX 8 1 9 2 10 3 11 4 12 5 13 6 14 7 15 8 16 9 7 10 6 11 5 12
REMARK SMILES IDX 4 13 3 14 2 15 1 16
REMARK H PARENT
REMARK Flexibility Score: inf
ROOT
ATOM      1  C   UNL     1     220.855  -6.773  24.039  1.00  0.00     0.000 C 
ENDROOT
BRANCH   1   2
ATOM      2  C   UNL     1     219.673  -6.402  24.949  1.00  0.00     0.000 C 
BRANCH   2   3
ATOM      3  C   UNL     1     218.342  -7.006  24.452  1.00  0.00     0.000 C 
BRANCH   3   4
ATOM      4  C   UNL     1     217.495  -7.633  25.572  1.00  0.00     0.000 C 
BRANCH   4   5
ATOM      5  C   UNL     1     218.243  -8.723  26.349  1.00  0.00     0.006 C 
BRANCH   5   6
ATOM      6  C   UNL     1     217.970  -8.613  27.852  1.00  0.00     0.053 C 
BRANCH   6   7
ATOM      7  C   UNL     1     218.847  -7.572  28.470  1.00  0.00     0.041 C 
ATOM      8  O   UNL     1     218.356  -6.704  29.237  1.00  0.00    -0.550 OA
ATOM      9  O   UNL     1     220.217  -7.591  28.240  1.00  0.00    -0.550 OA
ENDBRANCH   6   7
ENDBRANCH   5   6
ENDBRANCH   4   5
ENDBRANCH   3   4
ENDBRANCH   2   3
ENDBRANCH   1   2
BRANCH   1  10
ATOM     10  C   UNL     1     220.814  -8.261  23.662  1.00  0.00     0.000 C 
BRANCH  10  11
ATOM     11  C   UNL     1     221.658  -8.586  22.417  1.00  0.00    -0.000 C 
BRANCH  11  12
ATOM     12  C   UNL     1     220.886  -8.573  21.081  1.00  0.00    -0.000 C 
BRANCH  12  13
ATOM     13  C   UNL     1     219.354  -8.498  21.214  1.00  0.00    -0.000 C 
BRANCH  13  14
ATOM     14  C   UNL     1     218.689  -9.881  21.249  1.00  0.00    -0.000 C 
BRANCH  14  15
ATOM     15  C   UNL     1     217.710  -9.990  22.423  1.00  0.00    -0.003 C 
ATOM     16  C   UNL     1     218.188 -11.015  23.447  1.00  0.00     0.004 C 
ENDBRANCH  14  15
ENDBRANCH  13  14
ENDBRANCH  12  13
ENDBRANCH  11  12
ENDBRANCH  10  11
ENDBRANCH   1  10
TORSDOF 12
ENDMDL
MODEL 2
REMARK VINA RESULT:    -5.584      1.541      2.226
REMARK INTER + INTRA:         -11.236
REMARK INTER:                  -9.680
REMARK INTRA:                  -1.556
REMARK UNBOUND:                -1.735
REMARK SMILES CCCCCCCCCCCCCC(=O)[O-]
REMARK SMILES IDX 8 1 9 2 10 3 11 4 12 5 13 6 14 7 15 8 16 9 7 10 6 11 5 12
REMARK SMILES IDX 4 13 3 14 2 15 1 16
REMARK H PARENT
REMARK Flexibility Score: inf
ROOT
ATOM      1  C   UNL     1     219.542  -6.284  25.086  1.00  0.00     0.000 C 
ENDROOT
BRANCH   1   2
ATOM      2  C   UNL     1     218.342  -6.916  24.363  1.00  0.00     0.000 C 
BRANCH   2   3
ATOM      3  C   UNL     1     217.484  -7.786  25.306  1.00  0.00     0.000 C 
BRANCH   3   4
ATOM      4  C   UNL     1     217.874  -7.656  26.788  1.00  0.00     0.000 C 
BRANCH   4   5
ATOM      5  C   UNL     1     217.642  -8.948  27.583  1.00  0.00     0.006 C 
BRANCH   5   6
ATOM      6  C   UNL     1     217.868  -8.720  29.080  1.00  0.00     0.053 C 
BRANCH   6   7
ATOM      7  C   UNL     1     219.057  -9.494  29.555  1.00  0.00     0.041 C 
ATOM      8  O   UNL     1     220.051  -9.654  28.800  1.00  0.00    -0.550 OA
ATOM      9  O   UNL     1     219.089  -9.996  30.850  1.00  0.00    -0.550 OA
ENDBRANCH   6   7
ENDBRANCH   5   6
ENDBRANCH   4   5
ENDBRANCH   3   4
ENDBRANCH   2   3
ENDBRANCH   1   2
BRANCH   1  10
ATOM     10  C   UNL     1     220.866  -6.835  24.541  1.00  0.00     0.000 C 
BRANCH  10  11
ATOM     11  C   UNL     1     220.761  -7.311  23.081  1.00  0.00    -0.000 C 
BRANCH  11  12
ATOM     12  C   UNL     1     221.218  -8.763  22.831  1.00  0.00    -0.000 C 
BRANCH  12  13
ATOM     13  C   UNL     1     221.288  -9.651  24.087  1.00  0.00    -0.000 C 
BRANCH  13  14
ATOM     14  C   UNL     1     220.090 -10.604  24.210  1.00  0.00    -0.000 C 
BRANCH  14  15
ATOM     15  C   UNL     1     219.085 -10.372  23.076  1.00  0.00    -0.003 C 
ATOM     16  C   UNL     1     217.737 -11.012  23.394  1.00  0.00     0.004 C 
ENDBRANCH  14  15
ENDBRANCH  13  14
ENDBRANCH  12  13
ENDBRANCH  11  12
ENDBRANCH  10  11
ENDBRANCH   1  10
TORSDOF 12
ENDMDL
MODEL 3
REMARK VINA RESULT:    -5.566      1.394      2.360
REMARK INTER + INTRA:         -11.205
REMARK INTER:                  -9.499
REMARK INTRA:                  -1.706
REMARK UNBOUND:                -1.735
REMARK SMILES CCCCCCCCCCCCCC(=O)[O-]
REMARK SMILES IDX 8 1 9 2 10 3 11 4 12 5 13 6 14 7 15 8 16 9 7 10 6 11 5 12
REMARK SMILES IDX 4 13 3 14 2 15 1 16
REMARK H PARENT
REMARK Flexibility Score: inf
ROOT
ATOM      1  C   UNL     1     218.293  -6.858  24.324  1.00  0.00     0.000 C 
ENDROOT
BRANCH   1   2
ATOM      2  C   UNL     1     217.422  -7.698  25.271  1.00  0.00     0.000 C 
BRANCH   2   3
ATOM      3  C   UNL     1     218.239  -8.301  26.434  1.00  0.00     0.000 C 
BRANCH   3   4
ATOM      4  C   UNL     1     217.370  -8.941  27.530  1.00  0.00     0.000 C 
BRANCH   4   5
ATOM      5  C   UNL     1     218.020  -8.882  28.919  1.00  0.00     0.006 C 
BRANCH   5   6
ATOM      6  C   UNL     1     218.954  -7.674  29.038  1.00  0.00     0.053 C 
BRANCH   6   7
ATOM      7  C   UNL     1     220.343  -8.117  29.370  1.00  0.00     0.041 C 
ATOM      8  O   UNL     1     221.042  -7.457  30.182  1.00  0.00    -0.550 OA
ATOM      9  O   UNL     1     220.850  -9.289  28.821  1.00  0.00    -0.550 OA
ENDBRANCH   6   7
ENDBRANCH   5   6
ENDBRANCH   4   5
ENDBRANCH   3   4
ENDBRANCH   2   3
ENDBRANCH   1   2
BRANCH   1  10
ATOM     10  C   UNL     1     219.620  -6.473  24.992  1.00  0.00     0.000 C 
BRANCH  10  11
ATOM     11  C   UNL     1     220.842  -6.743  24.095  1.00  0.00    -0.000 C 
BRANCH  11  12
ATOM     12  C   UNL     1     220.672  -7.898  23.087  1.00  0.00    -0.000 C 
BRANCH  12  13
ATOM     13  C   UNL     1     221.263  -9.247  23.534  1.00  0.00    -0.000 C 
BRANCH  13  14
ATOM     14  C   UNL     1     220.185 -10.285  23.880  1.00  0.00    -0.000 C 
BRANCH  14  15
ATOM     15  C   UNL     1     219.000 -10.186  22.913  1.00  0.00    -0.003 C 
ATOM     16  C   UNL     1     217.778 -10.918  23.462  1.00  0.00     0.004 C 
ENDBRANCH  14  15
ENDBRANCH  13  14
ENDBRANCH  12  13
ENDBRANCH  11  12
ENDBRANCH  10  11
ENDBRANCH   1  10
TORSDOF 12
ENDMDL
MODEL 4
REMARK VINA RESULT:    -5.563      2.521      5.689
REMARK INTER + INTRA:         -11.201
REMARK INTER:                  -9.550
REMARK INTRA:                  -1.651
REMARK UNBOUND:                -1.735
REMARK SMILES CCCCCCCCCCCCCC(=O)[O-]
REMARK SMILES IDX 8 1 9 2 10 3 11 4 12 5 13 6 14 7 15 8 16 9 7 10 6 11 5 12
REMARK SMILES IDX 4 13 3 14 2 15 1 16
REMARK H PARENT
REMARK Flexibility Score: inf
ROOT
ATOM      1  C   UNL     1     220.591  -8.137  25.822  1.00  0.00     0.000 C 
ENDROOT
BRANCH   1   2
ATOM      2  C   UNL     1     221.565  -7.940  24.651  1.00  0.00     0.000 C 
BRANCH   2   3
ATOM      3  C   UNL     1     220.871  -7.346  23.407  1.00  0.00     0.000 C 
BRANCH   3   4
ATOM      4  C   UNL     1     221.149  -8.129  22.113  1.00  0.00     0.000 C 
BRANCH   4   5
ATOM      5  C   UNL     1     219.869  -8.633  21.433  1.00  0.00     0.006 C 
BRANCH   5   6
ATOM      6  C   UNL     1     218.701  -8.676  22.422  1.00  0.00     0.053 C 
BRANCH   6   7
ATOM      7  C   UNL     1     218.458 -10.077  22.885  1.00  0.00     0.041 C 
ATOM      8  O   UNL     1     219.353 -10.702  23.511  1.00  0.00    -0.550 OA
ATOM      9  O   UNL     1     217.222 -10.676  22.672  1.00  0.00    -0.550 OA
ENDBRANCH   6   7
ENDBRANCH   5   6
ENDBRANCH   4   5
ENDBRANCH   3   4
ENDBRANCH   2   3
ENDBRANCH   1   2
BRANCH   1  10
ATOM     10  C   UNL     1     219.691  -6.907  26.003  1.00  0.00     0.000 C 
BRANCH  10  11
ATOM     11  C   UNL     1     218.191  -7.249  25.942  1.00  0.00    -0.000 C 
BRANCH  11  12
ATOM     12  C   UNL     1     217.848  -8.736  26.167  1.00  0.00    -0.000 C 
BRANCH  12  13
ATOM     13  C   UNL     1     217.129  -9.047  27.492  1.00  0.00    -0.000 C 
BRANCH  13  14
ATOM     14  C   UNL     1     218.102  -9.274  28.658  1.00  0.00    -0.000 C 
BRANCH  14  15
ATOM     15  C   UNL     1     218.154  -8.047  29.575  1.00  0.00    -0.003 C 
ATOM     16  C   UNL     1     219.595  -7.619  29.842  1.00  0.00     0.004 C 
ENDBRANCH  14  15
ENDBRANCH  13  14
ENDBRANCH  12  13
ENDBRANCH  11  12
ENDBRANCH  10  11
ENDBRANCH   1  10
TORSDOF 12
ENDMDL
MODEL 5
REMARK VINA RESULT:    -5.536      1.517      3.082
REMARK INTER + INTRA:         -11.155
REMARK INTER:                  -9.253
REMARK INTRA:                  -1.901
REMARK UNBOUND:                -1.735
REMARK SMILES CCCCCCCCCCCCCC(=O)[O-]
REMARK SMILES IDX 8 1 9 2 10 3 11 4 12 5 13 6 14 7 15 8 16 9 7 10 6 11 5 12
REMARK SMILES IDX 4 13 3 14 2 15 1 16
REMARK H PARENT
REMARK Flexibility Score: inf
ROOT
ATOM      1  C   UNL     1     217.481  -7.242  23.929  1.00  0.00     0.000 C 
ENDROOT
BRANCH   1   2
ATOM      2  C   UNL     1     218.627  -6.813  24.859  1.00  0.00     0.000 C 
BRANCH   2   3
ATOM      3  C   UNL     1     218.352  -7.181  26.333  1.00  0.00     0.000 C 
BRANCH   3   4
ATOM      4  C   UNL     1     217.473  -8.431  26.501  1.00  0.00     0.000 C 
BRANCH   4   5
ATOM      5  C   UNL     1     217.556  -9.036  27.910  1.00  0.00     0.006 C 
BRANCH   5   6
ATOM      6  C   UNL     1     218.030  -7.994  28.927  1.00  0.00     0.053 C 
BRANCH   6   7
ATOM      7  C   UNL     1     219.106  -8.563  29.797  1.00  0.00     0.041 C 
ATOM      8  O   UNL     1     219.194  -9.807  29.964  1.00  0.00    -0.550 OA
ATOM      9  O   UNL     1     220.045  -7.722  30.381  1.00  0.00    -0.550 OA
ENDBRANCH   6   7
ENDBRANCH   5   6
ENDBRANCH   4   5
ENDBRANCH   3   4
ENDBRANCH   2   3
ENDBRANCH   1   2
BRANCH   1  10
ATOM     10  C   UNL     1     218.001  -8.124  22.786  1.00  0.00     0.000 C 
BRANCH  10  11
ATOM     11  C   UNL     1     217.470  -9.567  22.855  1.00  0.00    -0.000 C 
BRANCH  11  12
ATOM     12  C   UNL     1     218.367 -10.559  23.623  1.00  0.00    -0.000 C 
BRANCH  12  13
ATOM     13  C   UNL     1     219.877 -10.275  23.536  1.00  0.00    -0.000 C 
BRANCH  13  14
ATOM     14  C   UNL     1     220.502  -9.944  24.899  1.00  0.00    -0.000 C 
BRANCH  14  15
ATOM     15  C   UNL     1     221.685  -8.983  24.740  1.00  0.00    -0.003 C 
ATOM     16  C   UNL     1     221.645  -8.277  23.387  1.00  0.00     0.004 C 
ENDBRANCH  14  15
ENDBRANCH  13  14
ENDBRANCH  12  13
ENDBRANCH  11  12
ENDBRANCH  10  11
ENDBRANCH   1  10
TORSDOF 12
ENDMDL
MODEL 6
REMARK VINA RESULT:    -5.520      1.898      3.040
REMARK INTER + INTRA:         -11.127
REMARK INTER:                  -9.067
REMARK INTRA:                  -2.060
REMARK UNBOUND:                -1.735
REMARK SMILES CCCCCCCCCCCCCC(=O)[O-]
REMARK SMILES IDX 8 1 9 2 10 3 11 4 12 5 13 6 14 7 15 8 16 9 7 10 6 11 5 12
REMARK SMILES IDX 4 13 3 14 2 15 1 16
REMARK H PARENT
REMARK Flexibility Score: inf
ROOT
ATOM      1  C   UNL     1     219.899  -6.344  24.969  1.00  0.00     0.000 C 
ENDROOT
BRANCH   1   2
ATOM      2  C   UNL     1     218.553  -7.081  25.049  1.00  0.00     0.000 C 
BRANCH   2   3
ATOM      3  C   UNL     1     218.070  -7.259  26.504  1.00  0.00     0.000 C 
BRANCH   3   4
ATOM      4  C   UNL     1     217.522  -8.664  26.803  1.00  0.00     0.000 C 
BRANCH   4   5
ATOM      5  C   UNL     1     217.787  -9.114  28.246  1.00  0.00     0.006 C 
BRANCH   5   6
ATOM      6  C   UNL     1     218.342  -7.962  29.089  1.00  0.00     0.053 C 
BRANCH   6   7
ATOM      7  C   UNL     1     219.498  -8.427  29.915  1.00  0.00     0.041 C 
ATOM      8  O   UNL     1     220.098  -7.622  30.675  1.00  0.00    -0.550 OA
ATOM      9  O   UNL     1     219.882  -9.762  29.887  1.00  0.00    -0.550 OA
ENDBRANCH   6   7
ENDBRANCH   5   6
ENDBRANCH   4   5
ENDBRANCH   3   4
ENDBRANCH   2   3
ENDBRANCH   1   2
BRANCH   1  10
ATOM     10  C   UNL     1     220.758  -6.889  23.820  1.00  0.00     0.000 C 
BRANCH  10  11
ATOM     11  C   UNL     1     220.089  -8.058  23.075  1.00  0.00    -0.000 C 
BRANCH  11  12
ATOM     12  C   UNL     1     220.864  -9.391  23.119  1.00  0.00    -0.000 C 
BRANCH  12  13
ATOM     13  C   UNL     1     220.515 -10.310  24.304  1.00  0.00    -0.000 C 
BRANCH  13  14
ATOM     14  C   UNL     1     221.590 -10.302  25.401  1.00  0.00    -0.000 C 
BRANCH  14  15
ATOM     15  C   UNL     1     221.122  -9.502  26.621  1.00  0.00    -0.003 C 
ATOM     16  C   UNL     1     222.155  -8.452  27.022  1.00  0.00     0.004 C 
ENDBRANCH  14  15
ENDBRANCH  13  14
ENDBRANCH  12  13
ENDBRANCH  11  12
ENDBRANCH  10  11
ENDBRANCH   1  10
TORSDOF 12
ENDMDL
MODEL 7
REMARK VINA RESULT:    -5.508      2.743      5.772
REMARK INTER + INTRA:         -11.107
REMARK INTER:                  -9.065
REMARK INTRA:                  -2.042
REMARK UNBOUND:                -1.735
REMARK SMILES CCCCCCCCCCCCCC(=O)[O-]
REMARK SMILES IDX 8 1 9 2 10 3 11 4 12 5 13 6 14 7 15 8 16 9 7 10 6 11 5 12
REMARK SMILES IDX 4 13 3 14 2 15 1 16
REMARK H PARENT
REMARK Flexibility Score: inf
ROOT
ATOM      1  C   UNL     1     218.128  -8.800  25.987  1.00  0.00     0.000 C 
ENDROOT
BRANCH   1   2
ATOM      2  C   UNL     1     217.790  -7.658  25.016  1.00  0.00     0.000 C 
BRANCH   2   3
ATOM      3  C   UNL     1     218.806  -6.499  25.103  1.00  0.00     0.000 C 
BRANCH   3   4
ATOM      4  C   UNL     1     220.271  -6.965  25.139  1.00  0.00     0.000 C 
BRANCH   4   5
ATOM      5  C   UNL     1     220.891  -7.097  23.741  1.00  0.00     0.006 C 
BRANCH   5   6
ATOM      6  C   UNL     1     221.676  -8.405  23.610  1.00  0.00     0.053 C 
BRANCH   6   7
ATOM      7  C   UNL     1     220.743  -9.563  23.452  1.00  0.00     0.041 C 
ATOM      8  O   UNL     1     220.855 -10.573  24.194  1.00  0.00    -0.550 OA
ATOM      9  O   UNL     1     219.714  -9.506  22.519  1.00  0.00    -0.550 OA
ENDBRANCH   6   7
ENDBRANCH   5   6
ENDBRANCH   4   5
ENDBRANCH   3   4
ENDBRANCH   2   3
ENDBRANCH   1   2
BRANCH   1  10
ATOM     10  C   UNL     1     217.172  -8.803  27.187  1.00  0.00     0.000 C 
BRANCH  10  11
ATOM     11  C   UNL     1     217.908  -8.780  28.539  1.00  0.00    -0.000 C 
BRANCH  11  12
ATOM     12  C   UNL     1     218.846  -7.575  28.753  1.00  0.00    -0.000 C 
BRANCH  12  13
ATOM     13  C   UNL     1     220.350  -7.901  28.706  1.00  0.00    -0.000 C 
BRANCH  13  14
ATOM     14  C   UNL     1     220.631  -9.411  28.672  1.00  0.00    -0.000 C 
BRANCH  14  15
ATOM     15  C   UNL     1     221.577  -9.766  27.519  1.00  0.00    -0.003 C 
ATOM     16  C   UNL     1     222.616  -8.670  27.301  1.00  0.00     0.004 C 
ENDBRANCH  14  15
ENDBRANCH  13  14
ENDBRANCH  12  13
ENDBRANCH  11  12
ENDBRANCH  10  11
ENDBRANCH   1  10
TORSDOF 12
ENDMDL
MODEL 8
REMARK VINA RESULT:    -5.502      1.858      4.355
REMARK INTER + INTRA:         -11.097
REMARK INTER:                  -9.059
REMARK INTRA:                  -2.038
REMARK UNBOUND:                -1.735
REMARK SMILES CCCCCCCCCCCCCC(=O)[O-]
REMARK SMILES IDX 8 1 9 2 10 3 11 4 12 5 13 6 14 7 15 8 16 9 7 10 6 11 5 12
REMARK SMILES IDX 4 13 3 14 2 15 1 16
REMARK H PARENT
REMARK Flexibility Score: inf
ROOT
ATOM      1  C   UNL     1     219.666  -8.358  21.569  1.00  0.00     0.000 C 
ENDROOT
BRANCH   1   2
ATOM      2  C   UNL     1     221.157  -8.653  21.342  1.00  0.00     0.000 C 
BRANCH   2   3
ATOM      3  C   UNL     1     221.945  -8.728  22.666  1.00  0.00     0.000 C 
BRANCH   3   4
ATOM      4  C   UNL     1     221.538  -7.652  23.687  1.00  0.00     0.000 C 
BRANCH   4   5
ATOM      5  C   UNL     1     221.301  -8.220  25.092  1.00  0.00     0.006 C 
BRANCH   5   6
ATOM      6  C   UNL     1     221.286  -9.751  25.071  1.00  0.00     0.053 C 
BRANCH   6   7
ATOM      7  C   UNL     1     221.667 -10.297  26.411  1.00  0.00     0.041 C 
ATOM      8  O   UNL     1     221.280  -9.724  27.462  1.00  0.00    -0.550 OA
ATOM      9  O   UNL     1     222.407 -11.470  26.499  1.00  0.00    -0.550 OA
ENDBRANCH   6   7
ENDBRANCH   5   6
ENDBRANCH   4   5
ENDBRANCH   3   4
ENDBRANCH   2   3
ENDBRANCH   1   2
BRANCH   1  10
ATOM     10  C   UNL     1     218.938  -9.592  22.120  1.00  0.00     0.000 C 
BRANCH  10  11
ATOM     11  C   UNL     1     217.808  -9.232  23.101  1.00  0.00    -0.000 C 
BRANCH  11  12
ATOM     12  C   UNL     1     217.781  -7.758  23.557  1.00  0.00    -0.000 C 
BRANCH  12  13
ATOM     13  C   UNL     1     217.748  -7.547  25.081  1.00  0.00    -0.000 C 
BRANCH  13  14
ATOM     14  C   UNL     1     217.742  -8.867  25.866  1.00  0.00    -0.000 C 
BRANCH  14  15
ATOM     15  C   UNL     1     217.846  -8.609  27.373  1.00  0.00    -0.003 C 
ATOM     16  C   UNL     1     218.579  -7.301  27.659  1.00  0.00     0.004 C 
ENDBRANCH  14  15
ENDBRANCH  13  14
ENDBRANCH  12  13
ENDBRANCH  11  12
ENDBRANCH  10  11
ENDBRANCH   1  10
TORSDOF 12
ENDMDL
MODEL 9
REMARK VINA RESULT:    -5.408      1.371      2.803
REMARK INTER + INTRA:         -10.937
REMARK INTER:                  -9.241
REMARK INTRA:                  -1.695
REMARK UNBOUND:                -1.735
REMARK SMILES CCCCCCCCCCCCCC(=O)[O-]
REMARK SMILES IDX 8 1 9 2 10 3 11 4 12 5 13 6 14 7 15 8 16 9 7 10 6 11 5 12
REMARK SMILES IDX 4 13 3 14 2 15 1 16
REMARK H PARENT
REMARK Flexibility Score: inf
ROOT
ATOM      1  C   UNL     1     217.643  -9.331  23.154  1.00  0.00     0.000 C 
ENDROOT
BRANCH   1   2
ATOM      2  C   UNL     1     217.481  -7.827  23.426  1.00  0.00     0.000 C 
BRANCH   2   3
ATOM      3  C   UNL     1     217.807  -7.459  24.889  1.00  0.00     0.000 C 
BRANCH   3   4
ATOM      4  C   UNL     1     218.144  -8.675  25.769  1.00  0.00     0.000 C 
BRANCH   4   5
ATOM      5  C   UNL     1     217.482  -8.613  27.152  1.00  0.00     0.006 C 
BRANCH   5   6
ATOM      6  C   UNL     1     218.467  -9.025  28.251  1.00  0.00     0.053 C 
BRANCH   6   7
ATOM      7  C   UNL     1     218.328  -8.129  29.441  1.00  0.00     0.041 C 
ATOM      8  O   UNL     1     218.448  -6.883  29.313  1.00  0.00    -0.550 OA
ATOM      9  O   UNL     1     218.013  -8.667  30.683  1.00  0.00    -0.550 OA
ENDBRANCH   6   7
ENDBRANCH   5   6
ENDBRANCH   4   5
ENDBRANCH   3   4
ENDBRANCH   2   3
ENDBRANCH   1   2
BRANCH   1  10
ATOM     10  C   UNL     1     218.478  -9.576  21.890  1.00  0.00     0.000 C 
BRANCH  10  11
ATOM     11  C   UNL     1     219.362  -8.373  21.514  1.00  0.00    -0.000 C 
BRANCH  11  12
ATOM     12  C   UNL     1     220.822  -8.455  22.004  1.00  0.00    -0.000 C 
BRANCH  12  13
ATOM     13  C   UNL     1     221.155  -7.565  23.215  1.00  0.00    -0.000 C 
BRANCH  13  14
ATOM     14  C   UNL     1     221.789  -8.347  24.374  1.00  0.00    -0.000 C 
BRANCH  14  15
ATOM     15  C   UNL     1     221.266  -9.787  24.414  1.00  0.00    -0.003 C 
ATOM     16  C   UNL     1     221.662 -10.482  25.714  1.00  0.00     0.004 C 
ENDBRANCH  14  15
ENDBRANCH  13  14
ENDBRANCH  12  13
ENDBRANCH  11  12
ENDBRANCH  10  11
ENDBRANCH   1  10
TORSDOF 12
ENDMDL
