MODEL 1
REMARK VINA RESULT:    -6.414      0.000      0.000
REMARK INTER + INTRA:          -7.830
REMARK INTER:                  -7.539
REMARK INTRA:                  -0.291
REMARK UNBOUND:                -0.291
REMARK SMILES O=c1cc(-c2ccc(O)c(O)c2)oc2cc(O)cc(O)c12
REMARK SMILES IDX 4 1 3 2 2 3 1 4 21 5 19 6 18 7 16 8 15 9 14 10 13 11 5 12
REMARK SMILES IDX 6 13 7 14 8 15 12 16 10 17 9 18 11 20 20 22 17 24
REMARK H PARENT 9 19 11 21 20 23 17 25
REMARK Flexibility Score: inf
ROOT
ATOM      1  C   UNL     1      27.977  11.863  61.132  1.00  0.00     0.138 A 
ATOM      2  C   UNL     1      28.893  12.566  60.338  1.00  0.00     0.100 A 
ATOM      3  C   UNL     1      28.746  12.566  58.950  1.00  0.00     0.197 A 
ATOM      4  O   UNL     1      29.618  13.156  58.260  1.00  0.00    -0.289 OA
ATOM      5  C   UNL     1      27.657  11.883  58.358  1.00  0.00     0.107 A 
ATOM      6  C   UNL     1      27.383  11.848  56.958  1.00  0.00     0.134 A 
ATOM      7  C   UNL     1      26.344  11.043  56.478  1.00  0.00     0.093 A 
ATOM      8  C   UNL     1      25.530  10.319  57.352  1.00  0.00     0.123 A 
ATOM      9  C   UNL     1      25.755  10.388  58.726  1.00  0.00     0.094 A 
ATOM     10  C   UNL     1      26.807  11.156  59.233  1.00  0.00     0.146 A 
ATOM     11  O   UNL     1      26.996  11.184  60.548  1.00  0.00    -0.456 OA
ENDROOT
BRANCH   1  12
ATOM     12  C   UNL     1      28.086  11.830  62.612  1.00  0.00     0.021 A 
ATOM     13  C   UNL     1      27.508  10.765  63.325  1.00  0.00     0.016 A 
ATOM     14  C   UNL     1      27.591  10.716  64.719  1.00  0.00     0.051 A 
ATOM     15  C   UNL     1      28.242  11.730  65.425  1.00  0.00     0.157 A 
ATOM     16  C   UNL     1      28.730  12.857  63.331  1.00  0.00     0.062 A 
ATOM     17  C   UNL     1      28.812  12.808  64.729  1.00  0.00     0.158 A 
BRANCH  15  18
ATOM     18  O   UNL     1      28.309  11.652  66.817  1.00  0.00    -0.504 OA
ATOM     19  H   UNL     1      28.573  10.799  67.295  1.00  0.00     0.293 HD
ENDBRANCH  15  18
BRANCH  17  20
ATOM     20  O   UNL     1      29.453  13.830  65.429  1.00  0.00    -0.504 OA
ATOM     21  H   UNL     1      29.938  14.579  64.950  1.00  0.00     0.293 HD
ENDBRANCH  17  20
ENDBRANCH   1  12
BRANCH   6  22
ATOM     22  O   UNL     1      28.080  12.600  56.007  1.00  0.00    -0.507 OA
ATOM     23  H   UNL     1      28.078  12.417  55.014  1.00  0.00     0.293 HD
ENDBRANCH   6  22
BRANCH   8  24
ATOM     24  O   UNL     1      24.488   9.531  56.867  1.00  0.00    -0.508 OA
ATOM     25  H   UNL     1      24.031   9.742  55.987  1.00  0.00     0.293 HD
ENDBRANCH   8  24
TORSDOF 5
ENDMDL
MODEL 2
REMARK VINA RESULT:    -6.381      0.562      1.451
REMARK INTER + INTRA:          -7.791
REMARK INTER:                  -7.478
REMARK INTRA:                  -0.313
REMARK UNBOUND:                -0.291
REMARK SMILES O=c1cc(-c2ccc(O)c(O)c2)oc2cc(O)cc(O)c12
REMARK SMILES IDX 4 1 3 2 2 3 1 4 21 5 19 6 18 7 16 8 15 9 14 10 13 11 5 12
REMARK SMILES IDX 6 13 7 14 8 15 12 16 10 17 9 18 11 20 20 22 17 24
REMARK H PARENT 9 19 11 21 20 23 17 25
REMARK Flexibility Score: inf
ROOT
ATOM      1  C   UNL     1      28.035  11.931  61.079  1.00  0.00     0.138 A 
ATOM      2  C   UNL     1      28.934  12.607  60.242  1.00  0.00     0.100 A 
ATOM      3  C   UNL     1      28.755  12.564  58.859  1.00  0.00     0.197 A 
ATOM      4  O   UNL     1      29.612  13.129  58.131  1.00  0.00    -0.289 OA
ATOM      5  C   UNL     1      27.650  11.865  58.314  1.00  0.00     0.107 A 
ATOM      6  C   UNL     1      27.345  11.788  56.922  1.00  0.00     0.134 A 
ATOM      7  C   UNL     1      26.293  10.971  56.491  1.00  0.00     0.093 A 
ATOM      8  C   UNL     1      25.498  10.277  57.406  1.00  0.00     0.123 A 
ATOM      9  C   UNL     1      25.754  10.388  58.771  1.00  0.00     0.094 A 
ATOM     10  C   UNL     1      26.819  11.169  59.230  1.00  0.00     0.146 A 
ATOM     11  O   UNL     1      27.039  11.237  60.539  1.00  0.00    -0.456 OA
ENDROOT
BRANCH   1  12
ATOM     12  C   UNL     1      28.177  11.944  62.556  1.00  0.00     0.021 A 
ATOM     13  C   UNL     1      28.960  12.939  63.167  1.00  0.00     0.016 A 
ATOM     14  C   UNL     1      29.116  12.968  64.556  1.00  0.00     0.051 A 
ATOM     15  C   UNL     1      28.502  12.002  65.356  1.00  0.00     0.157 A 
ATOM     16  C   UNL     1      27.571  10.965  63.368  1.00  0.00     0.062 A 
ATOM     17  C   UNL     1      27.728  10.993  64.761  1.00  0.00     0.158 A 
BRANCH  15  18
ATOM     18  O   UNL     1      28.675  12.058  66.740  1.00  0.00    -0.504 OA
ATOM     19  H   UNL     1      29.087  11.295  67.261  1.00  0.00     0.293 HD
ENDBRANCH  15  18
BRANCH  17  20
ATOM     20  O   UNL     1      27.122  10.019  65.554  1.00  0.00    -0.504 OA
ATOM     21  H   UNL     1      26.635   9.229  65.147  1.00  0.00     0.293 HD
ENDBRANCH  17  20
ENDBRANCH   1  12
BRANCH   6  22
ATOM     22  O   UNL     1      28.022  12.507  55.932  1.00  0.00    -0.507 OA
ATOM     23  H   UNL     1      28.188  12.178  54.993  1.00  0.00     0.293 HD
ENDBRANCH   6  22
BRANCH   8  24
ATOM     24  O   UNL     1      24.443   9.478  56.970  1.00  0.00    -0.508 OA
ATOM     25  H   UNL     1      24.374   9.174  56.005  1.00  0.00     0.293 HD
ENDBRANCH   8  24
TORSDOF 5
ENDMDL
MODEL 3
REMARK VINA RESULT:    -6.353      3.241      5.828
REMARK INTER + INTRA:          -7.758
REMARK INTER:                  -7.492
REMARK INTRA:                  -0.266
REMARK UNBOUND:                -0.291
REMARK SMILES O=c1cc(-c2ccc(O)c(O)c2)oc2cc(O)cc(O)c12
REMARK SMILES IDX 4 1 3 2 2 3 1 4 21 5 19 6 18 7 16 8 15 9 14 10 13 11 5 12
REMARK SMILES IDX 6 13 7 14 8 15 12 16 10 17 9 18 11 20 20 22 17 24
REMARK H PARENT 9 19 11 21 20 23 17 25
REMARK Flexibility Score: inf
ROOT
ATOM      1  C   UNL     1      27.580  10.780  66.561  1.00  0.00     0.138 A 
ATOM      2  C   UNL     1      28.496  11.841  66.524  1.00  0.00     0.100 A 
ATOM      3  C   UNL     1      28.796  12.451  65.305  1.00  0.00     0.197 A 
ATOM      4  O   UNL     1      29.666  13.360  65.293  1.00  0.00    -0.289 OA
ATOM      5  C   UNL     1      28.151  12.015  64.122  1.00  0.00     0.107 A 
ATOM      6  C   UNL     1      28.347  12.589  62.831  1.00  0.00     0.134 A 
ATOM      7  C   UNL     1      27.743  11.999  61.714  1.00  0.00     0.093 A 
ATOM      8  C   UNL     1      26.901  10.893  61.851  1.00  0.00     0.123 A 
ATOM      9  C   UNL     1      26.660  10.357  63.114  1.00  0.00     0.094 A 
ATOM     10  C   UNL     1      27.276  10.903  64.244  1.00  0.00     0.146 A 
ATOM     11  O   UNL     1      27.031  10.354  65.429  1.00  0.00    -0.456 OA
ENDROOT
BRANCH   1  12
ATOM     12  C   UNL     1      27.224  10.096  67.829  1.00  0.00     0.021 A 
ATOM     13  C   UNL     1      27.629   8.766  68.035  1.00  0.00     0.016 A 
ATOM     14  C   UNL     1      27.299   8.099  69.218  1.00  0.00     0.051 A 
ATOM     15  C   UNL     1      26.555   8.742  70.210  1.00  0.00     0.157 A 
ATOM     16  C   UNL     1      26.462  10.736  68.827  1.00  0.00     0.062 A 
ATOM     17  C   UNL     1      26.130  10.066  70.013  1.00  0.00     0.158 A 
BRANCH  15  18
ATOM     18  O   UNL     1      26.243   8.049  71.380  1.00  0.00    -0.504 OA
ATOM     19  H   UNL     1      26.878   8.011  72.168  1.00  0.00     0.293 HD
ENDBRANCH  15  18
BRANCH  17  20
ATOM     20  O   UNL     1      25.377  10.709  70.994  1.00  0.00    -0.504 OA
ATOM     21  H   UNL     1      25.551  10.560  71.981  1.00  0.00     0.293 HD
ENDBRANCH  17  20
ENDBRANCH   1  12
BRANCH   6  22
ATOM     22  O   UNL     1      29.100  13.744  62.595  1.00  0.00    -0.507 OA
ATOM     23  H   UNL     1      29.706  13.885  61.800  1.00  0.00     0.293 HD
ENDBRANCH   6  22
BRANCH   8  24
ATOM     24  O   UNL     1      26.292  10.320  60.736  1.00  0.00    -0.508 OA
ATOM     25  H   UNL     1      25.916  10.891  59.987  1.00  0.00     0.293 HD
ENDBRANCH   8  24
TORSDOF 5
ENDMDL
MODEL 4
REMARK VINA RESULT:    -6.229      1.444      7.367
REMARK INTER + INTRA:          -7.612
REMARK INTER:                  -7.300
REMARK INTRA:                  -0.312
REMARK UNBOUND:                -0.291
REMARK SMILES O=c1cc(-c2ccc(O)c(O)c2)oc2cc(O)cc(O)c12
REMARK SMILES IDX 4 1 3 2 2 3 1 4 21 5 19 6 18 7 16 8 15 9 14 10 13 11 5 12
REMARK SMILES IDX 6 13 7 14 8 15 12 16 10 17 9 18 11 20 20 22 17 24
REMARK H PARENT 9 19 11 21 20 23 17 25
REMARK Flexibility Score: inf
ROOT
ATOM      1  C   UNL     1      27.602  11.461  61.623  1.00  0.00     0.138 A 
ATOM      2  C   UNL     1      26.879  10.424  62.227  1.00  0.00     0.100 A 
ATOM      3  C   UNL     1      26.964  10.236  63.608  1.00  0.00     0.197 A 
ATOM      4  O   UNL     1      26.352   9.259  64.114  1.00  0.00    -0.289 OA
ATOM      5  C   UNL     1      27.755  11.113  64.390  1.00  0.00     0.107 A 
ATOM      6  C   UNL     1      27.884  11.043  65.808  1.00  0.00     0.134 A 
ATOM      7  C   UNL     1      28.786  11.890  66.462  1.00  0.00     0.093 A 
ATOM      8  C   UNL     1      29.518  12.847  65.754  1.00  0.00     0.123 A 
ATOM      9  C   UNL     1      29.359  12.960  64.375  1.00  0.00     0.094 A 
ATOM     10  C   UNL     1      28.492  12.104  63.690  1.00  0.00     0.146 A 
ATOM     11  O   UNL     1      28.380  12.235  62.372  1.00  0.00    -0.456 OA
ENDROOT
BRANCH   1  12
ATOM     12  C   UNL     1      27.547  11.706  60.160  1.00  0.00     0.021 A 
ATOM     13  C   UNL     1      26.461  11.212  59.416  1.00  0.00     0.016 A 
ATOM     14  C   UNL     1      26.391  11.424  58.036  1.00  0.00     0.051 A 
ATOM     15  C   UNL     1      27.404  12.122  57.375  1.00  0.00     0.157 A 
ATOM     16  C   UNL     1      28.572  12.399  59.486  1.00  0.00     0.062 A 
ATOM     17  C   UNL     1      28.502  12.610  58.101  1.00  0.00     0.158 A 
BRANCH  15  18
ATOM     18  O   UNL     1      27.304  12.318  55.997  1.00  0.00    -0.504 OA
ATOM     19  H   UNL     1      28.112  12.273  55.388  1.00  0.00     0.293 HD
ENDBRANCH  15  18
BRANCH  17  20
ATOM     20  O   UNL     1      29.522  13.298  57.445  1.00  0.00    -0.504 OA
ATOM     21  H   UNL     1      29.857  14.195  57.776  1.00  0.00     0.293 HD
ENDBRANCH  17  20
ENDBRANCH   1  12
BRANCH   6  22
ATOM     22  O   UNL     1      27.137  10.182  66.620  1.00  0.00    -0.507 OA
ATOM     23  H   UNL     1      26.862  10.381  67.570  1.00  0.00     0.293 HD
ENDBRANCH   6  22
BRANCH   8  24
ATOM     24  O   UNL     1      30.402  13.697  66.414  1.00  0.00    -0.508 OA
ATOM     25  H   UNL     1      30.463  14.683  66.181  1.00  0.00     0.293 HD
ENDBRANCH   8  24
TORSDOF 5
ENDMDL
MODEL 5
REMARK VINA RESULT:    -6.218      2.136      7.136
REMARK INTER + INTRA:          -7.600
REMARK INTER:                  -7.335
REMARK INTRA:                  -0.265
REMARK UNBOUND:                -0.291
REMARK SMILES O=c1cc(-c2ccc(O)c(O)c2)oc2cc(O)cc(O)c12
REMARK SMILES IDX 4 1 3 2 2 3 1 4 21 5 19 6 18 7 16 8 15 9 14 10 13 11 5 12
REMARK SMILES IDX 6 13 7 14 8 15 12 16 10 17 9 18 11 20 20 22 17 24
REMARK H PARENT 9 19 11 21 20 23 17 25
REMARK Flexibility Score: inf
ROOT
ATOM      1  C   UNL     1      29.241  11.717  60.436  1.00  0.00     0.138 A 
ATOM      2  C   UNL     1      30.484  11.069  60.479  1.00  0.00     0.100 A 
ATOM      3  C   UNL     1      31.183  10.996  61.684  1.00  0.00     0.197 A 
ATOM      4  O   UNL     1      32.323  10.462  61.679  1.00  0.00    -0.289 OA
ATOM      5  C   UNL     1      30.619  11.549  62.859  1.00  0.00     0.107 A 
ATOM      6  C   UNL     1      31.222  11.498  64.151  1.00  0.00     0.134 A 
ATOM      7  C   UNL     1      30.627  12.181  65.218  1.00  0.00     0.093 A 
ATOM      8  C   UNL     1      29.418  12.863  65.053  1.00  0.00     0.123 A 
ATOM      9  C   UNL     1      28.794  12.873  63.808  1.00  0.00     0.094 A 
ATOM     10  C   UNL     1      29.381  12.230  62.715  1.00  0.00     0.146 A 
ATOM     11  O   UNL     1      28.760  12.275  61.541  1.00  0.00    -0.456 OA
ENDROOT
BRANCH   1  12
ATOM     12  C   UNL     1      28.455  11.822  59.182  1.00  0.00     0.021 A 
ATOM     13  C   UNL     1      27.192  11.210  59.103  1.00  0.00     0.016 A 
ATOM     14  C   UNL     1      26.436  11.289  57.930  1.00  0.00     0.051 A 
ATOM     15  C   UNL     1      26.929  11.971  56.816  1.00  0.00     0.157 A 
ATOM     16  C   UNL     1      28.952  12.498  58.050  1.00  0.00     0.062 A 
ATOM     17  C   UNL     1      28.195  12.576  56.873  1.00  0.00     0.158 A 
BRANCH  15  18
ATOM     18  O   UNL     1      26.150  12.034  55.660  1.00  0.00    -0.504 OA
ATOM     19  H   UNL     1      25.352  12.653  55.582  1.00  0.00     0.293 HD
ENDBRANCH  15  18
BRANCH  17  20
ATOM     20  O   UNL     1      28.697  13.249  55.760  1.00  0.00    -0.504 OA
ATOM     21  H   UNL     1      28.200  13.260  54.877  1.00  0.00     0.293 HD
ENDBRANCH  17  20
ENDBRANCH   1  12
BRANCH   6  22
ATOM     22  O   UNL     1      32.383  10.775  64.444  1.00  0.00    -0.507 OA
ATOM     23  H   UNL     1      33.128  11.099  65.044  1.00  0.00     0.293 HD
ENDBRANCH   6  22
BRANCH   8  24
ATOM     24  O   UNL     1      28.824  13.528  66.123  1.00  0.00    -0.508 OA
ATOM     25  H   UNL     1      28.879  13.164  67.069  1.00  0.00     0.293 HD
ENDBRANCH   8  24
TORSDOF 5
ENDMDL
MODEL 6
REMARK VINA RESULT:    -6.203      1.754      2.719
REMARK INTER + INTRA:          -7.581
REMARK INTER:                  -7.291
REMARK INTRA:                  -0.290
REMARK UNBOUND:                -0.291
REMARK SMILES O=c1cc(-c2ccc(O)c(O)c2)oc2cc(O)cc(O)c12
REMARK SMILES IDX 4 1 3 2 2 3 1 4 21 5 19 6 18 7 16 8 15 9 14 10 13 11 5 12
REMARK SMILES IDX 6 13 7 14 8 15 12 16 10 17 9 18 11 20 20 22 17 24
REMARK H PARENT 9 19 11 21 20 23 17 25
REMARK Flexibility Score: inf
ROOT
ATOM      1  C   UNL     1      28.516  11.344  62.717  1.00  0.00     0.138 A 
ATOM      2  C   UNL     1      29.889  11.579  62.554  1.00  0.00     0.100 A 
ATOM      3  C   UNL     1      30.381  11.956  61.303  1.00  0.00     0.197 A 
ATOM      4  O   UNL     1      31.624  12.100  61.173  1.00  0.00    -0.289 OA
ATOM      5  C   UNL     1      29.487  12.127  60.218  1.00  0.00     0.107 A 
ATOM      6  C   UNL     1      29.870  12.548  58.910  1.00  0.00     0.134 A 
ATOM      7  C   UNL     1      28.916  12.571  57.886  1.00  0.00     0.093 A 
ATOM      8  C   UNL     1      27.580  12.246  58.138  1.00  0.00     0.123 A 
ATOM      9  C   UNL     1      27.186  11.885  59.425  1.00  0.00     0.094 A 
ATOM     10  C   UNL     1      28.122  11.820  60.460  1.00  0.00     0.146 A 
ATOM     11  O   UNL     1      27.707  11.459  61.670  1.00  0.00    -0.456 OA
ENDROOT
BRANCH   1  12
ATOM     12  C   UNL     1      27.940  10.942  64.025  1.00  0.00     0.021 A 
ATOM     13  C   UNL     1      26.730  10.228  64.057  1.00  0.00     0.016 A 
ATOM     14  C   UNL     1      26.163   9.845  65.276  1.00  0.00     0.051 A 
ATOM     15  C   UNL     1      26.788  10.175  66.481  1.00  0.00     0.157 A 
ATOM     16  C   UNL     1      28.558  11.284  65.243  1.00  0.00     0.062 A 
ATOM     17  C   UNL     1      27.989  10.901  66.466  1.00  0.00     0.158 A 
BRANCH  15  18
ATOM     18  O   UNL     1      26.198   9.778  67.681  1.00  0.00    -0.504 OA
ATOM     19  H   UNL     1      26.648   9.125  68.311  1.00  0.00     0.293 HD
ENDBRANCH  15  18
BRANCH  17  20
ATOM     20  O   UNL     1      28.612  11.244  67.666  1.00  0.00    -0.504 OA
ATOM     21  H   UNL     1      29.273  10.623  68.118  1.00  0.00     0.293 HD
ENDBRANCH  17  20
ENDBRANCH   1  12
BRANCH   6  22
ATOM     22  O   UNL     1      31.158  12.975  58.572  1.00  0.00    -0.507 OA
ATOM     23  H   UNL     1      31.401  13.447  57.713  1.00  0.00     0.293 HD
ENDBRANCH   6  22
BRANCH   8  24
ATOM     24  O   UNL     1      26.634  12.285  57.116  1.00  0.00    -0.508 OA
ATOM     25  H   UNL     1      25.953  13.034  57.054  1.00  0.00     0.293 HD
ENDBRANCH   8  24
TORSDOF 5
ENDMDL
MODEL 7
REMARK VINA RESULT:    -6.142      1.402      6.939
REMARK INTER + INTRA:          -7.510
REMARK INTER:                  -7.193
REMARK INTRA:                  -0.317
REMARK UNBOUND:                -0.291
REMARK SMILES O=c1cc(-c2ccc(O)c(O)c2)oc2cc(O)cc(O)c12
REMARK SMILES IDX 4 1 3 2 2 3 1 4 21 5 19 6 18 7 16 8 15 9 14 10 13 11 5 12
REMARK SMILES IDX 6 13 7 14 8 15 12 16 10 17 9 18 11 20 20 22 17 24
REMARK H PARENT 9 19 11 21 20 23 17 25
REMARK Flexibility Score: inf
ROOT
ATOM      1  C   UNL     1      27.655  11.772  60.346  1.00  0.00     0.138 A 
ATOM      2  C   UNL     1      28.626  12.708  60.731  1.00  0.00     0.100 A 
ATOM      3  C   UNL     1      28.968  12.832  62.078  1.00  0.00     0.197 A 
ATOM      4  O   UNL     1      29.798  13.722  62.401  1.00  0.00    -0.289 OA
ATOM      5  C   UNL     1      28.357  11.992  63.040  1.00  0.00     0.107 A 
ATOM      6  C   UNL     1      28.658  12.002  64.435  1.00  0.00     0.134 A 
ATOM      7  C   UNL     1      27.906  11.207  65.308  1.00  0.00     0.093 A 
ATOM      8  C   UNL     1      26.905  10.358  64.829  1.00  0.00     0.123 A 
ATOM      9  C   UNL     1      26.640  10.301  63.462  1.00  0.00     0.094 A 
ATOM     10  C   UNL     1      27.350  11.108  62.570  1.00  0.00     0.146 A 
ATOM     11  O   UNL     1      27.057  11.034  61.275  1.00  0.00    -0.456 OA
ENDROOT
BRANCH   1  12
ATOM     12  C   UNL     1      27.254  11.597  58.928  1.00  0.00     0.021 A 
ATOM     13  C   UNL     1      27.993  12.234  57.916  1.00  0.00     0.016 A 
ATOM     14  C   UNL     1      27.630  12.091  56.574  1.00  0.00     0.051 A 
ATOM     15  C   UNL     1      26.521  11.319  56.220  1.00  0.00     0.157 A 
ATOM     16  C   UNL     1      26.129  10.831  58.566  1.00  0.00     0.062 A 
ATOM     17  C   UNL     1      25.764  10.688  57.219  1.00  0.00     0.158 A 
BRANCH  15  18
ATOM     18  O   UNL     1      26.185  11.195  54.871  1.00  0.00    -0.504 OA
ATOM     19  H   UNL     1      26.266  11.968  54.223  1.00  0.00     0.293 HD
ENDBRANCH  15  18
BRANCH  17  20
ATOM     20  O   UNL     1      24.649   9.926  56.873  1.00  0.00    -0.504 OA
ATOM     21  H   UNL     1      24.256   9.240  57.507  1.00  0.00     0.293 HD
ENDBRANCH  17  20
ENDBRANCH   1  12
BRANCH   6  22
ATOM     22  O   UNL     1      29.693  12.748  65.006  1.00  0.00    -0.507 OA
ATOM     23  H   UNL     1      30.676  12.570  64.867  1.00  0.00     0.293 HD
ENDBRANCH   6  22
BRANCH   8  24
ATOM     24  O   UNL     1      26.171   9.559  65.703  1.00  0.00    -0.508 OA
ATOM     25  H   UNL     1      25.373   9.924  66.211  1.00  0.00     0.293 HD
ENDBRANCH   8  24
TORSDOF 5
ENDMDL
MODEL 8
REMARK VINA RESULT:    -6.019      3.250      8.783
REMARK INTER + INTRA:          -7.365
REMARK INTER:                  -7.081
REMARK INTRA:                  -0.285
REMARK UNBOUND:                -0.291
REMARK SMILES O=c1cc(-c2ccc(O)c(O)c2)oc2cc(O)cc(O)c12
REMARK SMILES IDX 4 1 3 2 2 3 1 4 21 5 19 6 18 7 16 8 15 9 14 10 13 11 5 12
REMARK SMILES IDX 6 13 7 14 8 15 12 16 10 17 9 18 11 20 20 22 17 24
REMARK H PARENT 9 19 11 21 20 23 17 25
REMARK Flexibility Score: inf
ROOT
ATOM      1  C   UNL     1      28.515  11.365  65.974  1.00  0.00     0.138 A 
ATOM      2  C   UNL     1      29.771  11.558  66.565  1.00  0.00     0.100 A 
ATOM      3  C   UNL     1      29.971  11.191  67.896  1.00  0.00     0.197 A 
ATOM      4  O   UNL     1      31.091  11.432  68.417  1.00  0.00    -0.289 OA
ATOM      5  C   UNL     1      28.915  10.599  68.630  1.00  0.00     0.107 A 
ATOM      6  C   UNL     1      29.016  10.148  69.979  1.00  0.00     0.134 A 
ATOM      7  C   UNL     1      27.871   9.685  70.639  1.00  0.00     0.093 A 
ATOM      8  C   UNL     1      26.643   9.600  69.979  1.00  0.00     0.123 A 
ATOM      9  C   UNL     1      26.546   9.988  68.644  1.00  0.00     0.094 A 
ATOM     10  C   UNL     1      27.663  10.487  67.969  1.00  0.00     0.146 A 
ATOM     11  O   UNL     1      27.524  10.859  66.701  1.00  0.00    -0.456 OA
ENDROOT
BRANCH   1  12
ATOM     12  C   UNL     1      28.247  11.737  64.562  1.00  0.00     0.021 A 
ATOM     13  C   UNL     1      27.362  10.957  63.797  1.00  0.00     0.016 A 
ATOM     14  C   UNL     1      27.100  11.282  62.463  1.00  0.00     0.051 A 
ATOM     15  C   UNL     1      27.720  12.383  61.869  1.00  0.00     0.157 A 
ATOM     16  C   UNL     1      28.880  12.838  63.953  1.00  0.00     0.062 A 
ATOM     17  C   UNL     1      28.618  13.164  62.615  1.00  0.00     0.158 A 
BRANCH  15  18
ATOM     18  O   UNL     1      27.437  12.682  60.536  1.00  0.00    -0.504 OA
ATOM     19  H   UNL     1      26.625  12.308  60.061  1.00  0.00     0.293 HD
ENDBRANCH  15  18
BRANCH  17  20
ATOM     20  O   UNL     1      29.249  14.257  62.023  1.00  0.00    -0.504 OA
ATOM     21  H   UNL     1      28.722  15.042  61.658  1.00  0.00     0.293 HD
ENDBRANCH  17  20
ENDBRANCH   1  12
BRANCH   6  22
ATOM     22  O   UNL     1      30.211  10.110  70.703  1.00  0.00    -0.507 OA
ATOM     23  H   UNL     1      30.277   9.964  71.700  1.00  0.00     0.293 HD
ENDBRANCH   6  22
BRANCH   8  24
ATOM     24  O   UNL     1      25.512   9.124  70.639  1.00  0.00    -0.508 OA
ATOM     25  H   UNL     1      25.587   8.512  71.444  1.00  0.00     0.293 HD
ENDBRANCH   8  24
TORSDOF 5
ENDMDL
MODEL 9
REMARK VINA RESULT:    -5.982      2.959      5.741
REMARK INTER + INTRA:          -7.322
REMARK INTER:                  -7.040
REMARK INTRA:                  -0.282
REMARK UNBOUND:                -0.291
REMARK SMILES O=c1cc(-c2ccc(O)c(O)c2)oc2cc(O)cc(O)c12
REMARK SMILES IDX 4 1 3 2 2 3 1 4 21 5 19 6 18 7 16 8 15 9 14 10 13 11 5 12
REMARK SMILES IDX 6 13 7 14 8 15 12 16 10 17 9 18 11 20 20 22 17 24
REMARK H PARENT 9 19 11 21 20 23 17 25
REMARK Flexibility Score: inf
ROOT
ATOM      1  C   UNL     1      27.474  10.570  65.790  1.00  0.00     0.138 A 
ATOM      2  C   UNL     1      26.673   9.749  64.982  1.00  0.00     0.100 A 
ATOM      3  C   UNL     1      26.561  10.022  63.618  1.00  0.00     0.197 A 
ATOM      4  O   UNL     1      25.788   9.305  62.931  1.00  0.00    -0.289 OA
ATOM      5  C   UNL     1      27.280  11.104  63.056  1.00  0.00     0.107 A 
ATOM      6  C   UNL     1      27.275  11.451  61.672  1.00  0.00     0.134 A 
ATOM      7  C   UNL     1      27.931  12.613  61.249  1.00  0.00     0.093 A 
ATOM      8  C   UNL     1      28.644  13.406  62.151  1.00  0.00     0.123 A 
ATOM      9  C   UNL     1      28.701  13.047  63.496  1.00  0.00     0.094 A 
ATOM     10  C   UNL     1      28.026  11.912  63.954  1.00  0.00     0.146 A 
ATOM     11  O   UNL     1      28.094  11.612  65.247  1.00  0.00    -0.456 OA
ENDROOT
BRANCH   1  12
ATOM     12  C   UNL     1      27.629  10.325  67.246  1.00  0.00     0.021 A 
ATOM     13  C   UNL     1      28.883  10.518  67.850  1.00  0.00     0.016 A 
ATOM     14  C   UNL     1      29.056  10.287  69.217  1.00  0.00     0.051 A 
ATOM     15  C   UNL     1      27.986   9.852  70.002  1.00  0.00     0.157 A 
ATOM     16  C   UNL     1      26.556   9.874  68.040  1.00  0.00     0.062 A 
ATOM     17  C   UNL     1      26.730   9.641  69.411  1.00  0.00     0.158 A 
BRANCH  15  18
ATOM     18  O   UNL     1      28.190   9.632  71.365  1.00  0.00    -0.504 OA
ATOM     19  H   UNL     1      28.856   8.949  71.705  1.00  0.00     0.293 HD
ENDBRANCH  15  18
BRANCH  17  20
ATOM     20  O   UNL     1      25.660   9.195  70.187  1.00  0.00    -0.504 OA
ATOM     21  H   UNL     1      25.153   9.821  70.801  1.00  0.00     0.293 HD
ENDBRANCH  17  20
ENDBRANCH   1  12
BRANCH   6  22
ATOM     22  O   UNL     1      26.665  10.681  60.675  1.00  0.00    -0.507 OA
ATOM     23  H   UNL     1      25.710  10.358  60.701  1.00  0.00     0.293 HD
ENDBRANCH   6  22
BRANCH   8  24
ATOM     24  O   UNL     1      29.308  14.553  61.719  1.00  0.00    -0.508 OA
ATOM     25  H   UNL     1      28.932  15.135  60.979  1.00  0.00     0.293 HD
ENDBRANCH   8  24
TORSDOF 5
ENDMDL
