MODEL 1
REMARK VINA RESULT:    -4.983      0.000      0.000
REMARK INTER + INTRA:         -14.912
REMARK INTER:                 -11.393
REMARK INTRA:                  -3.519
REMARK UNBOUND:                -3.519
REMARK SMILES CCCCCCCCCCCCCCCCCCCCCCCC(=O)[O-]
REMARK SMILES IDX 13 1 14 2 15 3 16 4 17 5 18 6 19 7 20 8 21 9 22 10 23 11
REMARK SMILES IDX 24 12 25 13 26 14 12 15 11 16 10 17 9 18 8 19 7 20 6 21 5 22
REMARK SMILES IDX 4 23 3 24 2 25 1 26
REMARK H PARENT
REMARK Flexibility Score: inf
ROOT
ATOM      1  C   UNL     1     -15.057   5.643  30.550  1.00  0.00     0.000 C 
ENDROOT
BRANCH   1   2
ATOM      2  C   UNL     1     -15.195   4.211  29.994  1.00  0.00     0.000 C 
BRANCH   2   3
ATOM      3  C   UNL     1     -15.382   4.116  28.467  1.00  0.00     0.000 C 
BRANCH   3   4
ATOM      4  C   UNL     1     -14.681   2.921  27.796  1.00  0.00     0.000 C 
BRANCH   4   5
ATOM      5  C   UNL     1     -13.353   2.549  28.477  1.00  0.00     0.000 C 
BRANCH   5   6
ATOM      6  C   UNL     1     -13.386   1.147  29.108  1.00  0.00     0.000 C 
BRANCH   6   7
ATOM      7  C   UNL     1     -14.142   0.125  28.246  1.00  0.00     0.000 C 
BRANCH   7   8
ATOM      8  C   UNL     1     -15.280  -0.532  29.044  1.00  0.00     0.000 C 
BRANCH   8   9
ATOM      9  C   UNL     1     -15.694   0.294  30.273  1.00  0.00     0.000 C 
BRANCH   9  10
ATOM     10  C   UNL     1     -17.120   0.861  30.154  1.00  0.00     0.006 C 
BRANCH  10  11
ATOM     11  C   UNL     1     -18.001   0.467  31.347  1.00  0.00     0.053 C 
BRANCH  11  12
ATOM     12  C   UNL     1     -18.338   1.648  32.205  1.00  0.00     0.041 C 
ATOM     13  O   UNL     1     -17.446   2.486  32.508  1.00  0.00    -0.550 OA
ATOM     14  O   UNL     1     -19.627   1.803  32.702  1.00  0.00    -0.550 OA
ENDBRANCH  11  12
ENDBRANCH  10  11
ENDBRANCH   9  10
ENDBRANCH   8   9
ENDBRANCH   7   8
ENDBRANCH   6   7
ENDBRANCH   5   6
ENDBRANCH   4   5
ENDBRANCH   3   4
ENDBRANCH   2   3
ENDBRANCH   1   2
BRANCH   1  15
ATOM     15  C   UNL     1     -14.485   6.677  29.560  1.00  0.00     0.000 C 
BRANCH  15  16
ATOM     16  C   UNL     1     -13.955   7.974  30.199  1.00  0.00     0.000 C 
BRANCH  16  17
ATOM     17  C   UNL     1     -13.851   7.887  31.730  1.00  0.00     0.000 C 
BRANCH  17  18
ATOM     18  C   UNL     1     -14.448   9.115  32.446  1.00  0.00    -0.000 C 
BRANCH  18  19
ATOM     19  C   UNL     1     -15.849   8.912  33.050  1.00  0.00    -0.000 C 
BRANCH  19  20
ATOM     20  C   UNL     1     -16.984   9.307  32.088  1.00  0.00    -0.000 C 
BRANCH  20  21
ATOM     21  C   UNL     1     -17.511   8.112  31.278  1.00  0.00    -0.000 C 
BRANCH  21  22
ATOM     22  C   UNL     1     -17.731   8.445  29.794  1.00  0.00    -0.000 C 
BRANCH  22  23
ATOM     23  C   UNL     1     -17.405   9.920  29.512  1.00  0.00    -0.000 C 
BRANCH  23  24
ATOM     24  C   UNL     1     -16.274  10.089  28.485  1.00  0.00    -0.000 C 
BRANCH  24  25
ATOM     25  C   UNL     1     -15.612  11.473  28.561  1.00  0.00    -0.003 C 
ATOM     26  C   UNL     1     -14.734  11.593  29.804  1.00  0.00     0.004 C 
ENDBRANCH  24  25
ENDBRANCH  23  24
ENDBRANCH  22  23
ENDBRANCH  21  22
ENDBRANCH  20  21
ENDBRANCH  19  20
ENDBRANCH  18  19
ENDBRANCH  17  18
ENDBRANCH  16  17
ENDBRANCH  15  16
ENDBRANCH   1  15
TORSDOF 22
ENDMDL
MODEL 2
REMARK VINA RESULT:    -4.947      1.486      2.978
REMARK INTER + INTRA:         -14.830
REMARK INTER:                 -11.448
REMARK INTRA:                  -3.382
REMARK UNBOUND:                -3.519
REMARK SMILES CCCCCCCCCCCCCCCCCCCCCCCC(=O)[O-]
REMARK SMILES IDX 13 1 14 2 15 3 16 4 17 5 18 6 19 7 20 8 21 9 22 10 23 11
REMARK SMILES IDX 24 12 25 13 26 14 12 15 11 16 10 17 9 18 8 19 7 20 6 21 5 22
REMARK SMILES IDX 4 23 3 24 2 25 1 26
REMARK H PARENT
REMARK Flexibility Score: inf
ROOT
ATOM      1  C   UNL     1     -14.238   7.507  31.015  1.00  0.00     0.000 C 
ENDROOT
BRANCH   1   2
ATOM      2  C   UNL     1     -14.962   6.152  31.145  1.00  0.00     0.000 C 
BRANCH   2   3
ATOM      3  C   UNL     1     -15.740   5.702  29.892  1.00  0.00     0.000 C 
BRANCH   3   4
ATOM      4  C   UNL     1     -15.121   6.135  28.550  1.00  0.00     0.000 C 
BRANCH   4   5
ATOM      5  C   UNL     1     -14.202   5.061  27.943  1.00  0.00     0.000 C 
BRANCH   5   6
ATOM      6  C   UNL     1     -14.015   3.851  28.874  1.00  0.00     0.000 C 
BRANCH   6   7
ATOM      7  C   UNL     1     -13.964   2.518  28.113  1.00  0.00     0.000 C 
BRANCH   7   8
ATOM      8  C   UNL     1     -14.954   1.505  28.711  1.00  0.00     0.000 C 
BRANCH   8   9
ATOM      9  C   UNL     1     -15.169   1.708  30.220  1.00  0.00     0.000 C 
BRANCH   9  10
ATOM     10  C   UNL     1     -16.641   1.977  30.579  1.00  0.00     0.006 C 
BRANCH  10  11
ATOM     11  C   UNL     1     -16.791   2.621  31.964  1.00  0.00     0.053 C 
BRANCH  11  12
ATOM     12  C   UNL     1     -18.221   2.657  32.409  1.00  0.00     0.041 C 
ATOM     13  O   UNL     1     -18.899   3.712  32.279  1.00  0.00    -0.550 OA
ATOM     14  O   UNL     1     -18.794   1.538  33.003  1.00  0.00    -0.550 OA
ENDBRANCH  11  12
ENDBRANCH  10  11
ENDBRANCH   9  10
ENDBRANCH   8   9
ENDBRANCH   7   8
ENDBRANCH   6   7
ENDBRANCH   5   6
ENDBRANCH   4   5
ENDBRANCH   3   4
ENDBRANCH   2   3
ENDBRANCH   1   2
BRANCH   1  15
ATOM     15  C   UNL     1     -14.441   8.474  32.198  1.00  0.00     0.000 C 
BRANCH  15  16
ATOM     16  C   UNL     1     -15.432   9.625  31.943  1.00  0.00     0.000 C 
BRANCH  16  17
ATOM     17  C   UNL     1     -16.900   9.188  32.069  1.00  0.00     0.000 C 
BRANCH  17  18
ATOM     18  C   UNL     1     -17.618   9.081  30.709  1.00  0.00    -0.000 C 
BRANCH  18  19
ATOM     19  C   UNL     1     -16.801   9.550  29.491  1.00  0.00    -0.000 C 
BRANCH  19  20
ATOM     20  C   UNL     1     -17.492  10.674  28.699  1.00  0.00    -0.000 C 
BRANCH  20  21
ATOM     21  C   UNL     1     -16.584  11.899  28.502  1.00  0.00    -0.000 C 
BRANCH  21  22
ATOM     22  C   UNL     1     -15.174  11.697  29.080  1.00  0.00    -0.000 C 
BRANCH  22  23
ATOM     23  C   UNL     1     -14.102  12.110  28.061  1.00  0.00    -0.000 C 
BRANCH  23  24
ATOM     24  C   UNL     1     -13.007  11.044  27.890  1.00  0.00    -0.000 C 
BRANCH  24  25
ATOM     25  C   UNL     1     -13.556   9.614  27.997  1.00  0.00    -0.003 C 
ATOM     26  C   UNL     1     -14.202   9.175  26.685  1.00  0.00     0.004 C 
ENDBRANCH  24  25
ENDBRANCH  23  24
ENDBRANCH  22  23
ENDBRANCH  21  22
ENDBRANCH  20  21
ENDBRANCH  19  20
ENDBRANCH  18  19
ENDBRANCH  17  18
ENDBRANCH  16  17
ENDBRANCH  15  16
ENDBRANCH   1  15
TORSDOF 22
ENDMDL
MODEL 3
REMARK VINA RESULT:    -4.934      1.867      3.226
REMARK INTER + INTRA:         -14.799
REMARK INTER:                 -11.107
REMARK INTRA:                  -3.692
REMARK UNBOUND:                -3.519
REMARK SMILES CCCCCCCCCCCCCCCCCCCCCCCC(=O)[O-]
REMARK SMILES IDX 13 1 14 2 15 3 16 4 17 5 18 6 19 7 20 8 21 9 22 10 23 11
REMARK SMILES IDX 24 12 25 13 26 14 12 15 11 16 10 17 9 18 8 19 7 20 6 21 5 22
REMARK SMILES IDX 4 23 3 24 2 25 1 26
REMARK H PARENT
REMARK Flexibility Score: inf
ROOT
ATOM      1  C   UNL     1     -13.622   5.573  27.839  1.00  0.00     0.000 C 
ENDROOT
BRANCH   1   2
ATOM      2  C   UNL     1     -13.770   4.177  28.477  1.00  0.00     0.000 C 
BRANCH   2   3
ATOM      3  C   UNL     1     -15.079   3.437  28.137  1.00  0.00     0.000 C 
BRANCH   3   4
ATOM      4  C   UNL     1     -15.712   2.658  29.305  1.00  0.00     0.000 C 
BRANCH   4   5
ATOM      5  C   UNL     1     -15.344   3.242  30.680  1.00  0.00     0.000 C 
BRANCH   5   6
ATOM      6  C   UNL     1     -16.467   3.067  31.715  1.00  0.00     0.000 C 
BRANCH   6   7
ATOM      7  C   UNL     1     -17.858   3.371  31.140  1.00  0.00     0.000 C 
BRANCH   7   8
ATOM      8  C   UNL     1     -18.939   3.260  32.227  1.00  0.00     0.000 C 
BRANCH   8   9
ATOM      9  C   UNL     1     -19.264   1.802  32.591  1.00  0.00     0.000 C 
BRANCH   9  10
ATOM     10  C   UNL     1     -19.357   0.889  31.355  1.00  0.00     0.006 C 
BRANCH  10  11
ATOM     11  C   UNL     1     -18.494  -0.371  31.499  1.00  0.00     0.053 C 
BRANCH  11  12
ATOM     12  C   UNL     1     -17.355  -0.380  30.526  1.00  0.00     0.041 C 
ATOM     13  O   UNL     1     -16.165  -0.352  30.942  1.00  0.00    -0.550 OA
ATOM     14  O   UNL     1     -17.607  -0.378  29.158  1.00  0.00    -0.550 OA
ENDBRANCH  11  12
ENDBRANCH  10  11
ENDBRANCH   9  10
ENDBRANCH   8   9
ENDBRANCH   7   8
ENDBRANCH   6   7
ENDBRANCH   5   6
ENDBRANCH   4   5
ENDBRANCH   3   4
ENDBRANCH   2   3
ENDBRANCH   1   2
BRANCH   1  15
ATOM     15  C   UNL     1     -14.194   6.738  28.670  1.00  0.00     0.000 C 
BRANCH  15  16
ATOM     16  C   UNL     1     -15.650   7.122  28.347  1.00  0.00     0.000 C 
BRANCH  16  17
ATOM     17  C   UNL     1     -16.660   6.531  29.345  1.00  0.00     0.000 C 
BRANCH  17  18
ATOM     18  C   UNL     1     -16.390   6.957  30.801  1.00  0.00    -0.000 C 
BRANCH  18  19
ATOM     19  C   UNL     1     -17.448   7.884  31.427  1.00  0.00    -0.000 C 
BRANCH  19  20
ATOM     20  C   UNL     1     -16.836   9.111  32.126  1.00  0.00    -0.000 C 
BRANCH  20  21
ATOM     21  C   UNL     1     -15.321   9.225  31.896  1.00  0.00    -0.000 C 
BRANCH  21  22
ATOM     22  C   UNL     1     -14.909  10.570  31.278  1.00  0.00    -0.000 C 
BRANCH  22  23
ATOM     23  C   UNL     1     -14.890  10.483  29.745  1.00  0.00    -0.000 C 
BRANCH  23  24
ATOM     24  C   UNL     1     -15.263  11.814  29.072  1.00  0.00    -0.000 C 
BRANCH  24  25
ATOM     25  C   UNL     1     -16.694  11.812  28.515  1.00  0.00    -0.003 C 
ATOM     26  C   UNL     1     -17.314  10.420  28.603  1.00  0.00     0.004 C 
ENDBRANCH  24  25
ENDBRANCH  23  24
ENDBRANCH  22  23
ENDBRANCH  21  22
ENDBRANCH  20  21
ENDBRANCH  19  20
ENDBRANCH  18  19
ENDBRANCH  17  18
ENDBRANCH  16  17
ENDBRANCH  15  16
ENDBRANCH   1  15
TORSDOF 22
ENDMDL
MODEL 4
REMARK VINA RESULT:    -4.875     12.884     15.616
REMARK INTER + INTRA:         -14.665
REMARK INTER:                 -10.670
REMARK INTRA:                  -3.995
REMARK UNBOUND:                -3.519
REMARK SMILES CCCCCCCCCCCCCCCCCCCCCCCC(=O)[O-]
REMARK SMILES IDX 13 1 14 2 15 3 16 4 17 5 18 6 19 7 20 8 21 9 22 10 23 11
REMARK SMILES IDX 24 12 25 13 26 14 12 15 11 16 10 17 9 18 8 19 7 20 6 21 5 22
REMARK SMILES IDX 4 23 3 24 2 25 1 26
REMARK H PARENT
REMARK Flexibility Score: inf
ROOT
ATOM      1  C   UNL     1     -16.028  -6.031  22.496  1.00  0.00     0.000 C 
ENDROOT
BRANCH   1   2
ATOM      2  C   UNL     1     -15.000  -6.304  21.379  1.00  0.00     0.000 C 
BRANCH   2   3
ATOM      3  C   UNL     1     -15.584  -6.905  20.085  1.00  0.00     0.000 C 
BRANCH   3   4
ATOM      4  C   UNL     1     -15.264  -6.121  18.799  1.00  0.00     0.000 C 
BRANCH   4   5
ATOM      5  C   UNL     1     -16.284  -6.375  17.677  1.00  0.00     0.000 C 
BRANCH   5   6
ATOM      6  C   UNL     1     -17.170  -5.150  17.395  1.00  0.00     0.000 C 
BRANCH   6   7
ATOM      7  C   UNL     1     -18.260  -4.947  18.458  1.00  0.00     0.000 C 
BRANCH   7   8
ATOM      8  C   UNL     1     -19.045  -6.248  18.695  1.00  0.00     0.000 C 
BRANCH   8   9
ATOM      9  C   UNL     1     -19.952  -6.616  17.509  1.00  0.00     0.000 C 
BRANCH   9  10
ATOM     10  C   UNL     1     -21.384  -6.074  17.667  1.00  0.00     0.006 C 
BRANCH  10  11
ATOM     11  C   UNL     1     -22.108  -5.949  16.320  1.00  0.00     0.053 C 
BRANCH  11  12
ATOM     12  C   UNL     1     -22.523  -4.537  16.040  1.00  0.00     0.041 C 
ATOM     13  O   UNL     1     -23.515  -4.037  16.637  1.00  0.00    -0.550 OA
ATOM     14  O   UNL     1     -21.840  -3.786  15.090  1.00  0.00    -0.550 OA
ENDBRANCH  11  12
ENDBRANCH  10  11
ENDBRANCH   9  10
ENDBRANCH   8   9
ENDBRANCH   7   8
ENDBRANCH   6   7
ENDBRANCH   5   6
ENDBRANCH   4   5
ENDBRANCH   3   4
ENDBRANCH   2   3
ENDBRANCH   1   2
BRANCH   1  15
ATOM     15  C   UNL     1     -17.504  -6.078  22.054  1.00  0.00     0.000 C 
BRANCH  15  16
ATOM     16  C   UNL     1     -18.288  -4.766  22.241  1.00  0.00     0.000 C 
BRANCH  16  17
ATOM     17  C   UNL     1     -17.384  -3.575  22.599  1.00  0.00     0.000 C 
BRANCH  17  18
ATOM     18  C   UNL     1     -17.492  -2.411  21.595  1.00  0.00    -0.000 C 
BRANCH  18  19
ATOM     19  C   UNL     1     -16.154  -1.881  21.048  1.00  0.00    -0.000 C 
BRANCH  19  20
ATOM     20  C   UNL     1     -15.478  -2.853  20.065  1.00  0.00    -0.000 C 
BRANCH  20  21
ATOM     21  C   UNL     1     -14.348  -2.187  19.263  1.00  0.00    -0.000 C 
BRANCH  21  22
ATOM     22  C   UNL     1     -14.227  -2.735  17.832  1.00  0.00    -0.000 C 
BRANCH  22  23
ATOM     23  C   UNL     1     -15.159  -1.976  16.877  1.00  0.00    -0.000 C 
BRANCH  23  24
ATOM     24  C   UNL     1     -15.285  -0.486  17.233  1.00  0.00    -0.000 C 
BRANCH  24  25
ATOM     25  C   UNL     1     -16.741   0.003  17.215  1.00  0.00    -0.003 C 
ATOM     26  C   UNL     1     -17.697  -1.108  17.640  1.00  0.00     0.004 C 
ENDBRANCH  24  25
ENDBRANCH  23  24
ENDBRANCH  22  23
ENDBRANCH  21  22
ENDBRANCH  20  21
ENDBRANCH  19  20
ENDBRANCH  18  19
ENDBRANCH  17  18
ENDBRANCH  16  17
ENDBRANCH  15  16
ENDBRANCH   1  15
TORSDOF 22
ENDMDL
MODEL 5
REMARK VINA RESULT:    -4.804     11.447     15.671
REMARK INTER + INTRA:         -14.502
REMARK INTER:                 -10.696
REMARK INTRA:                  -3.806
REMARK UNBOUND:                -3.519
REMARK SMILES CCCCCCCCCCCCCCCCCCCCCCCC(=O)[O-]
REMARK SMILES IDX 13 1 14 2 15 3 16 4 17 5 18 6 19 7 20 8 21 9 22 10 23 11
REMARK SMILES IDX 24 12 25 13 26 14 12 15 11 16 10 17 9 18 8 19 7 20 6 21 5 22
REMARK SMILES IDX 4 23 3 24 2 25 1 26
REMARK H PARENT
REMARK Flexibility Score: inf
ROOT
ATOM      1  C   UNL     1     -15.097  -5.901  19.964  1.00  0.00     0.000 C 
ENDROOT
BRANCH   1   2
ATOM      2  C   UNL     1     -14.851  -6.716  21.249  1.00  0.00     0.000 C 
BRANCH   2   3
ATOM      3  C   UNL     1     -15.773  -6.366  22.434  1.00  0.00     0.000 C 
BRANCH   3   4
ATOM      4  C   UNL     1     -16.458  -4.990  22.343  1.00  0.00     0.000 C 
BRANCH   4   5
ATOM      5  C   UNL     1     -17.993  -5.087  22.338  1.00  0.00     0.000 C 
BRANCH   5   6
ATOM      6  C   UNL     1     -18.626  -4.370  21.134  1.00  0.00     0.000 C 
BRANCH   6   7
ATOM      7  C   UNL     1     -17.708  -3.296  20.533  1.00  0.00     0.000 C 
BRANCH   7   8
ATOM      8  C   UNL     1     -18.218  -2.845  19.154  1.00  0.00     0.000 C 
BRANCH   8   9
ATOM      9  C   UNL     1     -18.221  -3.986  18.123  1.00  0.00     0.000 C 
BRANCH   9  10
ATOM     10  C   UNL     1     -18.896  -3.586  16.798  1.00  0.00     0.006 C 
BRANCH  10  11
ATOM     11  C   UNL     1     -20.148  -2.728  17.022  1.00  0.00     0.053 C 
BRANCH  11  12
ATOM     12  C   UNL     1     -21.236  -3.067  16.050  1.00  0.00     0.041 C 
ATOM     13  O   UNL     1     -22.195  -3.804  16.404  1.00  0.00    -0.550 OA
ATOM     14  O   UNL     1     -21.172  -2.601  14.742  1.00  0.00    -0.550 OA
ENDBRANCH  11  12
ENDBRANCH  10  11
ENDBRANCH   9  10
ENDBRANCH   8   9
ENDBRANCH   7   8
ENDBRANCH   6   7
ENDBRANCH   5   6
ENDBRANCH   4   5
ENDBRANCH   3   4
ENDBRANCH   2   3
ENDBRANCH   1   2
BRANCH   1  15
ATOM     15  C   UNL     1     -16.085  -6.536  18.965  1.00  0.00     0.000 C 
BRANCH  15  16
ATOM     16  C   UNL     1     -15.557  -6.691  17.527  1.00  0.00     0.000 C 
BRANCH  16  17
ATOM     17  C   UNL     1     -14.074  -6.307  17.391  1.00  0.00     0.000 C 
BRANCH  17  18
ATOM     18  C   UNL     1     -13.846  -5.097  16.463  1.00  0.00    -0.000 C 
BRANCH  18  19
ATOM     19  C   UNL     1     -15.102  -4.271  16.133  1.00  0.00    -0.000 C 
BRANCH  19  20
ATOM     20  C   UNL     1     -15.024  -2.824  16.652  1.00  0.00    -0.000 C 
BRANCH  20  21
ATOM     21  C   UNL     1     -13.972  -2.651  17.758  1.00  0.00    -0.000 C 
BRANCH  21  22
ATOM     22  C   UNL     1     -14.579  -2.198  19.096  1.00  0.00    -0.000 C 
BRANCH  22  23
ATOM     23  C   UNL     1     -15.255  -0.827  18.952  1.00  0.00    -0.000 C 
BRANCH  23  24
ATOM     24  C   UNL     1     -15.008   0.084  20.165  1.00  0.00    -0.000 C 
BRANCH  24  25
ATOM     25  C   UNL     1     -14.461  -0.684  21.377  1.00  0.00    -0.003 C 
ATOM     26  C   UNL     1     -14.235   0.251  22.562  1.00  0.00     0.004 C 
ENDBRANCH  24  25
ENDBRANCH  23  24
ENDBRANCH  22  23
ENDBRANCH  21  22
ENDBRANCH  20  21
ENDBRANCH  19  20
ENDBRANCH  18  19
ENDBRANCH  17  18
ENDBRANCH  16  17
ENDBRANCH  15  16
ENDBRANCH   1  15
TORSDOF 22
ENDMDL
MODEL 6
REMARK VINA RESULT:    -4.797     13.576     16.549
REMARK INTER + INTRA:         -14.487
REMARK INTER:                 -10.051
REMARK INTRA:                  -4.436
REMARK UNBOUND:                -3.519
REMARK SMILES CCCCCCCCCCCCCCCCCCCCCCCC(=O)[O-]
REMARK SMILES IDX 13 1 14 2 15 3 16 4 17 5 18 6 19 7 20 8 21 9 22 10 23 11
REMARK SMILES IDX 24 12 25 13 26 14 12 15 11 16 10 17 9 18 8 19 7 20 6 21 5 22
REMARK SMILES IDX 4 23 3 24 2 25 1 26
REMARK H PARENT
REMARK Flexibility Score: inf
ROOT
ATOM      1  C   UNL     1     -14.123  -2.416  18.020  1.00  0.00     0.000 C 
ENDROOT
BRANCH   1   2
ATOM      2  C   UNL     1     -14.880  -2.671  19.340  1.00  0.00     0.000 C 
BRANCH   2   3
ATOM      3  C   UNL     1     -16.152  -1.824  19.540  1.00  0.00     0.000 C 
BRANCH   3   4
ATOM      4  C   UNL     1     -17.479  -2.578  19.333  1.00  0.00     0.000 C 
BRANCH   4   5
ATOM      5  C   UNL     1     -18.196  -2.176  18.033  1.00  0.00     0.000 C 
BRANCH   5   6
ATOM      6  C   UNL     1     -18.681  -3.393  17.227  1.00  0.00     0.000 C 
BRANCH   6   7
ATOM      7  C   UNL     1     -18.690  -4.688  18.052  1.00  0.00     0.000 C 
BRANCH   7   8
ATOM      8  C   UNL     1     -19.151  -5.881  17.198  1.00  0.00     0.000 C 
BRANCH   8   9
ATOM      9  C   UNL     1     -20.363  -6.608  17.804  1.00  0.00     0.000 C 
BRANCH   9  10
ATOM     10  C   UNL     1     -21.592  -5.692  17.950  1.00  0.00     0.006 C 
BRANCH  10  11
ATOM     11  C   UNL     1     -22.386  -5.575  16.643  1.00  0.00     0.053 C 
BRANCH  11  12
ATOM     12  C   UNL     1     -22.516  -4.152  16.195  1.00  0.00     0.041 C 
ATOM     13  O   UNL     1     -23.252  -3.351  16.833  1.00  0.00    -0.550 OA
ATOM     14  O   UNL     1     -21.855  -3.718  15.052  1.00  0.00    -0.550 OA
ENDBRANCH  11  12
ENDBRANCH  10  11
ENDBRANCH   9  10
ENDBRANCH   8   9
ENDBRANCH   7   8
ENDBRANCH   6   7
ENDBRANCH   5   6
ENDBRANCH   4   5
ENDBRANCH   3   4
ENDBRANCH   2   3
ENDBRANCH   1   2
BRANCH   1  15
ATOM     15  C   UNL     1     -14.826  -2.939  16.751  1.00  0.00     0.000 C 
BRANCH  15  16
ATOM     16  C   UNL     1     -14.391  -4.342  16.291  1.00  0.00     0.000 C 
BRANCH  16  17
ATOM     17  C   UNL     1     -15.580  -5.279  16.023  1.00  0.00     0.000 C 
BRANCH  17  18
ATOM     18  C   UNL     1     -15.654  -6.459  17.012  1.00  0.00    -0.000 C 
BRANCH  18  19
ATOM     19  C   UNL     1     -14.904  -6.257  18.341  1.00  0.00    -0.000 C 
BRANCH  19  20
ATOM     20  C   UNL     1     -15.795  -6.484  19.576  1.00  0.00    -0.000 C 
BRANCH  20  21
ATOM     21  C   UNL     1     -15.121  -6.027  20.879  1.00  0.00    -0.000 C 
BRANCH  21  22
ATOM     22  C   UNL     1     -16.093  -5.973  22.068  1.00  0.00    -0.000 C 
BRANCH  22  23
ATOM     23  C   UNL     1     -16.590  -4.538  22.302  1.00  0.00    -0.000 C 
BRANCH  23  24
ATOM     24  C   UNL     1     -18.092  -4.478  22.625  1.00  0.00    -0.000 C 
BRANCH  24  25
ATOM     25  C   UNL     1     -18.944  -5.252  21.608  1.00  0.00    -0.003 C 
ATOM     26  C   UNL     1     -20.263  -4.533  21.338  1.00  0.00     0.004 C 
ENDBRANCH  24  25
ENDBRANCH  23  24
ENDBRANCH  22  23
ENDBRANCH  21  22
ENDBRANCH  20  21
ENDBRANCH  19  20
ENDBRANCH  18  19
ENDBRANCH  17  18
ENDBRANCH  16  17
ENDBRANCH  15  16
ENDBRANCH   1  15
TORSDOF 22
ENDMDL
MODEL 7
REMARK VINA RESULT:    -4.786     13.293     15.961
REMARK INTER + INTRA:         -14.459
REMARK INTER:                 -10.307
REMARK INTRA:                  -4.153
REMARK UNBOUND:                -3.519
REMARK SMILES CCCCCCCCCCCCCCCCCCCCCCCC(=O)[O-]
REMARK SMILES IDX 13 1 14 2 15 3 16 4 17 5 18 6 19 7 20 8 21 9 22 10 23 11
REMARK SMILES IDX 24 12 25 13 26 14 12 15 11 16 10 17 9 18 8 19 7 20 6 21 5 22
REMARK SMILES IDX 4 23 3 24 2 25 1 26
REMARK H PARENT
REMARK Flexibility Score: inf
ROOT
ATOM      1  C   UNL     1     -15.274  -5.763  19.964  1.00  0.00     0.000 C 
ENDROOT
BRANCH   1   2
ATOM      2  C   UNL     1     -15.132  -6.543  21.286  1.00  0.00     0.000 C 
BRANCH   2   3
ATOM      3  C   UNL     1     -15.940  -5.976  22.471  1.00  0.00     0.000 C 
BRANCH   3   4
ATOM      4  C   UNL     1     -16.614  -4.616  22.210  1.00  0.00     0.000 C 
BRANCH   4   5
ATOM      5  C   UNL     1     -18.129  -4.642  22.471  1.00  0.00     0.000 C 
BRANCH   5   6
ATOM      6  C   UNL     1     -18.777  -5.973  22.052  1.00  0.00     0.000 C 
BRANCH   6   7
ATOM      7  C   UNL     1     -18.958  -6.093  20.532  1.00  0.00     0.000 C 
BRANCH   7   8
ATOM      8  C   UNL     1     -19.359  -4.742  19.917  1.00  0.00     0.000 C 
BRANCH   8   9
ATOM      9  C   UNL     1     -20.841  -4.694  19.509  1.00  0.00     0.000 C 
BRANCH   9  10
ATOM     10  C   UNL     1     -21.108  -5.393  18.163  1.00  0.00     0.006 C 
BRANCH  10  11
ATOM     11  C   UNL     1     -20.430  -4.671  16.991  1.00  0.00     0.053 C 
BRANCH  11  12
ATOM     12  C   UNL     1     -21.427  -3.994  16.102  1.00  0.00     0.041 C 
ATOM     13  O   UNL     1     -22.557  -4.517  15.903  1.00  0.00    -0.550 OA
ATOM     14  O   UNL     1     -21.095  -2.806  15.461  1.00  0.00    -0.550 OA
ENDBRANCH  11  12
ENDBRANCH  10  11
ENDBRANCH   9  10
ENDBRANCH   8   9
ENDBRANCH   7   8
ENDBRANCH   6   7
ENDBRANCH   5   6
ENDBRANCH   4   5
ENDBRANCH   3   4
ENDBRANCH   2   3
ENDBRANCH   1   2
BRANCH   1  15
ATOM     15  C   UNL     1     -15.370  -6.636  18.696  1.00  0.00     0.000 C 
BRANCH  15  16
ATOM     16  C   UNL     1     -16.648  -6.440  17.860  1.00  0.00     0.000 C 
BRANCH  16  17
ATOM     17  C   UNL     1     -16.772  -5.021  17.280  1.00  0.00     0.000 C 
BRANCH  17  18
ATOM     18  C   UNL     1     -15.989  -4.835  15.965  1.00  0.00    -0.000 C 
BRANCH  18  19
ATOM     19  C   UNL     1     -14.686  -4.024  16.080  1.00  0.00    -0.000 C 
BRANCH  19  20
ATOM     20  C   UNL     1     -14.876  -2.677  16.799  1.00  0.00    -0.000 C 
BRANCH  20  21
ATOM     21  C   UNL     1     -14.047  -2.577  18.090  1.00  0.00    -0.000 C 
BRANCH  21  22
ATOM     22  C   UNL     1     -14.901  -2.239  19.323  1.00  0.00    -0.000 C 
BRANCH  22  23
ATOM     23  C   UNL     1     -15.175  -0.729  19.399  1.00  0.00    -0.000 C 
BRANCH  23  24
ATOM     24  C   UNL     1     -16.635  -0.377  19.070  1.00  0.00    -0.000 C 
BRANCH  24  25
ATOM     25  C   UNL     1     -17.557  -1.605  19.094  1.00  0.00    -0.003 C 
ATOM     26  C   UNL     1     -18.363  -1.710  17.802  1.00  0.00     0.004 C 
ENDBRANCH  24  25
ENDBRANCH  23  24
ENDBRANCH  22  23
ENDBRANCH  21  22
ENDBRANCH  20  21
ENDBRANCH  19  20
ENDBRANCH  18  19
ENDBRANCH  17  18
ENDBRANCH  16  17
ENDBRANCH  15  16
ENDBRANCH   1  15
TORSDOF 22
ENDMDL
MODEL 8
REMARK VINA RESULT:    -4.777     13.729     16.134
REMARK INTER + INTRA:         -14.439
REMARK INTER:                 -10.747
REMARK INTRA:                  -3.692
REMARK UNBOUND:                -3.519
REMARK SMILES CCCCCCCCCCCCCCCCCCCCCCCC(=O)[O-]
REMARK SMILES IDX 13 1 14 2 15 3 16 4 17 5 18 6 19 7 20 8 21 9 22 10 23 11
REMARK SMILES IDX 24 12 25 13 26 14 12 15 11 16 10 17 9 18 8 19 7 20 6 21 5 22
REMARK SMILES IDX 4 23 3 24 2 25 1 26
REMARK H PARENT
REMARK Flexibility Score: inf
ROOT
ATOM      1  C   UNL     1     -16.617  -4.588  22.274  1.00  0.00     0.000 C 
ENDROOT
BRANCH   1   2
ATOM      2  C   UNL     1     -18.150  -4.607  22.446  1.00  0.00     0.000 C 
BRANCH   2   3
ATOM      3  C   UNL     1     -18.816  -5.980  22.223  1.00  0.00     0.000 C 
BRANCH   3   4
ATOM      4  C   UNL     1     -18.980  -6.395  20.750  1.00  0.00     0.000 C 
BRANCH   4   5
ATOM      5  C   UNL     1     -19.537  -5.264  19.870  1.00  0.00     0.000 C 
BRANCH   5   6
ATOM      6  C   UNL     1     -18.585  -4.885  18.723  1.00  0.00     0.000 C 
BRANCH   6   7
ATOM      7  C   UNL     1     -18.191  -3.401  18.743  1.00  0.00     0.000 C 
BRANCH   7   8
ATOM      8  C   UNL     1     -18.706  -2.678  17.487  1.00  0.00     0.000 C 
BRANCH   8   9
ATOM      9  C   UNL     1     -19.381  -3.635  16.490  1.00  0.00     0.000 C 
BRANCH   9  10
ATOM     10  C   UNL     1     -20.829  -3.226  16.164  1.00  0.00     0.006 C 
BRANCH  10  11
ATOM     11  C   UNL     1     -21.843  -3.879  17.113  1.00  0.00     0.053 C 
BRANCH  11  12
ATOM     12  C   UNL     1     -23.213  -3.938  16.509  1.00  0.00     0.041 C 
ATOM     13  O   UNL     1     -23.600  -3.029  15.726  1.00  0.00    -0.550 OA
ATOM     14  O   UNL     1     -24.076  -4.976  16.841  1.00  0.00    -0.550 OA
ENDBRANCH  11  12
ENDBRANCH  10  11
ENDBRANCH   9  10
ENDBRANCH   8   9
ENDBRANCH   7   8
ENDBRANCH   6   7
ENDBRANCH   5   6
ENDBRANCH   4   5
ENDBRANCH   3   4
ENDBRANCH   2   3
ENDBRANCH   1   2
BRANCH   1  15
ATOM     15  C   UNL     1     -15.923  -5.956  22.432  1.00  0.00     0.000 C 
BRANCH  15  16
ATOM     16  C   UNL     1     -14.972  -6.345  21.285  1.00  0.00     0.000 C 
BRANCH  16  17
ATOM     17  C   UNL     1     -15.299  -5.626  19.966  1.00  0.00     0.000 C 
BRANCH  17  18
ATOM     18  C   UNL     1     -15.228  -6.555  18.738  1.00  0.00    -0.000 C 
BRANCH  18  19
ATOM     19  C   UNL     1     -14.591  -5.940  17.479  1.00  0.00    -0.000 C 
BRANCH  19  20
ATOM     20  C   UNL     1     -15.486  -4.885  16.805  1.00  0.00    -0.000 C 
BRANCH  20  21
ATOM     21  C   UNL     1     -14.717  -3.602  16.449  1.00  0.00    -0.000 C 
BRANCH  21  22
ATOM     22  C   UNL     1     -13.897  -3.051  17.626  1.00  0.00    -0.000 C 
BRANCH  22  23
ATOM     23  C   UNL     1     -14.693  -1.987  18.396  1.00  0.00    -0.000 C 
BRANCH  23  24
ATOM     24  C   UNL     1     -15.540  -1.098  17.471  1.00  0.00    -0.000 C 
BRANCH  24  25
ATOM     25  C   UNL     1     -15.117   0.377  17.521  1.00  0.00    -0.003 C 
ATOM     26  C   UNL     1     -13.974   0.653  16.547  1.00  0.00     0.004 C 
ENDBRANCH  24  25
ENDBRANCH  23  24
ENDBRANCH  22  23
ENDBRANCH  21  22
ENDBRANCH  20  21
ENDBRANCH  19  20
ENDBRANCH  18  19
ENDBRANCH  17  18
ENDBRANCH  16  17
ENDBRANCH  15  16
ENDBRANCH   1  15
TORSDOF 22
ENDMDL
MODEL 9
REMARK VINA RESULT:    -4.762     10.243     14.974
REMARK INTER + INTRA:         -14.406
REMARK INTER:                 -10.190
REMARK INTRA:                  -4.216
REMARK UNBOUND:                -3.519
REMARK SMILES CCCCCCCCCCCCCCCCCCCCCCCC(=O)[O-]
REMARK SMILES IDX 13 1 14 2 15 3 16 4 17 5 18 6 19 7 20 8 21 9 22 10 23 11
REMARK SMILES IDX 24 12 25 13 26 14 12 15 11 16 10 17 9 18 8 19 7 20 6 21 5 22
REMARK SMILES IDX 4 23 3 24 2 25 1 26
REMARK H PARENT
REMARK Flexibility Score: inf
ROOT
ATOM      1  C   UNL     1     -14.793  -6.323  20.624  1.00  0.00     0.000 C 
ENDROOT
BRANCH   1   2
ATOM      2  C   UNL     1     -15.546  -6.421  21.966  1.00  0.00     0.000 C 
BRANCH   2   3
ATOM      3  C   UNL     1     -16.346  -5.164  22.361  1.00  0.00     0.000 C 
BRANCH   3   4
ATOM      4  C   UNL     1     -17.850  -5.218  22.037  1.00  0.00     0.000 C 
BRANCH   4   5
ATOM      5  C   UNL     1     -18.683  -4.269  22.915  1.00  0.00     0.000 C 
BRANCH   5   6
ATOM      6  C   UNL     1     -18.886  -2.890  22.265  1.00  0.00     0.000 C 
BRANCH   6   7
ATOM      7  C   UNL     1     -18.748  -1.735  23.267  1.00  0.00     0.000 C 
BRANCH   7   8
ATOM      8  C   UNL     1     -17.366  -1.753  23.940  1.00  0.00     0.000 C 
BRANCH   8   9
ATOM      9  C   UNL     1     -16.443  -0.635  23.427  1.00  0.00     0.000 C 
BRANCH   9  10
ATOM     10  C   UNL     1     -15.690  -1.030  22.143  1.00  0.00     0.006 C 
BRANCH  10  11
ATOM     11  C   UNL     1     -14.450  -0.158  21.907  1.00  0.00     0.053 C 
BRANCH  11  12
ATOM     12  C   UNL     1     -14.735   0.972  20.966  1.00  0.00     0.041 C 
ATOM     13  O   UNL     1     -15.038   2.110  21.416  1.00  0.00    -0.550 OA
ATOM     14  O   UNL     1     -14.704   0.759  19.593  1.00  0.00    -0.550 OA
ENDBRANCH  11  12
ENDBRANCH  10  11
ENDBRANCH   9  10
ENDBRANCH   8   9
ENDBRANCH   7   8
ENDBRANCH   6   7
ENDBRANCH   5   6
ENDBRANCH   4   5
ENDBRANCH   3   4
ENDBRANCH   2   3
ENDBRANCH   1   2
BRANCH   1  15
ATOM     15  C   UNL     1     -15.633  -6.657  19.375  1.00  0.00     0.000 C 
BRANCH  15  16
ATOM     16  C   UNL     1     -14.945  -6.375  18.026  1.00  0.00     0.000 C 
BRANCH  16  17
ATOM     17  C   UNL     1     -15.941  -6.256  16.861  1.00  0.00     0.000 C 
BRANCH  17  18
ATOM     18  C   UNL     1     -15.647  -5.059  15.935  1.00  0.00    -0.000 C 
BRANCH  18  19
ATOM     19  C   UNL     1     -14.467  -4.167  16.361  1.00  0.00    -0.000 C 
BRANCH  19  20
ATOM     20  C   UNL     1     -14.912  -2.798  16.905  1.00  0.00    -0.000 C 
BRANCH  20  21
ATOM     21  C   UNL     1     -14.498  -2.584  18.370  1.00  0.00    -0.000 C 
BRANCH  21  22
ATOM     22  C   UNL     1     -15.589  -3.007  19.367  1.00  0.00    -0.000 C 
BRANCH  22  23
ATOM     23  C   UNL     1     -16.981  -2.604  18.856  1.00  0.00    -0.000 C 
BRANCH  23  24
ATOM     24  C   UNL     1     -17.925  -3.807  18.702  1.00  0.00    -0.000 C 
BRANCH  24  25
ATOM     25  C   UNL     1     -18.730  -3.760  17.394  1.00  0.00    -0.003 C 
ATOM     26  C   UNL     1     -19.219  -2.344  17.102  1.00  0.00     0.004 C 
ENDBRANCH  24  25
ENDBRANCH  23  24
ENDBRANCH  22  23
ENDBRANCH  21  22
ENDBRANCH  20  21
ENDBRANCH  19  20
ENDBRANCH  18  19
ENDBRANCH  17  18
ENDBRANCH  16  17
ENDBRANCH  15  16
ENDBRANCH   1  15
TORSDOF 22
ENDMDL
