MODEL 1
REMARK VINA RESULT:    -5.753      0.000      0.000
REMARK INTER + INTRA:          -7.031
REMARK INTER:                  -6.762
REMARK INTRA:                  -0.269
REMARK UNBOUND:                -0.269
REMARK SMILES O=c1cc(-c2ccc(O)c(O)c2)oc2cc(O)cc(O)c12
REMARK SMILES IDX 4 1 3 2 2 3 1 4 21 5 19 6 18 7 16 8 15 9 14 10 13 11 5 12
REMARK SMILES IDX 6 13 7 14 8 15 12 16 10 17 9 18 11 20 20 22 17 24
REMARK H PARENT 9 19 11 21 20 23 17 25
REMARK Flexibility Score: inf
ROOT
ATOM      1  C   UNL     1      27.533  -0.355  -7.511  1.00  0.00     0.138 A 
ATOM      2  C   UNL     1      26.580  -1.214  -6.946  1.00  0.00     0.100 A 
ATOM      3  C   UNL     1      26.976  -2.460  -6.460  1.00  0.00     0.197 A 
ATOM      4  O   UNL     1      26.089  -3.230  -6.010  1.00  0.00    -0.289 OA
ATOM      5  C   UNL     1      28.342  -2.832  -6.506  1.00  0.00     0.107 A 
ATOM      6  C   UNL     1      28.867  -4.063  -6.009  1.00  0.00     0.134 A 
ATOM      7  C   UNL     1      30.223  -4.362  -6.200  1.00  0.00     0.093 A 
ATOM      8  C   UNL     1      31.082  -3.450  -6.819  1.00  0.00     0.123 A 
ATOM      9  C   UNL     1      30.589  -2.226  -7.262  1.00  0.00     0.094 A 
ATOM     10  C   UNL     1      29.235  -1.912  -7.117  1.00  0.00     0.146 A 
ATOM     11  O   UNL     1      28.803  -0.740  -7.571  1.00  0.00    -0.456 OA
ENDROOT
BRANCH   1  12
ATOM     12  C   UNL     1      27.167   0.984  -8.041  1.00  0.00     0.021 A 
ATOM     13  C   UNL     1      26.476   1.134  -9.258  1.00  0.00     0.016 A 
ATOM     14  C   UNL     1      26.154   2.407  -9.737  1.00  0.00     0.051 A 
ATOM     15  C   UNL     1      26.522   3.549  -9.015  1.00  0.00     0.157 A 
ATOM     16  C   UNL     1      27.545   2.136  -7.329  1.00  0.00     0.062 A 
ATOM     17  C   UNL     1      27.223   3.412  -7.807  1.00  0.00     0.158 A 
BRANCH  15  18
ATOM     18  O   UNL     1      26.198   4.817  -9.496  1.00  0.00    -0.504 OA
ATOM     19  H   UNL     1      25.410   5.338  -9.130  1.00  0.00     0.293 HD
ENDBRANCH  15  18
BRANCH  17  20
ATOM     20  O   UNL     1      27.607   4.529  -7.065  1.00  0.00    -0.504 OA
ATOM     21  H   UNL     1      27.180   4.757  -6.176  1.00  0.00     0.293 HD
ENDBRANCH  17  20
ENDBRANCH   1  12
BRANCH   6  22
ATOM     22  O   UNL     1      28.116  -5.009  -5.306  1.00  0.00    -0.507 OA
ATOM     23  H   UNL     1      27.234  -5.391  -5.610  1.00  0.00     0.293 HD
ENDBRANCH   6  22
BRANCH   8  24
ATOM     24  O   UNL     1      32.432  -3.750  -6.990  1.00  0.00    -0.508 OA
ATOM     25  H   UNL     1      32.969  -3.358  -7.754  1.00  0.00     0.293 HD
ENDBRANCH   8  24
TORSDOF 5
ENDMDL
MODEL 2
REMARK VINA RESULT:    -5.528      1.932      7.496
REMARK INTER + INTRA:          -6.767
REMARK INTER:                  -6.505
REMARK INTRA:                  -0.262
REMARK UNBOUND:                -0.269
REMARK SMILES O=c1cc(-c2ccc(O)c(O)c2)oc2cc(O)cc(O)c12
REMARK SMILES IDX 4 1 3 2 2 3 1 4 21 5 19 6 18 7 16 8 15 9 14 10 13 11 5 12
REMARK SMILES IDX 6 13 7 14 8 15 12 16 10 17 9 18 11 20 20 22 17 24
REMARK H PARENT 9 19 11 21 20 23 17 25
REMARK Flexibility Score: inf
ROOT
ATOM      1  C   UNL     1      27.138   1.234  -7.492  1.00  0.00     0.138 A 
ATOM      2  C   UNL     1      26.893   1.717  -8.785  1.00  0.00     0.100 A 
ATOM      3  C   UNL     1      26.390   3.007  -8.956  1.00  0.00     0.197 A 
ATOM      4  O   UNL     1      26.128   3.391 -10.125  1.00  0.00    -0.289 OA
ATOM      5  C   UNL     1      26.168   3.832  -7.827  1.00  0.00     0.107 A 
ATOM      6  C   UNL     1      25.691   5.176  -7.881  1.00  0.00     0.134 A 
ATOM      7  C   UNL     1      25.415   5.860  -6.690  1.00  0.00     0.093 A 
ATOM      8  C   UNL     1      25.654   5.268  -5.447  1.00  0.00     0.123 A 
ATOM      9  C   UNL     1      26.167   3.975  -5.384  1.00  0.00     0.094 A 
ATOM     10  C   UNL     1      26.419   3.254  -6.553  1.00  0.00     0.146 A 
ATOM     11  O   UNL     1      26.891   2.016  -6.446  1.00  0.00    -0.456 OA
ENDROOT
BRANCH   1  12
ATOM     12  C   UNL     1      27.675  -0.130  -7.252  1.00  0.00     0.021 A 
ATOM     13  C   UNL     1      26.829  -1.219  -6.968  1.00  0.00     0.016 A 
ATOM     14  C   UNL     1      27.364  -2.489  -6.736  1.00  0.00     0.051 A 
ATOM     15  C   UNL     1      28.749  -2.692  -6.777  1.00  0.00     0.157 A 
ATOM     16  C   UNL     1      29.065  -0.340  -7.277  1.00  0.00     0.062 A 
ATOM     17  C   UNL     1      29.603  -1.611  -7.046  1.00  0.00     0.158 A 
BRANCH  15  18
ATOM     18  O   UNL     1      29.278  -3.962  -6.546  1.00  0.00    -0.504 OA
ATOM     19  H   UNL     1      30.217  -4.088  -6.187  1.00  0.00     0.293 HD
ENDBRANCH  15  18
BRANCH  17  20
ATOM     20  O   UNL     1      30.986  -1.779  -7.089  1.00  0.00    -0.504 OA
ATOM     21  H   UNL     1      31.528  -1.569  -7.918  1.00  0.00     0.293 HD
ENDBRANCH  17  20
ENDBRANCH   1  12
BRANCH   6  22
ATOM     22  O   UNL     1      25.494   5.890  -9.067  1.00  0.00    -0.507 OA
ATOM     23  H   UNL     1      25.037   5.531  -9.891  1.00  0.00     0.293 HD
ENDBRANCH   6  22
BRANCH   8  24
ATOM     24  O   UNL     1      25.392   5.962  -4.268  1.00  0.00    -0.508 OA
ATOM     25  H   UNL     1      25.163   5.478  -3.408  1.00  0.00     0.293 HD
ENDBRANCH   8  24
TORSDOF 5
ENDMDL
MODEL 3
REMARK VINA RESULT:    -5.433      1.210      2.735
REMARK INTER + INTRA:          -6.655
REMARK INTER:                  -6.391
REMARK INTRA:                  -0.264
REMARK UNBOUND:                -0.269
REMARK SMILES O=c1cc(-c2ccc(O)c(O)c2)oc2cc(O)cc(O)c12
REMARK SMILES IDX 4 1 3 2 2 3 1 4 21 5 19 6 18 7 16 8 15 9 14 10 13 11 5 12
REMARK SMILES IDX 6 13 7 14 8 15 12 16 10 17 9 18 11 20 20 22 17 24
REMARK H PARENT 9 19 11 21 20 23 17 25
REMARK Flexibility Score: inf
ROOT
ATOM      1  C   UNL     1      27.761  -0.265  -7.507  1.00  0.00     0.138 A 
ATOM      2  C   UNL     1      29.128  -0.578  -7.503  1.00  0.00     0.100 A 
ATOM      3  C   UNL     1      29.552  -1.807  -6.997  1.00  0.00     0.197 A 
ATOM      4  O   UNL     1      30.788  -2.035  -6.956  1.00  0.00    -0.289 OA
ATOM      5  C   UNL     1      28.599  -2.743  -6.528  1.00  0.00     0.107 A 
ATOM      6  C   UNL     1      28.912  -4.040  -6.021  1.00  0.00     0.134 A 
ATOM      7  C   UNL     1      27.891  -4.840  -5.492  1.00  0.00     0.093 A 
ATOM      8  C   UNL     1      26.561  -4.412  -5.504  1.00  0.00     0.123 A 
ATOM      9  C   UNL     1      26.239  -3.168  -6.040  1.00  0.00     0.094 A 
ATOM     10  C   UNL     1      27.238  -2.333  -6.544  1.00  0.00     0.146 A 
ATOM     11  O   UNL     1      26.889  -1.147  -7.031  1.00  0.00    -0.456 OA
ENDROOT
BRANCH   1  12
ATOM     12  C   UNL     1      27.253   1.027  -8.035  1.00  0.00     0.021 A 
ATOM     13  C   UNL     1      26.473   1.094  -9.205  1.00  0.00     0.016 A 
ATOM     14  C   UNL     1      26.017   2.325  -9.684  1.00  0.00     0.051 A 
ATOM     15  C   UNL     1      26.339   3.509  -9.009  1.00  0.00     0.157 A 
ATOM     16  C   UNL     1      27.582   2.222  -7.372  1.00  0.00     0.062 A 
ATOM     17  C   UNL     1      27.127   3.457  -7.849  1.00  0.00     0.158 A 
BRANCH  15  18
ATOM     18  O   UNL     1      25.882   4.736  -9.490  1.00  0.00    -0.504 OA
ATOM     19  H   UNL     1      26.458   5.322 -10.082  1.00  0.00     0.293 HD
ENDBRANCH  15  18
BRANCH  17  20
ATOM     20  O   UNL     1      27.468   4.618  -7.156  1.00  0.00    -0.504 OA
ATOM     21  H   UNL     1      27.495   5.525  -7.606  1.00  0.00     0.293 HD
ENDBRANCH  17  20
ENDBRANCH   1  12
BRANCH   6  22
ATOM     22  O   UNL     1      30.194  -4.598  -6.035  1.00  0.00    -0.507 OA
ATOM     23  H   UNL     1      30.719  -4.863  -5.217  1.00  0.00     0.293 HD
ENDBRANCH   6  22
BRANCH   8  24
ATOM     24  O   UNL     1      25.550  -5.221  -4.989  1.00  0.00    -0.508 OA
ATOM     25  H   UNL     1      25.055  -4.976  -4.140  1.00  0.00     0.293 HD
ENDBRANCH   8  24
TORSDOF 5
ENDMDL
MODEL 4
REMARK VINA RESULT:    -5.202      1.660      6.772
REMARK INTER + INTRA:          -6.384
REMARK INTER:                  -6.067
REMARK INTRA:                  -0.317
REMARK UNBOUND:                -0.269
REMARK SMILES O=c1cc(-c2ccc(O)c(O)c2)oc2cc(O)cc(O)c12
REMARK SMILES IDX 4 1 3 2 2 3 1 4 21 5 19 6 18 7 16 8 15 9 14 10 13 11 5 12
REMARK SMILES IDX 6 13 7 14 8 15 12 16 10 17 9 18 11 20 20 22 17 24
REMARK H PARENT 9 19 11 21 20 23 17 25
REMARK Flexibility Score: inf
ROOT
ATOM      1  C   UNL     1      27.953  -2.007  -6.673  1.00  0.00     0.138 A 
ATOM      2  C   UNL     1      26.633  -2.180  -6.232  1.00  0.00     0.100 A 
ATOM      3  C   UNL     1      25.727  -1.125  -6.337  1.00  0.00     0.197 A 
ATOM      4  O   UNL     1      24.567  -1.293  -5.881  1.00  0.00    -0.289 OA
ATOM      5  C   UNL     1      26.134   0.099  -6.922  1.00  0.00     0.107 A 
ATOM      6  C   UNL     1      25.288   1.232  -7.113  1.00  0.00     0.134 A 
ATOM      7  C   UNL     1      25.830   2.423  -7.613  1.00  0.00     0.093 A 
ATOM      8  C   UNL     1      27.176   2.503  -7.981  1.00  0.00     0.123 A 
ATOM      9  C   UNL     1      27.998   1.388  -7.846  1.00  0.00     0.094 A 
ATOM     10  C   UNL     1      27.495   0.196  -7.318  1.00  0.00     0.146 A 
ATOM     11  O   UNL     1      28.320  -0.838  -7.189  1.00  0.00    -0.456 OA
ENDROOT
BRANCH   1  12
ATOM     12  C   UNL     1      28.959  -3.096  -6.588  1.00  0.00     0.021 A 
ATOM     13  C   UNL     1      28.596  -4.414  -6.250  1.00  0.00     0.016 A 
ATOM     14  C   UNL     1      29.566  -5.416  -6.168  1.00  0.00     0.051 A 
ATOM     15  C   UNL     1      30.913  -5.120  -6.412  1.00  0.00     0.157 A 
ATOM     16  C   UNL     1      30.315  -2.804  -6.819  1.00  0.00     0.062 A 
ATOM     17  C   UNL     1      31.288  -3.807  -6.737  1.00  0.00     0.158 A 
BRANCH  15  18
ATOM     18  O   UNL     1      31.878  -6.124  -6.330  1.00  0.00    -0.504 OA
ATOM     19  H   UNL     1      32.239  -6.581  -7.158  1.00  0.00     0.293 HD
ENDBRANCH  15  18
BRANCH  17  20
ATOM     20  O   UNL     1      32.621  -3.478  -6.983  1.00  0.00    -0.504 OA
ATOM     21  H   UNL     1      33.140  -3.878  -7.755  1.00  0.00     0.293 HD
ENDBRANCH  17  20
ENDBRANCH   1  12
BRANCH   6  22
ATOM     22  O   UNL     1      23.914   1.237  -6.852  1.00  0.00    -0.507 OA
ATOM     23  H   UNL     1      23.192   1.170  -7.552  1.00  0.00     0.293 HD
ENDBRANCH   6  22
BRANCH   8  24
ATOM     24  O   UNL     1      27.703   3.687  -8.493  1.00  0.00    -0.508 OA
ATOM     25  H   UNL     1      27.397   4.592  -8.156  1.00  0.00     0.293 HD
ENDBRANCH   8  24
TORSDOF 5
ENDMDL
MODEL 5
REMARK VINA RESULT:    -5.009      4.320      6.979
REMARK INTER + INTRA:          -6.157
REMARK INTER:                  -5.887
REMARK INTRA:                  -0.270
REMARK UNBOUND:                -0.269
REMARK SMILES O=c1cc(-c2ccc(O)c(O)c2)oc2cc(O)cc(O)c12
REMARK SMILES IDX 4 1 3 2 2 3 1 4 21 5 19 6 18 7 16 8 15 9 14 10 13 11 5 12
REMARK SMILES IDX 6 13 7 14 8 15 12 16 10 17 9 18 11 20 20 22 17 24
REMARK H PARENT 9 19 11 21 20 23 17 25
REMARK Flexibility Score: inf
ROOT
ATOM      1  C   UNL     1      25.469   5.294  -6.142  1.00  0.00     0.138 A 
ATOM      2  C   UNL     1      26.547   5.114  -7.021  1.00  0.00     0.100 A 
ATOM      3  C   UNL     1      26.907   3.825  -7.416  1.00  0.00     0.197 A 
ATOM      4  O   UNL     1      27.912   3.693  -8.160  1.00  0.00    -0.289 OA
ATOM      5  C   UNL     1      26.160   2.713  -6.957  1.00  0.00     0.107 A 
ATOM      6  C   UNL     1      26.414   1.357  -7.320  1.00  0.00     0.134 A 
ATOM      7  C   UNL     1      25.668   0.331  -6.724  1.00  0.00     0.093 A 
ATOM      8  C   UNL     1      24.641   0.618  -5.821  1.00  0.00     0.123 A 
ATOM      9  C   UNL     1      24.353   1.941  -5.498  1.00  0.00     0.094 A 
ATOM     10  C   UNL     1      25.101   2.985  -6.050  1.00  0.00     0.146 A 
ATOM     11  O   UNL     1      24.804   4.232  -5.700  1.00  0.00    -0.456 OA
ENDROOT
BRANCH   1  12
ATOM     12  C   UNL     1      25.041   6.643  -5.691  1.00  0.00     0.021 A 
ATOM     13  C   UNL     1      24.255   7.481  -6.504  1.00  0.00     0.016 A 
ATOM     14  C   UNL     1      23.875   8.749  -6.056  1.00  0.00     0.051 A 
ATOM     15  C   UNL     1      24.279   9.205  -4.796  1.00  0.00     0.157 A 
ATOM     16  C   UNL     1      25.453   7.113  -4.432  1.00  0.00     0.062 A 
ATOM     17  C   UNL     1      25.074   8.383  -3.981  1.00  0.00     0.158 A 
BRANCH  15  18
ATOM     18  O   UNL     1      23.898  10.470  -4.352  1.00  0.00    -0.504 OA
ATOM     19  H   UNL     1      24.536  11.068  -3.840  1.00  0.00     0.293 HD
ENDBRANCH  15  18
BRANCH  17  20
ATOM     20  O   UNL     1      25.497   8.809  -2.722  1.00  0.00    -0.504 OA
ATOM     21  H   UNL     1      26.353   8.472  -2.299  1.00  0.00     0.293 HD
ENDBRANCH  17  20
ENDBRANCH   1  12
BRANCH   6  22
ATOM     22  O   UNL     1      27.361   0.963  -8.271  1.00  0.00    -0.507 OA
ATOM     23  H   UNL     1      28.098   1.549  -8.631  1.00  0.00     0.293 HD
ENDBRANCH   6  22
BRANCH   8  24
ATOM     24  O   UNL     1      23.895  -0.408  -5.245  1.00  0.00    -0.508 OA
ATOM     25  H   UNL     1      23.646  -1.240  -5.767  1.00  0.00     0.293 HD
ENDBRANCH   8  24
TORSDOF 5
ENDMDL
MODEL 6
REMARK VINA RESULT:    -4.906      2.590      7.448
REMARK INTER + INTRA:          -6.036
REMARK INTER:                  -5.726
REMARK INTRA:                  -0.310
REMARK UNBOUND:                -0.269
REMARK SMILES O=c1cc(-c2ccc(O)c(O)c2)oc2cc(O)cc(O)c12
REMARK SMILES IDX 4 1 3 2 2 3 1 4 21 5 19 6 18 7 16 8 15 9 14 10 13 11 5 12
REMARK SMILES IDX 6 13 7 14 8 15 12 16 10 17 9 18 11 20 20 22 17 24
REMARK H PARENT 9 19 11 21 20 23 17 25
REMARK Flexibility Score: inf
ROOT
ATOM      1  C   UNL     1      26.230   0.231  -7.009  1.00  0.00     0.138 A 
ATOM      2  C   UNL     1      26.350   0.456  -8.388  1.00  0.00     0.100 A 
ATOM      3  C   UNL     1      26.312   1.761  -8.879  1.00  0.00     0.197 A 
ATOM      4  O   UNL     1      26.366   1.926 -10.125  1.00  0.00    -0.289 OA
ATOM      5  C   UNL     1      26.189   2.849  -7.981  1.00  0.00     0.107 A 
ATOM      6  C   UNL     1      26.172   4.223  -8.365  1.00  0.00     0.134 A 
ATOM      7  C   UNL     1      25.946   5.209  -7.395  1.00  0.00     0.093 A 
ATOM      8  C   UNL     1      25.792   4.871  -6.048  1.00  0.00     0.123 A 
ATOM      9  C   UNL     1      25.856   3.537  -5.656  1.00  0.00     0.094 A 
ATOM     10  C   UNL     1      26.046   2.529  -6.604  1.00  0.00     0.146 A 
ATOM     11  O   UNL     1      26.083   1.267  -6.190  1.00  0.00    -0.456 OA
ENDROOT
BRANCH   1  12
ATOM     12  C   UNL     1      26.267  -1.137  -6.430  1.00  0.00     0.021 A 
ATOM     13  C   UNL     1      26.902  -2.204  -7.093  1.00  0.00     0.016 A 
ATOM     14  C   UNL     1      26.912  -3.483  -6.529  1.00  0.00     0.051 A 
ATOM     15  C   UNL     1      26.284  -3.719  -5.300  1.00  0.00     0.157 A 
ATOM     16  C   UNL     1      25.627  -1.386  -5.204  1.00  0.00     0.062 A 
ATOM     17  C   UNL     1      25.635  -2.666  -4.637  1.00  0.00     0.158 A 
BRANCH  15  18
ATOM     18  O   UNL     1      26.297  -4.996  -4.741  1.00  0.00    -0.504 OA
ATOM     19  H   UNL     1      26.939  -5.243  -3.997  1.00  0.00     0.293 HD
ENDBRANCH  15  18
BRANCH  17  20
ATOM     20  O   UNL     1      24.997  -2.869  -3.414  1.00  0.00    -0.504 OA
ATOM     21  H   UNL     1      23.988  -2.917  -3.335  1.00  0.00     0.293 HD
ENDBRANCH  17  20
ENDBRANCH   1  12
BRANCH   6  22
ATOM     22  O   UNL     1      26.394   4.676  -9.669  1.00  0.00    -0.507 OA
ATOM     23  H   UNL     1      26.799   5.566  -9.912  1.00  0.00     0.293 HD
ENDBRANCH   6  22
BRANCH   8  24
ATOM     24  O   UNL     1      25.583   5.860  -5.088  1.00  0.00    -0.508 OA
ATOM     25  H   UNL     1      24.778   6.474  -5.126  1.00  0.00     0.293 HD
ENDBRANCH   8  24
TORSDOF 5
ENDMDL
MODEL 7
REMARK VINA RESULT:    -4.865      3.427      7.307
REMARK INTER + INTRA:          -5.987
REMARK INTER:                  -5.692
REMARK INTRA:                  -0.295
REMARK UNBOUND:                -0.269
REMARK SMILES O=c1cc(-c2ccc(O)c(O)c2)oc2cc(O)cc(O)c12
REMARK SMILES IDX 4 1 3 2 2 3 1 4 21 5 19 6 18 7 16 8 15 9 14 10 13 11 5 12
REMARK SMILES IDX 6 13 7 14 8 15 12 16 10 17 9 18 11 20 20 22 17 24
REMARK H PARENT 9 19 11 21 20 23 17 25
REMARK Flexibility Score: inf
ROOT
ATOM      1  C   UNL     1      29.857  -3.637  -6.581  1.00  0.00     0.138 A 
ATOM      2  C   UNL     1      29.408  -2.421  -7.117  1.00  0.00     0.100 A 
ATOM      3  C   UNL     1      28.175  -1.905  -6.719  1.00  0.00     0.197 A 
ATOM      4  O   UNL     1      27.776  -0.842  -7.260  1.00  0.00    -0.289 OA
ATOM      5  C   UNL     1      27.403  -2.591  -5.751  1.00  0.00     0.107 A 
ATOM      6  C   UNL     1      26.146  -2.143  -5.245  1.00  0.00     0.134 A 
ATOM      7  C   UNL     1      25.427  -2.958  -4.361  1.00  0.00     0.093 A 
ATOM      8  C   UNL     1      25.947  -4.179  -3.922  1.00  0.00     0.123 A 
ATOM      9  C   UNL     1      27.194  -4.602  -4.372  1.00  0.00     0.094 A 
ATOM     10  C   UNL     1      27.920  -3.828  -5.280  1.00  0.00     0.146 A 
ATOM     11  O   UNL     1      29.099  -4.278  -5.698  1.00  0.00    -0.456 OA
ENDROOT
BRANCH   1  12
ATOM     12  C   UNL     1      31.162  -4.231  -6.966  1.00  0.00     0.021 A 
ATOM     13  C   UNL     1      31.589  -4.276  -8.307  1.00  0.00     0.016 A 
ATOM     14  C   UNL     1      32.818  -4.850  -8.640  1.00  0.00     0.051 A 
ATOM     15  C   UNL     1      33.638  -5.396  -7.645  1.00  0.00     0.157 A 
ATOM     16  C   UNL     1      31.985  -4.793  -5.974  1.00  0.00     0.062 A 
ATOM     17  C   UNL     1      33.217  -5.370  -6.306  1.00  0.00     0.158 A 
BRANCH  15  18
ATOM     18  O   UNL     1      34.864  -5.967  -7.982  1.00  0.00    -0.504 OA
ATOM     19  H   UNL     1      35.695  -5.403  -8.110  1.00  0.00     0.293 HD
ENDBRANCH  15  18
BRANCH  17  20
ATOM     20  O   UNL     1      34.008  -5.908  -5.291  1.00  0.00    -0.504 OA
ATOM     21  H   UNL     1      34.899  -6.350  -5.481  1.00  0.00     0.293 HD
ENDBRANCH  17  20
ENDBRANCH   1  12
BRANCH   6  22
ATOM     22  O   UNL     1      25.572  -0.906  -5.555  1.00  0.00    -0.507 OA
ATOM     23  H   UNL     1      24.968  -0.729  -6.342  1.00  0.00     0.293 HD
ENDBRANCH   6  22
BRANCH   8  24
ATOM     24  O   UNL     1      25.231  -4.976  -3.030  1.00  0.00    -0.508 OA
ATOM     25  H   UNL     1      24.231  -4.869  -2.910  1.00  0.00     0.293 HD
ENDBRANCH   8  24
TORSDOF 5
ENDMDL
MODEL 8
REMARK VINA RESULT:    -4.628     13.093     15.755
REMARK INTER + INTRA:          -5.709
REMARK INTER:                  -5.405
REMARK INTRA:                  -0.304
REMARK UNBOUND:                -0.269
REMARK SMILES O=c1cc(-c2ccc(O)c(O)c2)oc2cc(O)cc(O)c12
REMARK SMILES IDX 4 1 3 2 2 3 1 4 21 5 19 6 18 7 16 8 15 9 14 10 13 11 5 12
REMARK SMILES IDX 6 13 7 14 8 15 12 16 10 17 9 18 11 20 20 22 17 24
REMARK H PARENT 9 19 11 21 20 23 17 25
REMARK Flexibility Score: inf
ROOT
ATOM      1  C   UNL     1      40.905   4.270  -9.089  1.00  0.00     0.138 A 
ATOM      2  C   UNL     1      39.631   4.518  -9.619  1.00  0.00     0.100 A 
ATOM      3  C   UNL     1      39.160   5.829  -9.697  1.00  0.00     0.197 A 
ATOM      4  O   UNL     1      37.992   6.015 -10.125  1.00  0.00    -0.289 OA
ATOM      5  C   UNL     1      39.984   6.900  -9.275  1.00  0.00     0.107 A 
ATOM      6  C   UNL     1      39.623   8.280  -9.338  1.00  0.00     0.134 A 
ATOM      7  C   UNL     1      40.484   9.244  -8.799  1.00  0.00     0.093 A 
ATOM      8  C   UNL     1      41.717   8.883  -8.250  1.00  0.00     0.123 A 
ATOM      9  C   UNL     1      42.101   7.545  -8.228  1.00  0.00     0.094 A 
ATOM     10  C   UNL     1      41.250   6.556  -8.727  1.00  0.00     0.146 A 
ATOM     11  O   UNL     1      41.647   5.289  -8.670  1.00  0.00    -0.456 OA
ENDROOT
BRANCH   1  12
ATOM     12  C   UNL     1      41.457   2.895  -8.986  1.00  0.00     0.021 A 
ATOM     13  C   UNL     1      41.134   1.894  -9.922  1.00  0.00     0.016 A 
ATOM     14  C   UNL     1      41.661   0.607  -9.793  1.00  0.00     0.051 A 
ATOM     15  C   UNL     1      42.513   0.294  -8.726  1.00  0.00     0.157 A 
ATOM     16  C   UNL     1      42.303   2.569  -7.911  1.00  0.00     0.062 A 
ATOM     17  C   UNL     1      42.832   1.280  -7.780  1.00  0.00     0.158 A 
BRANCH  15  18
ATOM     18  O   UNL     1      43.038  -0.992  -8.602  1.00  0.00    -0.504 OA
ATOM     19  H   UNL     1      44.022  -1.180  -8.756  1.00  0.00     0.293 HD
ENDBRANCH  15  18
BRANCH  17  20
ATOM     20  O   UNL     1      43.674   1.000  -6.704  1.00  0.00    -0.504 OA
ATOM     21  H   UNL     1      44.436   0.336  -6.775  1.00  0.00     0.293 HD
ENDBRANCH  17  20
ENDBRANCH   1  12
BRANCH   6  22
ATOM     22  O   UNL     1      38.453   8.757  -9.936  1.00  0.00    -0.507 OA
ATOM     23  H   UNL     1      37.707   8.180 -10.291  1.00  0.00     0.293 HD
ENDBRANCH   6  22
BRANCH   8  24
ATOM     24  O   UNL     1      42.574   9.852  -7.730  1.00  0.00    -0.508 OA
ATOM     25  H   UNL     1      43.412  10.138  -8.222  1.00  0.00     0.293 HD
ENDBRANCH   8  24
TORSDOF 5
ENDMDL
MODEL 9
REMARK VINA RESULT:    -4.552      3.496      8.799
REMARK INTER + INTRA:          -5.620
REMARK INTER:                  -5.343
REMARK INTRA:                  -0.277
REMARK UNBOUND:                -0.269
REMARK SMILES O=c1cc(-c2ccc(O)c(O)c2)oc2cc(O)cc(O)c12
REMARK SMILES IDX 4 1 3 2 2 3 1 4 21 5 19 6 18 7 16 8 15 9 14 10 13 11 5 12
REMARK SMILES IDX 6 13 7 14 8 15 12 16 10 17 9 18 11 20 20 22 17 24
REMARK H PARENT 9 19 11 21 20 23 17 25
REMARK Flexibility Score: inf
ROOT
ATOM      1  C   UNL     1      25.507   3.624  -7.033  1.00  0.00     0.138 A 
ATOM      2  C   UNL     1      24.976   4.238  -8.176  1.00  0.00     0.100 A 
ATOM      3  C   UNL     1      24.548   5.564  -8.111  1.00  0.00     0.197 A 
ATOM      4  O   UNL     1      24.026   6.069  -9.138  1.00  0.00    -0.289 OA
ATOM      5  C   UNL     1      24.686   6.291  -6.904  1.00  0.00     0.107 A 
ATOM      6  C   UNL     1      24.315   7.658  -6.730  1.00  0.00     0.134 A 
ATOM      7  C   UNL     1      24.407   8.242  -5.459  1.00  0.00     0.093 A 
ATOM      8  C   UNL     1      24.910   7.523  -4.371  1.00  0.00     0.123 A 
ATOM      9  C   UNL     1      25.320   6.204  -4.542  1.00  0.00     0.094 A 
ATOM     10  C   UNL     1      25.209   5.583  -5.788  1.00  0.00     0.146 A 
ATOM     11  O   UNL     1      25.596   4.317  -5.903  1.00  0.00    -0.456 OA
ENDROOT
BRANCH   1  12
ATOM     12  C   UNL     1      25.980   2.216  -7.046  1.00  0.00     0.021 A 
ATOM     13  C   UNL     1      27.021   1.793  -7.893  1.00  0.00     0.016 A 
ATOM     14  C   UNL     1      27.439   0.459  -7.891  1.00  0.00     0.051 A 
ATOM     15  C   UNL     1      26.821  -0.474  -7.050  1.00  0.00     0.157 A 
ATOM     16  C   UNL     1      25.356   1.270  -6.214  1.00  0.00     0.062 A 
ATOM     17  C   UNL     1      25.773  -0.067  -6.210  1.00  0.00     0.158 A 
BRANCH  15  18
ATOM     18  O   UNL     1      27.241  -1.804  -7.049  1.00  0.00    -0.504 OA
ATOM     19  H   UNL     1      26.986  -2.441  -6.304  1.00  0.00     0.293 HD
ENDBRANCH  15  18
BRANCH  17  20
ATOM     20  O   UNL     1      25.134  -0.972  -5.363  1.00  0.00    -0.504 OA
ATOM     21  H   UNL     1      24.753  -0.694  -4.467  1.00  0.00     0.293 HD
ENDBRANCH  17  20
ENDBRANCH   1  12
BRANCH   6  22
ATOM     22  O   UNL     1      23.877   8.490  -7.765  1.00  0.00    -0.507 OA
ATOM     23  H   UNL     1      23.019   8.369  -8.280  1.00  0.00     0.293 HD
ENDBRANCH   6  22
BRANCH   8  24
ATOM     24  O   UNL     1      25.012   8.118  -3.114  1.00  0.00    -0.508 OA
ATOM     25  H   UNL     1      24.261   8.679  -2.731  1.00  0.00     0.293 HD
ENDBRANCH   8  24
TORSDOF 5
ENDMDL
