MODEL 1
REMARK VINA RESULT:    -6.268      0.000      0.000
REMARK INTER + INTRA:          -7.684
REMARK INTER:                  -7.368
REMARK INTRA:                  -0.317
REMARK UNBOUND:                -0.317
REMARK SMILES O=c1cc(-c2ccc(O)c(O)c2)oc2cc(O)cc(O)c12
REMARK SMILES IDX 4 1 3 2 2 3 1 4 21 5 19 6 18 7 16 8 15 9 14 10 13 11 5 12
REMARK SMILES IDX 6 13 7 14 8 15 12 16 10 17 9 18 11 20 20 22 17 24
REMARK H PARENT 9 19 11 21 20 23 17 25
REMARK Flexibility Score: inf
ROOT
ATOM      1  C   UNL     1      27.250   4.374 -14.447  1.00  0.00     0.138 A 
ATOM      2  C   UNL     1      25.949   3.873 -14.626  1.00  0.00     0.100 A 
ATOM      3  C   UNL     1      25.439   2.945 -13.718  1.00  0.00     0.197 A 
ATOM      4  O   UNL     1      24.271   2.501 -13.888  1.00  0.00    -0.289 OA
ATOM      5  C   UNL     1      26.237   2.518 -12.638  1.00  0.00     0.107 A 
ATOM      6  C   UNL     1      25.797   1.581 -11.672  1.00  0.00     0.134 A 
ATOM      7  C   UNL     1      26.656   1.204 -10.629  1.00  0.00     0.093 A 
ATOM      8  C   UNL     1      27.940   1.743 -10.533  1.00  0.00     0.123 A 
ATOM      9  C   UNL     1      28.380   2.669 -11.484  1.00  0.00     0.094 A 
ATOM     10  C   UNL     1      27.541   3.059 -12.530  1.00  0.00     0.146 A 
ATOM     11  O   UNL     1      27.981   3.943 -13.421  1.00  0.00    -0.456 OA
ENDROOT
BRANCH   1  12
ATOM     12  C   UNL     1      27.844   5.362 -15.381  1.00  0.00     0.021 A 
ATOM     13  C   UNL     1      27.189   5.650 -16.591  1.00  0.00     0.016 A 
ATOM     14  C   UNL     1      27.732   6.570 -17.491  1.00  0.00     0.051 A 
ATOM     15  C   UNL     1      28.941   7.210 -17.206  1.00  0.00     0.157 A 
ATOM     16  C   UNL     1      29.070   5.999 -15.104  1.00  0.00     0.062 A 
ATOM     17  C   UNL     1      29.616   6.922 -16.010  1.00  0.00     0.158 A 
BRANCH  15  18
ATOM     18  O   UNL     1      29.456   8.125 -18.124  1.00  0.00    -0.504 OA
ATOM     19  H   UNL     1      30.448   8.322 -18.188  1.00  0.00     0.293 HD
ENDBRANCH  15  18
BRANCH  17  20
ATOM     20  O   UNL     1      30.828   7.548 -15.724  1.00  0.00    -0.504 OA
ATOM     21  H   UNL     1      31.183   7.614 -14.777  1.00  0.00     0.293 HD
ENDBRANCH  17  20
ENDBRANCH   1  12
BRANCH   6  22
ATOM     22  O   UNL     1      24.520   1.025 -11.742  1.00  0.00    -0.507 OA
ATOM     23  H   UNL     1      24.301   0.270 -12.382  1.00  0.00     0.293 HD
ENDBRANCH   6  22
BRANCH   8  24
ATOM     24  O   UNL     1      28.773   1.352  -9.486  1.00  0.00    -0.508 OA
ATOM     25  H   UNL     1      29.492   1.966  -9.123  1.00  0.00     0.293 HD
ENDBRANCH   8  24
TORSDOF 5
ENDMDL
MODEL 2
REMARK VINA RESULT:    -6.247      1.366      6.814
REMARK INTER + INTRA:          -7.659
REMARK INTER:                  -7.344
REMARK INTRA:                  -0.315
REMARK UNBOUND:                -0.317
REMARK SMILES O=c1cc(-c2ccc(O)c(O)c2)oc2cc(O)cc(O)c12
REMARK SMILES IDX 4 1 3 2 2 3 1 4 21 5 19 6 18 7 16 8 15 9 14 10 13 11 5 12
REMARK SMILES IDX 6 13 7 14 8 15 12 16 10 17 9 18 11 20 20 22 17 24
REMARK H PARENT 9 19 11 21 20 23 17 25
REMARK Flexibility Score: inf
ROOT
ATOM      1  C   UNL     1      27.055   4.639 -14.537  1.00  0.00     0.138 A 
ATOM      2  C   UNL     1      26.294   5.095 -15.627  1.00  0.00     0.100 A 
ATOM      3  C   UNL     1      26.819   6.079 -16.466  1.00  0.00     0.197 A 
ATOM      4  O   UNL     1      26.128   6.483 -17.441  1.00  0.00    -0.289 OA
ATOM      5  C   UNL     1      28.100   6.604 -16.206  1.00  0.00     0.107 A 
ATOM      6  C   UNL     1      28.705   7.603 -17.006  1.00  0.00     0.134 A 
ATOM      7  C   UNL     1      29.983   8.078 -16.676  1.00  0.00     0.093 A 
ATOM      8  C   UNL     1      30.665   7.576 -15.566  1.00  0.00     0.123 A 
ATOM      9  C   UNL     1      30.072   6.589 -14.771  1.00  0.00     0.094 A 
ATOM     10  C   UNL     1      28.800   6.102 -15.083  1.00  0.00     0.146 A 
ATOM     11  O   UNL     1      28.258   5.162 -14.314  1.00  0.00    -0.456 OA
ENDROOT
BRANCH   1  12
ATOM     12  C   UNL     1      26.548   3.595 -13.611  1.00  0.00     0.021 A 
ATOM     13  C   UNL     1      25.180   3.273 -13.616  1.00  0.00     0.016 A 
ATOM     14  C   UNL     1      24.677   2.300 -12.749  1.00  0.00     0.051 A 
ATOM     15  C   UNL     1      25.526   1.640 -11.856  1.00  0.00     0.157 A 
ATOM     16  C   UNL     1      27.399   2.937 -12.701  1.00  0.00     0.062 A 
ATOM     17  C   UNL     1      26.892   1.961 -11.828  1.00  0.00     0.158 A 
BRANCH  15  18
ATOM     18  O   UNL     1      24.993   0.673 -11.004  1.00  0.00    -0.504 OA
ATOM     19  H   UNL     1      25.581   0.076 -10.434  1.00  0.00     0.293 HD
ENDBRANCH  15  18
BRANCH  17  20
ATOM     20  O   UNL     1      27.742   1.315 -10.933  1.00  0.00    -0.504 OA
ATOM     21  H   UNL     1      27.764   1.558  -9.949  1.00  0.00     0.293 HD
ENDBRANCH  17  20
ENDBRANCH   1  12
BRANCH   6  22
ATOM     22  O   UNL     1      28.048   8.125 -18.121  1.00  0.00    -0.507 OA
ATOM     23  H   UNL     1      28.540   8.656 -18.830  1.00  0.00     0.293 HD
ENDBRANCH   6  22
BRANCH   8  24
ATOM     24  O   UNL     1      31.933   8.064 -15.260  1.00  0.00    -0.508 OA
ATOM     25  H   UNL     1      32.312   8.007 -14.322  1.00  0.00     0.293 HD
ENDBRANCH   8  24
TORSDOF 5
ENDMDL
MODEL 3
REMARK VINA RESULT:    -6.110      3.048      7.897
REMARK INTER + INTRA:          -7.499
REMARK INTER:                  -7.203
REMARK INTRA:                  -0.296
REMARK UNBOUND:                -0.317
REMARK SMILES O=c1cc(-c2ccc(O)c(O)c2)oc2cc(O)cc(O)c12
REMARK SMILES IDX 4 1 3 2 2 3 1 4 21 5 19 6 18 7 16 8 15 9 14 10 13 11 5 12
REMARK SMILES IDX 6 13 7 14 8 15 12 16 10 17 9 18 11 20 20 22 17 24
REMARK H PARENT 9 19 11 21 20 23 17 25
REMARK Flexibility Score: inf
ROOT
ATOM      1  C   UNL     1      28.173   2.993  -9.707  1.00  0.00     0.138 A 
ATOM      2  C   UNL     1      27.631   2.150 -10.692  1.00  0.00     0.100 A 
ATOM      3  C   UNL     1      27.340   2.668 -11.954  1.00  0.00     0.197 A 
ATOM      4  O   UNL     1      26.853   1.903 -12.831  1.00  0.00    -0.289 OA
ATOM      5  C   UNL     1      27.589   4.028 -12.223  1.00  0.00     0.107 A 
ATOM      6  C   UNL     1      27.323   4.633 -13.475  1.00  0.00     0.134 A 
ATOM      7  C   UNL     1      27.594   5.997 -13.659  1.00  0.00     0.093 A 
ATOM      8  C   UNL     1      28.123   6.765 -12.620  1.00  0.00     0.123 A 
ATOM      9  C   UNL     1      28.387   6.174 -11.380  1.00  0.00     0.094 A 
ATOM     10  C   UNL     1      28.125   4.816 -11.176  1.00  0.00     0.146 A 
ATOM     11  O   UNL     1      28.387   4.276  -9.989  1.00  0.00    -0.456 OA
ENDROOT
BRANCH   1  12
ATOM     12  C   UNL     1      28.501   2.498  -8.347  1.00  0.00     0.021 A 
ATOM     13  C   UNL     1      29.239   3.315  -7.473  1.00  0.00     0.016 A 
ATOM     14  C   UNL     1      29.567   2.869  -6.190  1.00  0.00     0.051 A 
ATOM     15  C   UNL     1      29.175   1.598  -5.761  1.00  0.00     0.157 A 
ATOM     16  C   UNL     1      28.120   1.212  -7.915  1.00  0.00     0.062 A 
ATOM     17  C   UNL     1      28.452   0.763  -6.627  1.00  0.00     0.158 A 
BRANCH  15  18
ATOM     18  O   UNL     1      29.517   1.183  -4.474  1.00  0.00    -0.504 OA
ATOM     19  H   UNL     1      28.817   0.976  -3.772  1.00  0.00     0.293 HD
ENDBRANCH  15  18
BRANCH  17  20
ATOM     20  O   UNL     1      28.068  -0.510  -6.209  1.00  0.00    -0.504 OA
ATOM     21  H   UNL     1      28.741  -1.178  -5.853  1.00  0.00     0.293 HD
ENDBRANCH  17  20
ENDBRANCH   1  12
BRANCH   6  22
ATOM     22  O   UNL     1      26.794   3.891 -14.531  1.00  0.00    -0.507 OA
ATOM     23  H   UNL     1      25.828   3.585 -14.537  1.00  0.00     0.293 HD
ENDBRANCH   6  22
BRANCH   8  24
ATOM     24  O   UNL     1      28.383   8.118 -12.829  1.00  0.00    -0.508 OA
ATOM     25  H   UNL     1      28.402   8.779 -12.062  1.00  0.00     0.293 HD
ENDBRANCH   8  24
TORSDOF 5
ENDMDL
MODEL 4
REMARK VINA RESULT:    -5.617      1.677      7.160
REMARK INTER + INTRA:          -6.918
REMARK INTER:                  -6.639
REMARK INTRA:                  -0.279
REMARK UNBOUND:                -0.317
REMARK SMILES O=c1cc(-c2ccc(O)c(O)c2)oc2cc(O)cc(O)c12
REMARK SMILES IDX 4 1 3 2 2 3 1 4 21 5 19 6 18 7 16 8 15 9 14 10 13 11 5 12
REMARK SMILES IDX 6 13 7 14 8 15 12 16 10 17 9 18 11 20 20 22 17 24
REMARK H PARENT 9 19 11 21 20 23 17 25
REMARK Flexibility Score: inf
ROOT
ATOM      1  C   UNL     1      27.961   4.709 -13.352  1.00  0.00     0.138 A 
ATOM      2  C   UNL     1      28.843   5.208 -12.378  1.00  0.00     0.100 A 
ATOM      3  C   UNL     1      29.801   6.156 -12.740  1.00  0.00     0.197 A 
ATOM      4  O   UNL     1      30.588   6.597 -11.858  1.00  0.00    -0.289 OA
ATOM      5  C   UNL     1      29.874   6.595 -14.076  1.00  0.00     0.107 A 
ATOM      6  C   UNL     1      30.815   7.552 -14.527  1.00  0.00     0.134 A 
ATOM      7  C   UNL     1      30.826   7.931 -15.877  1.00  0.00     0.093 A 
ATOM      8  C   UNL     1      29.920   7.375 -16.782  1.00  0.00     0.123 A 
ATOM      9  C   UNL     1      28.989   6.428 -16.343  1.00  0.00     0.094 A 
ATOM     10  C   UNL     1      28.960   6.037 -15.002  1.00  0.00     0.146 A 
ATOM     11  O   UNL     1      28.064   5.137 -14.608  1.00  0.00    -0.456 OA
ENDROOT
BRANCH   1  12
ATOM     12  C   UNL     1      26.923   3.699 -13.025  1.00  0.00     0.021 A 
ATOM     13  C   UNL     1      25.628   3.845 -13.550  1.00  0.00     0.016 A 
ATOM     14  C   UNL     1      24.631   2.912 -13.251  1.00  0.00     0.051 A 
ATOM     15  C   UNL     1      24.906   1.826 -12.415  1.00  0.00     0.157 A 
ATOM     16  C   UNL     1      27.193   2.610 -12.172  1.00  0.00     0.062 A 
ATOM     17  C   UNL     1      26.191   1.674 -11.870  1.00  0.00     0.158 A 
BRANCH  15  18
ATOM     18  O   UNL     1      23.890   0.912 -12.137  1.00  0.00    -0.504 OA
ATOM     19  H   UNL     1      23.035   1.186 -11.667  1.00  0.00     0.293 HD
ENDBRANCH  15  18
BRANCH  17  20
ATOM     20  O   UNL     1      26.468   0.600 -11.027  1.00  0.00    -0.504 OA
ATOM     21  H   UNL     1      25.757  -0.077 -10.776  1.00  0.00     0.293 HD
ENDBRANCH  17  20
ENDBRANCH   1  12
BRANCH   6  22
ATOM     22  O   UNL     1      31.733   8.125 -13.647  1.00  0.00    -0.507 OA
ATOM     23  H   UNL     1      32.509   8.686 -13.977  1.00  0.00     0.293 HD
ENDBRANCH   6  22
BRANCH   8  24
ATOM     24  O   UNL     1      29.953   7.770 -18.118  1.00  0.00    -0.508 OA
ATOM     25  H   UNL     1      30.806   8.107 -18.551  1.00  0.00     0.293 HD
ENDBRANCH   8  24
TORSDOF 5
ENDMDL
MODEL 5
REMARK VINA RESULT:    -5.567      1.659      2.403
REMARK INTER + INTRA:          -6.860
REMARK INTER:                  -6.593
REMARK INTRA:                  -0.268
REMARK UNBOUND:                -0.317
REMARK SMILES O=c1cc(-c2ccc(O)c(O)c2)oc2cc(O)cc(O)c12
REMARK SMILES IDX 4 1 3 2 2 3 1 4 21 5 19 6 18 7 16 8 15 9 14 10 13 11 5 12
REMARK SMILES IDX 6 13 7 14 8 15 12 16 10 17 9 18 11 20 20 22 17 24
REMARK H PARENT 9 19 11 21 20 23 17 25
REMARK Flexibility Score: inf
ROOT
ATOM      1  C   UNL     1      28.466   5.235 -14.949  1.00  0.00     0.138 A 
ATOM      2  C   UNL     1      27.142   5.478 -15.351  1.00  0.00     0.100 A 
ATOM      3  C   UNL     1      26.101   4.767 -14.751  1.00  0.00     0.197 A 
ATOM      4  O   UNL     1      24.916   4.991 -15.119  1.00  0.00    -0.289 OA
ATOM      5  C   UNL     1      26.394   3.814 -13.755  1.00  0.00     0.107 A 
ATOM      6  C   UNL     1      25.400   3.051 -13.097  1.00  0.00     0.134 A 
ATOM      7  C   UNL     1      25.774   2.117 -12.120  1.00  0.00     0.093 A 
ATOM      8  C   UNL     1      27.118   1.932 -11.790  1.00  0.00     0.123 A 
ATOM      9  C   UNL     1      28.105   2.682 -12.437  1.00  0.00     0.094 A 
ATOM     10  C   UNL     1      27.753   3.618 -13.413  1.00  0.00     0.146 A 
ATOM     11  O   UNL     1      28.710   4.321 -14.013  1.00  0.00    -0.456 OA
ENDROOT
BRANCH   1  12
ATOM     12  C   UNL     1      29.613   5.960 -15.553  1.00  0.00     0.021 A 
ATOM     13  C   UNL     1      29.901   7.270 -15.132  1.00  0.00     0.016 A 
ATOM     14  C   UNL     1      30.969   7.976 -15.690  1.00  0.00     0.051 A 
ATOM     15  C   UNL     1      31.761   7.394 -16.684  1.00  0.00     0.157 A 
ATOM     16  C   UNL     1      30.405   5.381 -16.564  1.00  0.00     0.062 A 
ATOM     17  C   UNL     1      31.477   6.092 -17.126  1.00  0.00     0.158 A 
BRANCH  15  18
ATOM     18  O   UNL     1      32.821   8.124 -17.220  1.00  0.00    -0.504 OA
ATOM     19  H   UNL     1      33.164   7.962 -18.160  1.00  0.00     0.293 HD
ENDBRANCH  15  18
BRANCH  17  20
ATOM     20  O   UNL     1      32.255   5.509 -18.125  1.00  0.00    -0.504 OA
ATOM     21  H   UNL     1      32.021   5.607 -19.106  1.00  0.00     0.293 HD
ENDBRANCH  17  20
ENDBRANCH   1  12
BRANCH   6  22
ATOM     22  O   UNL     1      24.049   3.214 -13.406  1.00  0.00    -0.507 OA
ATOM     23  H   UNL     1      23.748   3.648 -14.270  1.00  0.00     0.293 HD
ENDBRANCH   6  22
BRANCH   8  24
ATOM     24  O   UNL     1      27.464   0.997 -10.815  1.00  0.00    -0.508 OA
ATOM     25  H   UNL     1      28.390   0.589 -10.777  1.00  0.00     0.293 HD
ENDBRANCH   8  24
TORSDOF 5
ENDMDL
MODEL 6
REMARK VINA RESULT:    -5.520      1.447      7.026
REMARK INTER + INTRA:          -6.804
REMARK INTER:                  -6.508
REMARK INTRA:                  -0.297
REMARK UNBOUND:                -0.317
REMARK SMILES O=c1cc(-c2ccc(O)c(O)c2)oc2cc(O)cc(O)c12
REMARK SMILES IDX 4 1 3 2 2 3 1 4 21 5 19 6 18 7 16 8 15 9 14 10 13 11 5 12
REMARK SMILES IDX 6 13 7 14 8 15 12 16 10 17 9 18 11 20 20 22 17 24
REMARK H PARENT 9 19 11 21 20 23 17 25
REMARK Flexibility Score: inf
ROOT
ATOM      1  C   UNL     1      27.537   4.764 -14.253  1.00  0.00     0.138 A 
ATOM      2  C   UNL     1      26.569   5.174 -15.187  1.00  0.00     0.100 A 
ATOM      3  C   UNL     1      26.908   6.114 -16.160  1.00  0.00     0.197 A 
ATOM      4  O   UNL     1      26.032   6.475 -16.992  1.00  0.00    -0.289 OA
ATOM      5  C   UNL     1      28.214   6.643 -16.191  1.00  0.00     0.107 A 
ATOM      6  C   UNL     1      28.640   7.600 -17.143  1.00  0.00     0.134 A 
ATOM      7  C   UNL     1      29.956   8.082 -17.102  1.00  0.00     0.093 A 
ATOM      8  C   UNL     1      30.851   7.628 -16.131  1.00  0.00     0.123 A 
ATOM      9  C   UNL     1      30.436   6.684 -15.187  1.00  0.00     0.094 A 
ATOM     10  C   UNL     1      29.129   6.190 -15.211  1.00  0.00     0.146 A 
ATOM     11  O   UNL     1      28.758   5.291 -14.303  1.00  0.00    -0.456 OA
ENDROOT
BRANCH   1  12
ATOM     12  C   UNL     1      27.233   3.768 -13.196  1.00  0.00     0.021 A 
ATOM     13  C   UNL     1      28.193   3.497 -12.206  1.00  0.00     0.016 A 
ATOM     14  C   UNL     1      27.933   2.558 -11.204  1.00  0.00     0.051 A 
ATOM     15  C   UNL     1      26.719   1.868 -11.178  1.00  0.00     0.157 A 
ATOM     16  C   UNL     1      26.014   3.060 -13.174  1.00  0.00     0.062 A 
ATOM     17  C   UNL     1      25.755   2.116 -12.168  1.00  0.00     0.158 A 
BRANCH  15  18
ATOM     18  O   UNL     1      26.490   0.938 -10.164  1.00  0.00    -0.504 OA
ATOM     19  H   UNL     1      27.122   0.832  -9.378  1.00  0.00     0.293 HD
ENDBRANCH  15  18
BRANCH  17  20
ATOM     20  O   UNL     1      24.546   1.423 -12.155  1.00  0.00    -0.504 OA
ATOM     21  H   UNL     1      23.848   1.557 -12.877  1.00  0.00     0.293 HD
ENDBRANCH  17  20
ENDBRANCH   1  12
BRANCH   6  22
ATOM     22  O   UNL     1      27.768   8.072 -18.125  1.00  0.00    -0.507 OA
ATOM     23  H   UNL     1      27.267   7.443 -18.741  1.00  0.00     0.293 HD
ENDBRANCH   6  22
BRANCH   8  24
ATOM     24  O   UNL     1      32.154   8.124 -16.112  1.00  0.00    -0.508 OA
ATOM     25  H   UNL     1      32.906   7.655 -16.604  1.00  0.00     0.293 HD
ENDBRANCH   8  24
TORSDOF 5
ENDMDL
MODEL 7
REMARK VINA RESULT:    -5.029      1.596      6.945
REMARK INTER + INTRA:          -6.228
REMARK INTER:                  -5.957
REMARK INTRA:                  -0.271
REMARK UNBOUND:                -0.317
REMARK SMILES O=c1cc(-c2ccc(O)c(O)c2)oc2cc(O)cc(O)c12
REMARK SMILES IDX 4 1 3 2 2 3 1 4 21 5 19 6 18 7 16 8 15 9 14 10 13 11 5 12
REMARK SMILES IDX 6 13 7 14 8 15 12 16 10 17 9 18 11 20 20 22 17 24
REMARK H PARENT 9 19 11 21 20 23 17 25
REMARK Flexibility Score: inf
ROOT
ATOM      1  C   UNL     1      27.763   4.491 -13.899  1.00  0.00     0.138 A 
ATOM      2  C   UNL     1      26.580   4.736 -14.618  1.00  0.00     0.100 A 
ATOM      3  C   UNL     1      26.625   5.532 -15.763  1.00  0.00     0.197 A 
ATOM      4  O   UNL     1      25.559   5.746 -16.401  1.00  0.00    -0.289 OA
ATOM      5  C   UNL     1      27.853   6.083 -16.179  1.00  0.00     0.107 A 
ATOM      6  C   UNL     1      27.987   6.900 -17.327  1.00  0.00     0.134 A 
ATOM      7  C   UNL     1      29.245   7.415 -17.671  1.00  0.00     0.093 A 
ATOM      8  C   UNL     1      30.369   7.131 -16.892  1.00  0.00     0.123 A 
ATOM      9  C   UNL     1      30.243   6.325 -15.756  1.00  0.00     0.094 A 
ATOM     10  C   UNL     1      28.999   5.801 -15.396  1.00  0.00     0.146 A 
ATOM     11  O   UNL     1      28.905   5.035 -14.313  1.00  0.00    -0.456 OA
ENDROOT
BRANCH   1  12
ATOM     12  C   UNL     1      27.775   3.654 -12.673  1.00  0.00     0.021 A 
ATOM     13  C   UNL     1      28.297   4.182 -11.480  1.00  0.00     0.016 A 
ATOM     14  C   UNL     1      28.326   3.411 -10.315  1.00  0.00     0.051 A 
ATOM     15  C   UNL     1      27.846   2.099 -10.323  1.00  0.00     0.157 A 
ATOM     16  C   UNL     1      27.304   2.326 -12.680  1.00  0.00     0.062 A 
ATOM     17  C   UNL     1      27.336   1.551 -11.510  1.00  0.00     0.158 A 
BRANCH  15  18
ATOM     18  O   UNL     1      27.889   1.356  -9.143  1.00  0.00    -0.504 OA
ATOM     19  H   UNL     1      27.061   1.189  -8.583  1.00  0.00     0.293 HD
ENDBRANCH  15  18
BRANCH  17  20
ATOM     20  O   UNL     1      26.866   0.239 -11.527  1.00  0.00    -0.504 OA
ATOM     21  H   UNL     1      26.687  -0.251 -12.396  1.00  0.00     0.293 HD
ENDBRANCH  17  20
ENDBRANCH   1  12
BRANCH   6  22
ATOM     22  O   UNL     1      26.883   7.202 -18.125  1.00  0.00    -0.507 OA
ATOM     23  H   UNL     1      25.938   7.178 -17.760  1.00  0.00     0.293 HD
ENDBRANCH   6  22
BRANCH   8  24
ATOM     24  O   UNL     1      31.608   7.655 -17.255  1.00  0.00    -0.508 OA
ATOM     25  H   UNL     1      32.021   8.434 -16.756  1.00  0.00     0.293 HD
ENDBRANCH   8  24
TORSDOF 5
ENDMDL
MODEL 8
REMARK VINA RESULT:    -4.458      1.685      7.240
REMARK INTER + INTRA:          -5.557
REMARK INTER:                  -5.269
REMARK INTRA:                  -0.288
REMARK UNBOUND:                -0.317
REMARK SMILES O=c1cc(-c2ccc(O)c(O)c2)oc2cc(O)cc(O)c12
REMARK SMILES IDX 4 1 3 2 2 3 1 4 21 5 19 6 18 7 16 8 15 9 14 10 13 11 5 12
REMARK SMILES IDX 6 13 7 14 8 15 12 16 10 17 9 18 11 20 20 22 17 24
REMARK H PARENT 9 19 11 21 20 23 17 25
REMARK Flexibility Score: inf
ROOT
ATOM      1  C   UNL     1      28.100   4.647 -13.482  1.00  0.00     0.138 A 
ATOM      2  C   UNL     1      29.240   5.413 -13.779  1.00  0.00     0.100 A 
ATOM      3  C   UNL     1      29.246   6.225 -14.913  1.00  0.00     0.197 A 
ATOM      4  O   UNL     1      30.274   6.908 -15.171  1.00  0.00    -0.289 OA
ATOM      5  C   UNL     1      28.111   6.263 -15.747  1.00  0.00     0.107 A 
ATOM      6  C   UNL     1      28.034   7.059 -16.915  1.00  0.00     0.134 A 
ATOM      7  C   UNL     1      26.868   7.035 -17.695  1.00  0.00     0.093 A 
ATOM      8  C   UNL     1      25.783   6.235 -17.332  1.00  0.00     0.123 A 
ATOM      9  C   UNL     1      25.854   5.446 -16.180  1.00  0.00     0.094 A 
ATOM     10  C   UNL     1      27.005   5.455 -15.388  1.00  0.00     0.146 A 
ATOM     11  O   UNL     1      27.048   4.698 -14.295  1.00  0.00    -0.456 OA
ENDROOT
BRANCH   1  12
ATOM     12  C   UNL     1      28.038   3.765 -12.290  1.00  0.00     0.021 A 
ATOM     13  C   UNL     1      28.400   4.277 -11.032  1.00  0.00     0.016 A 
ATOM     14  C   UNL     1      28.357   3.464  -9.896  1.00  0.00     0.051 A 
ATOM     15  C   UNL     1      27.964   2.127  -9.996  1.00  0.00     0.157 A 
ATOM     16  C   UNL     1      27.655   2.412 -12.389  1.00  0.00     0.062 A 
ATOM     17  C   UNL     1      27.614   1.596 -11.247  1.00  0.00     0.158 A 
BRANCH  15  18
ATOM     18  O   UNL     1      27.931   1.342  -8.843  1.00  0.00    -0.504 OA
ATOM     19  H   UNL     1      27.559   0.400  -8.845  1.00  0.00     0.293 HD
ENDBRANCH  15  18
BRANCH  17  20
ATOM     20  O   UNL     1      27.232   0.260 -11.357  1.00  0.00    -0.504 OA
ATOM     21  H   UNL     1      26.447  -0.023 -11.931  1.00  0.00     0.293 HD
ENDBRANCH  17  20
ENDBRANCH   1  12
BRANCH   6  22
ATOM     22  O   UNL     1      29.101   7.868 -17.304  1.00  0.00    -0.507 OA
ATOM     23  H   UNL     1      29.646   8.393 -16.630  1.00  0.00     0.293 HD
ENDBRANCH   6  22
BRANCH   8  24
ATOM     24  O   UNL     1      24.637   6.230 -18.125  1.00  0.00    -0.508 OA
ATOM     25  H   UNL     1      24.156   5.369 -18.357  1.00  0.00     0.293 HD
ENDBRANCH   8  24
TORSDOF 5
ENDMDL
MODEL 9
REMARK VINA RESULT:    -4.060      2.129      7.296
REMARK INTER + INTRA:          -5.089
REMARK INTER:                  -4.808
REMARK INTRA:                  -0.281
REMARK UNBOUND:                -0.317
REMARK SMILES O=c1cc(-c2ccc(O)c(O)c2)oc2cc(O)cc(O)c12
REMARK SMILES IDX 4 1 3 2 2 3 1 4 21 5 19 6 18 7 16 8 15 9 14 10 13 11 5 12
REMARK SMILES IDX 6 13 7 14 8 15 12 16 10 17 9 18 11 20 20 22 17 24
REMARK H PARENT 9 19 11 21 20 23 17 25
REMARK Flexibility Score: inf
ROOT
ATOM      1  C   UNL     1      28.346   4.537 -11.938  1.00  0.00     0.138 A 
ATOM      2  C   UNL     1      29.367   5.486 -12.119  1.00  0.00     0.100 A 
ATOM      3  C   UNL     1      29.305   6.365 -13.201  1.00  0.00     0.197 A 
ATOM      4  O   UNL     1      30.226   7.212 -13.355  1.00  0.00    -0.289 OA
ATOM      5  C   UNL     1      28.222   6.286 -14.099  1.00  0.00     0.107 A 
ATOM      6  C   UNL     1      28.082   7.138 -15.221  1.00  0.00     0.134 A 
ATOM      7  C   UNL     1      26.976   6.990 -16.071  1.00  0.00     0.093 A 
ATOM      8  C   UNL     1      26.012   6.011 -15.824  1.00  0.00     0.123 A 
ATOM      9  C   UNL     1      26.146   5.165 -14.718  1.00  0.00     0.094 A 
ATOM     10  C   UNL     1      27.239   5.296 -13.858  1.00  0.00     0.146 A 
ATOM     11  O   UNL     1      27.343   4.482 -12.811  1.00  0.00    -0.456 OA
ENDROOT
BRANCH   1  12
ATOM     12  C   UNL     1      28.361   3.577 -10.807  1.00  0.00     0.021 A 
ATOM     13  C   UNL     1      27.975   2.244 -11.027  1.00  0.00     0.016 A 
ATOM     14  C   UNL     1      27.973   1.322  -9.977  1.00  0.00     0.051 A 
ATOM     15  C   UNL     1      28.346   1.716  -8.689  1.00  0.00     0.157 A 
ATOM     16  C   UNL     1      28.723   3.974  -9.504  1.00  0.00     0.062 A 
ATOM     17  C   UNL     1      28.719   3.048  -8.448  1.00  0.00     0.158 A 
BRANCH  15  18
ATOM     18  O   UNL     1      28.334   0.773  -7.662  1.00  0.00    -0.504 OA
ATOM     19  H   UNL     1      28.067   1.013  -6.714  1.00  0.00     0.293 HD
ENDBRANCH  15  18
BRANCH  17  20
ATOM     20  O   UNL     1      29.080   3.451  -7.164  1.00  0.00    -0.504 OA
ATOM     21  H   UNL     1      29.156   2.788  -6.401  1.00  0.00     0.293 HD
ENDBRANCH  17  20
ENDBRANCH   1  12
BRANCH   6  22
ATOM     22  O   UNL     1      29.029   8.125 -15.495  1.00  0.00    -0.507 OA
ATOM     23  H   UNL     1      29.320   8.794 -14.792  1.00  0.00     0.293 HD
ENDBRANCH   6  22
BRANCH   8  24
ATOM     24  O   UNL     1      24.924   5.885 -16.685  1.00  0.00    -0.508 OA
ATOM     25  H   UNL     1      24.211   5.179 -16.539  1.00  0.00     0.293 HD
ENDBRANCH   8  24
TORSDOF 5
ENDMDL
