MODEL 1
REMARK VINA RESULT:    -6.036      0.000      0.000
REMARK INTER + INTRA:          -7.582
REMARK INTER:                  -7.271
REMARK INTRA:                  -0.311
REMARK UNBOUND:                -0.311
REMARK SMILES O=c1c(O)c(-c2ccc(O)c(O)c2)oc2cc(O)cc(O)c12
REMARK SMILES IDX 5 1 3 2 2 3 1 4 22 5 20 6 19 7 17 8 16 9 15 10 14 11 6 12
REMARK SMILES IDX 7 13 8 14 9 15 13 16 11 17 10 18 12 20 4 22 21 24 18 26
REMARK H PARENT 10 19 12 21 4 23 21 25 18 27
REMARK Flexibility Score: inf
ROOT
ATOM      1  C   UNL     1      45.555  37.892  47.753  1.00  0.00     0.180 A 
ATOM      2  C   UNL     1      45.259  36.845  48.646  1.00  0.00     0.208 A 
ATOM      3  C   UNL     1      45.672  35.543  48.326  1.00  0.00     0.238 A 
ATOM      4  O   UNL     1      45.423  34.598  49.125  1.00  0.00    -0.285 OA
ATOM      5  C   UNL     1      46.355  35.305  47.115  1.00  0.00     0.111 A 
ATOM      6  C   UNL     1      46.802  34.023  46.716  1.00  0.00     0.134 A 
ATOM      7  C   UNL     1      47.465  33.867  45.490  1.00  0.00     0.093 A 
ATOM      8  C   UNL     1      47.689  34.966  44.658  1.00  0.00     0.123 A 
ATOM      9  C   UNL     1      47.250  36.235  45.046  1.00  0.00     0.094 A 
ATOM     10  C   UNL     1      46.589  36.412  46.264  1.00  0.00     0.146 A 
ATOM     11  O   UNL     1      46.187  37.629  46.612  1.00  0.00    -0.452 OA
ENDROOT
BRANCH   1  12
ATOM     12  C   UNL     1      45.169  39.295  48.028  1.00  0.00     0.025 A 
ATOM     13  C   UNL     1      43.980  39.839  47.518  1.00  0.00     0.016 A 
ATOM     14  C   UNL     1      43.625  41.158  47.811  1.00  0.00     0.051 A 
ATOM     15  C   UNL     1      44.439  41.952  48.625  1.00  0.00     0.157 A 
ATOM     16  C   UNL     1      45.976  40.083  48.863  1.00  0.00     0.062 A 
ATOM     17  C   UNL     1      45.629  41.406  49.161  1.00  0.00     0.158 A 
BRANCH  15  18
ATOM     18  O   UNL     1      44.030  43.264  48.875  1.00  0.00    -0.504 OA
ATOM     19  H   UNL     1      43.669  43.583  49.763  1.00  0.00     0.293 HD
ENDBRANCH  15  18
BRANCH  17  20
ATOM     20  O   UNL     1      46.487  42.134  49.989  1.00  0.00    -0.504 OA
ATOM     21  H   UNL     1      46.808  43.070  49.786  1.00  0.00     0.293 HD
ENDBRANCH  17  20
ENDBRANCH   1  12
BRANCH   2  22
ATOM     22  O   UNL     1      44.540  37.098  49.817  1.00  0.00    -0.502 OA
ATOM     23  H   UNL     1      43.590  37.450  49.805  1.00  0.00     0.293 HD
ENDBRANCH   2  22
BRANCH   6  24
ATOM     24  O   UNL     1      46.592  32.906  47.525  1.00  0.00    -0.507 OA
ATOM     25  H   UNL     1      46.715  32.944  48.530  1.00  0.00     0.293 HD
ENDBRANCH   6  24
BRANCH   8  26
ATOM     26  O   UNL     1      48.350  34.784  43.444  1.00  0.00    -0.508 OA
ATOM     27  H   UNL     1      48.401  33.875  43.000  1.00  0.00     0.293 HD
ENDBRANCH   8  26
TORSDOF 6
ENDMDL
MODEL 2
REMARK VINA RESULT:    -5.575      1.497      6.369
REMARK INTER + INTRA:          -7.027
REMARK INTER:                  -6.851
REMARK INTRA:                  -0.176
REMARK UNBOUND:                -0.311
REMARK SMILES O=c1c(O)c(-c2ccc(O)c(O)c2)oc2cc(O)cc(O)c12
REMARK SMILES IDX 5 1 3 2 2 3 1 4 22 5 20 6 19 7 17 8 16 9 15 10 14 11 6 12
REMARK SMILES IDX 7 13 8 14 9 15 13 16 11 17 10 18 12 20 4 22 21 24 18 26
REMARK H PARENT 10 19 12 21 4 23 21 25 18 27
REMARK Flexibility Score: inf
ROOT
ATOM      1  C   UNL     1      46.054  36.795  47.126  1.00  0.00     0.180 A 
ATOM      2  C   UNL     1      45.718  36.033  48.262  1.00  0.00     0.208 A 
ATOM      3  C   UNL     1      44.897  36.606  49.245  1.00  0.00     0.238 A 
ATOM      4  O   UNL     1      44.581  35.929  50.261  1.00  0.00    -0.285 OA
ATOM      5  C   UNL     1      44.442  37.932  49.088  1.00  0.00     0.111 A 
ATOM      6  C   UNL     1      43.615  38.583  50.034  1.00  0.00     0.134 A 
ATOM      7  C   UNL     1      43.212  39.909  49.810  1.00  0.00     0.093 A 
ATOM      8  C   UNL     1      43.620  40.592  48.662  1.00  0.00     0.123 A 
ATOM      9  C   UNL     1      44.437  39.953  47.724  1.00  0.00     0.094 A 
ATOM     10  C   UNL     1      44.848  38.633  47.928  1.00  0.00     0.146 A 
ATOM     11  O   UNL     1      45.619  38.047  47.019  1.00  0.00    -0.452 OA
ENDROOT
BRANCH   1  12
ATOM     12  C   UNL     1      46.900  36.255  46.037  1.00  0.00     0.025 A 
ATOM     13  C   UNL     1      46.485  35.158  45.266  1.00  0.00     0.016 A 
ATOM     14  C   UNL     1      47.290  34.681  44.229  1.00  0.00     0.051 A 
ATOM     15  C   UNL     1      48.511  35.294  43.933  1.00  0.00     0.157 A 
ATOM     16  C   UNL     1      48.114  36.886  45.727  1.00  0.00     0.062 A 
ATOM     17  C   UNL     1      48.927  36.415  44.690  1.00  0.00     0.158 A 
BRANCH  15  18
ATOM     18  O   UNL     1      49.270  34.766  42.886  1.00  0.00    -0.504 OA
ATOM     19  H   UNL     1      50.254  34.951  42.753  1.00  0.00     0.293 HD
ENDBRANCH  15  18
BRANCH  17  20
ATOM     20  O   UNL     1      50.128  37.086  44.447  1.00  0.00    -0.504 OA
ATOM     21  H   UNL     1      50.569  37.144  43.540  1.00  0.00     0.293 HD
ENDBRANCH  17  20
ENDBRANCH   1  12
BRANCH   2  22
ATOM     22  O   UNL     1      46.221  34.739  48.417  1.00  0.00    -0.502 OA
ATOM     23  H   UNL     1      46.613  34.213  47.646  1.00  0.00     0.293 HD
ENDBRANCH   2  22
BRANCH   6  24
ATOM     24  O   UNL     1      43.192  37.928  51.190  1.00  0.00    -0.507 OA
ATOM     25  H   UNL     1      42.406  37.288  51.184  1.00  0.00     0.293 HD
ENDBRANCH   6  24
BRANCH   8  26
ATOM     26  O   UNL     1      43.206  41.908  48.463  1.00  0.00    -0.508 OA
ATOM     27  H   UNL     1      42.225  42.148  48.376  1.00  0.00     0.293 HD
ENDBRANCH   8  26
TORSDOF 6
ENDMDL
MODEL 3
REMARK VINA RESULT:    -5.517      1.610      6.848
REMARK INTER + INTRA:          -6.957
REMARK INTER:                  -6.664
REMARK INTRA:                  -0.293
REMARK UNBOUND:                -0.311
REMARK SMILES O=c1c(O)c(-c2ccc(O)c(O)c2)oc2cc(O)cc(O)c12
REMARK SMILES IDX 5 1 3 2 2 3 1 4 22 5 20 6 19 7 17 8 16 9 15 10 14 11 6 12
REMARK SMILES IDX 7 13 8 14 9 15 13 16 11 17 10 18 12 20 4 22 21 24 18 26
REMARK H PARENT 10 19 12 21 4 23 21 25 18 27
REMARK Flexibility Score: inf
ROOT
ATOM      1  C   UNL     1      45.878  37.005  47.868  1.00  0.00     0.180 A 
ATOM      2  C   UNL     1      44.531  37.312  48.147  1.00  0.00     0.208 A 
ATOM      3  C   UNL     1      44.225  38.551  48.729  1.00  0.00     0.238 A 
ATOM      4  O   UNL     1      43.021  38.841  48.973  1.00  0.00    -0.285 OA
ATOM      5  C   UNL     1      45.264  39.453  49.039  1.00  0.00     0.111 A 
ATOM      6  C   UNL     1      45.039  40.720  49.630  1.00  0.00     0.134 A 
ATOM      7  C   UNL     1      46.129  41.556  49.918  1.00  0.00     0.093 A 
ATOM      8  C   UNL     1      47.433  41.151  49.627  1.00  0.00     0.123 A 
ATOM      9  C   UNL     1      47.661  39.901  49.043  1.00  0.00     0.094 A 
ATOM     10  C   UNL     1      46.589  39.053  48.748  1.00  0.00     0.146 A 
ATOM     11  O   UNL     1      46.833  37.873  48.188  1.00  0.00    -0.452 OA
ENDROOT
BRANCH   1  12
ATOM     12  C   UNL     1      46.280  35.727  47.238  1.00  0.00     0.025 A 
ATOM     13  C   UNL     1      46.376  34.543  47.986  1.00  0.00     0.016 A 
ATOM     14  C   UNL     1      46.735  33.344  47.365  1.00  0.00     0.051 A 
ATOM     15  C   UNL     1      46.990  33.300  45.991  1.00  0.00     0.157 A 
ATOM     16  C   UNL     1      46.513  35.681  45.855  1.00  0.00     0.062 A 
ATOM     17  C   UNL     1      46.874  34.484  45.225  1.00  0.00     0.158 A 
BRANCH  15  18
ATOM     18  O   UNL     1      47.348  32.071  45.433  1.00  0.00    -0.504 OA
ATOM     19  H   UNL     1      47.166  31.179  45.869  1.00  0.00     0.293 HD
ENDBRANCH  15  18
BRANCH  17  20
ATOM     20  O   UNL     1      47.103  34.516  43.847  1.00  0.00    -0.504 OA
ATOM     21  H   UNL     1      46.370  34.556  43.153  1.00  0.00     0.293 HD
ENDBRANCH  17  20
ENDBRANCH   1  12
BRANCH   2  22
ATOM     22  O   UNL     1      43.525  36.383  47.875  1.00  0.00    -0.502 OA
ATOM     23  H   UNL     1      43.481  35.480  48.333  1.00  0.00     0.293 HD
ENDBRANCH   2  22
BRANCH   6  24
ATOM     24  O   UNL     1      43.749  41.152  49.933  1.00  0.00    -0.507 OA
ATOM     25  H   UNL     1      43.261  41.826  49.353  1.00  0.00     0.293 HD
ENDBRANCH   6  24
BRANCH   8  26
ATOM     26  O   UNL     1      48.498  42.000  49.923  1.00  0.00    -0.508 OA
ATOM     27  H   UNL     1      48.954  41.982  50.828  1.00  0.00     0.293 HD
ENDBRANCH   8  26
TORSDOF 6
ENDMDL
MODEL 4
REMARK VINA RESULT:    -5.514      2.703      8.079
REMARK INTER + INTRA:          -6.953
REMARK INTER:                  -6.648
REMARK INTRA:                  -0.306
REMARK UNBOUND:                -0.311
REMARK SMILES O=c1c(O)c(-c2ccc(O)c(O)c2)oc2cc(O)cc(O)c12
REMARK SMILES IDX 5 1 3 2 2 3 1 4 22 5 20 6 19 7 17 8 16 9 15 10 14 11 6 12
REMARK SMILES IDX 7 13 8 14 9 15 13 16 11 17 10 18 12 20 4 22 21 24 18 26
REMARK H PARENT 10 19 12 21 4 23 21 25 18 27
REMARK Flexibility Score: inf
ROOT
ATOM      1  C   UNL     1      45.470  40.338  49.624  1.00  0.00     0.180 A 
ATOM      2  C   UNL     1      45.032  41.547  49.050  1.00  0.00     0.208 A 
ATOM      3  C   UNL     1      45.016  42.706  49.841  1.00  0.00     0.238 A 
ATOM      4  O   UNL     1      44.636  43.798  49.334  1.00  0.00    -0.285 OA
ATOM      5  C   UNL     1      45.418  42.636  51.191  1.00  0.00     0.111 A 
ATOM      6  C   UNL     1      45.428  43.757  52.055  1.00  0.00     0.134 A 
ATOM      7  C   UNL     1      45.833  43.602  53.390  1.00  0.00     0.093 A 
ATOM      8  C   UNL     1      46.226  42.353  53.874  1.00  0.00     0.123 A 
ATOM      9  C   UNL     1      46.219  41.242  53.025  1.00  0.00     0.094 A 
ATOM     10  C   UNL     1      45.820  41.375  51.692  1.00  0.00     0.146 A 
ATOM     11  O   UNL     1      45.827  40.305  50.904  1.00  0.00    -0.452 OA
ENDROOT
BRANCH   1  12
ATOM     12  C   UNL     1      45.533  39.077  48.850  1.00  0.00     0.025 A 
ATOM     13  C   UNL     1      46.741  38.614  48.305  1.00  0.00     0.016 A 
ATOM     14  C   UNL     1      46.780  37.409  47.599  1.00  0.00     0.051 A 
ATOM     15  C   UNL     1      45.623  36.639  47.436  1.00  0.00     0.157 A 
ATOM     16  C   UNL     1      44.376  38.295  48.707  1.00  0.00     0.062 A 
ATOM     17  C   UNL     1      44.406  37.086  48.001  1.00  0.00     0.158 A 
BRANCH  15  18
ATOM     18  O   UNL     1      45.730  35.447  46.716  1.00  0.00    -0.504 OA
ATOM     19  H   UNL     1      44.945  34.971  46.293  1.00  0.00     0.293 HD
ENDBRANCH  15  18
BRANCH  17  20
ATOM     20  O   UNL     1      43.213  36.368  47.889  1.00  0.00    -0.504 OA
ATOM     21  H   UNL     1      42.314  36.791  47.710  1.00  0.00     0.293 HD
ENDBRANCH  17  20
ENDBRANCH   1  12
BRANCH   2  22
ATOM     22  O   UNL     1      44.593  41.581  47.724  1.00  0.00    -0.502 OA
ATOM     23  H   UNL     1      43.774  41.074  47.411  1.00  0.00     0.293 HD
ENDBRANCH   2  22
BRANCH   6  24
ATOM     24  O   UNL     1      45.040  45.017  51.602  1.00  0.00    -0.507 OA
ATOM     25  H   UNL     1      44.219  45.487  51.968  1.00  0.00     0.293 HD
ENDBRANCH   6  24
BRANCH   8  26
ATOM     26  O   UNL     1      46.623  42.226  55.205  1.00  0.00    -0.508 OA
ATOM     27  H   UNL     1      47.055  42.995  55.704  1.00  0.00     0.293 HD
ENDBRANCH   8  26
TORSDOF 6
ENDMDL
MODEL 5
REMARK VINA RESULT:    -5.414      4.100      7.104
REMARK INTER + INTRA:          -6.833
REMARK INTER:                  -6.508
REMARK INTRA:                  -0.325
REMARK UNBOUND:                -0.311
REMARK SMILES O=c1c(O)c(-c2ccc(O)c(O)c2)oc2cc(O)cc(O)c12
REMARK SMILES IDX 5 1 3 2 2 3 1 4 22 5 20 6 19 7 17 8 16 9 15 10 14 11 6 12
REMARK SMILES IDX 7 13 8 14 9 15 13 16 11 17 10 18 12 20 4 22 21 24 18 26
REMARK H PARENT 10 19 12 21 4 23 21 25 18 27
REMARK Flexibility Score: inf
ROOT
ATOM      1  C   UNL     1      45.071  42.128  51.857  1.00  0.00     0.180 A 
ATOM      2  C   UNL     1      45.352  43.001  50.787  1.00  0.00     0.208 A 
ATOM      3  C   UNL     1      45.103  42.570  49.476  1.00  0.00     0.238 A 
ATOM      4  O   UNL     1      45.341  43.347  48.511  1.00  0.00    -0.285 OA
ATOM      5  C   UNL     1      44.597  41.272  49.252  1.00  0.00     0.111 A 
ATOM      6  C   UNL     1      44.323  40.760  47.962  1.00  0.00     0.134 A 
ATOM      7  C   UNL     1      43.830  39.454  47.822  1.00  0.00     0.093 A 
ATOM      8  C   UNL     1      43.607  38.653  48.945  1.00  0.00     0.123 A 
ATOM      9  C   UNL     1      43.877  39.154  50.222  1.00  0.00     0.094 A 
ATOM     10  C   UNL     1      44.367  40.453  50.383  1.00  0.00     0.146 A 
ATOM     11  O   UNL     1      44.609  40.906  51.607  1.00  0.00    -0.452 OA
ENDROOT
BRANCH   1  12
ATOM     12  C   UNL     1      45.289  42.516  53.269  1.00  0.00     0.025 A 
ATOM     13  C   UNL     1      44.251  43.050  54.048  1.00  0.00     0.016 A 
ATOM     14  C   UNL     1      44.475  43.387  55.385  1.00  0.00     0.051 A 
ATOM     15  C   UNL     1      45.729  43.186  55.972  1.00  0.00     0.157 A 
ATOM     16  C   UNL     1      46.542  42.293  53.862  1.00  0.00     0.062 A 
ATOM     17  C   UNL     1      46.775  42.628  55.201  1.00  0.00     0.158 A 
BRANCH  15  18
ATOM     18  O   UNL     1      45.888  43.548  57.311  1.00  0.00    -0.504 OA
ATOM     19  H   UNL     1      45.819  44.497  57.652  1.00  0.00     0.293 HD
ENDBRANCH  15  18
BRANCH  17  20
ATOM     20  O   UNL     1      48.050  42.389  55.720  1.00  0.00    -0.504 OA
ATOM     21  H   UNL     1      48.299  42.521  56.690  1.00  0.00     0.293 HD
ENDBRANCH  17  20
ENDBRANCH   1  12
BRANCH   2  22
ATOM     22  O   UNL     1      45.898  44.263  51.033  1.00  0.00    -0.502 OA
ATOM     23  H   UNL     1      45.599  44.843  51.807  1.00  0.00     0.293 HD
ENDBRANCH   2  22
BRANCH   6  24
ATOM     24  O   UNL     1      44.535  41.534  46.821  1.00  0.00    -0.507 OA
ATOM     25  H   UNL     1      43.830  42.172  46.470  1.00  0.00     0.293 HD
ENDBRANCH   6  24
BRANCH   8  26
ATOM     26  O   UNL     1      43.118  37.359  48.778  1.00  0.00    -0.508 OA
ATOM     27  H   UNL     1      43.058  36.929  47.862  1.00  0.00     0.293 HD
ENDBRANCH   8  26
TORSDOF 6
ENDMDL
MODEL 6
REMARK VINA RESULT:    -5.334     10.785     13.307
REMARK INTER + INTRA:          -6.737
REMARK INTER:                  -6.407
REMARK INTRA:                  -0.330
REMARK UNBOUND:                -0.311
REMARK SMILES O=c1c(O)c(-c2ccc(O)c(O)c2)oc2cc(O)cc(O)c12
REMARK SMILES IDX 5 1 3 2 2 3 1 4 22 5 20 6 19 7 17 8 16 9 15 10 14 11 6 12
REMARK SMILES IDX 7 13 8 14 9 15 13 16 11 17 10 18 12 20 4 22 21 24 18 26
REMARK H PARENT 10 19 12 21 4 23 21 25 18 27
REMARK Flexibility Score: inf
ROOT
ATOM      1  C   UNL     1      47.505  33.992  58.404  1.00  0.00     0.180 A 
ATOM      2  C   UNL     1      46.985  32.956  59.205  1.00  0.00     0.208 A 
ATOM      3  C   UNL     1      46.134  33.285  60.270  1.00  0.00     0.238 A 
ATOM      4  O   UNL     1      45.653  32.364  60.987  1.00  0.00    -0.285 OA
ATOM      5  C   UNL     1      45.832  34.638  60.531  1.00  0.00     0.111 A 
ATOM      6  C   UNL     1      44.986  35.052  61.587  1.00  0.00     0.134 A 
ATOM      7  C   UNL     1      44.743  36.420  61.788  1.00  0.00     0.093 A 
ATOM      8  C   UNL     1      45.327  37.376  60.955  1.00  0.00     0.123 A 
ATOM      9  C   UNL     1      46.164  36.972  59.909  1.00  0.00     0.094 A 
ATOM     10  C   UNL     1      46.418  35.615  59.692  1.00  0.00     0.146 A 
ATOM     11  O   UNL     1      47.212  35.258  58.689  1.00  0.00    -0.452 OA
ENDROOT
BRANCH   1  12
ATOM     12  C   UNL     1      48.395  33.726  57.251  1.00  0.00     0.025 A 
ATOM     13  C   UNL     1      47.875  33.440  55.979  1.00  0.00     0.016 A 
ATOM     14  C   UNL     1      48.735  33.215  54.901  1.00  0.00     0.051 A 
ATOM     15  C   UNL     1      50.122  33.284  55.066  1.00  0.00     0.157 A 
ATOM     16  C   UNL     1      49.785  33.817  57.415  1.00  0.00     0.062 A 
ATOM     17  C   UNL     1      50.654  33.593  56.340  1.00  0.00     0.158 A 
BRANCH  15  18
ATOM     18  O   UNL     1      50.925  33.044  53.950  1.00  0.00    -0.504 OA
ATOM     19  H   UNL     1      50.653  32.457  53.174  1.00  0.00     0.293 HD
ENDBRANCH  15  18
BRANCH  17  20
ATOM     20  O   UNL     1      52.027  33.689  56.581  1.00  0.00    -0.504 OA
ATOM     21  H   UNL     1      52.712  33.900  55.869  1.00  0.00     0.293 HD
ENDBRANCH  17  20
ENDBRANCH   1  12
BRANCH   2  22
ATOM     22  O   UNL     1      47.337  31.628  58.955  1.00  0.00    -0.502 OA
ATOM     23  H   UNL     1      46.657  30.878  58.948  1.00  0.00     0.293 HD
ENDBRANCH   2  22
BRANCH   6  24
ATOM     24  O   UNL     1      44.388  34.122  62.437  1.00  0.00    -0.507 OA
ATOM     25  H   UNL     1      43.398  34.155  62.653  1.00  0.00     0.293 HD
ENDBRANCH   6  24
BRANCH   8  26
ATOM     26  O   UNL     1      45.070  38.728  61.176  1.00  0.00    -0.508 OA
ATOM     27  H   UNL     1      44.996  39.107  62.113  1.00  0.00     0.293 HD
ENDBRANCH   8  26
TORSDOF 6
ENDMDL
MODEL 7
REMARK VINA RESULT:    -5.082      3.630      6.514
REMARK INTER + INTRA:          -6.433
REMARK INTER:                  -6.121
REMARK INTRA:                  -0.311
REMARK UNBOUND:                -0.311
REMARK SMILES O=c1c(O)c(-c2ccc(O)c(O)c2)oc2cc(O)cc(O)c12
REMARK SMILES IDX 5 1 3 2 2 3 1 4 22 5 20 6 19 7 17 8 16 9 15 10 14 11 6 12
REMARK SMILES IDX 7 13 8 14 9 15 13 16 11 17 10 18 12 20 4 22 21 24 18 26
REMARK H PARENT 10 19 12 21 4 23 21 25 18 27
REMARK Flexibility Score: inf
ROOT
ATOM      1  C   UNL     1      47.456  40.423  50.494  1.00  0.00     0.180 A 
ATOM      2  C   UNL     1      47.033  41.611  49.866  1.00  0.00     0.208 A 
ATOM      3  C   UNL     1      45.923  41.568  49.010  1.00  0.00     0.238 A 
ATOM      4  O   UNL     1      45.529  42.629  48.451  1.00  0.00    -0.285 OA
ATOM      5  C   UNL     1      45.265  40.341  48.781  1.00  0.00     0.111 A 
ATOM      6  C   UNL     1      44.142  40.213  47.930  1.00  0.00     0.134 A 
ATOM      7  C   UNL     1      43.549  38.954  47.746  1.00  0.00     0.093 A 
ATOM      8  C   UNL     1      44.058  37.826  48.394  1.00  0.00     0.123 A 
ATOM      9  C   UNL     1      45.168  37.948  49.236  1.00  0.00     0.094 A 
ATOM     10  C   UNL     1      45.772  39.193  49.434  1.00  0.00     0.146 A 
ATOM     11  O   UNL     1      46.821  39.282  50.242  1.00  0.00    -0.452 OA
ENDROOT
BRANCH   1  12
ATOM     12  C   UNL     1      48.607  40.390  51.425  1.00  0.00     0.025 A 
ATOM     13  C   UNL     1      49.925  40.295  50.952  1.00  0.00     0.016 A 
ATOM     14  C   UNL     1      50.996  40.290  51.849  1.00  0.00     0.051 A 
ATOM     15  C   UNL     1      50.776  40.392  53.226  1.00  0.00     0.157 A 
ATOM     16  C   UNL     1      48.384  40.516  52.805  1.00  0.00     0.062 A 
ATOM     17  C   UNL     1      49.452  40.511  53.711  1.00  0.00     0.158 A 
BRANCH  15  18
ATOM     18  O   UNL     1      51.890  40.376  54.068  1.00  0.00    -0.504 OA
ATOM     19  H   UNL     1      52.054  39.672  54.774  1.00  0.00     0.293 HD
ENDBRANCH  15  18
BRANCH  17  20
ATOM     20  O   UNL     1      49.154  40.628  55.070  1.00  0.00    -0.504 OA
ATOM     21  H   UNL     1      49.753  40.291  55.811  1.00  0.00     0.293 HD
ENDBRANCH  17  20
ENDBRANCH   1  12
BRANCH   2  22
ATOM     22  O   UNL     1      47.730  42.804  50.072  1.00  0.00    -0.502 OA
ATOM     23  H   UNL     1      47.489  43.453  50.812  1.00  0.00     0.293 HD
ENDBRANCH   2  22
BRANCH   6  24
ATOM     24  O   UNL     1      43.611  41.319  47.268  1.00  0.00    -0.507 OA
ATOM     25  H   UNL     1      42.935  41.220  46.519  1.00  0.00     0.293 HD
ENDBRANCH   6  24
BRANCH   8  26
ATOM     26  O   UNL     1      43.452  36.587  48.193  1.00  0.00    -0.508 OA
ATOM     27  H   UNL     1      43.441  36.144  47.282  1.00  0.00     0.293 HD
ENDBRANCH   8  26
TORSDOF 6
ENDMDL
MODEL 8
REMARK VINA RESULT:    -5.031      1.784      7.120
REMARK INTER + INTRA:          -6.372
REMARK INTER:                  -6.056
REMARK INTRA:                  -0.316
REMARK UNBOUND:                -0.311
REMARK SMILES O=c1c(O)c(-c2ccc(O)c(O)c2)oc2cc(O)cc(O)c12
REMARK SMILES IDX 5 1 3 2 2 3 1 4 22 5 20 6 19 7 17 8 16 9 15 10 14 11 6 12
REMARK SMILES IDX 7 13 8 14 9 15 13 16 11 17 10 18 12 20 4 22 21 24 18 26
REMARK H PARENT 10 19 12 21 4 23 21 25 18 27
REMARK Flexibility Score: inf
ROOT
ATOM      1  C   UNL     1      45.996  38.755  48.349  1.00  0.00     0.180 A 
ATOM      2  C   UNL     1      44.801  39.455  48.091  1.00  0.00     0.208 A 
ATOM      3  C   UNL     1      44.753  40.833  48.350  1.00  0.00     0.238 A 
ATOM      4  O   UNL     1      43.691  41.472  48.112  1.00  0.00    -0.285 OA
ATOM      5  C   UNL     1      45.886  41.484  48.879  1.00  0.00     0.111 A 
ATOM      6  C   UNL     1      45.918  42.868  49.172  1.00  0.00     0.134 A 
ATOM      7  C   UNL     1      47.082  43.440  49.706  1.00  0.00     0.093 A 
ATOM      8  C   UNL     1      48.211  42.656  49.953  1.00  0.00     0.123 A 
ATOM      9  C   UNL     1      48.186  41.288  49.666  1.00  0.00     0.094 A 
ATOM     10  C   UNL     1      47.036  40.700  49.132  1.00  0.00     0.146 A 
ATOM     11  O   UNL     1      47.041  39.399  48.863  1.00  0.00    -0.452 OA
ENDROOT
BRANCH   1  12
ATOM     12  C   UNL     1      46.132  37.305  48.085  1.00  0.00     0.025 A 
ATOM     13  C   UNL     1      45.897  36.354  49.091  1.00  0.00     0.016 A 
ATOM     14  C   UNL     1      46.009  34.990  48.811  1.00  0.00     0.051 A 
ATOM     15  C   UNL     1      46.343  34.549  47.526  1.00  0.00     0.157 A 
ATOM     16  C   UNL     1      46.445  36.864  46.790  1.00  0.00     0.062 A 
ATOM     17  C   UNL     1      46.560  35.499  46.501  1.00  0.00     0.158 A 
BRANCH  15  18
ATOM     18  O   UNL     1      46.443  33.172  47.314  1.00  0.00    -0.504 OA
ATOM     19  H   UNL     1      45.734  32.506  47.586  1.00  0.00     0.293 HD
ENDBRANCH  15  18
BRANCH  17  20
ATOM     20  O   UNL     1      46.887  35.135  45.192  1.00  0.00    -0.504 OA
ATOM     21  H   UNL     1      47.138  34.198  44.913  1.00  0.00     0.293 HD
ENDBRANCH  17  20
ENDBRANCH   1  12
BRANCH   2  22
ATOM     22  O   UNL     1      43.677  38.778  47.612  1.00  0.00    -0.502 OA
ATOM     23  H   UNL     1      43.372  38.846  46.649  1.00  0.00     0.293 HD
ENDBRANCH   2  22
BRANCH   6  24
ATOM     24  O   UNL     1      44.806  43.678  48.938  1.00  0.00    -0.507 OA
ATOM     25  H   UNL     1      44.249  44.053  49.697  1.00  0.00     0.293 HD
ENDBRANCH   6  24
BRANCH   8  26
ATOM     26  O   UNL     1      49.355  43.249  50.486  1.00  0.00    -0.508 OA
ATOM     27  H   UNL     1      50.281  42.890  50.282  1.00  0.00     0.293 HD
ENDBRANCH   8  26
TORSDOF 6
ENDMDL
MODEL 9
REMARK VINA RESULT:    -4.919      3.955      6.893
REMARK INTER + INTRA:          -6.236
REMARK INTER:                  -5.913
REMARK INTRA:                  -0.324
REMARK UNBOUND:                -0.311
REMARK SMILES O=c1c(O)c(-c2ccc(O)c(O)c2)oc2cc(O)cc(O)c12
REMARK SMILES IDX 5 1 3 2 2 3 1 4 22 5 20 6 19 7 17 8 16 9 15 10 14 11 6 12
REMARK SMILES IDX 7 13 8 14 9 15 13 16 11 17 10 18 12 20 4 22 21 24 18 26
REMARK H PARENT 10 19 12 21 4 23 21 25 18 27
REMARK Flexibility Score: inf
ROOT
ATOM      1  C   UNL     1      47.481  41.886  50.545  1.00  0.00     0.180 A 
ATOM      2  C   UNL     1      47.022  42.679  49.475  1.00  0.00     0.208 A 
ATOM      3  C   UNL     1      45.987  42.190  48.664  1.00  0.00     0.238 A 
ATOM      4  O   UNL     1      45.560  42.897  47.710  1.00  0.00    -0.285 OA
ATOM      5  C   UNL     1      45.442  40.915  48.921  1.00  0.00     0.111 A 
ATOM      6  C   UNL     1      44.399  40.348  48.149  1.00  0.00     0.134 A 
ATOM      7  C   UNL     1      43.918  39.068  48.463  1.00  0.00     0.093 A 
ATOM      8  C   UNL     1      44.457  38.347  49.530  1.00  0.00     0.123 A 
ATOM      9  C   UNL     1      45.487  38.902  50.297  1.00  0.00     0.094 A 
ATOM     10  C   UNL     1      45.980  40.176  50.001  1.00  0.00     0.146 A 
ATOM     11  O   UNL     1      46.954  40.681  50.748  1.00  0.00    -0.452 OA
ENDROOT
BRANCH   1  12
ATOM     12  C   UNL     1      48.557  42.339  51.457  1.00  0.00     0.025 A 
ATOM     13  C   UNL     1      49.910  42.116  51.157  1.00  0.00     0.016 A 
ATOM     14  C   UNL     1      50.908  42.574  52.021  1.00  0.00     0.051 A 
ATOM     15  C   UNL     1      50.578  43.270  53.188  1.00  0.00     0.157 A 
ATOM     16  C   UNL     1      48.224  43.057  52.616  1.00  0.00     0.062 A 
ATOM     17  C   UNL     1      49.218  43.519  53.487  1.00  0.00     0.158 A 
BRANCH  15  18
ATOM     18  O   UNL     1      51.622  43.697  54.010  1.00  0.00    -0.504 OA
ATOM     19  H   UNL     1      51.885  44.664  54.133  1.00  0.00     0.293 HD
ENDBRANCH  15  18
BRANCH  17  20
ATOM     20  O   UNL     1      48.811  44.215  54.628  1.00  0.00    -0.504 OA
ATOM     21  H   UNL     1      49.443  44.546  55.343  1.00  0.00     0.293 HD
ENDBRANCH  17  20
ENDBRANCH   1  12
BRANCH   2  22
ATOM     22  O   UNL     1      47.611  43.918  49.212  1.00  0.00    -0.502 OA
ATOM     23  H   UNL     1      48.515  44.004  48.764  1.00  0.00     0.293 HD
ENDBRANCH   2  22
BRANCH   6  24
ATOM     24  O   UNL     1      43.841  41.043  47.076  1.00  0.00    -0.507 OA
ATOM     25  H   UNL     1      42.904  41.428  47.119  1.00  0.00     0.293 HD
ENDBRANCH   6  24
BRANCH   8  26
ATOM     26  O   UNL     1      43.961  37.077  49.820  1.00  0.00    -0.508 OA
ATOM     27  H   UNL     1      43.565  36.857  50.727  1.00  0.00     0.293 HD
ENDBRANCH   8  26
TORSDOF 6
ENDMDL
