MODEL 1
REMARK VINA RESULT:    -3.044      0.000      0.000
REMARK INTER + INTRA:          -3.044
REMARK INTER:                  -3.044
REMARK INTRA:                   0.000
REMARK UNBOUND:                 0.000
REMARK SMILES CC1(C)O[C@]2(C)CC[C@H]1CC2
REMARK SMILES IDX 1 1 2 2 9 3 10 4 11 5 5 6 4 7 7 8 8 9 6 10 3 11
REMARK H PARENT
REMARK Flexibility Score: inf
ROOT
ATOM      1  C   UNL     1     149.882 156.393 139.790  1.00  0.00     0.042 C 
ATOM      2  C   UNL     1     149.281 157.414 138.799  1.00  0.00     0.066 C 
ATOM      3  C   UNL     1     147.961 156.849 138.148  1.00  0.00     0.021 C 
ATOM      4  C   UNL     1     146.912 156.643 139.268  1.00  0.00     0.009 C 
ATOM      5  C   UNL     1     146.784 157.948 140.090  1.00  0.00     0.035 C 
ATOM      6  C   UNL     1     147.679 159.057 139.463  1.00  0.00     0.066 C 
ATOM      7  O   UNL     1     149.044 158.638 139.510  1.00  0.00    -0.369 OA
ATOM      8  C   UNL     1     147.259 159.267 137.980  1.00  0.00     0.035 C 
ATOM      9  C   UNL     1     147.376 157.931 137.207  1.00  0.00     0.009 C 
ATOM     10  C   UNL     1     147.536 160.365 140.248  1.00  0.00     0.042 C 
ATOM     11  C   UNL     1     150.350 157.688 137.718  1.00  0.00     0.042 C 
ENDROOT
TORSDOF 0
ENDMDL
MODEL 2
REMARK VINA RESULT:    -3.043      9.703     11.242
REMARK INTER + INTRA:          -3.043
REMARK INTER:                  -3.043
REMARK INTRA:                   0.000
REMARK UNBOUND:                 0.000
REMARK SMILES CC1(C)O[C@]2(C)CC[C@H]1CC2
REMARK SMILES IDX 1 1 2 2 9 3 10 4 11 5 5 6 4 7 7 8 8 9 6 10 3 11
REMARK H PARENT
REMARK Flexibility Score: inf
ROOT
ATOM      1  C   UNL     1     145.010 149.778 139.751  1.00  0.00     0.042 C 
ATOM      2  C   UNL     1     143.980 149.197 138.757  1.00  0.00     0.066 C 
ATOM      3  C   UNL     1     144.483 147.819 138.175  1.00  0.00     0.021 C 
ATOM      4  C   UNL     1     144.598 146.808 139.341  1.00  0.00     0.009 C 
ATOM      5  C   UNL     1     143.267 146.790 140.132  1.00  0.00     0.035 C 
ATOM      6  C   UNL     1     142.230 147.721 139.440  1.00  0.00     0.066 C 
ATOM      7  O   UNL     1     142.727 149.060 139.444  1.00  0.00    -0.369 OA
ATOM      8  C   UNL     1     142.032 147.252 137.969  1.00  0.00     0.035 C 
ATOM      9  C   UNL     1     143.392 147.260 137.229  1.00  0.00     0.009 C 
ATOM     10  C   UNL     1     140.897 147.687 140.194  1.00  0.00     0.042 C 
ATOM     11  C   UNL     1     143.797 150.233 137.626  1.00  0.00     0.042 C 
ENDROOT
TORSDOF 0
ENDMDL
MODEL 3
REMARK VINA RESULT:    -3.039      9.609     11.147
REMARK INTER + INTRA:          -3.039
REMARK INTER:                  -3.039
REMARK INTRA:                   0.000
REMARK UNBOUND:                 0.000
REMARK SMILES CC1(C)O[C@]2(C)CC[C@H]1CC2
REMARK SMILES IDX 1 1 2 2 9 3 10 4 11 5 5 6 4 7 7 8 8 9 6 10 3 11
REMARK H PARENT
REMARK Flexibility Score: inf
ROOT
ATOM      1  C   UNL     1     156.341 151.451 139.780  1.00  0.00     0.042 C 
ATOM      2  C   UNL     1     157.328 152.069 138.766  1.00  0.00     0.066 C 
ATOM      3  C   UNL     1     156.745 153.405 138.164  1.00  0.00     0.021 C 
ATOM      4  C   UNL     1     156.582 154.430 139.312  1.00  0.00     0.009 C 
ATOM      5  C   UNL     1     157.916 154.537 140.090  1.00  0.00     0.035 C 
ATOM      6  C   UNL     1     158.998 153.653 139.406  1.00  0.00     0.066 C 
ATOM      7  O   UNL     1     158.577 152.289 139.438  1.00  0.00    -0.369 OA
ATOM      8  C   UNL     1     159.157 154.104 137.925  1.00  0.00     0.035 C 
ATOM      9  C   UNL     1     157.794 154.006 137.197  1.00  0.00     0.009 C 
ATOM     10  C   UNL     1     160.334 153.776 140.147  1.00  0.00     0.042 C 
ATOM     11  C   UNL     1     157.560 151.023 137.653  1.00  0.00     0.042 C 
ENDROOT
TORSDOF 0
ENDMDL
MODEL 4
REMARK VINA RESULT:    -3.020     13.866     15.853
REMARK INTER + INTRA:          -3.020
REMARK INTER:                  -3.020
REMARK INTRA:                   0.000
REMARK UNBOUND:                 0.000
REMARK SMILES CC1(C)O[C@]2(C)CC[C@H]1CC2
REMARK SMILES IDX 1 1 2 2 9 3 10 4 11 5 5 6 4 7 7 8 8 9 6 10 3 11
REMARK H PARENT
REMARK Flexibility Score: inf
ROOT
ATOM      1  C   UNL     1     151.633 145.145 139.740  1.00  0.00     0.042 C 
ATOM      2  C   UNL     1     152.129 144.062 138.757  1.00  0.00     0.066 C 
ATOM      3  C   UNL     1     153.531 144.459 138.152  1.00  0.00     0.021 C 
ATOM      4  C   UNL     1     154.562 144.523 139.305  1.00  0.00     0.009 C 
ATOM      5  C   UNL     1     154.498 143.207 140.118  1.00  0.00     0.035 C 
ATOM      6  C   UNL     1     153.490 142.225 139.453  1.00  0.00     0.066 C 
ATOM      7  O   UNL     1     152.188 142.814 139.463  1.00  0.00    -0.369 OA
ATOM      8  C   UNL     1     153.925 141.973 137.981  1.00  0.00     0.035 C 
ATOM      9  C   UNL     1     154.002 143.318 137.218  1.00  0.00     0.009 C 
ATOM     10  C   UNL     1     153.441 140.905 140.229  1.00  0.00     0.042 C 
ATOM     11  C   UNL     1     151.069 143.933 137.642  1.00  0.00     0.042 C 
ENDROOT
TORSDOF 0
ENDMDL
MODEL 5
REMARK VINA RESULT:    -2.933      0.893      3.220
REMARK INTER + INTRA:          -2.933
REMARK INTER:                  -2.933
REMARK INTRA:                   0.000
REMARK UNBOUND:                 0.000
REMARK SMILES CC1(C)O[C@]2(C)CC[C@H]1CC2
REMARK SMILES IDX 1 1 2 2 9 3 10 4 11 5 5 6 4 7 7 8 8 9 6 10 3 11
REMARK H PARENT
REMARK Flexibility Score: inf
ROOT
ATOM      1  C   UNL     1     148.434 160.411 138.041  1.00  0.00     0.042 C 
ATOM      2  C   UNL     1     147.997 159.278 138.994  1.00  0.00     0.066 C 
ATOM      3  C   UNL     1     147.063 158.250 138.248  1.00  0.00     0.021 C 
ATOM      4  C   UNL     1     147.875 157.587 137.109  1.00  0.00     0.009 C 
ATOM      5  C   UNL     1     149.201 157.036 137.686  1.00  0.00     0.035 C 
ATOM      6  C   UNL     1     149.235 157.248 139.227  1.00  0.00     0.066 C 
ATOM      7  O   UNL     1     149.179 158.648 139.508  1.00  0.00    -0.369 OA
ATOM      8  C   UNL     1     147.997 156.550 139.861  1.00  0.00     0.035 C 
ATOM      9  C   UNL     1     146.699 157.113 139.233  1.00  0.00     0.009 C 
ATOM     10  C   UNL     1     150.529 156.677 139.816  1.00  0.00     0.042 C 
ATOM     11  C   UNL     1     147.252 159.935 140.177  1.00  0.00     0.042 C 
ENDROOT
TORSDOF 0
ENDMDL
MODEL 6
REMARK VINA RESULT:    -2.889     13.404     14.966
REMARK INTER + INTRA:          -2.889
REMARK INTER:                  -2.889
REMARK INTRA:                   0.000
REMARK UNBOUND:                 0.000
REMARK SMILES CC1(C)O[C@]2(C)CC[C@H]1CC2
REMARK SMILES IDX 1 1 2 2 9 3 10 4 11 5 5 6 4 7 7 8 8 9 6 10 3 11
REMARK H PARENT
REMARK Flexibility Score: inf
ROOT
ATOM      1  C   UNL     1     150.890 143.927 138.229  1.00  0.00     0.042 C 
ATOM      2  C   UNL     1     152.164 144.461 138.919  1.00  0.00     0.066 C 
ATOM      3  C   UNL     1     153.083 143.270 139.393  1.00  0.00     0.021 C 
ATOM      4  C   UNL     1     153.547 142.482 138.144  1.00  0.00     0.009 C 
ATOM      5  C   UNL     1     154.155 143.469 137.118  1.00  0.00     0.035 C 
ATOM      6  C   UNL     1     154.182 144.904 137.718  1.00  0.00     0.066 C 
ATOM      7  O   UNL     1     152.843 145.322 137.992  1.00  0.00    -0.369 OA
ATOM      8  C   UNL     1     154.993 144.882 139.046  1.00  0.00     0.035 C 
ATOM      9  C   UNL     1     154.365 143.862 140.027  1.00  0.00     0.009 C 
ATOM     10  C   UNL     1     154.812 145.886 136.725  1.00  0.00     0.042 C 
ATOM     11  C   UNL     1     151.711 145.316 140.123  1.00  0.00     0.042 C 
ENDROOT
TORSDOF 0
ENDMDL
MODEL 7
REMARK VINA RESULT:    -2.887      8.576     10.368
REMARK INTER + INTRA:          -2.887
REMARK INTER:                  -2.887
REMARK INTRA:                   0.000
REMARK UNBOUND:                 0.000
REMARK SMILES CC1(C)O[C@]2(C)CC[C@H]1CC2
REMARK SMILES IDX 1 1 2 2 9 3 10 4 11 5 5 6 4 7 7 8 8 9 6 10 3 11
REMARK H PARENT
REMARK Flexibility Score: inf
ROOT
ATOM      1  C   UNL     1     157.328 150.881 138.213  1.00  0.00     0.042 C 
ATOM      2  C   UNL     1     156.824 152.167 138.903  1.00  0.00     0.066 C 
ATOM      3  C   UNL     1     158.036 153.055 139.383  1.00  0.00     0.021 C 
ATOM      4  C   UNL     1     158.839 153.502 138.137  1.00  0.00     0.009 C 
ATOM      5  C   UNL     1     157.870 154.136 137.109  1.00  0.00     0.035 C 
ATOM      6  C   UNL     1     156.434 154.197 137.705  1.00  0.00     0.066 C 
ATOM      7  O   UNL     1     155.983 152.869 137.976  1.00  0.00    -0.369 OA
ATOM      8  C   UNL     1     156.473 155.005 139.035  1.00  0.00     0.035 C 
ATOM      9  C   UNL     1     157.474 154.350 140.018  1.00  0.00     0.009 C 
ATOM     10  C   UNL     1     155.472 154.853 136.711  1.00  0.00     0.042 C 
ATOM     11  C   UNL     1     155.955 151.733 140.105  1.00  0.00     0.042 C 
ENDROOT
TORSDOF 0
ENDMDL
MODEL 8
REMARK VINA RESULT:    -2.886      1.404      3.163
REMARK INTER + INTRA:          -2.886
REMARK INTER:                  -2.886
REMARK INTRA:                   0.000
REMARK UNBOUND:                 0.000
REMARK SMILES CC1(C)O[C@]2(C)CC[C@H]1CC2
REMARK SMILES IDX 1 1 2 2 9 3 10 4 11 5 5 6 4 7 7 8 8 9 6 10 3 11
REMARK H PARENT
REMARK Flexibility Score: inf
ROOT
ATOM      1  C   UNL     1     150.292 157.466 138.104  1.00  0.00     0.042 C 
ATOM      2  C   UNL     1     149.056 156.870 138.813  1.00  0.00     0.066 C 
ATOM      3  C   UNL     1     148.109 158.016 139.339  1.00  0.00     0.021 C 
ATOM      4  C   UNL     1     147.584 158.815 138.122  1.00  0.00     0.009 C 
ATOM      5  C   UNL     1     146.985 157.832 137.088  1.00  0.00     0.035 C 
ATOM      6  C   UNL     1     147.024 156.383 137.654  1.00  0.00     0.066 C 
ATOM      7  O   UNL     1     148.384 156.007 137.883  1.00  0.00    -0.369 OA
ATOM      8  C   UNL     1     146.249 156.345 139.002  1.00  0.00     0.035 C 
ATOM      9  C   UNL     1     146.866 157.363 139.991  1.00  0.00     0.009 C 
ATOM     10  C   UNL     1     146.403 155.403 136.654  1.00  0.00     0.042 C 
ATOM     11  C   UNL     1     149.571 156.005 139.984  1.00  0.00     0.042 C 
ENDROOT
TORSDOF 0
ENDMDL
MODEL 9
REMARK VINA RESULT:    -2.877      9.548     11.271
REMARK INTER + INTRA:          -2.877
REMARK INTER:                  -2.877
REMARK INTRA:                   0.000
REMARK UNBOUND:                 0.000
REMARK SMILES CC1(C)O[C@]2(C)CC[C@H]1CC2
REMARK SMILES IDX 1 1 2 2 9 3 10 4 11 5 5 6 4 7 7 8 8 9 6 10 3 11
REMARK H PARENT
REMARK Flexibility Score: inf
ROOT
ATOM      1  C   UNL     1     144.018 150.383 138.254  1.00  0.00     0.042 C 
ATOM      2  C   UNL     1     144.529 149.086 138.919  1.00  0.00     0.066 C 
ATOM      3  C   UNL     1     143.322 148.176 139.368  1.00  0.00     0.021 C 
ATOM      4  C   UNL     1     142.534 147.751 138.106  1.00  0.00     0.009 C 
ATOM      5  C   UNL     1     143.516 147.150 137.071  1.00  0.00     0.035 C 
ATOM      6  C   UNL     1     144.948 147.088 137.677  1.00  0.00     0.066 C 
ATOM      7  O   UNL     1     145.384 148.414 137.982  1.00  0.00    -0.369 OA
ATOM      8  C   UNL     1     144.907 146.250 138.987  1.00  0.00     0.035 C 
ATOM      9  C   UNL     1     143.892 146.872 139.977  1.00  0.00     0.009 C 
ATOM     10  C   UNL     1     145.924 146.464 136.675  1.00  0.00     0.042 C 
ATOM     11  C   UNL     1     145.385 149.500 140.136  1.00  0.00     0.042 C 
ENDROOT
TORSDOF 0
ENDMDL
