MODEL 1
REMARK VINA RESULT:    -0.097      0.000      0.000
REMARK INTER + INTRA:          -0.431
REMARK INTER:                  -0.114
REMARK INTRA:                  -0.317
REMARK UNBOUND:                -0.317
REMARK SMILES O=c1cc(-c2ccc(O)c(O)c2)oc2cc(O)cc(O)c12
REMARK SMILES IDX 4 1 3 2 2 3 1 4 21 5 19 6 18 7 16 8 15 9 14 10 13 11 5 12
REMARK SMILES IDX 6 13 7 14 8 15 12 16 10 17 9 18 11 20 20 22 17 24
REMARK H PARENT 9 19 11 21 20 23 17 25
REMARK Flexibility Score: inf
ROOT
ATOM      1  C   UNL     1       9.393  68.190   0.982  1.00  0.00     0.138 A 
ATOM      2  C   UNL     1       9.108  68.744   2.237  1.00  0.00     0.100 A 
ATOM      3  C   UNL     1       9.265  70.116   2.437  1.00  0.00     0.197 A 
ATOM      4  O   UNL     1       9.062  70.575   3.590  1.00  0.00    -0.289 OA
ATOM      5  C   UNL     1       9.678  70.940   1.363  1.00  0.00     0.107 A 
ATOM      6  C   UNL     1       9.831  72.358   1.440  1.00  0.00     0.134 A 
ATOM      7  C   UNL     1      10.358  73.054   0.344  1.00  0.00     0.093 A 
ATOM      8  C   UNL     1      10.679  72.396  -0.842  1.00  0.00     0.123 A 
ATOM      9  C   UNL     1      10.482  71.018  -0.946  1.00  0.00     0.094 A 
ATOM     10  C   UNL     1       9.991  70.290   0.140  1.00  0.00     0.146 A 
ATOM     11  O   UNL     1       9.832  68.978   0.005  1.00  0.00    -0.456 OA
ENDROOT
BRANCH   1  12
ATOM     12  C   UNL     1       9.243  66.737   0.714  1.00  0.00     0.021 A 
ATOM     13  C   UNL     1       8.649  65.912   1.685  1.00  0.00     0.016 A 
ATOM     14  C   UNL     1       8.502  64.541   1.460  1.00  0.00     0.051 A 
ATOM     15  C   UNL     1       8.955  63.968   0.266  1.00  0.00     0.157 A 
ATOM     16  C   UNL     1       9.708  66.152  -0.480  1.00  0.00     0.062 A 
ATOM     17  C   UNL     1       9.564  64.778  -0.707  1.00  0.00     0.158 A 
BRANCH  15  18
ATOM     18  O   UNL     1       8.806  62.600   0.043  1.00  0.00    -0.504 OA
ATOM     19  H   UNL     1       7.994  62.226  -0.432  1.00  0.00     0.293 HD
ENDBRANCH  15  18
BRANCH  17  20
ATOM     20  O   UNL     1      10.035  64.236  -1.902  1.00  0.00    -0.504 OA
ATOM     21  H   UNL     1      10.391  63.290  -1.961  1.00  0.00     0.293 HD
ENDBRANCH  17  20
ENDBRANCH   1  12
BRANCH   6  22
ATOM     22  O   UNL     1       9.462  73.125   2.548  1.00  0.00    -0.507 OA
ATOM     23  H   UNL     1       8.901  72.793   3.317  1.00  0.00     0.293 HD
ENDBRANCH   6  22
BRANCH   8  24
ATOM     24  O   UNL     1      11.187  73.124  -1.916  1.00  0.00    -0.508 OA
ATOM     25  H   UNL     1      11.272  74.134  -1.879  1.00  0.00     0.293 HD
ENDBRANCH   8  24
TORSDOF 5
ENDMDL
MODEL 2
REMARK VINA RESULT:    -0.015      1.191      3.050
REMARK INTER + INTRA:          -0.335
REMARK INTER:                  -0.018
REMARK INTRA:                  -0.318
REMARK UNBOUND:                -0.317
REMARK SMILES O=c1cc(-c2ccc(O)c(O)c2)oc2cc(O)cc(O)c12
REMARK SMILES IDX 4 1 3 2 2 3 1 4 21 5 19 6 18 7 16 8 15 9 14 10 13 11 5 12
REMARK SMILES IDX 6 13 7 14 8 15 12 16 10 17 9 18 11 20 20 22 17 24
REMARK H PARENT 9 19 11 21 20 23 17 25
REMARK Flexibility Score: inf
ROOT
ATOM      1  C   UNL     1       9.632  68.194  -0.283  1.00  0.00     0.138 A 
ATOM      2  C   UNL     1      10.088  68.777  -1.474  1.00  0.00     0.100 A 
ATOM      3  C   UNL     1      10.278  70.158  -1.537  1.00  0.00     0.197 A 
ATOM      4  O   UNL     1      10.627  70.658  -2.637  1.00  0.00    -0.289 OA
ATOM      5  C   UNL     1      10.041  70.954  -0.392  1.00  0.00     0.107 A 
ATOM      6  C   UNL     1      10.241  72.366  -0.329  1.00  0.00     0.134 A 
ATOM      7  C   UNL     1       9.863  73.064   0.825  1.00  0.00     0.093 A 
ATOM      8  C   UNL     1       9.349  72.398   1.936  1.00  0.00     0.123 A 
ATOM      9  C   UNL     1       9.200  71.011   1.905  1.00  0.00     0.094 A 
ATOM     10  C   UNL     1       9.536  70.289   0.757  1.00  0.00     0.146 A 
ATOM     11  O   UNL     1       9.366  68.971   0.763  1.00  0.00    -0.456 OA
ENDROOT
BRANCH   1  12
ATOM     12  C   UNL     1       9.414  66.731  -0.159  1.00  0.00     0.021 A 
ATOM     13  C   UNL     1       9.754  65.887  -1.230  1.00  0.00     0.016 A 
ATOM     14  C   UNL     1       9.552  64.508  -1.141  1.00  0.00     0.051 A 
ATOM     15  C   UNL     1       8.997  63.948   0.015  1.00  0.00     0.157 A 
ATOM     16  C   UNL     1       8.844  66.162   0.997  1.00  0.00     0.062 A 
ATOM     17  C   UNL     1       8.639  64.780   1.088  1.00  0.00     0.158 A 
BRANCH  15  18
ATOM     18  O   UNL     1       8.799  62.571   0.102  1.00  0.00    -0.504 OA
ATOM     19  H   UNL     1       8.441  62.138   0.945  1.00  0.00     0.293 HD
ENDBRANCH  15  18
BRANCH  17  20
ATOM     20  O   UNL     1       8.074  64.254   2.250  1.00  0.00    -0.504 OA
ATOM     21  H   UNL     1       7.081  64.078   2.334  1.00  0.00     0.293 HD
ENDBRANCH  17  20
ENDBRANCH   1  12
BRANCH   6  22
ATOM     22  O   UNL     1      10.826  73.119  -1.351  1.00  0.00    -0.507 OA
ATOM     23  H   UNL     1      10.333  73.482  -2.152  1.00  0.00     0.293 HD
ENDBRANCH   6  22
BRANCH   8  24
ATOM     24  O   UNL     1       8.998  73.125   3.071  1.00  0.00    -0.508 OA
ATOM     25  H   UNL     1       8.891  72.678   3.975  1.00  0.00     0.293 HD
ENDBRANCH   8  24
TORSDOF 5
ENDMDL
MODEL 3
REMARK VINA RESULT:     0.863      1.776      6.328
REMARK INTER + INTRA:           0.697
REMARK INTER:                   1.014
REMARK INTRA:                  -0.318
REMARK UNBOUND:                -0.317
REMARK SMILES O=c1cc(-c2ccc(O)c(O)c2)oc2cc(O)cc(O)c12
REMARK SMILES IDX 4 1 3 2 2 3 1 4 21 5 19 6 18 7 16 8 15 9 14 10 13 11 5 12
REMARK SMILES IDX 6 13 7 14 8 15 12 16 10 17 9 18 11 20 20 22 17 24
REMARK H PARENT 9 19 11 21 20 23 17 25
REMARK Flexibility Score: inf
ROOT
ATOM      1  C   UNL     1      10.314  69.828  -0.145  1.00  0.00     0.138 A 
ATOM      2  C   UNL     1      10.049  70.359   1.125  1.00  0.00     0.100 A 
ATOM      3  C   UNL     1       9.563  69.527   2.134  1.00  0.00     0.197 A 
ATOM      4  O   UNL     1       9.276  70.045   3.244  1.00  0.00    -0.289 OA
ATOM      5  C   UNL     1       9.371  68.149   1.876  1.00  0.00     0.107 A 
ATOM      6  C   UNL     1       8.920  67.198   2.841  1.00  0.00     0.134 A 
ATOM      7  C   UNL     1       8.656  65.882   2.440  1.00  0.00     0.093 A 
ATOM      8  C   UNL     1       8.885  65.468   1.128  1.00  0.00     0.123 A 
ATOM      9  C   UNL     1       9.378  66.376   0.190  1.00  0.00     0.094 A 
ATOM     10  C   UNL     1       9.618  67.704   0.550  1.00  0.00     0.146 A 
ATOM     11  O   UNL     1      10.074  68.541  -0.376  1.00  0.00    -0.456 OA
ENDROOT
BRANCH   1  12
ATOM     12  C   UNL     1      10.834  70.668  -1.254  1.00  0.00     0.021 A 
ATOM     13  C   UNL     1      11.147  72.016  -1.012  1.00  0.00     0.016 A 
ATOM     14  C   UNL     1      11.631  72.829  -2.040  1.00  0.00     0.051 A 
ATOM     15  C   UNL     1      11.801  72.312  -3.330  1.00  0.00     0.157 A 
ATOM     16  C   UNL     1      10.995  70.157  -2.556  1.00  0.00     0.062 A 
ATOM     17  C   UNL     1      11.478  70.970  -3.589  1.00  0.00     0.158 A 
BRANCH  15  18
ATOM     18  O   UNL     1      12.285  73.125  -4.353  1.00  0.00    -0.504 OA
ATOM     19  H   UNL     1      11.722  73.349  -5.164  1.00  0.00     0.293 HD
ENDBRANCH  15  18
BRANCH  17  20
ATOM     20  O   UNL     1      11.625  70.428  -4.865  1.00  0.00    -0.504 OA
ATOM     21  H   UNL     1      11.848  69.451  -5.014  1.00  0.00     0.293 HD
ENDBRANCH  17  20
ENDBRANCH   1  12
BRANCH   6  22
ATOM     22  O   UNL     1       8.739  67.485   4.196  1.00  0.00    -0.507 OA
ATOM     23  H   UNL     1       9.322  68.105   4.737  1.00  0.00     0.293 HD
ENDBRANCH   6  22
BRANCH   8  24
ATOM     24  O   UNL     1       8.625  64.147   0.770  1.00  0.00    -0.508 OA
ATOM     25  H   UNL     1       9.089  63.372   1.231  1.00  0.00     0.293 HD
ENDBRANCH   8  24
TORSDOF 5
ENDMDL
MODEL 4
REMARK VINA RESULT:     0.928      2.864      6.151
REMARK INTER + INTRA:           0.774
REMARK INTER:                   1.074
REMARK INTRA:                  -0.300
REMARK UNBOUND:                -0.317
REMARK SMILES O=c1cc(-c2ccc(O)c(O)c2)oc2cc(O)cc(O)c12
REMARK SMILES IDX 4 1 3 2 2 3 1 4 21 5 19 6 18 7 16 8 15 9 14 10 13 11 5 12
REMARK SMILES IDX 6 13 7 14 8 15 12 16 10 17 9 18 11 20 20 22 17 24
REMARK H PARENT 9 19 11 21 20 23 17 25
REMARK Flexibility Score: inf
ROOT
ATOM      1  C   UNL     1      10.510  71.434  -0.246  1.00  0.00     0.138 A 
ATOM      2  C   UNL     1       9.986  72.471   0.538  1.00  0.00     0.100 A 
ATOM      3  C   UNL     1       9.453  72.184   1.795  1.00  0.00     0.197 A 
ATOM      4  O   UNL     1       8.933  73.125   2.449  1.00  0.00    -0.289 OA
ATOM      5  C   UNL     1       9.473  70.855   2.280  1.00  0.00     0.107 A 
ATOM      6  C   UNL     1       8.994  70.451   3.564  1.00  0.00     0.134 A 
ATOM      7  C   UNL     1       8.960  69.089   3.889  1.00  0.00     0.093 A 
ATOM      8  C   UNL     1       9.440  68.124   3.006  1.00  0.00     0.123 A 
ATOM      9  C   UNL     1       9.961  68.512   1.771  1.00  0.00     0.094 A 
ATOM     10  C   UNL     1       9.978  69.859   1.402  1.00  0.00     0.146 A 
ATOM     11  O   UNL     1      10.468  70.187   0.211  1.00  0.00    -0.456 OA
ENDROOT
BRANCH   1  12
ATOM     12  C   UNL     1      11.092  71.683  -1.589  1.00  0.00     0.021 A 
ATOM     13  C   UNL     1      11.820  72.863  -1.820  1.00  0.00     0.016 A 
ATOM     14  C   UNL     1      12.371  73.125  -3.077  1.00  0.00     0.051 A 
ATOM     15  C   UNL     1      12.196  72.217  -4.128  1.00  0.00     0.157 A 
ATOM     16  C   UNL     1      10.908  70.781  -2.654  1.00  0.00     0.062 A 
ATOM     17  C   UNL     1      11.458  71.041  -3.916  1.00  0.00     0.158 A 
BRANCH  15  18
ATOM     18  O   UNL     1      12.749  72.480  -5.380  1.00  0.00    -0.504 OA
ATOM     19  H   UNL     1      12.731  71.791  -6.123  1.00  0.00     0.293 HD
ENDBRANCH  15  18
BRANCH  17  20
ATOM     20  O   UNL     1      11.257  70.122  -4.945  1.00  0.00    -0.504 OA
ATOM     21  H   UNL     1      10.374  69.644  -5.076  1.00  0.00     0.293 HD
ENDBRANCH  17  20
ENDBRANCH   1  12
BRANCH   6  22
ATOM     22  O   UNL     1       8.569  71.341   4.554  1.00  0.00    -0.507 OA
ATOM     23  H   UNL     1       8.142  72.237   4.379  1.00  0.00     0.293 HD
ENDBRANCH   6  22
BRANCH   8  24
ATOM     24  O   UNL     1       9.404  66.780   3.371  1.00  0.00    -0.508 OA
ATOM     25  H   UNL     1      10.153  66.355   3.905  1.00  0.00     0.293 HD
ENDBRANCH   8  24
TORSDOF 5
ENDMDL
MODEL 5
REMARK VINA RESULT:     1.096      0.648      1.489
REMARK INTER + INTRA:           0.971
REMARK INTER:                   1.267
REMARK INTRA:                  -0.296
REMARK UNBOUND:                -0.317
REMARK SMILES O=c1cc(-c2ccc(O)c(O)c2)oc2cc(O)cc(O)c12
REMARK SMILES IDX 4 1 3 2 2 3 1 4 21 5 19 6 18 7 16 8 15 9 14 10 13 11 5 12
REMARK SMILES IDX 6 13 7 14 8 15 12 16 10 17 9 18 11 20 20 22 17 24
REMARK H PARENT 9 19 11 21 20 23 17 25
REMARK Flexibility Score: inf
ROOT
ATOM      1  C   UNL     1       9.566  68.205   0.742  1.00  0.00     0.138 A 
ATOM      2  C   UNL     1       9.391  68.755   2.019  1.00  0.00     0.100 A 
ATOM      3  C   UNL     1       9.592  70.122   2.215  1.00  0.00     0.197 A 
ATOM      4  O   UNL     1       9.489  70.576   3.384  1.00  0.00    -0.289 OA
ATOM      5  C   UNL     1       9.938  70.946   1.118  1.00  0.00     0.107 A 
ATOM      6  C   UNL     1      10.127  72.359   1.192  1.00  0.00     0.134 A 
ATOM      7  C   UNL     1      10.582  73.053   0.063  1.00  0.00     0.093 A 
ATOM      8  C   UNL     1      10.797  72.399  -1.149  1.00  0.00     0.123 A 
ATOM      9  C   UNL     1      10.563  71.026  -1.246  1.00  0.00     0.094 A 
ATOM     10  C   UNL     1      10.142  70.299  -0.130  1.00  0.00     0.146 A 
ATOM     11  O   UNL     1       9.945  68.992  -0.260  1.00  0.00    -0.456 OA
ENDROOT
BRANCH   1  12
ATOM     12  C   UNL     1       9.365  66.758   0.477  1.00  0.00     0.021 A 
ATOM     13  C   UNL     1       9.745  66.223  -0.765  1.00  0.00     0.016 A 
ATOM     14  C   UNL     1       9.560  64.866  -1.042  1.00  0.00     0.051 A 
ATOM     15  C   UNL     1       8.982  64.022  -0.087  1.00  0.00     0.157 A 
ATOM     16  C   UNL     1       8.772  65.906   1.429  1.00  0.00     0.062 A 
ATOM     17  C   UNL     1       8.583  64.546   1.154  1.00  0.00     0.158 A 
BRANCH  15  18
ATOM     18  O   UNL     1       8.800  62.668  -0.365  1.00  0.00    -0.504 OA
ATOM     19  H   UNL     1       8.314  62.359  -1.198  1.00  0.00     0.293 HD
ENDBRANCH  15  18
BRANCH  17  20
ATOM     20  O   UNL     1       7.995  63.734   2.123  1.00  0.00    -0.504 OA
ATOM     21  H   UNL     1       7.059  63.902   2.471  1.00  0.00     0.293 HD
ENDBRANCH  17  20
ENDBRANCH   1  12
BRANCH   6  22
ATOM     22  O   UNL     1       9.861  73.125   2.330  1.00  0.00    -0.507 OA
ATOM     23  H   UNL     1       9.022  73.664   2.479  1.00  0.00     0.293 HD
ENDBRANCH   6  22
BRANCH   8  24
ATOM     24  O   UNL     1      11.235  73.125  -2.253  1.00  0.00    -0.508 OA
ATOM     25  H   UNL     1      12.062  73.709  -2.209  1.00  0.00     0.293 HD
ENDBRANCH   8  24
TORSDOF 5
ENDMDL
MODEL 6
REMARK VINA RESULT:     2.096      2.767      5.917
REMARK INTER + INTRA:           2.146
REMARK INTER:                   2.437
REMARK INTRA:                  -0.291
REMARK UNBOUND:                -0.317
REMARK SMILES O=c1cc(-c2ccc(O)c(O)c2)oc2cc(O)cc(O)c12
REMARK SMILES IDX 4 1 3 2 2 3 1 4 21 5 19 6 18 7 16 8 15 9 14 10 13 11 5 12
REMARK SMILES IDX 6 13 7 14 8 15 12 16 10 17 9 18 11 20 20 22 17 24
REMARK H PARENT 9 19 11 21 20 23 17 25
REMARK Flexibility Score: inf
ROOT
ATOM      1  C   UNL     1      10.392  70.095  -0.517  1.00  0.00     0.138 A 
ATOM      2  C   UNL     1      10.498  68.766  -0.084  1.00  0.00     0.100 A 
ATOM      3  C   UNL     1      10.085  68.425   1.205  1.00  0.00     0.197 A 
ATOM      4  O   UNL     1      10.250  67.237   1.586  1.00  0.00    -0.289 OA
ATOM      5  C   UNL     1       9.535  69.415   2.052  1.00  0.00     0.107 A 
ATOM      6  C   UNL     1       9.044  69.174   3.370  1.00  0.00     0.134 A 
ATOM      7  C   UNL     1       8.629  70.255   4.159  1.00  0.00     0.093 A 
ATOM      8  C   UNL     1       8.630  71.556   3.659  1.00  0.00     0.123 A 
ATOM      9  C   UNL     1       9.057  71.796   2.352  1.00  0.00     0.094 A 
ATOM     10  C   UNL     1       9.510  70.744   1.552  1.00  0.00     0.146 A 
ATOM     11  O   UNL     1       9.922  71.016   0.318  1.00  0.00    -0.456 OA
ENDROOT
BRANCH   1  12
ATOM     12  C   UNL     1      10.815  70.513  -1.877  1.00  0.00     0.021 A 
ATOM     13  C   UNL     1      10.410  69.756  -2.990  1.00  0.00     0.016 A 
ATOM     14  C   UNL     1      10.799  70.124  -4.280  1.00  0.00     0.051 A 
ATOM     15  C   UNL     1      11.608  71.249  -4.481  1.00  0.00     0.157 A 
ATOM     16  C   UNL     1      11.639  71.635  -2.084  1.00  0.00     0.062 A 
ATOM     17  C   UNL     1      12.033  72.006  -3.376  1.00  0.00     0.158 A 
BRANCH  15  18
ATOM     18  O   UNL     1      11.994  71.615  -5.769  1.00  0.00    -0.504 OA
ATOM     19  H   UNL     1      12.969  71.733  -6.018  1.00  0.00     0.293 HD
ENDBRANCH  15  18
BRANCH  17  20
ATOM     20  O   UNL     1      12.848  73.125  -3.542  1.00  0.00    -0.504 OA
ATOM     21  H   UNL     1      13.858  73.068  -3.490  1.00  0.00     0.293 HD
ENDBRANCH  17  20
ENDBRANCH   1  12
BRANCH   6  22
ATOM     22  O   UNL     1       8.920  67.903   3.938  1.00  0.00    -0.507 OA
ATOM     23  H   UNL     1       8.049  67.475   4.210  1.00  0.00     0.293 HD
ENDBRANCH   6  22
BRANCH   8  24
ATOM     24  O   UNL     1       8.195  72.603   4.468  1.00  0.00    -0.508 OA
ATOM     25  H   UNL     1       7.526  72.454   5.214  1.00  0.00     0.293 HD
ENDBRANCH   8  24
TORSDOF 5
ENDMDL
