MODEL 1
REMARK VINA RESULT:    -6.668      0.000      0.000
REMARK INTER + INTRA:          -8.058
REMARK INTER:                  -8.032
REMARK INTRA:                  -0.026
REMARK UNBOUND:                -0.026
REMARK SMILES O=c1c(O)c(-c2ccc(O)c(O)c2)oc2cc(O)cc(O)c12
REMARK SMILES IDX 5 1 3 2 2 3 1 4 22 5 20 6 19 7 17 8 16 9 15 10 14 11 6 12
REMARK SMILES IDX 7 13 8 14 9 15 13 16 11 17 10 18 12 20 4 22 21 24 18 26
REMARK H PARENT 10 19 12 21 4 23 21 25 18 27
REMARK Flexibility Score: inf
ROOT
ATOM      1  C   UNL     1       3.797   5.937  -0.681  1.00  0.00     0.180 A 
ATOM      2  C   UNL     1       4.366   7.223  -0.744  1.00  0.00     0.208 A 
ATOM      3  C   UNL     1       5.552   7.405  -1.472  1.00  0.00     0.238 A 
ATOM      4  O   UNL     1       6.066   8.555  -1.546  1.00  0.00    -0.285 OA
ATOM      5  C   UNL     1       6.158   6.301  -2.105  1.00  0.00     0.111 A 
ATOM      6  C   UNL     1       7.356   6.398  -2.855  1.00  0.00     0.134 A 
ATOM      7  C   UNL     1       7.901   5.249  -3.447  1.00  0.00     0.093 A 
ATOM      8  C   UNL     1       7.275   4.009  -3.304  1.00  0.00     0.123 A 
ATOM      9  C   UNL     1       6.092   3.906  -2.566  1.00  0.00     0.094 A 
ATOM     10  C   UNL     1       5.532   5.040  -1.969  1.00  0.00     0.146 A 
ATOM     11  O   UNL     1       4.405   4.916  -1.278  1.00  0.00    -0.452 OA
ENDROOT
BRANCH   1  12
ATOM     12  C   UNL     1       2.538   5.669   0.052  1.00  0.00     0.025 A 
ATOM     13  C   UNL     1       1.460   5.080  -0.622  1.00  0.00     0.016 A 
ATOM     14  C   UNL     1       0.258   4.837   0.044  1.00  0.00     0.051 A 
ATOM     15  C   UNL     1       0.102   5.192   1.389  1.00  0.00     0.157 A 
ATOM     16  C   UNL     1       2.378   6.049   1.396  1.00  0.00     0.062 A 
ATOM     17  C   UNL     1       1.175   5.813   2.072  1.00  0.00     0.158 A 
BRANCH  15  18
ATOM     18  O   UNL     1      -1.124   4.916   1.999  1.00  0.00    -0.504 OA
ATOM     19  H   UNL     1      -1.770   4.212   1.674  1.00  0.00     0.293 HD
ENDBRANCH  15  18
BRANCH  17  20
ATOM     20  O   UNL     1       1.088   6.213   3.407  1.00  0.00    -0.504 OA
ATOM     21  H   UNL     1       0.217   6.388   3.888  1.00  0.00     0.293 HD
ENDBRANCH  17  20
ENDBRANCH   1  12
BRANCH   2  22
ATOM     22  O   UNL     1       3.773   8.292  -0.067  1.00  0.00    -0.502 OA
ATOM     23  H   UNL     1       4.205   8.735   0.735  1.00  0.00     0.293 HD
ENDBRANCH   2  22
BRANCH   6  24
ATOM     24  O   UNL     1       8.006   7.622  -3.014  1.00  0.00    -0.507 OA
ATOM     25  H   UNL     1       8.921   7.796  -2.614  1.00  0.00     0.293 HD
ENDBRANCH   6  24
BRANCH   8  26
ATOM     26  O   UNL     1       7.839   2.884  -3.902  1.00  0.00    -0.508 OA
ATOM     27  H   UNL     1       7.600   2.612  -4.849  1.00  0.00     0.293 HD
ENDBRANCH   8  26
TORSDOF 6
ENDMDL
MODEL 2
REMARK VINA RESULT:    -6.271      1.590      3.094
REMARK INTER + INTRA:          -7.580
REMARK INTER:                  -7.626
REMARK INTRA:                   0.046
REMARK UNBOUND:                -0.026
REMARK SMILES O=c1c(O)c(-c2ccc(O)c(O)c2)oc2cc(O)cc(O)c12
REMARK SMILES IDX 5 1 3 2 2 3 1 4 22 5 20 6 19 7 17 8 16 9 15 10 14 11 6 12
REMARK SMILES IDX 7 13 8 14 9 15 13 16 11 17 10 18 12 20 4 22 21 24 18 26
REMARK H PARENT 10 19 12 21 4 23 21 25 18 27
REMARK Flexibility Score: inf
ROOT
ATOM      1  C   UNL     1       3.562   6.178  -0.327  1.00  0.00     0.180 A 
ATOM      2  C   UNL     1       3.336   4.867  -0.787  1.00  0.00     0.208 A 
ATOM      3  C   UNL     1       4.281   4.277  -1.642  1.00  0.00     0.238 A 
ATOM      4  O   UNL     1       4.095   3.099  -2.053  1.00  0.00    -0.285 OA
ATOM      5  C   UNL     1       5.418   5.010  -2.037  1.00  0.00     0.111 A 
ATOM      6  C   UNL     1       6.415   4.491  -2.898  1.00  0.00     0.134 A 
ATOM      7  C   UNL     1       7.513   5.288  -3.252  1.00  0.00     0.093 A 
ATOM      8  C   UNL     1       7.635   6.590  -2.764  1.00  0.00     0.123 A 
ATOM      9  C   UNL     1       6.655   7.110  -1.912  1.00  0.00     0.094 A 
ATOM     10  C   UNL     1       5.553   6.330  -1.546  1.00  0.00     0.146 A 
ATOM     11  O   UNL     1       4.639   6.845  -0.732  1.00  0.00    -0.452 OA
ENDROOT
BRANCH   1  12
ATOM     12  C   UNL     1       2.622   6.862   0.591  1.00  0.00     0.025 A 
ATOM     13  C   UNL     1       2.306   8.211   0.377  1.00  0.00     0.016 A 
ATOM     14  C   UNL     1       1.438   8.879   1.241  1.00  0.00     0.051 A 
ATOM     15  C   UNL     1       0.883   8.222   2.345  1.00  0.00     0.157 A 
ATOM     16  C   UNL     1       2.086   6.205   1.712  1.00  0.00     0.062 A 
ATOM     17  C   UNL     1       1.217   6.869   2.588  1.00  0.00     0.158 A 
BRANCH  15  18
ATOM     18  O   UNL     1       0.017   8.946   3.168  1.00  0.00    -0.504 OA
ATOM     19  H   UNL     1      -0.383   8.586   4.022  1.00  0.00     0.293 HD
ENDBRANCH  15  18
BRANCH  17  20
ATOM     20  O   UNL     1       0.719   6.153   3.678  1.00  0.00    -0.504 OA
ATOM     21  H   UNL     1       0.404   5.194   3.628  1.00  0.00     0.293 HD
ENDBRANCH  17  20
ENDBRANCH   1  12
BRANCH   2  22
ATOM     22  O   UNL     1       2.177   4.180  -0.421  1.00  0.00    -0.502 OA
ATOM     23  H   UNL     1       1.253   4.478  -0.712  1.00  0.00     0.293 HD
ENDBRANCH   2  22
BRANCH   6  24
ATOM     24  O   UNL     1       6.321   3.194  -3.405  1.00  0.00    -0.507 OA
ATOM     25  H   UNL     1       5.999   2.421  -2.834  1.00  0.00     0.293 HD
ENDBRANCH   6  24
BRANCH   8  26
ATOM     26  O   UNL     1       8.736   7.361  -3.132  1.00  0.00    -0.508 OA
ATOM     27  H   UNL     1       9.400   7.698  -2.444  1.00  0.00     0.293 HD
ENDBRANCH   8  26
TORSDOF 6
ENDMDL
MODEL 3
REMARK VINA RESULT:    -5.865      1.498      6.684
REMARK INTER + INTRA:          -7.090
REMARK INTER:                  -6.780
REMARK INTRA:                  -0.310
REMARK UNBOUND:                -0.026
REMARK SMILES O=c1c(O)c(-c2ccc(O)c(O)c2)oc2cc(O)cc(O)c12
REMARK SMILES IDX 5 1 3 2 2 3 1 4 22 5 20 6 19 7 17 8 16 9 15 10 14 11 6 12
REMARK SMILES IDX 7 13 8 14 9 15 13 16 11 17 10 18 12 20 4 22 21 24 18 26
REMARK H PARENT 10 19 12 21 4 23 21 25 18 27
REMARK Flexibility Score: inf
ROOT
ATOM      1  C   UNL     1       5.553   6.088  -1.293  1.00  0.00     0.180 A 
ATOM      2  C   UNL     1       5.300   7.456  -1.509  1.00  0.00     0.208 A 
ATOM      3  C   UNL     1       4.258   8.073  -0.799  1.00  0.00     0.238 A 
ATOM      4  O   UNL     1       4.029   9.301  -0.975  1.00  0.00    -0.285 OA
ATOM      5  C   UNL     1       3.478   7.313   0.096  1.00  0.00     0.111 A 
ATOM      6  C   UNL     1       2.408   7.857   0.847  1.00  0.00     0.134 A 
ATOM      7  C   UNL     1       1.673   7.031   1.710  1.00  0.00     0.093 A 
ATOM      8  C   UNL     1       1.984   5.676   1.836  1.00  0.00     0.123 A 
ATOM      9  C   UNL     1       3.040   5.132   1.098  1.00  0.00     0.094 A 
ATOM     10  C   UNL     1       3.786   5.939   0.233  1.00  0.00     0.146 A 
ATOM     11  O   UNL     1       4.787   5.399  -0.453  1.00  0.00    -0.452 OA
ENDROOT
BRANCH   1  12
ATOM     12  C   UNL     1       6.645   5.371  -1.991  1.00  0.00     0.025 A 
ATOM     13  C   UNL     1       6.339   4.527  -3.068  1.00  0.00     0.016 A 
ATOM     14  C   UNL     1       7.350   3.827  -3.726  1.00  0.00     0.051 A 
ATOM     15  C   UNL     1       8.683   3.939  -3.313  1.00  0.00     0.157 A 
ATOM     16  C   UNL     1       7.979   5.469  -1.558  1.00  0.00     0.062 A 
ATOM     17  C   UNL     1       9.000   4.766  -2.210  1.00  0.00     0.158 A 
BRANCH  15  18
ATOM     18  O   UNL     1       9.648   3.217  -4.019  1.00  0.00    -0.504 OA
ATOM     19  H   UNL     1      10.000   3.482  -4.927  1.00  0.00     0.293 HD
ENDBRANCH  15  18
BRANCH  17  20
ATOM     20  O   UNL     1      10.302   4.914  -1.729  1.00  0.00    -0.504 OA
ATOM     21  H   UNL     1      11.127   4.882  -2.312  1.00  0.00     0.293 HD
ENDBRANCH  17  20
ENDBRANCH   1  12
BRANCH   2  22
ATOM     22  O   UNL     1       6.056   8.176  -2.438  1.00  0.00    -0.502 OA
ATOM     23  H   UNL     1       5.732   8.354  -3.381  1.00  0.00     0.293 HD
ENDBRANCH   2  22
BRANCH   6  24
ATOM     24  O   UNL     1       2.071   9.207   0.742  1.00  0.00    -0.507 OA
ATOM     25  H   UNL     1       1.364   9.531   0.092  1.00  0.00     0.293 HD
ENDBRANCH   6  24
BRANCH   8  26
ATOM     26  O   UNL     1       1.237   4.878   2.700  1.00  0.00    -0.508 OA
ATOM     27  H   UNL     1       0.313   5.156   3.011  1.00  0.00     0.293 HD
ENDBRANCH   8  26
TORSDOF 6
ENDMDL
MODEL 4
REMARK VINA RESULT:    -5.688      1.754      7.194
REMARK INTER + INTRA:          -6.877
REMARK INTER:                  -6.822
REMARK INTRA:                  -0.055
REMARK UNBOUND:                -0.026
REMARK SMILES O=c1c(O)c(-c2ccc(O)c(O)c2)oc2cc(O)cc(O)c12
REMARK SMILES IDX 5 1 3 2 2 3 1 4 22 5 20 6 19 7 17 8 16 9 15 10 14 11 6 12
REMARK SMILES IDX 7 13 8 14 9 15 13 16 11 17 10 18 12 20 4 22 21 24 18 26
REMARK H PARENT 10 19 12 21 4 23 21 25 18 27
REMARK Flexibility Score: inf
ROOT
ATOM      1  C   UNL     1       4.064   5.694  -0.636  1.00  0.00     0.180 A 
ATOM      2  C   UNL     1       2.989   4.847  -0.965  1.00  0.00     0.208 A 
ATOM      3  C   UNL     1       1.723   5.116  -0.421  1.00  0.00     0.238 A 
ATOM      4  O   UNL     1       0.750   4.370  -0.717  1.00  0.00    -0.285 OA
ATOM      5  C   UNL     1       1.558   6.208   0.453  1.00  0.00     0.111 A 
ATOM      6  C   UNL     1       0.317   6.545   1.047  1.00  0.00     0.134 A 
ATOM      7  C   UNL     1       0.236   7.644   1.915  1.00  0.00     0.093 A 
ATOM      8  C   UNL     1       1.367   8.410   2.202  1.00  0.00     0.123 A 
ATOM      9  C   UNL     1       2.596   8.084   1.619  1.00  0.00     0.094 A 
ATOM     10  C   UNL     1       2.696   6.993   0.749  1.00  0.00     0.146 A 
ATOM     11  O   UNL     1       3.874   6.707   0.205  1.00  0.00    -0.452 OA
ENDROOT
BRANCH   1  12
ATOM     12  C   UNL     1       5.425   5.488  -1.183  1.00  0.00     0.025 A 
ATOM     13  C   UNL     1       6.078   4.266  -0.966  1.00  0.00     0.016 A 
ATOM     14  C   UNL     1       7.367   4.057  -1.456  1.00  0.00     0.051 A 
ATOM     15  C   UNL     1       8.038   5.067  -2.156  1.00  0.00     0.157 A 
ATOM     16  C   UNL     1       6.103   6.513  -1.865  1.00  0.00     0.062 A 
ATOM     17  C   UNL     1       7.399   6.314  -2.356  1.00  0.00     0.158 A 
BRANCH  15  18
ATOM     18  O   UNL     1       9.324   4.792  -2.625  1.00  0.00    -0.504 OA
ATOM     19  H   UNL     1       9.740   5.242  -3.428  1.00  0.00     0.293 HD
ENDBRANCH  15  18
BRANCH  17  20
ATOM     20  O   UNL     1       8.011   7.374  -3.028  1.00  0.00    -0.504 OA
ATOM     21  H   UNL     1       9.007   7.548  -3.021  1.00  0.00     0.293 HD
ENDBRANCH  17  20
ENDBRANCH   1  12
BRANCH   2  22
ATOM     22  O   UNL     1       3.190   3.741  -1.795  1.00  0.00    -0.502 OA
ATOM     23  H   UNL     1       3.235   2.794  -1.438  1.00  0.00     0.293 HD
ENDBRANCH   2  22
BRANCH   6  24
ATOM     24  O   UNL     1      -0.832   5.798   0.782  1.00  0.00    -0.507 OA
ATOM     25  H   UNL     1      -1.236   5.752  -0.146  1.00  0.00     0.293 HD
ENDBRANCH   6  24
BRANCH   8  26
ATOM     26  O   UNL     1       1.260   9.495   3.069  1.00  0.00    -0.508 OA
ATOM     27  H   UNL     1       1.651   9.467   4.003  1.00  0.00     0.293 HD
ENDBRANCH   8  26
TORSDOF 6
ENDMDL
MODEL 5
REMARK VINA RESULT:    -5.650      1.690      2.921
REMARK INTER + INTRA:          -6.832
REMARK INTER:                  -6.680
REMARK INTRA:                  -0.153
REMARK UNBOUND:                -0.026
REMARK SMILES O=c1c(O)c(-c2ccc(O)c(O)c2)oc2cc(O)cc(O)c12
REMARK SMILES IDX 5 1 3 2 2 3 1 4 22 5 20 6 19 7 17 8 16 9 15 10 14 11 6 12
REMARK SMILES IDX 7 13 8 14 9 15 13 16 11 17 10 18 12 20 4 22 21 24 18 26
REMARK H PARENT 10 19 12 21 4 23 21 25 18 27
REMARK Flexibility Score: inf
ROOT
ATOM      1  C   UNL     1       4.840   5.317  -0.728  1.00  0.00     0.180 A 
ATOM      2  C   UNL     1       5.534   4.141  -0.383  1.00  0.00     0.208 A 
ATOM      3  C   UNL     1       6.808   3.921  -0.929  1.00  0.00     0.238 A 
ATOM      4  O   UNL     1       7.445   2.877  -0.618  1.00  0.00    -0.285 OA
ATOM      5  C   UNL     1       7.357   4.864  -1.820  1.00  0.00     0.111 A 
ATOM      6  C   UNL     1       8.633   4.716  -2.417  1.00  0.00     0.134 A 
ATOM      7  C   UNL     1       9.105   5.696  -3.303  1.00  0.00     0.093 A 
ATOM      8  C   UNL     1       8.329   6.817  -3.604  1.00  0.00     0.123 A 
ATOM      9  C   UNL     1       7.069   6.970  -3.019  1.00  0.00     0.094 A 
ATOM     10  C   UNL     1       6.581   6.005  -2.131  1.00  0.00     0.146 A 
ATOM     11  O   UNL     1       5.383   6.177  -1.585  1.00  0.00    -0.452 OA
ENDROOT
BRANCH   1  12
ATOM     12  C   UNL     1       3.500   5.629  -0.180  1.00  0.00     0.025 A 
ATOM     13  C   UNL     1       2.410   4.816  -0.519  1.00  0.00     0.016 A 
ATOM     14  C   UNL     1       1.135   5.103  -0.030  1.00  0.00     0.051 A 
ATOM     15  C   UNL     1       0.919   6.216   0.792  1.00  0.00     0.157 A 
ATOM     16  C   UNL     1       3.284   6.760   0.625  1.00  0.00     0.062 A 
ATOM     17  C   UNL     1       2.007   7.059   1.118  1.00  0.00     0.158 A 
BRANCH  15  18
ATOM     18  O   UNL     1      -0.379   6.444   1.253  1.00  0.00    -0.504 OA
ATOM     19  H   UNL     1      -1.151   6.710   0.659  1.00  0.00     0.293 HD
ENDBRANCH  15  18
BRANCH  17  20
ATOM     20  O   UNL     1       1.866   8.197   1.915  1.00  0.00    -0.504 OA
ATOM     21  H   UNL     1       2.591   8.554   2.523  1.00  0.00     0.293 HD
ENDBRANCH  17  20
ENDBRANCH   1  12
BRANCH   2  22
ATOM     22  O   UNL     1       4.947   3.198   0.465  1.00  0.00    -0.502 OA
ATOM     23  H   UNL     1       5.066   3.225   1.471  1.00  0.00     0.293 HD
ENDBRANCH   2  22
BRANCH   6  24
ATOM     24  O   UNL     1       9.432   3.606  -2.138  1.00  0.00    -0.507 OA
ATOM     25  H   UNL     1      10.436   3.686  -2.029  1.00  0.00     0.293 HD
ENDBRANCH   6  24
BRANCH   8  26
ATOM     26  O   UNL     1       8.822   7.774  -4.488  1.00  0.00    -0.508 OA
ATOM     27  H   UNL     1       9.658   8.309  -4.279  1.00  0.00     0.293 HD
ENDBRANCH   8  26
TORSDOF 6
ENDMDL
MODEL 6
REMARK VINA RESULT:    -5.259      2.354      8.113
REMARK INTER + INTRA:          -6.361
REMARK INTER:                  -6.041
REMARK INTRA:                  -0.320
REMARK UNBOUND:                -0.026
REMARK SMILES O=c1c(O)c(-c2ccc(O)c(O)c2)oc2cc(O)cc(O)c12
REMARK SMILES IDX 5 1 3 2 2 3 1 4 22 5 20 6 19 7 17 8 16 9 15 10 14 11 6 12
REMARK SMILES IDX 7 13 8 14 9 15 13 16 11 17 10 18 12 20 4 22 21 24 18 26
REMARK H PARENT 10 19 12 21 4 23 21 25 18 27
REMARK Flexibility Score: inf
ROOT
ATOM      1  C   UNL     1       7.652   5.589  -3.240  1.00  0.00     0.180 A 
ATOM      2  C   UNL     1       7.115   4.287  -3.264  1.00  0.00     0.208 A 
ATOM      3  C   UNL     1       5.920   4.035  -2.572  1.00  0.00     0.238 A 
ATOM      4  O   UNL     1       5.423   2.875  -2.595  1.00  0.00    -0.285 OA
ATOM      5  C   UNL     1       5.295   5.075  -1.856  1.00  0.00     0.111 A 
ATOM      6  C   UNL     1       4.091   4.903  -1.130  1.00  0.00     0.134 A 
ATOM      7  C   UNL     1       3.537   5.988  -0.435  1.00  0.00     0.093 A 
ATOM      8  C   UNL     1       4.160   7.238  -0.450  1.00  0.00     0.123 A 
ATOM      9  C   UNL     1       5.349   7.415  -1.165  1.00  0.00     0.094 A 
ATOM     10  C   UNL     1       5.917   6.346  -1.866  1.00  0.00     0.146 A 
ATOM     11  O   UNL     1       7.043   6.542  -2.541  1.00  0.00    -0.452 OA
ENDROOT
BRANCH   1  12
ATOM     12  C   UNL     1       8.899   5.938  -3.959  1.00  0.00     0.025 A 
ATOM     13  C   UNL     1       8.840   6.278  -5.318  1.00  0.00     0.016 A 
ATOM     14  C   UNL     1      10.004   6.591  -6.020  1.00  0.00     0.051 A 
ATOM     15  C   UNL     1      11.252   6.554  -5.386  1.00  0.00     0.157 A 
ATOM     16  C   UNL     1      10.152   5.876  -3.325  1.00  0.00     0.062 A 
ATOM     17  C   UNL     1      11.327   6.184  -4.022  1.00  0.00     0.158 A 
BRANCH  15  18
ATOM     18  O   UNL     1      12.378   6.884  -6.143  1.00  0.00    -0.504 OA
ATOM     19  H   UNL     1      12.792   7.805  -6.167  1.00  0.00     0.293 HD
ENDBRANCH  15  18
BRANCH  17  20
ATOM     20  O   UNL     1      12.536   6.106  -3.328  1.00  0.00    -0.504 OA
ATOM     21  H   UNL     1      13.084   5.261  -3.241  1.00  0.00     0.293 HD
ENDBRANCH  17  20
ENDBRANCH   1  12
BRANCH   2  22
ATOM     22  O   UNL     1       7.779   3.261  -3.940  1.00  0.00    -0.502 OA
ATOM     23  H   UNL     1       7.391   2.812  -4.762  1.00  0.00     0.293 HD
ENDBRANCH   2  22
BRANCH   6  24
ATOM     24  O   UNL     1       3.445   3.667  -1.094  1.00  0.00    -0.507 OA
ATOM     25  H   UNL     1       2.453   3.579  -1.279  1.00  0.00     0.293 HD
ENDBRANCH   6  24
BRANCH   8  26
ATOM     26  O   UNL     1       3.589   8.298   0.251  1.00  0.00    -0.508 OA
ATOM     27  H   UNL     1       2.590   8.467   0.232  1.00  0.00     0.293 HD
ENDBRANCH   8  26
TORSDOF 6
ENDMDL
MODEL 7
REMARK VINA RESULT:    -5.204      1.909      3.437
REMARK INTER + INTRA:          -6.295
REMARK INTER:                  -6.115
REMARK INTRA:                  -0.181
REMARK UNBOUND:                -0.026
REMARK SMILES O=c1c(O)c(-c2ccc(O)c(O)c2)oc2cc(O)cc(O)c12
REMARK SMILES IDX 5 1 3 2 2 3 1 4 22 5 20 6 19 7 17 8 16 9 15 10 14 11 6 12
REMARK SMILES IDX 7 13 8 14 9 15 13 16 11 17 10 18 12 20 4 22 21 24 18 26
REMARK H PARENT 10 19 12 21 4 23 21 25 18 27
REMARK Flexibility Score: inf
ROOT
ATOM      1  C   UNL     1       5.387   5.475  -1.311  1.00  0.00     0.180 A 
ATOM      2  C   UNL     1       5.118   4.385  -2.161  1.00  0.00     0.208 A 
ATOM      3  C   UNL     1       6.161   3.859  -2.940  1.00  0.00     0.238 A 
ATOM      4  O   UNL     1       5.936   2.875  -3.696  1.00  0.00    -0.285 OA
ATOM      5  C   UNL     1       7.443   4.441  -2.873  1.00  0.00     0.111 A 
ATOM      6  C   UNL     1       8.547   3.974  -3.627  1.00  0.00     0.134 A 
ATOM      7  C   UNL     1       9.789   4.615  -3.512  1.00  0.00     0.093 A 
ATOM      8  C   UNL     1       9.951   5.709  -2.660  1.00  0.00     0.123 A 
ATOM      9  C   UNL     1       8.865   6.175  -1.911  1.00  0.00     0.094 A 
ATOM     10  C   UNL     1       7.618   5.549  -2.011  1.00  0.00     0.146 A 
ATOM     11  O   UNL     1       6.605   6.008  -1.286  1.00  0.00    -0.452 OA
ENDROOT
BRANCH   1  12
ATOM     12  C   UNL     1       4.344   6.073  -0.446  1.00  0.00     0.025 A 
ATOM     13  C   UNL     1       3.994   7.420  -0.617  1.00  0.00     0.016 A 
ATOM     14  C   UNL     1       3.029   8.009   0.200  1.00  0.00     0.051 A 
ATOM     15  C   UNL     1       2.407   7.272   1.215  1.00  0.00     0.157 A 
ATOM     16  C   UNL     1       3.739   5.337   0.587  1.00  0.00     0.062 A 
ATOM     17  C   UNL     1       2.773   5.920   1.415  1.00  0.00     0.158 A 
BRANCH  15  18
ATOM     18  O   UNL     1       1.445   7.918   1.994  1.00  0.00    -0.504 OA
ATOM     19  H   UNL     1       1.487   7.988   3.001  1.00  0.00     0.293 HD
ENDBRANCH  15  18
BRANCH  17  20
ATOM     20  O   UNL     1       2.210   5.128   2.418  1.00  0.00    -0.504 OA
ATOM     21  H   UNL     1       1.631   4.319   2.241  1.00  0.00     0.293 HD
ENDBRANCH  17  20
ENDBRANCH   1  12
BRANCH   2  22
ATOM     22  O   UNL     1       3.827   3.857  -2.245  1.00  0.00    -0.502 OA
ATOM     23  H   UNL     1       3.399   3.344  -1.483  1.00  0.00     0.293 HD
ENDBRANCH   2  22
BRANCH   6  24
ATOM     24  O   UNL     1       8.418   2.884  -4.489  1.00  0.00    -0.507 OA
ATOM     25  H   UNL     1       7.537   2.660  -4.937  1.00  0.00     0.293 HD
ENDBRANCH   6  24
BRANCH   8  26
ATOM     26  O   UNL     1      11.195   6.327  -2.565  1.00  0.00    -0.508 OA
ATOM     27  H   UNL     1      11.998   5.844  -2.178  1.00  0.00     0.293 HD
ENDBRANCH   8  26
TORSDOF 6
ENDMDL
MODEL 8
REMARK VINA RESULT:    -5.140      2.511      4.364
REMARK INTER + INTRA:          -6.217
REMARK INTER:                  -5.937
REMARK INTRA:                  -0.280
REMARK UNBOUND:                -0.026
REMARK SMILES O=c1c(O)c(-c2ccc(O)c(O)c2)oc2cc(O)cc(O)c12
REMARK SMILES IDX 5 1 3 2 2 3 1 4 22 5 20 6 19 7 17 8 16 9 15 10 14 11 6 12
REMARK SMILES IDX 7 13 8 14 9 15 13 16 11 17 10 18 12 20 4 22 21 24 18 26
REMARK H PARENT 10 19 12 21 4 23 21 25 18 27
REMARK Flexibility Score: inf
ROOT
ATOM      1  C   UNL     1       7.103   5.115  -2.133  1.00  0.00     0.180 A 
ATOM      2  C   UNL     1       8.152   4.387  -1.542  1.00  0.00     0.208 A 
ATOM      3  C   UNL     1       9.423   4.424  -2.138  1.00  0.00     0.238 A 
ATOM      4  O   UNL     1      10.374   3.784  -1.612  1.00  0.00    -0.285 OA
ATOM      5  C   UNL     1       9.617   5.167  -3.319  1.00  0.00     0.111 A 
ATOM      6  C   UNL     1      10.865   5.254  -3.985  1.00  0.00     0.134 A 
ATOM      7  C   UNL     1      10.975   6.008  -5.162  1.00  0.00     0.093 A 
ATOM      8  C   UNL     1       9.866   6.675  -5.687  1.00  0.00     0.123 A 
ATOM      9  C   UNL     1       8.631   6.595  -5.035  1.00  0.00     0.094 A 
ATOM     10  C   UNL     1       8.502   5.849  -3.859  1.00  0.00     0.146 A 
ATOM     11  O   UNL     1       7.320   5.794  -3.256  1.00  0.00    -0.452 OA
ENDROOT
BRANCH   1  12
ATOM     12  C   UNL     1       5.740   5.141  -1.554  1.00  0.00     0.025 A 
ATOM     13  C   UNL     1       4.881   4.052  -1.762  1.00  0.00     0.016 A 
ATOM     14  C   UNL     1       3.586   4.064  -1.243  1.00  0.00     0.051 A 
ATOM     15  C   UNL     1       3.116   5.168  -0.521  1.00  0.00     0.157 A 
ATOM     16  C   UNL     1       5.264   6.261  -0.851  1.00  0.00     0.062 A 
ATOM     17  C   UNL     1       3.965   6.284  -0.329  1.00  0.00     0.158 A 
BRANCH  15  18
ATOM     18  O   UNL     1       1.813   5.114  -0.022  1.00  0.00    -0.504 OA
ATOM     19  H   UNL     1       1.001   4.903  -0.585  1.00  0.00     0.293 HD
ENDBRANCH  15  18
BRANCH  17  20
ATOM     20  O   UNL     1       3.560   7.427   0.363  1.00  0.00    -0.504 OA
ATOM     21  H   UNL     1       3.663   7.550   1.361  1.00  0.00     0.293 HD
ENDBRANCH  17  20
ENDBRANCH   1  12
BRANCH   2  22
ATOM     22  O   UNL     1       7.922   3.618  -0.399  1.00  0.00    -0.502 OA
ATOM     23  H   UNL     1       7.012   3.560   0.043  1.00  0.00     0.293 HD
ENDBRANCH   2  22
BRANCH   6  24
ATOM     24  O   UNL     1      11.991   4.596  -3.487  1.00  0.00    -0.507 OA
ATOM     25  H   UNL     1      11.917   3.722  -2.980  1.00  0.00     0.293 HD
ENDBRANCH   6  24
BRANCH   8  26
ATOM     26  O   UNL     1      10.003   7.416  -6.859  1.00  0.00    -0.508 OA
ATOM     27  H   UNL     1      10.381   7.004  -7.705  1.00  0.00     0.293 HD
ENDBRANCH   8  26
TORSDOF 6
ENDMDL
MODEL 9
REMARK VINA RESULT:    -5.137      2.031      7.379
REMARK INTER + INTRA:          -6.213
REMARK INTER:                  -6.180
REMARK INTRA:                  -0.033
REMARK UNBOUND:                -0.026
REMARK SMILES O=c1c(O)c(-c2ccc(O)c(O)c2)oc2cc(O)cc(O)c12
REMARK SMILES IDX 5 1 3 2 2 3 1 4 22 5 20 6 19 7 17 8 16 9 15 10 14 11 6 12
REMARK SMILES IDX 7 13 8 14 9 15 13 16 11 17 10 18 12 20 4 22 21 24 18 26
REMARK H PARENT 10 19 12 21 4 23 21 25 18 27
REMARK Flexibility Score: inf
ROOT
ATOM      1  C   UNL     1       6.065   5.501  -1.680  1.00  0.00     0.180 A 
ATOM      2  C   UNL     1       5.970   4.448  -0.751  1.00  0.00     0.208 A 
ATOM      3  C   UNL     1       4.991   4.517   0.253  1.00  0.00     0.238 A 
ATOM      4  O   UNL     1       4.889   3.574   1.086  1.00  0.00    -0.285 OA
ATOM      5  C   UNL     1       4.142   5.639   0.323  1.00  0.00     0.111 A 
ATOM      6  C   UNL     1       3.133   5.788   1.306  1.00  0.00     0.134 A 
ATOM      7  C   UNL     1       2.334   6.941   1.314  1.00  0.00     0.093 A 
ATOM      8  C   UNL     1       2.523   7.946   0.363  1.00  0.00     0.123 A 
ATOM      9  C   UNL     1       3.517   7.806  -0.610  1.00  0.00     0.094 A 
ATOM     10  C   UNL     1       4.323   6.662  -0.636  1.00  0.00     0.146 A 
ATOM     11  O   UNL     1       5.257   6.552  -1.574  1.00  0.00    -0.452 OA
ENDROOT
BRANCH   1  12
ATOM     12  C   UNL     1       7.059   5.493  -2.778  1.00  0.00     0.025 A 
ATOM     13  C   UNL     1       7.843   6.632  -3.008  1.00  0.00     0.016 A 
ATOM     14  C   UNL     1       8.772   6.653  -4.049  1.00  0.00     0.051 A 
ATOM     15  C   UNL     1       8.924   5.546  -4.893  1.00  0.00     0.157 A 
ATOM     16  C   UNL     1       7.192   4.388  -3.637  1.00  0.00     0.062 A 
ATOM     17  C   UNL     1       8.118   4.401  -4.688  1.00  0.00     0.158 A 
BRANCH  15  18
ATOM     18  O   UNL     1       9.875   5.629  -5.912  1.00  0.00    -0.504 OA
ATOM     19  H   UNL     1      10.859   5.442  -5.783  1.00  0.00     0.293 HD
ENDBRANCH  15  18
BRANCH  17  20
ATOM     20  O   UNL     1       8.200   3.267  -5.499  1.00  0.00    -0.504 OA
ATOM     21  H   UNL     1       8.626   2.397  -5.212  1.00  0.00     0.293 HD
ENDBRANCH  17  20
ENDBRANCH   1  12
BRANCH   2  22
ATOM     22  O   UNL     1       6.856   3.369  -0.812  1.00  0.00    -0.502 OA
ATOM     23  H   UNL     1       7.136   2.946  -1.689  1.00  0.00     0.293 HD
ENDBRANCH   2  22
BRANCH   6  24
ATOM     24  O   UNL     1       2.920   4.803   2.271  1.00  0.00    -0.507 OA
ATOM     25  H   UNL     1       2.428   5.000   3.135  1.00  0.00     0.293 HD
ENDBRANCH   6  24
BRANCH   8  26
ATOM     26  O   UNL     1       1.717   9.081   0.395  1.00  0.00    -0.508 OA
ATOM     27  H   UNL     1       0.931   9.155   1.032  1.00  0.00     0.293 HD
ENDBRANCH   8  26
TORSDOF 6
ENDMDL
