MODEL 1
REMARK VINA RESULT:    -3.662      0.000      0.000
REMARK INTER + INTRA:          -9.098
REMARK INTER:                  -6.659
REMARK INTRA:                  -2.440
REMARK UNBOUND:                -2.440
REMARK SMILES CCCCCCCCCCCCCCCC(=O)[O-]
REMARK SMILES IDX 9 1 10 2 11 3 12 4 13 5 14 6 15 7 16 8 17 9 18 10 8 11 7 12
REMARK SMILES IDX 6 13 5 14 4 15 3 16 2 17 1 18
REMARK H PARENT
REMARK Flexibility Score: inf
ROOT
ATOM      1  C   UNL     1       3.489   0.220 400.884  1.00  0.00     0.000 C 
ENDROOT
BRANCH   1   2
ATOM      2  C   UNL     1       3.929  -0.787 399.803  1.00  0.00     0.000 C 
BRANCH   2   3
ATOM      3  C   UNL     1       4.380  -2.164 400.333  1.00  0.00     0.000 C 
BRANCH   3   4
ATOM      4  C   UNL     1       3.627  -2.653 401.583  1.00  0.00     0.000 C 
BRANCH   4   5
ATOM      5  C   UNL     1       4.542  -2.789 402.812  1.00  0.00     0.000 C 
BRANCH   5   6
ATOM      6  C   UNL     1       4.226  -1.754 403.906  1.00  0.00     0.006 C 
BRANCH   6   7
ATOM      7  C   UNL     1       2.981  -2.084 404.745  1.00  0.00     0.053 C 
BRANCH   7   8
ATOM      8  C   UNL     1       3.336  -2.733 406.048  1.00  0.00     0.041 C 
ATOM      9  O   UNL     1       3.197  -2.101 407.128  1.00  0.00    -0.550 OA
ATOM     10  O   UNL     1       3.850  -4.023 406.066  1.00  0.00    -0.550 OA
ENDBRANCH   7   8
ENDBRANCH   6   7
ENDBRANCH   5   6
ENDBRANCH   4   5
ENDBRANCH   3   4
ENDBRANCH   2   3
ENDBRANCH   1   2
BRANCH   1  11
ATOM     11  C   UNL     1       3.565   1.701 400.470  1.00  0.00     0.000 C 
BRANCH  11  12
ATOM     12  C   UNL     1       4.047   2.614 401.609  1.00  0.00    -0.000 C 
BRANCH  12  13
ATOM     13  C   UNL     1       4.245   1.860 402.936  1.00  0.00    -0.000 C 
BRANCH  13  14
ATOM     14  C   UNL     1       5.678   1.892 403.507  1.00  0.00    -0.000 C 
BRANCH  14  15
ATOM     15  C   UNL     1       6.797   1.605 402.491  1.00  0.00    -0.000 C 
BRANCH  15  16
ATOM     16  C   UNL     1       6.864   0.123 402.081  1.00  0.00    -0.000 C 
BRANCH  16  17
ATOM     17  C   UNL     1       7.624  -0.088 400.762  1.00  0.00    -0.003 C 
ATOM     18  C   UNL     1       7.108   0.801 399.631  1.00  0.00     0.004 C 
ENDBRANCH  16  17
ENDBRANCH  15  16
ENDBRANCH  14  15
ENDBRANCH  13  14
ENDBRANCH  12  13
ENDBRANCH  11  12
ENDBRANCH   1  11
TORSDOF 14
ENDMDL
MODEL 2
REMARK VINA RESULT:    -3.583      1.292      3.146
REMARK INTER + INTRA:          -8.955
REMARK INTER:                  -6.640
REMARK INTRA:                  -2.315
REMARK UNBOUND:                -2.440
REMARK SMILES CCCCCCCCCCCCCCCC(=O)[O-]
REMARK SMILES IDX 9 1 10 2 11 3 12 4 13 5 14 6 15 7 16 8 17 9 18 10 8 11 7 12
REMARK SMILES IDX 6 13 5 14 4 15 3 16 2 17 1 18
REMARK H PARENT
REMARK Flexibility Score: inf
ROOT
ATOM      1  C   UNL     1       3.391  -2.988 401.281  1.00  0.00     0.000 C 
ENDROOT
BRANCH   1   2
ATOM      2  C   UNL     1       4.305  -4.182 401.623  1.00  0.00     0.000 C 
BRANCH   2   3
ATOM      3  C   UNL     1       5.423  -3.882 402.643  1.00  0.00     0.000 C 
BRANCH   3   4
ATOM      4  C   UNL     1       6.334  -2.698 402.274  1.00  0.00     0.000 C 
BRANCH   4   5
ATOM      5  C   UNL     1       6.114  -1.475 403.180  1.00  0.00     0.000 C 
BRANCH   5   6
ATOM      6  C   UNL     1       5.410  -1.833 404.501  1.00  0.00     0.006 C 
BRANCH   6   7
ATOM      7  C   UNL     1       3.988  -1.264 404.632  1.00  0.00     0.053 C 
BRANCH   7   8
ATOM      8  C   UNL     1       3.083  -2.181 405.398  1.00  0.00     0.041 C 
ATOM      9  O   UNL     1       2.264  -2.917 404.788  1.00  0.00    -0.550 OA
ATOM     10  O   UNL     1       3.124  -2.199 406.786  1.00  0.00    -0.550 OA
ENDBRANCH   7   8
ENDBRANCH   6   7
ENDBRANCH   5   6
ENDBRANCH   4   5
ENDBRANCH   3   4
ENDBRANCH   2   3
ENDBRANCH   1   2
BRANCH   1  11
ATOM     11  C   UNL     1       3.704  -2.284 399.949  1.00  0.00     0.000 C 
BRANCH  11  12
ATOM     12  C   UNL     1       3.776  -0.754 400.086  1.00  0.00    -0.000 C 
BRANCH  12  13
ATOM     13  C   UNL     1       5.180  -0.193 399.793  1.00  0.00    -0.000 C 
BRANCH  13  14
ATOM     14  C   UNL     1       5.527   1.128 400.510  1.00  0.00    -0.000 C 
BRANCH  14  15
ATOM     15  C   UNL     1       4.335   1.863 401.148  1.00  0.00    -0.000 C 
BRANCH  15  16
ATOM     16  C   UNL     1       4.393   1.871 402.686  1.00  0.00    -0.000 C 
BRANCH  16  17
ATOM     17  C   UNL     1       5.701   2.474 403.221  1.00  0.00    -0.003 C 
ATOM     18  C   UNL     1       6.058   1.970 404.620  1.00  0.00     0.004 C 
ENDBRANCH  16  17
ENDBRANCH  15  16
ENDBRANCH  14  15
ENDBRANCH  13  14
ENDBRANCH  12  13
ENDBRANCH  11  12
ENDBRANCH   1  11
TORSDOF 14
ENDMDL
MODEL 3
REMARK VINA RESULT:    -3.575      1.785      4.310
REMARK INTER + INTRA:          -8.940
REMARK INTER:                  -6.829
REMARK INTRA:                  -2.111
REMARK UNBOUND:                -2.440
REMARK SMILES CCCCCCCCCCCCCCCC(=O)[O-]
REMARK SMILES IDX 9 1 10 2 11 3 12 4 13 5 14 6 15 7 16 8 17 9 18 10 8 11 7 12
REMARK SMILES IDX 6 13 5 14 4 15 3 16 2 17 1 18
REMARK H PARENT
REMARK Flexibility Score: inf
ROOT
ATOM      1  C   UNL     1       3.749   0.912 400.562  1.00  0.00     0.000 C 
ENDROOT
BRANCH   1   2
ATOM      2  C   UNL     1       3.957   2.200 401.384  1.00  0.00     0.000 C 
BRANCH   2   3
ATOM      3  C   UNL     1       4.470   1.986 402.822  1.00  0.00     0.000 C 
BRANCH   3   4
ATOM      4  C   UNL     1       4.051   0.652 403.466  1.00  0.00     0.000 C 
BRANCH   4   5
ATOM      5  C   UNL     1       5.252  -0.251 403.797  1.00  0.00     0.000 C 
BRANCH   5   6
ATOM      6  C   UNL     1       4.877  -1.425 404.718  1.00  0.00     0.006 C 
BRANCH   6   7
ATOM      7  C   UNL     1       3.374  -1.535 405.019  1.00  0.00     0.053 C 
BRANCH   7   8
ATOM      8  C   UNL     1       2.927  -2.960 405.143  1.00  0.00     0.041 C 
ATOM      9  O   UNL     1       3.518  -3.742 405.934  1.00  0.00    -0.550 OA
ATOM     10  O   UNL     1       1.880  -3.432 404.362  1.00  0.00    -0.550 OA
ENDBRANCH   7   8
ENDBRANCH   6   7
ENDBRANCH   5   6
ENDBRANCH   4   5
ENDBRANCH   3   4
ENDBRANCH   2   3
ENDBRANCH   1   2
BRANCH   1  11
ATOM     11  C   UNL     1       5.035   0.275 400.005  1.00  0.00     0.000 C 
BRANCH  11  12
ATOM     12  C   UNL     1       5.124  -1.234 400.288  1.00  0.00    -0.000 C 
BRANCH  12  13
ATOM     13  C   UNL     1       3.761  -1.858 400.638  1.00  0.00    -0.000 C 
BRANCH  13  14
ATOM     14  C   UNL     1       3.823  -3.221 401.356  1.00  0.00    -0.000 C 
BRANCH  14  15
ATOM     15  C   UNL     1       5.196  -3.592 401.945  1.00  0.00    -0.000 C 
BRANCH  15  16
ATOM     16  C   UNL     1       5.269  -5.058 402.408  1.00  0.00    -0.000 C 
BRANCH  16  17
ATOM     17  C   UNL     1       3.880  -5.700 402.553  1.00  0.00    -0.003 C 
ATOM     18  C   UNL     1       3.801  -7.091 401.924  1.00  0.00     0.004 C 
ENDBRANCH  16  17
ENDBRANCH  15  16
ENDBRANCH  14  15
ENDBRANCH  13  14
ENDBRANCH  12  13
ENDBRANCH  11  12
ENDBRANCH   1  11
TORSDOF 14
ENDMDL
MODEL 4
REMARK VINA RESULT:    -3.564      1.822      3.716
REMARK INTER + INTRA:          -8.920
REMARK INTER:                  -6.729
REMARK INTRA:                  -2.191
REMARK UNBOUND:                -2.440
REMARK SMILES CCCCCCCCCCCCCCCC(=O)[O-]
REMARK SMILES IDX 9 1 10 2 11 3 12 4 13 5 14 6 15 7 16 8 17 9 18 10 8 11 7 12
REMARK SMILES IDX 6 13 5 14 4 15 3 16 2 17 1 18
REMARK H PARENT
REMARK Flexibility Score: inf
ROOT
ATOM      1  C   UNL     1       3.934  -1.736 400.631  1.00  0.00     0.000 C 
ENDROOT
BRANCH   1   2
ATOM      2  C   UNL     1       3.954  -0.449 399.781  1.00  0.00     0.000 C 
BRANCH   2   3
ATOM      3  C   UNL     1       3.297   0.782 400.437  1.00  0.00     0.000 C 
BRANCH   3   4
ATOM      4  C   UNL     1       4.264   1.932 400.767  1.00  0.00     0.000 C 
BRANCH   4   5
ATOM      5  C   UNL     1       4.324   2.244 402.272  1.00  0.00     0.000 C 
BRANCH   5   6
ATOM      6  C   UNL     1       3.888   1.053 403.144  1.00  0.00     0.006 C 
BRANCH   6   7
ATOM      7  C   UNL     1       5.052   0.299 403.808  1.00  0.00     0.053 C 
BRANCH   7   8
ATOM      8  C   UNL     1       4.577  -0.873 404.612  1.00  0.00     0.041 C 
ATOM      9  O   UNL     1       5.277  -1.314 405.561  1.00  0.00    -0.550 OA
ATOM     10  O   UNL     1       3.377  -1.495 404.294  1.00  0.00    -0.550 OA
ENDBRANCH   7   8
ENDBRANCH   6   7
ENDBRANCH   5   6
ENDBRANCH   4   5
ENDBRANCH   3   4
ENDBRANCH   2   3
ENDBRANCH   1   2
BRANCH   1  11
ATOM     11  C   UNL     1       5.314  -2.230 401.103  1.00  0.00     0.000 C 
BRANCH  11  12
ATOM     12  C   UNL     1       6.471  -1.647 400.276  1.00  0.00    -0.000 C 
BRANCH  12  13
ATOM     13  C   UNL     1       7.284  -0.590 401.047  1.00  0.00    -0.000 C 
BRANCH  13  14
ATOM     14  C   UNL     1       7.594   0.704 400.266  1.00  0.00    -0.000 C 
BRANCH  14  15
ATOM     15  C   UNL     1       7.174   0.695 398.786  1.00  0.00    -0.000 C 
BRANCH  15  16
ATOM     16  C   UNL     1       8.138   1.491 397.888  1.00  0.00    -0.000 C 
BRANCH  16  17
ATOM     17  C   UNL     1       9.590   1.001 398.005  1.00  0.00    -0.003 C 
ATOM     18  C   UNL     1      10.577   2.132 398.294  1.00  0.00     0.004 C 
ENDBRANCH  16  17
ENDBRANCH  15  16
ENDBRANCH  14  15
ENDBRANCH  13  14
ENDBRANCH  12  13
ENDBRANCH  11  12
ENDBRANCH   1  11
TORSDOF 14
ENDMDL
MODEL 5
REMARK VINA RESULT:    -3.506      1.345      2.558
REMARK INTER + INTRA:          -8.815
REMARK INTER:                  -6.783
REMARK INTRA:                  -2.032
REMARK UNBOUND:                -2.440
REMARK SMILES CCCCCCCCCCCCCCCC(=O)[O-]
REMARK SMILES IDX 9 1 10 2 11 3 12 4 13 5 14 6 15 7 16 8 17 9 18 10 8 11 7 12
REMARK SMILES IDX 6 13 5 14 4 15 3 16 2 17 1 18
REMARK H PARENT
REMARK Flexibility Score: inf
ROOT
ATOM      1  C   UNL     1       3.837  -1.571 401.040  1.00  0.00     0.000 C 
ENDROOT
BRANCH   1   2
ATOM      2  C   UNL     1       3.704  -3.107 401.049  1.00  0.00     0.000 C 
BRANCH   2   3
ATOM      3  C   UNL     1       4.634  -3.841 402.036  1.00  0.00     0.000 C 
BRANCH   3   4
ATOM      4  C   UNL     1       4.470  -3.425 403.510  1.00  0.00     0.000 C 
BRANCH   4   5
ATOM      5  C   UNL     1       3.068  -3.735 404.061  1.00  0.00     0.000 C 
BRANCH   5   6
ATOM      6  C   UNL     1       2.509  -2.598 404.935  1.00  0.00     0.006 C 
BRANCH   6   7
ATOM      7  C   UNL     1       3.525  -2.008 405.926  1.00  0.00     0.053 C 
BRANCH   7   8
ATOM      8  C   UNL     1       3.582  -2.787 407.205  1.00  0.00     0.041 C 
ATOM      9  O   UNL     1       2.813  -2.496 408.159  1.00  0.00    -0.550 OA
ATOM     10  O   UNL     1       4.505  -3.814 407.353  1.00  0.00    -0.550 OA
ENDBRANCH   7   8
ENDBRANCH   6   7
ENDBRANCH   5   6
ENDBRANCH   4   5
ENDBRANCH   3   4
ENDBRANCH   2   3
ENDBRANCH   1   2
BRANCH   1  11
ATOM     11  C   UNL     1       5.130  -1.028 400.407  1.00  0.00     0.000 C 
BRANCH  11  12
ATOM     12  C   UNL     1       5.035   0.463 400.041  1.00  0.00    -0.000 C 
BRANCH  12  13
ATOM     13  C   UNL     1       3.673   1.081 400.406  1.00  0.00    -0.000 C 
BRANCH  13  14
ATOM     14  C   UNL     1       3.738   2.393 401.215  1.00  0.00    -0.000 C 
BRANCH  14  15
ATOM     15  C   UNL     1       4.736   2.394 402.386  1.00  0.00    -0.000 C 
BRANCH  15  16
ATOM     16  C   UNL     1       4.288   1.496 403.553  1.00  0.00    -0.000 C 
BRANCH  16  17
ATOM     17  C   UNL     1       5.268   0.342 403.816  1.00  0.00    -0.003 C 
ATOM     18  C   UNL     1       6.723   0.727 403.550  1.00  0.00     0.004 C 
ENDBRANCH  16  17
ENDBRANCH  15  16
ENDBRANCH  14  15
ENDBRANCH  13  14
ENDBRANCH  12  13
ENDBRANCH  11  12
ENDBRANCH   1  11
TORSDOF 14
ENDMDL
MODEL 6
REMARK VINA RESULT:    -3.474      2.940      4.928
REMARK INTER + INTRA:          -8.757
REMARK INTER:                  -6.232
REMARK INTRA:                  -2.526
REMARK UNBOUND:                -2.440
REMARK SMILES CCCCCCCCCCCCCCCC(=O)[O-]
REMARK SMILES IDX 9 1 10 2 11 3 12 4 13 5 14 6 15 7 16 8 17 9 18 10 8 11 7 12
REMARK SMILES IDX 6 13 5 14 4 15 3 16 2 17 1 18
REMARK H PARENT
REMARK Flexibility Score: inf
ROOT
ATOM      1  C   UNL     1       3.804  -4.462 403.501  1.00  0.00     0.000 C 
ENDROOT
BRANCH   1   2
ATOM      2  C   UNL     1       4.026  -4.172 402.003  1.00  0.00     0.000 C 
BRANCH   2   3
ATOM      3  C   UNL     1       3.434  -2.841 401.498  1.00  0.00     0.000 C 
BRANCH   3   4
ATOM      4  C   UNL     1       3.727  -2.522 400.020  1.00  0.00     0.000 C 
BRANCH   4   5
ATOM      5  C   UNL     1       4.203  -1.075 399.808  1.00  0.00     0.000 C 
BRANCH   5   6
ATOM      6  C   UNL     1       3.651  -0.106 400.869  1.00  0.00     0.006 C 
BRANCH   6   7
ATOM      7  C   UNL     1       3.534   1.350 400.392  1.00  0.00     0.053 C 
BRANCH   7   8
ATOM      8  C   UNL     1       4.223   2.303 401.321  1.00  0.00     0.041 C 
ATOM      9  O   UNL     1       3.630   3.342 401.715  1.00  0.00    -0.550 OA
ATOM     10  O   UNL     1       5.529   2.060 401.725  1.00  0.00    -0.550 OA
ENDBRANCH   7   8
ENDBRANCH   6   7
ENDBRANCH   5   6
ENDBRANCH   4   5
ENDBRANCH   3   4
ENDBRANCH   2   3
ENDBRANCH   1   2
BRANCH   1  11
ATOM     11  C   UNL     1       2.837  -3.502 404.219  1.00  0.00     0.000 C 
BRANCH  11  12
ATOM     12  C   UNL     1       3.251  -3.216 405.672  1.00  0.00    -0.000 C 
BRANCH  12  13
ATOM     13  C   UNL     1       4.185  -1.998 405.798  1.00  0.00    -0.000 C 
BRANCH  13  14
ATOM     14  C   UNL     1       4.087  -0.969 404.653  1.00  0.00    -0.000 C 
BRANCH  14  15
ATOM     15  C   UNL     1       5.433  -0.512 404.063  1.00  0.00    -0.000 C 
BRANCH  15  16
ATOM     16  C   UNL     1       6.341  -1.690 403.666  1.00  0.00    -0.000 C 
BRANCH  16  17
ATOM     17  C   UNL     1       6.929  -1.530 402.255  1.00  0.00    -0.003 C 
ATOM     18  C   UNL     1       7.346  -2.863 401.632  1.00  0.00     0.004 C 
ENDBRANCH  16  17
ENDBRANCH  15  16
ENDBRANCH  14  15
ENDBRANCH  13  14
ENDBRANCH  12  13
ENDBRANCH  11  12
ENDBRANCH   1  11
TORSDOF 14
ENDMDL
MODEL 7
REMARK VINA RESULT:    -3.470      2.399      5.053
REMARK INTER + INTRA:          -8.750
REMARK INTER:                  -6.595
REMARK INTRA:                  -2.155
REMARK UNBOUND:                -2.440
REMARK SMILES CCCCCCCCCCCCCCCC(=O)[O-]
REMARK SMILES IDX 9 1 10 2 11 3 12 4 13 5 14 6 15 7 16 8 17 9 18 10 8 11 7 12
REMARK SMILES IDX 6 13 5 14 4 15 3 16 2 17 1 18
REMARK H PARENT
REMARK Flexibility Score: inf
ROOT
ATOM      1  C   UNL     1       5.417   1.161 400.347  1.00  0.00     0.000 C 
ENDROOT
BRANCH   1   2
ATOM      2  C   UNL     1       4.068   1.878 400.555  1.00  0.00     0.000 C 
BRANCH   2   3
ATOM      3  C   UNL     1       3.970   2.734 401.834  1.00  0.00     0.000 C 
BRANCH   3   4
ATOM      4  C   UNL     1       4.663   2.132 403.070  1.00  0.00     0.000 C 
BRANCH   4   5
ATOM      5  C   UNL     1       3.990   0.839 403.557  1.00  0.00     0.000 C 
BRANCH   5   6
ATOM      6  C   UNL     1       4.930  -0.040 404.402  1.00  0.00     0.006 C 
BRANCH   6   7
ATOM      7  C   UNL     1       5.979  -0.809 403.582  1.00  0.00     0.053 C 
BRANCH   7   8
ATOM      8  C   UNL     1       7.334  -0.175 403.666  1.00  0.00     0.041 C 
ATOM      9  O   UNL     1       8.005   0.025 402.619  1.00  0.00    -0.550 OA
ATOM     10  O   UNL     1       7.868   0.166 404.902  1.00  0.00    -0.550 OA
ENDBRANCH   7   8
ENDBRANCH   6   7
ENDBRANCH   5   6
ENDBRANCH   4   5
ENDBRANCH   3   4
ENDBRANCH   2   3
ENDBRANCH   1   2
BRANCH   1  11
ATOM     11  C   UNL     1       5.323  -0.356 400.103  1.00  0.00     0.000 C 
BRANCH  11  12
ATOM     12  C   UNL     1       3.871  -0.854 400.003  1.00  0.00    -0.000 C 
BRANCH  12  13
ATOM     13  C   UNL     1       3.773  -2.384 399.860  1.00  0.00    -0.000 C 
BRANCH  13  14
ATOM     14  C   UNL     1       3.354  -3.142 401.137  1.00  0.00    -0.000 C 
BRANCH  14  15
ATOM     15  C   UNL     1       4.498  -3.839 401.893  1.00  0.00    -0.000 C 
BRANCH  15  16
ATOM     16  C   UNL     1       4.204  -4.011 403.394  1.00  0.00    -0.000 C 
BRANCH  16  17
ATOM     17  C   UNL     1       2.972  -3.211 403.846  1.00  0.00    -0.003 C 
ATOM     18  C   UNL     1       2.900  -3.041 405.364  1.00  0.00     0.004 C 
ENDBRANCH  16  17
ENDBRANCH  15  16
ENDBRANCH  14  15
ENDBRANCH  13  14
ENDBRANCH  12  13
ENDBRANCH  11  12
ENDBRANCH   1  11
TORSDOF 14
ENDMDL
MODEL 8
REMARK VINA RESULT:    -3.446      2.209      3.773
REMARK INTER + INTRA:          -8.705
REMARK INTER:                  -6.331
REMARK INTRA:                  -2.375
REMARK UNBOUND:                -2.440
REMARK SMILES CCCCCCCCCCCCCCCC(=O)[O-]
REMARK SMILES IDX 9 1 10 2 11 3 12 4 13 5 14 6 15 7 16 8 17 9 18 10 8 11 7 12
REMARK SMILES IDX 6 13 5 14 4 15 3 16 2 17 1 18
REMARK H PARENT
REMARK Flexibility Score: inf
ROOT
ATOM      1  C   UNL     1       7.109   0.707 400.579  1.00  0.00     0.000 C 
ENDROOT
BRANCH   1   2
ATOM      2  C   UNL     1       8.038  -0.517 400.447  1.00  0.00     0.000 C 
BRANCH   2   3
ATOM      3  C   UNL     1       7.885  -1.579 401.554  1.00  0.00     0.000 C 
BRANCH   3   4
ATOM      4  C   UNL     1       6.970  -1.169 402.722  1.00  0.00     0.000 C 
BRANCH   4   5
ATOM      5  C   UNL     1       6.055  -2.314 403.189  1.00  0.00     0.000 C 
BRANCH   5   6
ATOM      6  C   UNL     1       4.563  -1.941 403.133  1.00  0.00     0.006 C 
BRANCH   6   7
ATOM      7  C   UNL     1       3.611  -3.148 403.120  1.00  0.00     0.053 C 
BRANCH   7   8
ATOM      8  C   UNL     1       3.583  -3.828 401.784  1.00  0.00     0.041 C 
ATOM      9  O   UNL     1       4.076  -4.978 401.649  1.00  0.00    -0.550 OA
ATOM     10  O   UNL     1       3.040  -3.177 400.684  1.00  0.00    -0.550 OA
ENDBRANCH   7   8
ENDBRANCH   6   7
ENDBRANCH   5   6
ENDBRANCH   4   5
ENDBRANCH   3   4
ENDBRANCH   2   3
ENDBRANCH   1   2
BRANCH   1  11
ATOM     11  C   UNL     1       5.971   0.780 399.544  1.00  0.00     0.000 C 
BRANCH  11  12
ATOM     12  C   UNL     1       4.854  -0.241 399.813  1.00  0.00    -0.000 C 
BRANCH  12  13
ATOM     13  C   UNL     1       3.626   0.383 400.500  1.00  0.00    -0.000 C 
BRANCH  13  14
ATOM     14  C   UNL     1       3.587   1.925 400.510  1.00  0.00    -0.000 C 
BRANCH  14  15
ATOM     15  C   UNL     1       3.950   2.584 401.853  1.00  0.00    -0.000 C 
BRANCH  15  16
ATOM     16  C   UNL     1       3.997   1.578 403.017  1.00  0.00    -0.000 C 
BRANCH  16  17
ATOM     17  C   UNL     1       5.220   1.785 403.924  1.00  0.00    -0.003 C 
ATOM     18  C   UNL     1       6.199   2.822 403.372  1.00  0.00     0.004 C 
ENDBRANCH  16  17
ENDBRANCH  15  16
ENDBRANCH  14  15
ENDBRANCH  13  14
ENDBRANCH  12  13
ENDBRANCH  11  12
ENDBRANCH   1  11
TORSDOF 14
ENDMDL
MODEL 9
REMARK VINA RESULT:    -3.414      2.193      3.753
REMARK INTER + INTRA:          -8.648
REMARK INTER:                  -6.357
REMARK INTRA:                  -2.291
REMARK UNBOUND:                -2.440
REMARK SMILES CCCCCCCCCCCCCCCC(=O)[O-]
REMARK SMILES IDX 9 1 10 2 11 3 12 4 13 5 14 6 15 7 16 8 17 9 18 10 8 11 7 12
REMARK SMILES IDX 6 13 5 14 4 15 3 16 2 17 1 18
REMARK H PARENT
REMARK Flexibility Score: inf
ROOT
ATOM      1  C   UNL     1       5.187   1.511 404.184  1.00  0.00     0.000 C 
ENDROOT
BRANCH   1   2
ATOM      2  C   UNL     1       5.118  -0.028 404.101  1.00  0.00     0.000 C 
BRANCH   2   3
ATOM      3  C   UNL     1       3.707  -0.610 403.882  1.00  0.00     0.000 C 
BRANCH   3   4
ATOM      4  C   UNL     1       3.457  -1.971 404.558  1.00  0.00     0.000 C 
BRANCH   4   5
ATOM      5  C   UNL     1       4.267  -3.110 403.916  1.00  0.00     0.000 C 
BRANCH   5   6
ATOM      6  C   UNL     1       3.394  -4.060 403.076  1.00  0.00     0.006 C 
BRANCH   6   7
ATOM      7  C   UNL     1       4.173  -4.867 402.025  1.00  0.00     0.053 C 
BRANCH   7   8
ATOM      8  C   UNL     1       4.210  -6.329 402.353  1.00  0.00     0.041 C 
ATOM      9  O   UNL     1       3.758  -7.173 401.536  1.00  0.00    -0.550 OA
ATOM     10  O   UNL     1       4.717  -6.755 403.575  1.00  0.00    -0.550 OA
ENDBRANCH   7   8
ENDBRANCH   6   7
ENDBRANCH   5   6
ENDBRANCH   4   5
ENDBRANCH   3   4
ENDBRANCH   2   3
ENDBRANCH   1   2
BRANCH   1  11
ATOM     11  C   UNL     1       5.561   2.221 402.871  1.00  0.00     0.000 C 
BRANCH  11  12
ATOM     12  C   UNL     1       4.391   3.020 402.272  1.00  0.00    -0.000 C 
BRANCH  12  13
ATOM     13  C   UNL     1       3.756   2.325 401.053  1.00  0.00    -0.000 C 
BRANCH  13  14
ATOM     14  C   UNL     1       4.555   1.137 400.478  1.00  0.00    -0.000 C 
BRANCH  14  15
ATOM     15  C   UNL     1       3.736  -0.138 400.211  1.00  0.00    -0.000 C 
BRANCH  15  16
ATOM     16  C   UNL     1       4.561  -1.425 400.395  1.00  0.00    -0.000 C 
BRANCH  16  17
ATOM     17  C   UNL     1       6.072  -1.152 400.459  1.00  0.00    -0.003 C 
ATOM     18  C   UNL     1       6.791  -2.032 401.481  1.00  0.00     0.004 C 
ENDBRANCH  16  17
ENDBRANCH  15  16
ENDBRANCH  14  15
ENDBRANCH  13  14
ENDBRANCH  12  13
ENDBRANCH  11  12
ENDBRANCH   1  11
TORSDOF 14
ENDMDL
