MODEL 1
REMARK VINA RESULT:    -4.909      0.000      0.000
REMARK INTER + INTRA:          -5.339
REMARK INTER:                  -5.770
REMARK INTRA:                   0.430
REMARK UNBOUND:                 0.430
REMARK SMILES O=c1c(O)c(-c2ccc(O)cc2)oc2cc(O)cc(O)c12
REMARK SMILES IDX 5 1 3 2 2 3 1 4 21 5 19 6 18 7 16 8 15 9 14 10 13 11 6 12
REMARK SMILES IDX 7 13 8 14 9 15 12 16 11 17 10 18 4 20 20 22 17 24
REMARK H PARENT 10 19 4 21 20 23 17 25
REMARK Flexibility Score: inf
ROOT
ATOM      1  C   UNL     1      -5.855 -17.402  -7.317  1.00  0.00     0.180 A 
ATOM      2  C   UNL     1      -4.574 -17.409  -6.733  1.00  0.00     0.208 A 
ATOM      3  C   UNL     1      -4.385 -16.755  -5.505  1.00  0.00     0.238 A 
ATOM      4  O   UNL     1      -3.245 -16.764  -4.966  1.00  0.00    -0.285 OA
ATOM      5  C   UNL     1      -5.470 -16.091  -4.895  1.00  0.00     0.111 A 
ATOM      6  C   UNL     1      -5.363 -15.406  -3.660  1.00  0.00     0.134 A 
ATOM      7  C   UNL     1      -6.487 -14.761  -3.123  1.00  0.00     0.093 A 
ATOM      8  C   UNL     1      -7.713 -14.790  -3.795  1.00  0.00     0.123 A 
ATOM      9  C   UNL     1      -7.824 -15.465  -5.012  1.00  0.00     0.094 A 
ATOM     10  C   UNL     1      -6.716 -16.114  -5.564  1.00  0.00     0.146 A 
ATOM     11  O   UNL     1      -6.851 -16.753  -6.720  1.00  0.00    -0.452 OA
ENDROOT
BRANCH   1  12
ATOM     12  C   UNL     1      -6.138 -18.085  -8.600  1.00  0.00     0.021 A 
ATOM     13  C   UNL     1      -5.238 -19.017  -9.149  1.00  0.00     0.016 A 
ATOM     14  C   UNL     1      -5.540 -19.667 -10.351  1.00  0.00     0.047 A 
ATOM     15  C   UNL     1      -6.748 -19.405 -11.010  1.00  0.00     0.115 A 
ATOM     16  C   UNL     1      -7.357 -17.844  -9.258  1.00  0.00     0.016 A 
ATOM     17  C   UNL     1      -7.654 -18.495 -10.458  1.00  0.00     0.047 A 
BRANCH  15  18
ATOM     18  O   UNL     1      -7.057 -20.045 -12.208  1.00  0.00    -0.508 OA
ATOM     19  H   UNL     1      -7.546 -20.933 -12.223  1.00  0.00     0.293 HD
ENDBRANCH  15  18
ENDBRANCH   1  12
BRANCH   2  20
ATOM     20  O   UNL     1      -3.505 -18.031  -7.382  1.00  0.00    -0.502 OA
ATOM     21  H   UNL     1      -3.590 -18.942  -7.819  1.00  0.00     0.293 HD
ENDBRANCH   2  20
BRANCH   6  22
ATOM     22  O   UNL     1      -4.152 -15.359  -2.967  1.00  0.00    -0.507 OA
ATOM     23  H   UNL     1      -3.400 -14.744  -3.250  1.00  0.00     0.293 HD
ENDBRANCH   6  22
BRANCH   8  24
ATOM     24  O   UNL     1      -8.829 -14.150  -3.262  1.00  0.00    -0.508 OA
ATOM     25  H   UNL     1      -9.740 -14.216  -3.704  1.00  0.00     0.293 HD
ENDBRANCH   8  24
TORSDOF 5
ENDMDL
MODEL 2
REMARK VINA RESULT:    -4.816      2.360      3.156
REMARK INTER + INTRA:          -5.230
REMARK INTER:                  -5.049
REMARK INTRA:                  -0.181
REMARK UNBOUND:                 0.430
REMARK SMILES O=c1c(O)c(-c2ccc(O)cc2)oc2cc(O)cc(O)c12
REMARK SMILES IDX 5 1 3 2 2 3 1 4 21 5 19 6 18 7 16 8 15 9 14 10 13 11 6 12
REMARK SMILES IDX 7 13 8 14 9 15 12 16 11 17 10 18 4 20 20 22 17 24
REMARK H PARENT 10 19 4 21 20 23 17 25
REMARK Flexibility Score: inf
ROOT
ATOM      1  C   UNL     1      -4.986 -17.793  -6.383  1.00  0.00     0.180 A 
ATOM      2  C   UNL     1      -4.181 -18.878  -5.984  1.00  0.00     0.208 A 
ATOM      3  C   UNL     1      -3.218 -18.676  -4.983  1.00  0.00     0.238 A 
ATOM      4  O   UNL     1      -2.500 -19.643  -4.609  1.00  0.00    -0.285 OA
ATOM      5  C   UNL     1      -3.061 -17.395  -4.415  1.00  0.00     0.111 A 
ATOM      6  C   UNL     1      -2.112 -17.107  -3.405  1.00  0.00     0.134 A 
ATOM      7  C   UNL     1      -2.011 -15.803  -2.897  1.00  0.00     0.093 A 
ATOM      8  C   UNL     1      -2.840 -14.784  -3.379  1.00  0.00     0.123 A 
ATOM      9  C   UNL     1      -3.778 -15.064  -4.374  1.00  0.00     0.094 A 
ATOM     10  C   UNL     1      -3.895 -16.357  -4.893  1.00  0.00     0.146 A 
ATOM     11  O   UNL     1      -4.799 -16.596  -5.835  1.00  0.00    -0.452 OA
ENDROOT
BRANCH   1  12
ATOM     12  C   UNL     1      -6.036 -17.931  -7.418  1.00  0.00     0.021 A 
ATOM     13  C   UNL     1      -5.709 -18.147  -8.769  1.00  0.00     0.016 A 
ATOM     14  C   UNL     1      -6.720 -18.299  -9.725  1.00  0.00     0.047 A 
ATOM     15  C   UNL     1      -8.066 -18.249  -9.340  1.00  0.00     0.115 A 
ATOM     16  C   UNL     1      -7.389 -17.904  -7.038  1.00  0.00     0.016 A 
ATOM     17  C   UNL     1      -8.395 -18.054  -7.996  1.00  0.00     0.047 A 
BRANCH  15  18
ATOM     18  O   UNL     1      -9.080 -18.397 -10.284  1.00  0.00    -0.508 OA
ATOM     19  H   UNL     1      -8.880 -18.672 -11.239  1.00  0.00     0.293 HD
ENDBRANCH  15  18
ENDBRANCH   1  12
BRANCH   2  20
ATOM     20  O   UNL     1      -4.322 -20.125  -6.598  1.00  0.00    -0.502 OA
ATOM     21  H   UNL     1      -4.901 -20.860  -6.208  1.00  0.00     0.293 HD
ENDBRANCH   2  20
BRANCH   6  22
ATOM     22  O   UNL     1      -1.270 -18.102  -2.905  1.00  0.00    -0.507 OA
ATOM     23  H   UNL     1      -0.434 -18.389  -3.398  1.00  0.00     0.293 HD
ENDBRANCH   6  22
BRANCH   8  24
ATOM     24  O   UNL     1      -2.740 -13.490  -2.875  1.00  0.00    -0.508 OA
ATOM     25  H   UNL     1      -3.493 -13.068  -2.343  1.00  0.00     0.293 HD
ENDBRANCH   8  24
TORSDOF 5
ENDMDL
MODEL 3
REMARK VINA RESULT:    -4.721      1.935      3.661
REMARK INTER + INTRA:          -5.118
REMARK INTER:                  -4.853
REMARK INTRA:                  -0.265
REMARK UNBOUND:                 0.430
REMARK SMILES O=c1c(O)c(-c2ccc(O)cc2)oc2cc(O)cc(O)c12
REMARK SMILES IDX 5 1 3 2 2 3 1 4 21 5 19 6 18 7 16 8 15 9 14 10 13 11 6 12
REMARK SMILES IDX 7 13 8 14 9 15 12 16 11 17 10 18 4 20 20 22 17 24
REMARK H PARENT 10 19 4 21 20 23 17 25
REMARK Flexibility Score: inf
ROOT
ATOM      1  C   UNL     1      -7.067 -18.155  -8.212  1.00  0.00     0.180 A 
ATOM      2  C   UNL     1      -7.735 -17.153  -7.480  1.00  0.00     0.208 A 
ATOM      3  C   UNL     1      -7.159 -16.687  -6.287  1.00  0.00     0.238 A 
ATOM      4  O   UNL     1      -7.742 -15.783  -5.630  1.00  0.00    -0.285 OA
ATOM      5  C   UNL     1      -5.944 -17.242  -5.837  1.00  0.00     0.111 A 
ATOM      6  C   UNL     1      -5.299 -16.831  -4.645  1.00  0.00     0.134 A 
ATOM      7  C   UNL     1      -4.095 -17.438  -4.259  1.00  0.00     0.093 A 
ATOM      8  C   UNL     1      -3.524 -18.447  -5.043  1.00  0.00     0.123 A 
ATOM      9  C   UNL     1      -4.154 -18.854  -6.220  1.00  0.00     0.094 A 
ATOM     10  C   UNL     1      -5.354 -18.261  -6.622  1.00  0.00     0.146 A 
ATOM     11  O   UNL     1      -5.929 -18.664  -7.748  1.00  0.00    -0.452 OA
ENDROOT
BRANCH   1  12
ATOM     12  C   UNL     1      -7.600 -18.684  -9.487  1.00  0.00     0.021 A 
ATOM     13  C   UNL     1      -8.615 -19.658  -9.511  1.00  0.00     0.016 A 
ATOM     14  C   UNL     1      -9.120 -20.125 -10.729  1.00  0.00     0.047 A 
ATOM     15  C   UNL     1      -8.625 -19.616 -11.937  1.00  0.00     0.115 A 
ATOM     16  C   UNL     1      -7.125 -18.164 -10.704  1.00  0.00     0.016 A 
ATOM     17  C   UNL     1      -7.630 -18.634 -11.919  1.00  0.00     0.047 A 
BRANCH  15  18
ATOM     18  O   UNL     1      -9.119 -20.075 -13.156  1.00  0.00    -0.508 OA
ATOM     19  H   UNL     1      -8.511 -20.212 -13.956  1.00  0.00     0.293 HD
ENDBRANCH  15  18
ENDBRANCH   1  12
BRANCH   2  20
ATOM     20  O   UNL     1      -8.963 -16.657  -7.922  1.00  0.00    -0.502 OA
ATOM     21  H   UNL     1      -9.064 -15.728  -8.315  1.00  0.00     0.293 HD
ENDBRANCH   2  20
BRANCH   6  22
ATOM     22  O   UNL     1      -5.846 -15.828  -3.842  1.00  0.00    -0.507 OA
ATOM     23  H   UNL     1      -6.182 -16.019  -2.906  1.00  0.00     0.293 HD
ENDBRANCH   6  22
BRANCH   8  24
ATOM     24  O   UNL     1      -2.328 -19.050  -4.661  1.00  0.00    -0.508 OA
ATOM     25  H   UNL     1      -1.962 -19.859  -5.151  1.00  0.00     0.293 HD
ENDBRANCH   8  24
TORSDOF 5
ENDMDL
MODEL 4
REMARK VINA RESULT:    -4.423      2.221      3.967
REMARK INTER + INTRA:          -4.768
REMARK INTER:                  -4.517
REMARK INTRA:                  -0.252
REMARK UNBOUND:                 0.430
REMARK SMILES O=c1c(O)c(-c2ccc(O)cc2)oc2cc(O)cc(O)c12
REMARK SMILES IDX 5 1 3 2 2 3 1 4 21 5 19 6 18 7 16 8 15 9 14 10 13 11 6 12
REMARK SMILES IDX 7 13 8 14 9 15 12 16 11 17 10 18 4 20 20 22 17 24
REMARK H PARENT 10 19 4 21 20 23 17 25
REMARK Flexibility Score: inf
ROOT
ATOM      1  C   UNL     1      -4.922 -18.165  -6.743  1.00  0.00     0.180 A 
ATOM      2  C   UNL     1      -5.065 -16.839  -6.290  1.00  0.00     0.208 A 
ATOM      3  C   UNL     1      -4.269 -16.398  -5.220  1.00  0.00     0.238 A 
ATOM      4  O   UNL     1      -4.380 -15.210  -4.814  1.00  0.00    -0.285 OA
ATOM      5  C   UNL     1      -3.363 -17.291  -4.612  1.00  0.00     0.111 A 
ATOM      6  C   UNL     1      -2.528 -16.928  -3.528  1.00  0.00     0.134 A 
ATOM      7  C   UNL     1      -1.659 -17.877  -2.970  1.00  0.00     0.093 A 
ATOM      8  C   UNL     1      -1.610 -19.181  -3.475  1.00  0.00     0.123 A 
ATOM      9  C   UNL     1      -2.430 -19.544  -4.544  1.00  0.00     0.094 A 
ATOM     10  C   UNL     1      -3.302 -18.612  -5.115  1.00  0.00     0.146 A 
ATOM     11  O   UNL     1      -4.068 -18.983  -6.134  1.00  0.00    -0.452 OA
ENDROOT
BRANCH   1  12
ATOM     12  C   UNL     1      -5.711 -18.698  -7.877  1.00  0.00     0.021 A 
ATOM     13  C   UNL     1      -7.055 -19.081  -7.719  1.00  0.00     0.016 A 
ATOM     14  C   UNL     1      -7.787 -19.560  -8.811  1.00  0.00     0.047 A 
ATOM     15  C   UNL     1      -7.189 -19.649 -10.075  1.00  0.00     0.115 A 
ATOM     16  C   UNL     1      -5.126 -18.771  -9.153  1.00  0.00     0.016 A 
ATOM     17  C   UNL     1      -5.860 -19.250 -10.241  1.00  0.00     0.047 A 
BRANCH  15  18
ATOM     18  O   UNL     1      -7.908 -20.125 -11.169  1.00  0.00    -0.508 OA
ATOM     19  H   UNL     1      -7.640 -20.976 -11.649  1.00  0.00     0.293 HD
ENDBRANCH  15  18
ENDBRANCH   1  12
BRANCH   2  20
ATOM     20  O   UNL     1      -6.005 -15.990  -6.878  1.00  0.00    -0.502 OA
ATOM     21  H   UNL     1      -6.096 -15.892  -7.882  1.00  0.00     0.293 HD
ENDBRANCH   2  20
BRANCH   6  22
ATOM     22  O   UNL     1      -2.556 -15.635  -3.001  1.00  0.00    -0.507 OA
ATOM     23  H   UNL     1      -1.721 -15.066  -2.942  1.00  0.00     0.293 HD
ENDBRANCH   6  22
BRANCH   8  24
ATOM     24  O   UNL     1      -0.747 -20.124  -2.921  1.00  0.00    -0.508 OA
ATOM     25  H   UNL     1       0.234 -20.158  -3.174  1.00  0.00     0.293 HD
ENDBRANCH   8  24
TORSDOF 5
ENDMDL
MODEL 5
REMARK VINA RESULT:    -4.110     14.782     15.983
REMARK INTER + INTRA:          -4.401
REMARK INTER:                  -4.143
REMARK INTRA:                  -0.258
REMARK UNBOUND:                 0.430
REMARK SMILES O=c1c(O)c(-c2ccc(O)cc2)oc2cc(O)cc(O)c12
REMARK SMILES IDX 5 1 3 2 2 3 1 4 21 5 19 6 18 7 16 8 15 9 14 10 13 11 6 12
REMARK SMILES IDX 7 13 8 14 9 15 12 16 11 17 10 18 4 20 20 22 17 24
REMARK H PARENT 10 19 4 21 20 23 17 25
REMARK Flexibility Score: inf
ROOT
ATOM      1  C   UNL     1      -7.076  -1.415  -8.034  1.00  0.00     0.180 A 
ATOM      2  C   UNL     1      -7.837  -0.727  -7.069  1.00  0.00     0.208 A 
ATOM      3  C   UNL     1      -7.291  -0.529  -5.790  1.00  0.00     0.238 A 
ATOM      4  O   UNL     1      -7.958   0.096  -4.921  1.00  0.00    -0.285 OA
ATOM      5  C   UNL     1      -6.010  -1.037  -5.494  1.00  0.00     0.111 A 
ATOM      6  C   UNL     1      -5.390  -0.884  -4.230  1.00  0.00     0.134 A 
ATOM      7  C   UNL     1      -4.115  -1.426  -4.009  1.00  0.00     0.093 A 
ATOM      8  C   UNL     1      -3.450  -2.118  -5.028  1.00  0.00     0.123 A 
ATOM      9  C   UNL     1      -4.057  -2.271  -6.275  1.00  0.00     0.094 A 
ATOM     10  C   UNL     1      -5.326  -1.737  -6.515  1.00  0.00     0.146 A 
ATOM     11  O   UNL     1      -5.877  -1.892  -7.713  1.00  0.00    -0.452 OA
ENDROOT
BRANCH   1  12
ATOM     12  C   UNL     1      -7.574  -1.646  -9.409  1.00  0.00     0.021 A 
ATOM     13  C   UNL     1      -7.575  -0.620 -10.372  1.00  0.00     0.016 A 
ATOM     14  C   UNL     1      -8.028  -0.870 -11.671  1.00  0.00     0.047 A 
ATOM     15  C   UNL     1      -8.473  -2.150 -12.028  1.00  0.00     0.115 A 
ATOM     16  C   UNL     1      -8.002  -2.932  -9.782  1.00  0.00     0.016 A 
ATOM     17  C   UNL     1      -8.455  -3.178 -11.081  1.00  0.00     0.047 A 
BRANCH  15  18
ATOM     18  O   UNL     1      -8.927  -2.410 -13.319  1.00  0.00    -0.508 OA
ATOM     19  H   UNL     1      -9.377  -1.693 -13.876  1.00  0.00     0.293 HD
ENDBRANCH  15  18
ENDBRANCH   1  12
BRANCH   2  20
ATOM     20  O   UNL     1      -9.124  -0.278  -7.373  1.00  0.00    -0.502 OA
ATOM     21  H   UNL     1      -9.628   0.370  -6.778  1.00  0.00     0.293 HD
ENDBRANCH   2  20
BRANCH   6  22
ATOM     22  O   UNL     1      -6.029  -0.200  -3.194  1.00  0.00    -0.507 OA
ATOM     23  H   UNL     1      -6.933  -0.490  -2.842  1.00  0.00     0.293 HD
ENDBRANCH   6  22
BRANCH   8  24
ATOM     24  O   UNL     1      -2.185  -2.658  -4.809  1.00  0.00    -0.508 OA
ATOM     25  H   UNL     1      -1.535  -2.238  -4.153  1.00  0.00     0.293 HD
ENDBRANCH   8  24
TORSDOF 5
ENDMDL
MODEL 6
REMARK VINA RESULT:    -4.082      2.165      6.761
REMARK INTER + INTRA:          -4.368
REMARK INTER:                  -4.091
REMARK INTRA:                  -0.277
REMARK UNBOUND:                 0.430
REMARK SMILES O=c1c(O)c(-c2ccc(O)cc2)oc2cc(O)cc(O)c12
REMARK SMILES IDX 5 1 3 2 2 3 1 4 21 5 19 6 18 7 16 8 15 9 14 10 13 11 6 12
REMARK SMILES IDX 7 13 8 14 9 15 12 16 11 17 10 18 4 20 20 22 17 24
REMARK H PARENT 10 19 4 21 20 23 17 25
REMARK Flexibility Score: inf
ROOT
ATOM      1  C   UNL     1      -5.220 -17.538  -5.797  1.00  0.00     0.180 A 
ATOM      2  C   UNL     1      -6.466 -17.907  -5.253  1.00  0.00     0.208 A 
ATOM      3  C   UNL     1      -7.368 -18.630  -6.051  1.00  0.00     0.238 A 
ATOM      4  O   UNL     1      -8.481 -18.976  -5.571  1.00  0.00    -0.285 OA
ATOM      5  C   UNL     1      -7.019 -18.950  -7.379  1.00  0.00     0.111 A 
ATOM      6  C   UNL     1      -7.872 -19.672  -8.250  1.00  0.00     0.134 A 
ATOM      7  C   UNL     1      -7.457 -19.945  -9.562  1.00  0.00     0.093 A 
ATOM      8  C   UNL     1      -6.208 -19.510 -10.018  1.00  0.00     0.123 A 
ATOM      9  C   UNL     1      -5.364 -18.799  -9.163  1.00  0.00     0.094 A 
ATOM     10  C   UNL     1      -5.758 -18.519  -7.852  1.00  0.00     0.146 A 
ATOM     11  O   UNL     1      -4.933 -17.846  -7.059  1.00  0.00    -0.452 OA
ENDROOT
BRANCH   1  12
ATOM     12  C   UNL     1      -4.209 -16.793  -5.013  1.00  0.00     0.021 A 
ATOM     13  C   UNL     1      -3.136 -17.452  -4.385  1.00  0.00     0.016 A 
ATOM     14  C   UNL     1      -2.180 -16.723  -3.671  1.00  0.00     0.047 A 
ATOM     15  C   UNL     1      -2.277 -15.328  -3.586  1.00  0.00     0.115 A 
ATOM     16  C   UNL     1      -4.286 -15.391  -4.941  1.00  0.00     0.016 A 
ATOM     17  C   UNL     1      -3.330 -14.666  -4.224  1.00  0.00     0.047 A 
BRANCH  15  18
ATOM     18  O   UNL     1      -1.331 -14.592  -2.875  1.00  0.00    -0.508 OA
ATOM     19  H   UNL     1      -0.582 -14.097  -3.346  1.00  0.00     0.293 HD
ENDBRANCH  15  18
ENDBRANCH   1  12
BRANCH   2  20
ATOM     20  O   UNL     1      -6.806 -17.534  -3.951  1.00  0.00    -0.502 OA
ATOM     21  H   UNL     1      -7.033 -16.577  -3.702  1.00  0.00     0.293 HD
ENDBRANCH   2  20
BRANCH   6  22
ATOM     22  O   UNL     1      -9.124 -20.117  -7.824  1.00  0.00    -0.507 OA
ATOM     23  H   UNL     1      -9.896 -20.236  -8.469  1.00  0.00     0.293 HD
ENDBRANCH   6  22
BRANCH   8  24
ATOM     24  O   UNL     1      -5.795 -19.780 -11.321  1.00  0.00    -0.508 OA
ATOM     25  H   UNL     1      -4.838 -20.042 -11.531  1.00  0.00     0.293 HD
ENDBRANCH   8  24
TORSDOF 5
ENDMDL
MODEL 7
REMARK VINA RESULT:    -3.904      2.065      2.667
REMARK INTER + INTRA:          -4.158
REMARK INTER:                  -3.875
REMARK INTRA:                  -0.283
REMARK UNBOUND:                 0.430
REMARK SMILES O=c1c(O)c(-c2ccc(O)cc2)oc2cc(O)cc(O)c12
REMARK SMILES IDX 5 1 3 2 2 3 1 4 21 5 19 6 18 7 16 8 15 9 14 10 13 11 6 12
REMARK SMILES IDX 7 13 8 14 9 15 12 16 11 17 10 18 4 20 20 22 17 24
REMARK H PARENT 10 19 4 21 20 23 17 25
REMARK Flexibility Score: inf
ROOT
ATOM      1  C   UNL     1      -6.263 -18.184  -7.813  1.00  0.00     0.180 A 
ATOM      2  C   UNL     1      -6.609 -18.936  -6.674  1.00  0.00     0.208 A 
ATOM      3  C   UNL     1      -6.185 -18.490  -5.412  1.00  0.00     0.238 A 
ATOM      4  O   UNL     1      -6.498 -19.149  -4.384  1.00  0.00    -0.285 OA
ATOM      5  C   UNL     1      -5.409 -17.317  -5.313  1.00  0.00     0.111 A 
ATOM      6  C   UNL     1      -4.939 -16.801  -4.081  1.00  0.00     0.134 A 
ATOM      7  C   UNL     1      -4.164 -15.631  -4.066  1.00  0.00     0.093 A 
ATOM      8  C   UNL     1      -3.851 -14.970  -5.258  1.00  0.00     0.123 A 
ATOM      9  C   UNL     1      -4.313 -15.474  -6.475  1.00  0.00     0.094 A 
ATOM     10  C   UNL     1      -5.088 -16.637  -6.511  1.00  0.00     0.146 A 
ATOM     11  O   UNL     1      -5.518 -17.091  -7.682  1.00  0.00    -0.452 OA
ENDROOT
BRANCH   1  12
ATOM     12  C   UNL     1      -6.689 -18.579  -9.175  1.00  0.00     0.021 A 
ATOM     13  C   UNL     1      -5.863 -19.362 -10.004  1.00  0.00     0.016 A 
ATOM     14  C   UNL     1      -6.298 -19.743 -11.278  1.00  0.00     0.047 A 
ATOM     15  C   UNL     1      -7.565 -19.358 -11.734  1.00  0.00     0.115 A 
ATOM     16  C   UNL     1      -7.967 -18.216  -9.633  1.00  0.00     0.016 A 
ATOM     17  C   UNL     1      -8.397 -18.597 -10.907  1.00  0.00     0.047 A 
BRANCH  15  18
ATOM     18  O   UNL     1      -8.007 -19.730 -13.001  1.00  0.00    -0.508 OA
ATOM     19  H   UNL     1      -8.977 -19.627 -13.276  1.00  0.00     0.293 HD
ENDBRANCH  15  18
ENDBRANCH   1  12
BRANCH   2  20
ATOM     20  O   UNL     1      -7.335 -20.122  -6.804  1.00  0.00    -0.502 OA
ATOM     21  H   UNL     1      -6.954 -21.025  -6.543  1.00  0.00     0.293 HD
ENDBRANCH   2  20
BRANCH   6  22
ATOM     22  O   UNL     1      -5.234 -17.440  -2.875  1.00  0.00    -0.507 OA
ATOM     23  H   UNL     1      -4.506 -17.805  -2.274  1.00  0.00     0.293 HD
ENDBRANCH   6  22
BRANCH   8  24
ATOM     24  O   UNL     1      -3.081 -13.809  -5.244  1.00  0.00    -0.508 OA
ATOM     25  H   UNL     1      -3.449 -12.925  -5.579  1.00  0.00     0.293 HD
ENDBRANCH   8  24
TORSDOF 5
ENDMDL
MODEL 8
REMARK VINA RESULT:    -2.539      2.269      6.549
REMARK INTER + INTRA:          -2.554
REMARK INTER:                  -2.541
REMARK INTRA:                  -0.013
REMARK UNBOUND:                 0.430
REMARK SMILES O=c1c(O)c(-c2ccc(O)cc2)oc2cc(O)cc(O)c12
REMARK SMILES IDX 5 1 3 2 2 3 1 4 21 5 19 6 18 7 16 8 15 9 14 10 13 11 6 12
REMARK SMILES IDX 7 13 8 14 9 15 12 16 11 17 10 18 4 20 20 22 17 24
REMARK H PARENT 10 19 4 21 20 23 17 25
REMARK Flexibility Score: inf
ROOT
ATOM      1  C   UNL     1      -4.798 -18.365  -6.274  1.00  0.00     0.180 A 
ATOM      2  C   UNL     1      -5.870 -17.530  -5.907  1.00  0.00     0.208 A 
ATOM      3  C   UNL     1      -6.935 -17.358  -6.807  1.00  0.00     0.238 A 
ATOM      4  O   UNL     1      -7.906 -16.621  -6.485  1.00  0.00    -0.285 OA
ATOM      5  C   UNL     1      -6.900 -18.005  -8.059  1.00  0.00     0.111 A 
ATOM      6  C   UNL     1      -7.930 -17.882  -9.023  1.00  0.00     0.134 A 
ATOM      7  C   UNL     1      -7.817 -18.550 -10.251  1.00  0.00     0.093 A 
ATOM      8  C   UNL     1      -6.696 -19.338 -10.533  1.00  0.00     0.123 A 
ATOM      9  C   UNL     1      -5.678 -19.463  -9.585  1.00  0.00     0.094 A 
ATOM     10  C   UNL     1      -5.772 -18.806  -8.355  1.00  0.00     0.146 A 
ATOM     11  O   UNL     1      -4.793 -18.947  -7.470  1.00  0.00    -0.452 OA
ENDROOT
BRANCH   1  12
ATOM     12  C   UNL     1      -3.649 -18.612  -5.373  1.00  0.00     0.021 A 
ATOM     13  C   UNL     1      -3.253 -19.917  -5.030  1.00  0.00     0.016 A 
ATOM     14  C   UNL     1      -2.149 -20.125  -4.196  1.00  0.00     0.047 A 
ATOM     15  C   UNL     1      -1.420 -19.033  -3.707  1.00  0.00     0.115 A 
ATOM     16  C   UNL     1      -2.899 -17.523  -4.895  1.00  0.00     0.016 A 
ATOM     17  C   UNL     1      -1.798 -17.734  -4.062  1.00  0.00     0.047 A 
BRANCH  15  18
ATOM     18  O   UNL     1      -0.320 -19.228  -2.875  1.00  0.00    -0.508 OA
ATOM     19  H   UNL     1      -0.427 -19.569  -1.927  1.00  0.00     0.293 HD
ENDBRANCH  15  18
ENDBRANCH   1  12
BRANCH   2  20
ATOM     20  O   UNL     1      -5.857 -16.861  -4.681  1.00  0.00    -0.502 OA
ATOM     21  H   UNL     1      -5.902 -17.350  -3.794  1.00  0.00     0.293 HD
ENDBRANCH   2  20
BRANCH   6  22
ATOM     22  O   UNL     1      -9.060 -17.101  -8.772  1.00  0.00    -0.507 OA
ATOM     23  H   UNL     1      -9.648 -17.260  -7.963  1.00  0.00     0.293 HD
ENDBRANCH   6  22
BRANCH   8  24
ATOM     24  O   UNL     1      -6.583 -20.002 -11.752  1.00  0.00    -0.508 OA
ATOM     25  H   UNL     1      -5.808 -19.826 -12.382  1.00  0.00     0.293 HD
ENDBRANCH   8  24
TORSDOF 5
ENDMDL
