MODEL 1
REMARK VINA RESULT:    79.212      0.000      0.000
REMARK INTER + INTRA:         113.203
REMARK INTER:                 113.943
REMARK INTRA:                  -0.740
REMARK UNBOUND:                -0.740
REMARK SMILES O=c1cc(-c2ccc(O)c(O)c2)oc2cc(O[C@@H]3O[C@@H](CO)[C@H](O)[C@@H](O)[C@H]3O)cc(O)c12
REMARK SMILES IDX 17 1 16 2 4 3 3 4 13 5 2 6 14 7 1 8 32 9 15 10 30 11 29 12
REMARK SMILES IDX 5 13 6 14 7 15 8 16 12 17 10 18 9 19 11 21 31 23 18 25 27 26
REMARK SMILES IDX 19 27 25 28 20 29 23 30 28 31 26 33 21 35 22 36 24 38
REMARK H PARENT 9 20 11 22 31 24 28 32 26 34 22 37 24 39
REMARK Flexibility Score: inf
ROOT
ATOM      1  O   UNL     1     -35.253  29.449 -19.418  1.00  0.00    -0.462 OA
ENDROOT
BRANCH   1   2
ATOM      2  C   UNL     1     -36.324  28.861 -20.113  1.00  0.00     0.130 A 
ATOM      3  C   UNL     1     -40.743  29.442 -21.811  1.00  0.00     0.138 A 
ATOM      4  C   UNL     1     -40.777  28.141 -22.342  1.00  0.00     0.100 A 
ATOM      5  O   UNL     1     -39.649  29.863 -21.178  1.00  0.00    -0.456 OA
ATOM      6  C   UNL     1     -39.673  27.303 -22.180  1.00  0.00     0.197 A 
ATOM      7  C   UNL     1     -38.571  29.103 -21.002  1.00  0.00     0.146 A 
ATOM      8  O   UNL     1     -39.714  26.137 -22.660  1.00  0.00    -0.289 OA
ATOM      9  C   UNL     1     -38.537  27.776 -21.493  1.00  0.00     0.107 A 
ATOM     10  C   UNL     1     -37.471  29.631 -20.323  1.00  0.00     0.094 A 
ATOM     11  C   UNL     1     -37.380  26.993 -21.282  1.00  0.00     0.134 A 
ATOM     12  C   UNL     1     -36.286  27.537 -20.594  1.00  0.00     0.093 A 
BRANCH   3  13
ATOM     13  C   UNL     1     -41.893  30.370 -21.947  1.00  0.00     0.021 A 
ATOM     14  C   UNL     1     -42.066  31.088 -23.142  1.00  0.00     0.016 A 
ATOM     15  C   UNL     1     -43.139  31.968 -23.294  1.00  0.00     0.051 A 
ATOM     16  C   UNL     1     -44.054  32.163 -22.254  1.00  0.00     0.157 A 
ATOM     17  C   UNL     1     -42.802  30.577 -20.893  1.00  0.00     0.062 A 
ATOM     18  C   UNL     1     -43.877  31.466 -21.034  1.00  0.00     0.158 A 
BRANCH  16  19
ATOM     19  O   UNL     1     -45.114  33.046 -22.473  1.00  0.00    -0.504 OA
ATOM     20  H   UNL     1     -45.258  33.546 -23.337  1.00  0.00     0.293 HD
ENDBRANCH  16  19
BRANCH  18  21
ATOM     21  O   UNL     1     -44.733  31.628 -19.943  1.00  0.00    -0.504 OA
ATOM     22  H   UNL     1     -44.574  32.287 -19.192  1.00  0.00     0.293 HD
ENDBRANCH  18  21
ENDBRANCH   3  13
BRANCH  11  23
ATOM     23  O   UNL     1     -37.309  25.680 -21.750  1.00  0.00    -0.507 OA
ATOM     24  H   UNL     1     -37.614  25.429 -22.682  1.00  0.00     0.293 HD
ENDBRANCH  11  23
ENDBRANCH   1   2
BRANCH   1  25
ATOM     25  C   UNL     1     -35.360  30.284 -18.257  1.00  0.00     0.339 C 
ATOM     26  C   UNL     1     -35.062  29.495 -16.962  1.00  0.00     0.214 C 
ATOM     27  O   UNL     1     -34.500  31.407 -18.371  1.00  0.00    -0.332 OA
ATOM     28  C   UNL     1     -33.583  29.073 -16.946  1.00  0.00     0.180 C 
ATOM     29  C   UNL     1     -33.133  31.026 -18.481  1.00  0.00     0.179 C 
ATOM     30  C   UNL     1     -32.664  30.286 -17.204  1.00  0.00     0.177 C 
BRANCH  26  31
ATOM     31  O   UNL     1     -35.348  30.298 -15.844  1.00  0.00    -0.384 OA
ATOM     32  H   UNL     1     -36.329  30.235 -15.687  1.00  0.00     0.211 HD
ENDBRANCH  26  31
BRANCH  28  33
ATOM     33  O   UNL     1     -33.257  28.424 -15.741  1.00  0.00    -0.387 OA
ATOM     34  H   UNL     1     -33.602  27.494 -15.789  1.00  0.00     0.211 HD
ENDBRANCH  28  33
BRANCH  29  35
ATOM     35  C   UNL     1     -32.314  32.305 -18.719  1.00  0.00     0.191 C 
BRANCH  35  36
ATOM     36  O   UNL     1     -32.836  33.379 -17.980  1.00  0.00    -0.394 OA
ATOM     37  H   UNL     1     -32.080  33.775 -17.470  1.00  0.00     0.210 HD
ENDBRANCH  35  36
ENDBRANCH  29  35
BRANCH  30  38
ATOM     38  O   UNL     1     -31.340  29.841 -17.368  1.00  0.00    -0.387 OA
ATOM     39  H   UNL     1     -30.901  30.472 -17.995  1.00  0.00     0.211 HD
ENDBRANCH  30  38
ENDBRANCH   1  25
TORSDOF 11
ENDMDL
MODEL 2
REMARK VINA RESULT:    80.192      8.374     11.022
REMARK INTER + INTRA:         114.613
REMARK INTER:                 115.399
REMARK INTRA:                  -0.786
REMARK UNBOUND:                -0.740
REMARK SMILES O=c1cc(-c2ccc(O)c(O)c2)oc2cc(O[C@@H]3O[C@@H](CO)[C@H](O)[C@@H](O)[C@H]3O)cc(O)c12
REMARK SMILES IDX 17 1 16 2 4 3 3 4 13 5 2 6 14 7 1 8 32 9 15 10 30 11 29 12
REMARK SMILES IDX 5 13 6 14 7 15 8 16 12 17 10 18 9 19 11 21 31 23 18 25 27 26
REMARK SMILES IDX 19 27 25 28 20 29 23 30 28 31 26 33 21 35 22 36 24 38
REMARK H PARENT 9 20 11 22 31 24 28 32 26 34 22 37 24 39
REMARK Flexibility Score: inf
ROOT
ATOM      1  O   UNL     1     -29.439  24.557 -14.161  1.00  0.00    -0.462 OA
ENDROOT
BRANCH   1   2
ATOM      2  C   UNL     1     -29.971  25.774 -14.621  1.00  0.00     0.130 A 
ATOM      3  C   UNL     1     -30.896  28.513 -18.415  1.00  0.00     0.138 A 
ATOM      4  C   UNL     1     -31.465  29.525 -17.623  1.00  0.00     0.100 A 
ATOM      5  O   UNL     1     -30.435  27.406 -17.833  1.00  0.00    -0.456 OA
ATOM      6  C   UNL     1     -31.519  29.366 -16.238  1.00  0.00     0.197 A 
ATOM      7  C   UNL     1     -30.468  27.207 -16.517  1.00  0.00     0.146 A 
ATOM      8  O   UNL     1     -32.030  30.281 -15.536  1.00  0.00    -0.289 OA
ATOM      9  C   UNL     1     -31.010  28.189 -15.653  1.00  0.00     0.107 A 
ATOM     10  C   UNL     1     -29.959  26.015 -15.997  1.00  0.00     0.094 A 
ATOM     11  C   UNL     1     -31.022  27.950 -14.261  1.00  0.00     0.134 A 
ATOM     12  C   UNL     1     -30.502  26.749 -13.755  1.00  0.00     0.093 A 
BRANCH   3  13
ATOM     13  C   UNL     1     -30.805  28.635 -19.891  1.00  0.00     0.021 A 
ATOM     14  C   UNL     1     -31.012  27.501 -20.695  1.00  0.00     0.016 A 
ATOM     15  C   UNL     1     -30.931  27.592 -22.086  1.00  0.00     0.051 A 
ATOM     16  C   UNL     1     -30.626  28.808 -22.705  1.00  0.00     0.157 A 
ATOM     17  C   UNL     1     -30.481  29.857 -20.510  1.00  0.00     0.062 A 
ATOM     18  C   UNL     1     -30.388  29.953 -21.906  1.00  0.00     0.158 A 
BRANCH  16  19
ATOM     19  O   UNL     1     -30.573  28.836 -24.100  1.00  0.00    -0.504 OA
ATOM     20  H   UNL     1     -30.747  28.032 -24.685  1.00  0.00     0.293 HD
ENDBRANCH  16  19
BRANCH  18  21
ATOM     21  O   UNL     1     -30.054  31.195 -22.450  1.00  0.00    -0.504 OA
ATOM     22  H   UNL     1     -30.397  31.533 -23.340  1.00  0.00     0.293 HD
ENDBRANCH  18  21
ENDBRANCH   3  13
BRANCH  11  23
ATOM     23  O   UNL     1     -31.546  28.894 -13.376  1.00  0.00    -0.507 OA
ATOM     24  H   UNL     1     -31.031  29.204 -12.561  1.00  0.00     0.293 HD
ENDBRANCH  11  23
ENDBRANCH   1   2
BRANCH   1  25
ATOM     25  C   UNL     1     -29.176  23.397 -14.962  1.00  0.00     0.339 C 
ATOM     26  C   UNL     1     -28.194  22.433 -14.260  1.00  0.00     0.214 C 
ATOM     27  O   UNL     1     -30.388  22.731 -15.285  1.00  0.00    -0.332 OA
ATOM     28  C   UNL     1     -28.860  21.841 -13.007  1.00  0.00     0.180 C 
ATOM     29  C   UNL     1     -31.080  22.285 -14.125  1.00  0.00     0.179 C 
ATOM     30  C   UNL     1     -30.239  21.238 -13.352  1.00  0.00     0.177 C 
BRANCH  26  31
ATOM     31  O   UNL     1     -27.828  21.404 -15.146  1.00  0.00    -0.384 OA
ATOM     32  H   UNL     1     -27.189  20.817 -14.657  1.00  0.00     0.211 HD
ENDBRANCH  26  31
BRANCH  28  33
ATOM     33  O   UNL     1     -28.022  20.895 -12.390  1.00  0.00    -0.387 OA
ATOM     34  H   UNL     1     -27.093  21.053 -12.705  1.00  0.00     0.211 HD
ENDBRANCH  28  33
BRANCH  29  35
ATOM     35  C   UNL     1     -32.422  21.693 -14.585  1.00  0.00     0.191 C 
BRANCH  35  36
ATOM     36  O   UNL     1     -32.934  22.405 -15.683  1.00  0.00    -0.394 OA
ATOM     37  H   UNL     1     -32.496  23.297 -15.680  1.00  0.00     0.210 HD
ENDBRANCH  35  36
ENDBRANCH  29  35
BRANCH  30  38
ATOM     38  O   UNL     1     -30.899  20.876 -12.165  1.00  0.00    -0.387 OA
ATOM     39  H   UNL     1     -31.697  21.462 -12.090  1.00  0.00     0.211 HD
ENDBRANCH  30  38
ENDBRANCH   1  25
TORSDOF 11
ENDMDL
MODEL 3
REMARK VINA RESULT:    80.678      2.885      4.934
REMARK INTER + INTRA:         115.312
REMARK INTER:                 116.139
REMARK INTRA:                  -0.827
REMARK UNBOUND:                -0.740
REMARK SMILES O=c1cc(-c2ccc(O)c(O)c2)oc2cc(O[C@@H]3O[C@@H](CO)[C@H](O)[C@@H](O)[C@H]3O)cc(O)c12
REMARK SMILES IDX 17 1 16 2 4 3 3 4 13 5 2 6 14 7 1 8 32 9 15 10 30 11 29 12
REMARK SMILES IDX 5 13 6 14 7 15 8 16 12 17 10 18 9 19 11 21 31 23 18 25 27 26
REMARK SMILES IDX 19 27 25 28 20 29 23 30 28 31 26 33 21 35 22 36 24 38
REMARK H PARENT 9 20 11 22 31 24 28 32 26 34 22 37 24 39
REMARK Flexibility Score: inf
ROOT
ATOM      1  O   UNL     1     -33.664  29.547 -17.026  1.00  0.00    -0.462 OA
ENDROOT
BRANCH   1   2
ATOM      2  C   UNL     1     -34.711  30.131 -17.760  1.00  0.00     0.130 A 
ATOM      3  C   UNL     1     -38.341  29.383 -20.762  1.00  0.00     0.138 A 
ATOM      4  C   UNL     1     -38.678  30.747 -20.793  1.00  0.00     0.100 A 
ATOM      5  O   UNL     1     -37.319  28.977 -20.010  1.00  0.00    -0.456 OA
ATOM      6  C   UNL     1     -37.924  31.659 -20.053  1.00  0.00     0.197 A 
ATOM      7  C   UNL     1     -36.574  29.807 -19.285  1.00  0.00     0.146 A 
ATOM      8  O   UNL     1     -38.233  32.881 -20.088  1.00  0.00    -0.289 OA
ATOM      9  C   UNL     1     -36.840  31.197 -19.279  1.00  0.00     0.107 A 
ATOM     10  C   UNL     1     -35.520  29.289 -18.529  1.00  0.00     0.094 A 
ATOM     11  C   UNL     1     -36.023  32.052 -18.505  1.00  0.00     0.134 A 
ATOM     12  C   UNL     1     -34.967  31.515 -17.755  1.00  0.00     0.093 A 
BRANCH   3  13
ATOM     13  C   UNL     1     -39.105  28.374 -21.537  1.00  0.00     0.021 A 
ATOM     14  C   UNL     1     -40.459  28.607 -21.833  1.00  0.00     0.016 A 
ATOM     15  C   UNL     1     -41.198  27.671 -22.560  1.00  0.00     0.051 A 
ATOM     16  C   UNL     1     -40.610  26.479 -22.993  1.00  0.00     0.157 A 
ATOM     17  C   UNL     1     -38.515  27.167 -21.957  1.00  0.00     0.062 A 
ATOM     18  C   UNL     1     -39.254  26.219 -22.678  1.00  0.00     0.158 A 
BRANCH  16  19
ATOM     19  O   UNL     1     -41.400  25.591 -23.728  1.00  0.00    -0.504 OA
ATOM     20  H   UNL     1     -41.050  25.020 -24.483  1.00  0.00     0.293 HD
ENDBRANCH  16  19
BRANCH  18  21
ATOM     21  O   UNL     1     -38.606  25.040 -23.055  1.00  0.00    -0.504 OA
ATOM     22  H   UNL     1     -38.693  24.164 -22.557  1.00  0.00     0.293 HD
ENDBRANCH  18  21
ENDBRANCH   3  13
BRANCH  11  23
ATOM     23  O   UNL     1     -36.254  33.428 -18.474  1.00  0.00    -0.507 OA
ATOM     24  H   UNL     1     -36.539  33.939 -19.301  1.00  0.00     0.293 HD
ENDBRANCH  11  23
ENDBRANCH   1   2
BRANCH   1  25
ATOM     25  C   UNL     1     -32.349  30.095 -16.853  1.00  0.00     0.339 C 
ATOM     26  C   UNL     1     -31.649  29.507 -15.609  1.00  0.00     0.214 C 
ATOM     27  O   UNL     1     -31.566  29.883 -18.018  1.00  0.00    -0.332 OA
ATOM     28  C   UNL     1     -31.370  28.011 -15.833  1.00  0.00     0.180 C 
ATOM     29  C   UNL     1     -31.403  28.500 -18.310  1.00  0.00     0.179 C 
ATOM     30  C   UNL     1     -30.634  27.785 -17.171  1.00  0.00     0.177 C 
BRANCH  26  31
ATOM     31  O   UNL     1     -30.444  30.194 -15.376  1.00  0.00    -0.384 OA
ATOM     32  H   UNL     1     -29.835  29.558 -14.911  1.00  0.00     0.211 HD
ENDBRANCH  26  31
BRANCH  28  33
ATOM     33  O   UNL     1     -30.657  27.463 -14.751  1.00  0.00    -0.387 OA
ATOM     34  H   UNL     1     -30.188  28.203 -14.284  1.00  0.00     0.211 HD
ENDBRANCH  28  33
BRANCH  29  35
ATOM     35  C   UNL     1     -30.649  28.395 -19.645  1.00  0.00     0.191 C 
BRANCH  35  36
ATOM     36  O   UNL     1     -30.542  29.652 -20.262  1.00  0.00    -0.394 OA
ATOM     37  H   UNL     1     -31.193  29.663 -21.014  1.00  0.00     0.210 HD
ENDBRANCH  35  36
ENDBRANCH  29  35
BRANCH  30  38
ATOM     38  O   UNL     1     -30.560  26.406 -17.435  1.00  0.00    -0.387 OA
ATOM     39  H   UNL     1     -29.614  26.138 -17.296  1.00  0.00     0.211 HD
ENDBRANCH  30  38
ENDBRANCH   1  25
TORSDOF 11
ENDMDL
MODEL 4
REMARK VINA RESULT:    81.346      2.771      5.638
REMARK INTER + INTRA:         116.272
REMARK INTER:                 116.613
REMARK INTRA:                  -0.341
REMARK UNBOUND:                -0.740
REMARK SMILES O=c1cc(-c2ccc(O)c(O)c2)oc2cc(O[C@@H]3O[C@@H](CO)[C@H](O)[C@@H](O)[C@H]3O)cc(O)c12
REMARK SMILES IDX 17 1 16 2 4 3 3 4 13 5 2 6 14 7 1 8 32 9 15 10 30 11 29 12
REMARK SMILES IDX 5 13 6 14 7 15 8 16 12 17 10 18 9 19 11 21 31 23 18 25 27 26
REMARK SMILES IDX 19 27 25 28 20 29 23 30 28 31 26 33 21 35 22 36 24 38
REMARK H PARENT 9 20 11 22 31 24 28 32 26 34 22 37 24 39
REMARK Flexibility Score: inf
ROOT
ATOM      1  O   UNL     1     -31.724  29.074 -18.073  1.00  0.00    -0.462 OA
ENDROOT
BRANCH   1   2
ATOM      2  C   UNL     1     -32.862  29.846 -18.361  1.00  0.00     0.130 A 
ATOM      3  C   UNL     1     -37.223  29.910 -20.292  1.00  0.00     0.138 A 
ATOM      4  C   UNL     1     -37.411  31.267 -19.976  1.00  0.00     0.100 A 
ATOM      5  O   UNL     1     -36.085  29.309 -19.949  1.00  0.00    -0.456 OA
ATOM      6  C   UNL     1     -36.394  31.969 -19.327  1.00  0.00     0.197 A 
ATOM      7  C   UNL     1     -35.089  29.934 -19.326  1.00  0.00     0.146 A 
ATOM      8  O   UNL     1     -36.572  33.186 -19.048  1.00  0.00    -0.289 OA
ATOM      9  C   UNL     1     -35.197  31.305 -18.991  1.00  0.00     0.107 A 
ATOM     10  C   UNL     1     -33.931  29.221 -19.009  1.00  0.00     0.094 A 
ATOM     11  C   UNL     1     -34.118  31.942 -18.337  1.00  0.00     0.134 A 
ATOM     12  C   UNL     1     -32.961  31.211 -18.030  1.00  0.00     0.093 A 
BRANCH   3  13
ATOM     13  C   UNL     1     -38.268  29.120 -20.989  1.00  0.00     0.021 A 
ATOM     14  C   UNL     1     -39.591  29.594 -21.017  1.00  0.00     0.016 A 
ATOM     15  C   UNL     1     -40.592  28.868 -21.666  1.00  0.00     0.051 A 
ATOM     16  C   UNL     1     -40.301  27.649 -22.286  1.00  0.00     0.157 A 
ATOM     17  C   UNL     1     -37.976  27.885 -21.597  1.00  0.00     0.062 A 
ATOM     18  C   UNL     1     -38.978  27.146 -22.242  1.00  0.00     0.158 A 
BRANCH  16  19
ATOM     19  O   UNL     1     -41.343  26.978 -22.930  1.00  0.00    -0.504 OA
ATOM     20  H   UNL     1     -41.323  26.711 -23.902  1.00  0.00     0.293 HD
ENDBRANCH  16  19
BRANCH  18  21
ATOM     21  O   UNL     1     -38.615  25.926 -22.816  1.00  0.00    -0.504 OA
ATOM     22  H   UNL     1     -38.345  25.815 -23.784  1.00  0.00     0.293 HD
ENDBRANCH  18  21
ENDBRANCH   3  13
BRANCH  11  23
ATOM     23  O   UNL     1     -34.186  33.293 -17.992  1.00  0.00    -0.507 OA
ATOM     24  H   UNL     1     -33.403  33.774 -17.566  1.00  0.00     0.293 HD
ENDBRANCH  11  23
ENDBRANCH   1   2
BRANCH   1  25
ATOM     25  C   UNL     1     -30.593  29.497 -17.299  1.00  0.00     0.339 C 
ATOM     26  C   UNL     1     -31.028  30.133 -15.960  1.00  0.00     0.214 C 
ATOM     27  O   UNL     1     -29.710  28.408 -17.074  1.00  0.00    -0.332 OA
ATOM     28  C   UNL     1     -31.675  29.060 -15.067  1.00  0.00     0.180 C 
ATOM     29  C   UNL     1     -30.333  27.352 -16.353  1.00  0.00     0.179 C 
ATOM     30  C   UNL     1     -30.757  27.825 -14.940  1.00  0.00     0.177 C 
BRANCH  26  31
ATOM     31  O   UNL     1     -29.910  30.688 -15.315  1.00  0.00    -0.384 OA
ATOM     32  H   UNL     1     -30.120  30.712 -14.343  1.00  0.00     0.211 HD
ENDBRANCH  26  31
BRANCH  28  33
ATOM     33  O   UNL     1     -32.008  29.588 -13.806  1.00  0.00    -0.387 OA
ATOM     34  H   UNL     1     -31.478  29.105 -13.119  1.00  0.00     0.211 HD
ENDBRANCH  28  33
BRANCH  29  35
ATOM     35  C   UNL     1     -29.330  26.189 -16.275  1.00  0.00     0.191 C 
BRANCH  35  36
ATOM     36  O   UNL     1     -29.819  25.160 -15.454  1.00  0.00    -0.394 OA
ATOM     37  H   UNL     1     -30.425  25.581 -14.788  1.00  0.00     0.210 HD
ENDBRANCH  35  36
ENDBRANCH  29  35
BRANCH  30  38
ATOM     38  O   UNL     1     -31.449  26.797 -14.278  1.00  0.00    -0.387 OA
ATOM     39  H   UNL     1     -31.685  27.143 -13.378  1.00  0.00     0.211 HD
ENDBRANCH  30  38
ENDBRANCH   1  25
TORSDOF 11
ENDMDL
MODEL 5
REMARK VINA RESULT:    81.484      3.137     10.688
REMARK INTER + INTRA:         116.470
REMARK INTER:                 117.313
REMARK INTRA:                  -0.843
REMARK UNBOUND:                -0.740
REMARK SMILES O=c1cc(-c2ccc(O)c(O)c2)oc2cc(O[C@@H]3O[C@@H](CO)[C@H](O)[C@@H](O)[C@H]3O)cc(O)c12
REMARK SMILES IDX 17 1 16 2 4 3 3 4 13 5 2 6 14 7 1 8 32 9 15 10 30 11 29 12
REMARK SMILES IDX 5 13 6 14 7 15 8 16 12 17 10 18 9 19 11 21 31 23 18 25 27 26
REMARK SMILES IDX 19 27 25 28 20 29 23 30 28 31 26 33 21 35 22 36 24 38
REMARK H PARENT 9 20 11 22 31 24 28 32 26 34 22 37 24 39
REMARK Flexibility Score: inf
ROOT
ATOM      1  O   UNL     1     -35.792  30.531 -19.546  1.00  0.00    -0.462 OA
ENDROOT
BRANCH   1   2
ATOM      2  C   UNL     1     -34.603  30.745 -18.827  1.00  0.00     0.130 A 
ATOM      3  C   UNL     1     -31.051  28.735 -16.358  1.00  0.00     0.138 A 
ATOM      4  C   UNL     1     -30.427  29.974 -16.127  1.00  0.00     0.100 A 
ATOM      5  O   UNL     1     -32.178  28.691 -17.066  1.00  0.00    -0.456 OA
ATOM      6  C   UNL     1     -31.010  31.140 -16.625  1.00  0.00     0.197 A 
ATOM      7  C   UNL     1     -32.769  29.774 -17.565  1.00  0.00     0.146 A 
ATOM      8  O   UNL     1     -30.443  32.247 -16.412  1.00  0.00    -0.289 OA
ATOM      9  C   UNL     1     -32.211  31.058 -17.359  1.00  0.00     0.107 A 
ATOM     10  C   UNL     1     -33.951  29.629 -18.294  1.00  0.00     0.094 A 
ATOM     11  C   UNL     1     -32.867  32.189 -17.895  1.00  0.00     0.134 A 
ATOM     12  C   UNL     1     -34.056  32.026 -18.620  1.00  0.00     0.093 A 
BRANCH   3  13
ATOM     13  C   UNL     1     -30.479  27.467 -15.843  1.00  0.00     0.021 A 
ATOM     14  C   UNL     1     -30.704  27.098 -14.506  1.00  0.00     0.016 A 
ATOM     15  C   UNL     1     -30.175  25.909 -13.998  1.00  0.00     0.051 A 
ATOM     16  C   UNL     1     -29.398  25.072 -14.805  1.00  0.00     0.157 A 
ATOM     17  C   UNL     1     -29.683  26.634 -16.653  1.00  0.00     0.062 A 
ATOM     18  C   UNL     1     -29.141  25.445 -16.147  1.00  0.00     0.158 A 
BRANCH  16  19
ATOM     19  O   UNL     1     -28.910  23.891 -14.242  1.00  0.00    -0.504 OA
ATOM     20  H   UNL     1     -28.212  23.307 -14.677  1.00  0.00     0.293 HD
ENDBRANCH  16  19
BRANCH  18  21
ATOM     21  O   UNL     1     -28.354  24.674 -17.005  1.00  0.00    -0.504 OA
ATOM     22  H   UNL     1     -28.146  23.695 -16.855  1.00  0.00     0.293 HD
ENDBRANCH  18  21
ENDBRANCH   3  13
BRANCH  11  23
ATOM     23  O   UNL     1     -32.349  33.472 -17.712  1.00  0.00    -0.507 OA
ATOM     24  H   UNL     1     -32.944  34.292 -17.706  1.00  0.00     0.293 HD
ENDBRANCH  11  23
ENDBRANCH   1   2
BRANCH   1  25
ATOM     25  C   UNL     1     -36.936  29.802 -19.083  1.00  0.00     0.339 C 
ATOM     26  C   UNL     1     -38.223  30.241 -19.816  1.00  0.00     0.214 C 
ATOM     27  O   UNL     1     -36.727  28.405 -19.229  1.00  0.00    -0.332 OA
ATOM     28  C   UNL     1     -38.135  29.837 -21.298  1.00  0.00     0.180 C 
ATOM     29  C   UNL     1     -36.520  28.032 -20.586  1.00  0.00     0.179 C 
ATOM     30  C   UNL     1     -37.776  28.343 -21.439  1.00  0.00     0.177 C 
BRANCH  26  31
ATOM     31  O   UNL     1     -39.340  29.633 -19.215  1.00  0.00    -0.384 OA
ATOM     32  H   UNL     1     -39.582  30.190 -18.427  1.00  0.00     0.211 HD
ENDBRANCH  26  31
BRANCH  28  33
ATOM     33  O   UNL     1     -39.327  30.149 -21.977  1.00  0.00    -0.387 OA
ATOM     34  H   UNL     1     -39.136  30.152 -22.951  1.00  0.00     0.211 HD
ENDBRANCH  28  33
BRANCH  29  35
ATOM     35  C   UNL     1     -36.187  26.532 -20.609  1.00  0.00     0.191 C 
BRANCH  35  36
ATOM     36  O   UNL     1     -37.311  25.774 -20.979  1.00  0.00    -0.394 OA
ATOM     37  H   UNL     1     -36.984  25.031 -21.553  1.00  0.00     0.210 HD
ENDBRANCH  35  36
ENDBRANCH  29  35
BRANCH  30  38
ATOM     38  O   UNL     1     -37.521  28.051 -22.790  1.00  0.00    -0.387 OA
ATOM     39  H   UNL     1     -37.064  28.844 -23.174  1.00  0.00     0.211 HD
ENDBRANCH  30  38
ENDBRANCH   1  25
TORSDOF 11
ENDMDL
MODEL 6
REMARK VINA RESULT:    81.534      8.395     10.307
REMARK INTER + INTRA:         116.542
REMARK INTER:                 113.626
REMARK INTRA:                   2.916
REMARK UNBOUND:                -0.740
REMARK SMILES O=c1cc(-c2ccc(O)c(O)c2)oc2cc(O[C@@H]3O[C@@H](CO)[C@H](O)[C@@H](O)[C@H]3O)cc(O)c12
REMARK SMILES IDX 17 1 16 2 4 3 3 4 13 5 2 6 14 7 1 8 32 9 15 10 30 11 29 12
REMARK SMILES IDX 5 13 6 14 7 15 8 16 12 17 10 18 9 19 11 21 31 23 18 25 27 26
REMARK SMILES IDX 19 27 25 28 20 29 23 30 28 31 26 33 21 35 22 36 24 38
REMARK H PARENT 9 20 11 22 31 24 28 32 26 34 22 37 24 39
REMARK Flexibility Score: inf
ROOT
ATOM      1  O   UNL     1     -30.421  24.898 -14.501  1.00  0.00    -0.462 OA
ENDROOT
BRANCH   1   2
ATOM      2  C   UNL     1     -30.644  26.186 -15.019  1.00  0.00     0.130 A 
ATOM      3  C   UNL     1     -30.906  28.890 -18.939  1.00  0.00     0.138 A 
ATOM      4  C   UNL     1     -31.203  30.046 -18.198  1.00  0.00     0.100 A 
ATOM      5  O   UNL     1     -30.724  27.733 -18.305  1.00  0.00    -0.456 OA
ATOM      6  C   UNL     1     -31.281  29.970 -16.806  1.00  0.00     0.197 A 
ATOM      7  C   UNL     1     -30.793  27.609 -16.982  1.00  0.00     0.146 A 
ATOM      8  O   UNL     1     -31.547  31.013 -16.149  1.00  0.00    -0.289 OA
ATOM      9  C   UNL     1     -31.070  28.731 -16.166  1.00  0.00     0.107 A 
ATOM     10  C   UNL     1     -30.585  26.354 -16.405  1.00  0.00     0.094 A 
ATOM     11  C   UNL     1     -31.127  28.567 -14.763  1.00  0.00     0.134 A 
ATOM     12  C   UNL     1     -30.912  27.300 -14.201  1.00  0.00     0.093 A 
BRANCH   3  13
ATOM     13  C   UNL     1     -30.802  28.919 -20.419  1.00  0.00     0.021 A 
ATOM     14  C   UNL     1     -30.818  27.712 -21.139  1.00  0.00     0.016 A 
ATOM     15  C   UNL     1     -30.720  27.713 -22.531  1.00  0.00     0.051 A 
ATOM     16  C   UNL     1     -30.588  28.914 -23.236  1.00  0.00     0.157 A 
ATOM     17  C   UNL     1     -30.651  30.128 -21.124  1.00  0.00     0.062 A 
ATOM     18  C   UNL     1     -30.542  30.136 -22.522  1.00  0.00     0.158 A 
BRANCH  16  19
ATOM     19  O   UNL     1     -30.509  28.849 -24.629  1.00  0.00    -0.504 OA
ATOM     20  H   UNL     1     -31.280  29.055 -25.246  1.00  0.00     0.293 HD
ENDBRANCH  16  19
BRANCH  18  21
ATOM     21  O   UNL     1     -30.387  31.372 -23.153  1.00  0.00    -0.504 OA
ATOM     22  H   UNL     1     -29.582  31.972 -23.030  1.00  0.00     0.293 HD
ENDBRANCH  18  21
ENDBRANCH   3  13
BRANCH  11  23
ATOM     23  O   UNL     1     -31.396  29.651 -13.926  1.00  0.00    -0.507 OA
ATOM     24  H   UNL     1     -32.017  30.400 -14.207  1.00  0.00     0.293 HD
ENDBRANCH  11  23
ENDBRANCH   1   2
BRANCH   1  25
ATOM     25  C   UNL     1     -29.174  24.188 -14.517  1.00  0.00     0.339 C 
ATOM     26  C   UNL     1     -28.781  23.766 -15.950  1.00  0.00     0.214 C 
ATOM     27  O   UNL     1     -28.149  24.972 -13.925  1.00  0.00    -0.332 OA
ATOM     28  C   UNL     1     -28.473  25.017 -16.790  1.00  0.00     0.180 C 
ATOM     29  C   UNL     1     -27.938  26.194 -14.621  1.00  0.00     0.179 C 
ATOM     30  C   UNL     1     -27.455  25.925 -16.069  1.00  0.00     0.177 C 
BRANCH  26  31
ATOM     31  O   UNL     1     -27.653  22.927 -15.902  1.00  0.00    -0.384 OA
ATOM     32  H   UNL     1     -26.856  23.509 -16.030  1.00  0.00     0.211 HD
ENDBRANCH  26  31
BRANCH  28  33
ATOM     33  O   UNL     1     -28.031  24.664 -18.077  1.00  0.00    -0.387 OA
ATOM     34  H   UNL     1     -27.419  25.376 -18.400  1.00  0.00     0.211 HD
ENDBRANCH  28  33
BRANCH  29  35
ATOM     35  C   UNL     1     -26.901  27.006 -13.828  1.00  0.00     0.191 C 
BRANCH  35  36
ATOM     36  O   UNL     1     -26.875  26.606 -12.482  1.00  0.00    -0.394 OA
ATOM     37  H   UNL     1     -26.091  26.006 -12.372  1.00  0.00     0.210 HD
ENDBRANCH  35  36
ENDBRANCH  29  35
BRANCH  30  38
ATOM     38  O   UNL     1     -27.337  27.139 -16.767  1.00  0.00    -0.387 OA
ATOM     39  H   UNL     1     -26.567  27.040 -17.387  1.00  0.00     0.211 HD
ENDBRANCH  30  38
ENDBRANCH   1  25
TORSDOF 11
ENDMDL
MODEL 7
REMARK VINA RESULT:    81.651      9.052     13.249
REMARK INTER + INTRA:         116.711
REMARK INTER:                 117.564
REMARK INTRA:                  -0.853
REMARK UNBOUND:                -0.740
REMARK SMILES O=c1cc(-c2ccc(O)c(O)c2)oc2cc(O[C@@H]3O[C@@H](CO)[C@H](O)[C@@H](O)[C@H]3O)cc(O)c12
REMARK SMILES IDX 17 1 16 2 4 3 3 4 13 5 2 6 14 7 1 8 32 9 15 10 30 11 29 12
REMARK SMILES IDX 5 13 6 14 7 15 8 16 12 17 10 18 9 19 11 21 31 23 18 25 27 26
REMARK SMILES IDX 19 27 25 28 20 29 23 30 28 31 26 33 21 35 22 36 24 38
REMARK H PARENT 9 20 11 22 31 24 28 32 26 34 22 37 24 39
REMARK Flexibility Score: inf
ROOT
ATOM      1  O   UNL     1     -41.265  39.986 -19.033  1.00  0.00    -0.462 OA
ENDROOT
BRANCH   1   2
ATOM      2  C   UNL     1     -39.873  40.081 -18.869  1.00  0.00     0.130 A 
ATOM      3  C   UNL     1     -35.647  40.501 -21.041  1.00  0.00     0.138 A 
ATOM      4  C   UNL     1     -34.949  40.502 -19.820  1.00  0.00     0.100 A 
ATOM      5  O   UNL     1     -36.975  40.408 -21.037  1.00  0.00    -0.456 OA
ATOM      6  C   UNL     1     -35.658  40.384 -18.624  1.00  0.00     0.197 A 
ATOM      7  C   UNL     1     -37.695  40.298 -19.923  1.00  0.00     0.146 A 
ATOM      8  O   UNL     1     -35.023  40.386 -17.534  1.00  0.00    -0.289 OA
ATOM      9  C   UNL     1     -37.063  40.274 -18.656  1.00  0.00     0.107 A 
ATOM     10  C   UNL     1     -39.085  40.204 -20.018  1.00  0.00     0.094 A 
ATOM     11  C   UNL     1     -37.855  40.148 -17.493  1.00  0.00     0.134 A 
ATOM     12  C   UNL     1     -39.250  40.050 -17.607  1.00  0.00     0.093 A 
BRANCH   3  13
ATOM     13  C   UNL     1     -34.941  40.613 -22.341  1.00  0.00     0.021 A 
ATOM     14  C   UNL     1     -35.685  40.637 -23.534  1.00  0.00     0.016 A 
ATOM     15  C   UNL     1     -35.044  40.741 -24.769  1.00  0.00     0.051 A 
ATOM     16  C   UNL     1     -33.649  40.809 -24.846  1.00  0.00     0.157 A 
ATOM     17  C   UNL     1     -33.536  40.664 -22.416  1.00  0.00     0.062 A 
ATOM     18  C   UNL     1     -32.885  40.758 -23.654  1.00  0.00     0.158 A 
BRANCH  16  19
ATOM     19  O   UNL     1     -33.069  40.926 -26.111  1.00  0.00    -0.504 OA
ATOM     20  H   UNL     1     -32.590  41.752 -26.435  1.00  0.00     0.293 HD
ENDBRANCH  16  19
BRANCH  18  21
ATOM     21  O   UNL     1     -31.490  40.795 -23.652  1.00  0.00    -0.504 OA
ATOM     22  H   UNL     1     -30.904  40.029 -23.958  1.00  0.00     0.293 HD
ENDBRANCH  18  21
ENDBRANCH   3  13
BRANCH  11  23
ATOM     23  O   UNL     1     -37.269  40.119 -16.227  1.00  0.00    -0.507 OA
ATOM     24  H   UNL     1     -36.552  40.783 -15.956  1.00  0.00     0.293 HD
ENDBRANCH  11  23
ENDBRANCH   1   2
BRANCH   1  25
ATOM     25  C   UNL     1     -42.097  38.917 -18.562  1.00  0.00     0.339 C 
ATOM     26  C   UNL     1     -43.579  39.346 -18.476  1.00  0.00     0.214 C 
ATOM     27  O   UNL     1     -41.953  37.773 -19.391  1.00  0.00    -0.332 OA
ATOM     28  C   UNL     1     -44.122  39.605 -19.892  1.00  0.00     0.180 C 
ATOM     29  C   UNL     1     -42.336  38.033 -20.736  1.00  0.00     0.179 C 
ATOM     30  C   UNL     1     -43.839  38.403 -20.817  1.00  0.00     0.177 C 
BRANCH  26  31
ATOM     31  O   UNL     1     -44.328  38.335 -17.849  1.00  0.00    -0.384 OA
ATOM     32  H   UNL     1     -44.289  37.537 -18.442  1.00  0.00     0.211 HD
ENDBRANCH  26  31
BRANCH  28  33
ATOM     33  O   UNL     1     -45.493  39.918 -19.856  1.00  0.00    -0.387 OA
ATOM     34  H   UNL     1     -45.646  40.707 -20.440  1.00  0.00     0.211 HD
ENDBRANCH  28  33
BRANCH  29  35
ATOM     35  C   UNL     1     -42.026  36.772 -21.558  1.00  0.00     0.191 C 
BRANCH  35  36
ATOM     36  O   UNL     1     -40.756  36.860 -22.152  1.00  0.00    -0.394 OA
ATOM     37  H   UNL     1     -40.194  37.421 -21.554  1.00  0.00     0.210 HD
ENDBRANCH  35  36
ENDBRANCH  29  35
BRANCH  30  38
ATOM     38  O   UNL     1     -44.177  38.743 -22.139  1.00  0.00    -0.387 OA
ATOM     39  H   UNL     1     -43.429  39.289 -22.495  1.00  0.00     0.211 HD
ENDBRANCH  30  38
ENDBRANCH   1  25
TORSDOF 11
ENDMDL
MODEL 8
REMARK VINA RESULT:    82.126      1.429      2.078
REMARK INTER + INTRA:         117.395
REMARK INTER:                 118.032
REMARK INTRA:                  -0.638
REMARK UNBOUND:                -0.740
REMARK SMILES O=c1cc(-c2ccc(O)c(O)c2)oc2cc(O[C@@H]3O[C@@H](CO)[C@H](O)[C@@H](O)[C@H]3O)cc(O)c12
REMARK SMILES IDX 17 1 16 2 4 3 3 4 13 5 2 6 14 7 1 8 32 9 15 10 30 11 29 12
REMARK SMILES IDX 5 13 6 14 7 15 8 16 12 17 10 18 9 19 11 21 31 23 18 25 27 26
REMARK SMILES IDX 19 27 25 28 20 29 23 30 28 31 26 33 21 35 22 36 24 38
REMARK H PARENT 9 20 11 22 31 24 28 32 26 34 22 37 24 39
REMARK Flexibility Score: inf
ROOT
ATOM      1  O   UNL     1     -34.708  30.104 -18.505  1.00  0.00    -0.462 OA
ENDROOT
BRANCH   1   2
ATOM      2  C   UNL     1     -35.599  29.406 -19.339  1.00  0.00     0.130 A 
ATOM      3  C   UNL     1     -39.830  29.458 -21.541  1.00  0.00     0.138 A 
ATOM      4  C   UNL     1     -39.621  28.189 -22.106  1.00  0.00     0.100 A 
ATOM      5  O   UNL     1     -38.886  29.996 -20.770  1.00  0.00    -0.456 OA
ATOM      6  C   UNL     1     -38.438  27.500 -21.833  1.00  0.00     0.197 A 
ATOM      7  C   UNL     1     -37.740  29.381 -20.485  1.00  0.00     0.146 A 
ATOM      8  O   UNL     1     -38.260  26.361 -22.344  1.00  0.00    -0.289 OA
ATOM      9  C   UNL     1     -37.465  28.093 -21.002  1.00  0.00     0.107 A 
ATOM     10  C   UNL     1     -36.810  30.024 -19.665  1.00  0.00     0.094 A 
ATOM     11  C   UNL     1     -36.243  27.464 -20.673  1.00  0.00     0.134 A 
ATOM     12  C   UNL     1     -35.322  28.122 -19.845  1.00  0.00     0.093 A 
BRANCH   3  13
ATOM     13  C   UNL     1     -41.073  30.228 -21.790  1.00  0.00     0.021 A 
ATOM     14  C   UNL     1     -41.300  30.785 -23.061  1.00  0.00     0.016 A 
ATOM     15  C   UNL     1     -42.463  31.514 -23.319  1.00  0.00     0.051 A 
ATOM     16  C   UNL     1     -43.415  31.717 -22.316  1.00  0.00     0.157 A 
ATOM     17  C   UNL     1     -42.022  30.446 -20.774  1.00  0.00     0.062 A 
ATOM     18  C   UNL     1     -43.187  31.185 -21.024  1.00  0.00     0.158 A 
BRANCH  16  19
ATOM     19  O   UNL     1     -44.563  32.444 -22.642  1.00  0.00    -0.504 OA
ATOM     20  H   UNL     1     -45.489  32.204 -22.322  1.00  0.00     0.293 HD
ENDBRANCH  16  19
BRANCH  18  21
ATOM     21  O   UNL     1     -44.079  31.368 -19.965  1.00  0.00    -0.504 OA
ATOM     22  H   UNL     1     -44.833  32.042 -19.972  1.00  0.00     0.293 HD
ENDBRANCH  18  21
ENDBRANCH   3  13
BRANCH  11  23
ATOM     23  O   UNL     1     -35.937  26.193 -21.163  1.00  0.00    -0.507 OA
ATOM     24  H   UNL     1     -34.981  25.868 -21.239  1.00  0.00     0.293 HD
ENDBRANCH  11  23
ENDBRANCH   1   2
BRANCH   1  25
ATOM     25  C   UNL     1     -33.665  30.988 -18.939  1.00  0.00     0.339 C 
ATOM     26  C   UNL     1     -32.969  31.675 -17.744  1.00  0.00     0.214 C 
ATOM     27  O   UNL     1     -32.721  30.289 -19.737  1.00  0.00    -0.332 OA
ATOM     28  C   UNL     1     -32.206  30.624 -16.919  1.00  0.00     0.180 C 
ATOM     29  C   UNL     1     -32.094  29.231 -19.022  1.00  0.00     0.179 C 
ATOM     30  C   UNL     1     -31.281  29.783 -17.824  1.00  0.00     0.177 C 
BRANCH  26  31
ATOM     31  O   UNL     1     -32.081  32.658 -18.215  1.00  0.00    -0.384 OA
ATOM     32  H   UNL     1     -32.368  32.886 -19.140  1.00  0.00     0.211 HD
ENDBRANCH  26  31
BRANCH  28  33
ATOM     33  O   UNL     1     -31.492  31.229 -15.869  1.00  0.00    -0.387 OA
ATOM     34  H   UNL     1     -31.620  30.680 -15.052  1.00  0.00     0.211 HD
ENDBRANCH  28  33
BRANCH  29  35
ATOM     35  C   UNL     1     -31.191  28.476 -20.010  1.00  0.00     0.191 C 
BRANCH  35  36
ATOM     36  O   UNL     1     -30.215  29.330 -20.550  1.00  0.00    -0.394 OA
ATOM     37  H   UNL     1     -30.336  29.322 -21.537  1.00  0.00     0.210 HD
ENDBRANCH  35  36
ENDBRANCH  29  35
BRANCH  30  38
ATOM     38  O   UNL     1     -30.743  28.719 -17.079  1.00  0.00    -0.387 OA
ATOM     39  H   UNL     1     -30.563  29.069 -16.168  1.00  0.00     0.211 HD
ENDBRANCH  30  38
ENDBRANCH   1  25
TORSDOF 11
ENDMDL
