MODEL 1
REMARK VINA RESULT:    -5.872      0.000      0.000
REMARK INTER + INTRA:          -6.043
REMARK INTER:                  -6.043
REMARK INTRA:                   0.000
REMARK UNBOUND:                 0.000
REMARK SMILES O=c1ccc2ccc(O)cc2o1
REMARK SMILES IDX 6 1 7 2 8 3 10 4 11 5 5 6 4 7 3 8 2 9 1 10 12 11 9 12
REMARK H PARENT 9 13
REMARK Flexibility Score: inf
ROOT
ATOM      1  C   UNL     1       4.169  44.688  11.858  1.00  0.00     0.016 A 
ATOM      2  C   UNL     1       3.136  43.917  12.401  1.00  0.00     0.047 A 
ATOM      3  C   UNL     1       1.848  43.975  11.855  1.00  0.00     0.119 A 
ATOM      4  C   UNL     1       1.590  44.811  10.758  1.00  0.00     0.094 A 
ATOM      5  C   UNL     1       2.616  45.585  10.209  1.00  0.00     0.142 A 
ATOM      6  C   UNL     1       3.915  45.524  10.761  1.00  0.00     0.018 A 
ATOM      7  C   UNL     1       4.921  46.310  10.191  1.00  0.00     0.019 A 
ATOM      8  C   UNL     1       4.615  47.125   9.101  1.00  0.00     0.094 A 
ATOM      9  C   UNL     1       3.307  47.135   8.606  1.00  0.00     0.336 A 
ATOM     10  O   UNL     1       3.013  47.864   7.623  1.00  0.00    -0.246 OA
ATOM     11  O   UNL     1       2.369  46.377   9.168  1.00  0.00    -0.423 OA
ENDROOT
BRANCH   3  12
ATOM     12  O   UNL     1       0.833  43.200  12.411  1.00  0.00    -0.508 OA
ATOM     13  H   UNL     1       0.760  42.208  12.219  1.00  0.00     0.293 HD
ENDBRANCH   3  12
TORSDOF 1
ENDMDL
MODEL 2
REMARK VINA RESULT:    -5.759      1.813      4.948
REMARK INTER + INTRA:          -5.927
REMARK INTER:                  -5.927
REMARK INTRA:                   0.000
REMARK UNBOUND:                 0.000
REMARK SMILES O=c1ccc2ccc(O)cc2o1
REMARK SMILES IDX 6 1 7 2 8 3 10 4 11 5 5 6 4 7 3 8 2 9 1 10 12 11 9 12
REMARK H PARENT 9 13
REMARK Flexibility Score: inf
ROOT
ATOM      1  C   UNL     1       3.035  47.209   8.317  1.00  0.00     0.016 A 
ATOM      2  C   UNL     1       4.086  48.036   7.908  1.00  0.00     0.047 A 
ATOM      3  C   UNL     1       5.313  48.006   8.583  1.00  0.00     0.119 A 
ATOM      4  C   UNL     1       5.491  47.142   9.674  1.00  0.00     0.094 A 
ATOM      5  C   UNL     1       4.445  46.311  10.089  1.00  0.00     0.142 A 
ATOM      6  C   UNL     1       3.209  46.344   9.407  1.00  0.00     0.018 A 
ATOM      7  C   UNL     1       2.182  45.502   9.845  1.00  0.00     0.019 A 
ATOM      8  C   UNL     1       2.407  44.661  10.934  1.00  0.00     0.094 A 
ATOM      9  C   UNL     1       3.656  44.682  11.562  1.00  0.00     0.336 A 
ATOM     10  O   UNL     1       3.878  43.929  12.547  1.00  0.00    -0.246 OA
ATOM     11  O   UNL     1       4.616  45.493  11.124  1.00  0.00    -0.423 OA
ENDROOT
BRANCH   3  12
ATOM     12  O   UNL     1       6.347  48.838   8.161  1.00  0.00    -0.508 OA
ATOM     13  H   UNL     1       7.066  48.509   7.527  1.00  0.00     0.293 HD
ENDBRANCH   3  12
TORSDOF 1
ENDMDL
MODEL 3
REMARK VINA RESULT:    -5.667      0.847      4.282
REMARK INTER + INTRA:          -5.833
REMARK INTER:                  -5.833
REMARK INTRA:                   0.000
REMARK UNBOUND:                 0.000
REMARK SMILES O=c1ccc2ccc(O)cc2o1
REMARK SMILES IDX 6 1 7 2 8 3 10 4 11 5 5 6 4 7 3 8 2 9 1 10 12 11 9 12
REMARK H PARENT 9 13
REMARK Flexibility Score: inf
ROOT
ATOM      1  C   UNL     1       5.303  46.609   9.927  1.00  0.00     0.016 A 
ATOM      2  C   UNL     1       5.124  47.540   8.899  1.00  0.00     0.047 A 
ATOM      3  C   UNL     1       3.856  47.746   8.343  1.00  0.00     0.119 A 
ATOM      4  C   UNL     1       2.756  47.015   8.818  1.00  0.00     0.094 A 
ATOM      5  C   UNL     1       2.925  46.082   9.845  1.00  0.00     0.142 A 
ATOM      6  C   UNL     1       4.206  45.876  10.404  1.00  0.00     0.018 A 
ATOM      7  C   UNL     1       4.344  44.936  11.430  1.00  0.00     0.019 A 
ATOM      8  C   UNL     1       3.221  44.234  11.869  1.00  0.00     0.094 A 
ATOM      9  C   UNL     1       1.984  44.489  11.269  1.00  0.00     0.336 A 
ATOM     10  O   UNL     1       0.959  43.865  11.651  1.00  0.00    -0.246 OA
ATOM     11  O   UNL     1       1.880  45.389  10.294  1.00  0.00    -0.423 OA
ENDROOT
BRANCH   3  12
ATOM     12  O   UNL     1       3.699  48.678   7.319  1.00  0.00    -0.508 OA
ATOM     13  H   UNL     1       3.899  49.661   7.463  1.00  0.00     0.293 HD
ENDBRANCH   3  12
TORSDOF 1
ENDMDL
MODEL 4
REMARK VINA RESULT:    -5.584      1.726      4.777
REMARK INTER + INTRA:          -5.747
REMARK INTER:                  -5.747
REMARK INTRA:                   0.000
REMARK UNBOUND:                 0.000
REMARK SMILES O=c1ccc2ccc(O)cc2o1
REMARK SMILES IDX 6 1 7 2 8 3 10 4 11 5 5 6 4 7 3 8 2 9 1 10 12 11 9 12
REMARK H PARENT 9 13
REMARK Flexibility Score: inf
ROOT
ATOM      1  C   UNL     1       2.217  46.763   8.762  1.00  0.00     0.016 A 
ATOM      2  C   UNL     1       3.187  47.679   8.344  1.00  0.00     0.047 A 
ATOM      3  C   UNL     1       4.532  47.493   8.689  1.00  0.00     0.119 A 
ATOM      4  C   UNL     1       4.910  46.383   9.458  1.00  0.00     0.094 A 
ATOM      5  C   UNL     1       3.947  45.461   9.880  1.00  0.00     0.142 A 
ATOM      6  C   UNL     1       2.591  45.651   9.531  1.00  0.00     0.018 A 
ATOM      7  C   UNL     1       1.651  44.713   9.968  1.00  0.00     0.019 A 
ATOM      8  C   UNL     1       2.075  43.625  10.730  1.00  0.00     0.094 A 
ATOM      9  C   UNL     1       3.434  43.500  11.039  1.00  0.00     0.336 A 
ATOM     10  O   UNL     1       3.836  42.525  11.726  1.00  0.00    -0.246 OA
ATOM     11  O   UNL     1       4.308  44.408  10.610  1.00  0.00    -0.423 OA
ENDROOT
BRANCH   3  12
ATOM     12  O   UNL     1       5.483  48.417   8.263  1.00  0.00    -0.508 OA
ATOM     13  H   UNL     1       5.532  48.720   7.297  1.00  0.00     0.293 HD
ENDBRANCH   3  12
TORSDOF 1
ENDMDL
MODEL 5
REMARK VINA RESULT:    -5.508      1.614      2.288
REMARK INTER + INTRA:          -5.669
REMARK INTER:                  -5.669
REMARK INTRA:                   0.000
REMARK UNBOUND:                 0.000
REMARK SMILES O=c1ccc2ccc(O)cc2o1
REMARK SMILES IDX 6 1 7 2 8 3 10 4 11 5 5 6 4 7 3 8 2 9 1 10 12 11 9 12
REMARK H PARENT 9 13
REMARK Flexibility Score: inf
ROOT
ATOM      1  C   UNL     1       1.487  44.271  11.188  1.00  0.00     0.016 A 
ATOM      2  C   UNL     1       2.171  43.122  11.598  1.00  0.00     0.047 A 
ATOM      3  C   UNL     1       3.501  42.915  11.213  1.00  0.00     0.119 A 
ATOM      4  C   UNL     1       4.154  43.865  10.413  1.00  0.00     0.094 A 
ATOM      5  C   UNL     1       3.479  45.017   9.999  1.00  0.00     0.142 A 
ATOM      6  C   UNL     1       2.136  45.223  10.388  1.00  0.00     0.018 A 
ATOM      7  C   UNL     1       1.487  46.384   9.959  1.00  0.00     0.019 A 
ATOM      8  C   UNL     1       2.177  47.299   9.165  1.00  0.00     0.094 A 
ATOM      9  C   UNL     1       3.506  47.030   8.817  1.00  0.00     0.336 A 
ATOM     10  O   UNL     1       4.145  47.844   8.101  1.00  0.00    -0.246 OA
ATOM     11  O   UNL     1       4.100  45.917   9.240  1.00  0.00    -0.423 OA
ENDROOT
BRANCH   3  12
ATOM     12  O   UNL     1       4.165  41.764  11.631  1.00  0.00    -0.508 OA
ATOM     13  H   UNL     1       3.938  40.854  11.248  1.00  0.00     0.293 HD
ENDBRANCH   3  12
TORSDOF 1
ENDMDL
MODEL 6
REMARK VINA RESULT:    -5.483      2.593      4.334
REMARK INTER + INTRA:          -5.644
REMARK INTER:                  -5.644
REMARK INTRA:                   0.000
REMARK UNBOUND:                 0.000
REMARK SMILES O=c1ccc2ccc(O)cc2o1
REMARK SMILES IDX 6 1 7 2 8 3 10 4 11 5 5 6 4 7 3 8 2 9 1 10 12 11 9 12
REMARK H PARENT 9 13
REMARK Flexibility Score: inf
ROOT
ATOM      1  C   UNL     1       4.300  46.302  10.170  1.00  0.00     0.016 A 
ATOM      2  C   UNL     1       5.487  46.948   9.811  1.00  0.00     0.047 A 
ATOM      3  C   UNL     1       5.515  47.817   8.713  1.00  0.00     0.119 A 
ATOM      4  C   UNL     1       4.348  48.042   7.968  1.00  0.00     0.094 A 
ATOM      5  C   UNL     1       3.157  47.400   8.320  1.00  0.00     0.142 A 
ATOM      6  C   UNL     1       3.131  46.525   9.428  1.00  0.00     0.018 A 
ATOM      7  C   UNL     1       1.925  45.897   9.756  1.00  0.00     0.019 A 
ATOM      8  C   UNL     1       0.791  46.153   8.985  1.00  0.00     0.094 A 
ATOM      9  C   UNL     1       0.890  47.031   7.901  1.00  0.00     0.336 A 
ATOM     10  O   UNL     1      -0.123  47.274   7.194  1.00  0.00    -0.246 OA
ATOM     11  O   UNL     1       2.051  47.615   7.611  1.00  0.00    -0.423 OA
ENDROOT
BRANCH   3  12
ATOM     12  O   UNL     1       6.708  48.450   8.371  1.00  0.00    -0.508 OA
ATOM     13  H   UNL     1       6.736  49.437   8.140  1.00  0.00     0.293 HD
ENDBRANCH   3  12
TORSDOF 1
ENDMDL
MODEL 7
REMARK VINA RESULT:    -5.347      1.115      1.130
REMARK INTER + INTRA:          -5.503
REMARK INTER:                  -5.503
REMARK INTRA:                   0.000
REMARK UNBOUND:                 0.000
REMARK SMILES O=c1ccc2ccc(O)cc2o1
REMARK SMILES IDX 6 1 7 2 8 3 10 4 11 5 5 6 4 7 3 8 2 9 1 10 12 11 9 12
REMARK H PARENT 9 13
REMARK Flexibility Score: inf
ROOT
ATOM      1  C   UNL     1       3.697  43.339  11.043  1.00  0.00     0.016 A 
ATOM      2  C   UNL     1       2.753  42.700  11.852  1.00  0.00     0.047 A 
ATOM      3  C   UNL     1       1.496  43.279  12.067  1.00  0.00     0.119 A 
ATOM      4  C   UNL     1       1.181  44.508  11.468  1.00  0.00     0.094 A 
ATOM      5  C   UNL     1       2.118  45.155  10.657  1.00  0.00     0.142 A 
ATOM      6  C   UNL     1       3.385  44.568  10.442  1.00  0.00     0.018 A 
ATOM      7  C   UNL     1       4.302  45.238   9.627  1.00  0.00     0.019 A 
ATOM      8  C   UNL     1       3.942  46.457   9.053  1.00  0.00     0.094 A 
ATOM      9  C   UNL     1       2.670  46.980   9.310  1.00  0.00     0.336 A 
ATOM     10  O   UNL     1       2.328  48.079   8.801  1.00  0.00    -0.246 OA
ATOM     11  O   UNL     1       1.817  46.321  10.090  1.00  0.00    -0.423 OA
ENDROOT
BRANCH   3  12
ATOM     12  O   UNL     1       0.570  42.626  12.877  1.00  0.00    -0.508 OA
ATOM     13  H   UNL     1       0.134  41.758  12.589  1.00  0.00     0.293 HD
ENDBRANCH   3  12
TORSDOF 1
ENDMDL
MODEL 8
REMARK VINA RESULT:    -5.305      2.808      3.854
REMARK INTER + INTRA:          -5.460
REMARK INTER:                  -5.460
REMARK INTRA:                   0.000
REMARK UNBOUND:                 0.000
REMARK SMILES O=c1ccc2ccc(O)cc2o1
REMARK SMILES IDX 6 1 7 2 8 3 10 4 11 5 5 6 4 7 3 8 2 9 1 10 12 11 9 12
REMARK H PARENT 9 13
REMARK Flexibility Score: inf
ROOT
ATOM      1  C   UNL     1       2.013  45.820   9.459  1.00  0.00     0.016 A 
ATOM      2  C   UNL     1       0.937  46.235   8.669  1.00  0.00     0.047 A 
ATOM      3  C   UNL     1       1.098  47.272   7.742  1.00  0.00     0.119 A 
ATOM      4  C   UNL     1       2.345  47.899   7.603  1.00  0.00     0.094 A 
ATOM      5  C   UNL     1       3.427  47.490   8.388  1.00  0.00     0.142 A 
ATOM      6  C   UNL     1       3.262  46.444   9.322  1.00  0.00     0.018 A 
ATOM      7  C   UNL     1       4.362  46.057  10.094  1.00  0.00     0.019 A 
ATOM      8  C   UNL     1       5.582  46.711   9.919  1.00  0.00     0.094 A 
ATOM      9  C   UNL     1       5.673  47.739   8.975  1.00  0.00     0.336 A 
ATOM     10  O   UNL     1       6.765  48.340   8.804  1.00  0.00    -0.246 OA
ATOM     11  O   UNL     1       4.610  48.087   8.254  1.00  0.00    -0.423 OA
ENDROOT
BRANCH   3  12
ATOM     12  O   UNL     1       0.013  47.671   6.965  1.00  0.00    -0.508 OA
ATOM     13  H   UNL     1      -0.400  48.592   7.065  1.00  0.00     0.293 HD
ENDBRANCH   3  12
TORSDOF 1
ENDMDL
MODEL 9
REMARK VINA RESULT:    -5.230      2.851      4.163
REMARK INTER + INTRA:          -5.383
REMARK INTER:                  -5.383
REMARK INTRA:                   0.000
REMARK UNBOUND:                 0.000
REMARK SMILES O=c1ccc2ccc(O)cc2o1
REMARK SMILES IDX 6 1 7 2 8 3 10 4 11 5 5 6 4 7 3 8 2 9 1 10 12 11 9 12
REMARK H PARENT 9 13
REMARK Flexibility Score: inf
ROOT
ATOM      1  C   UNL     1       1.129  41.752  12.924  1.00  0.00     0.016 A 
ATOM      2  C   UNL     1       1.615  40.493  13.289  1.00  0.00     0.047 A 
ATOM      3  C   UNL     1       2.894  40.086  12.892  1.00  0.00     0.119 A 
ATOM      4  C   UNL     1       3.695  40.944  12.123  1.00  0.00     0.094 A 
ATOM      5  C   UNL     1       3.217  42.205  11.753  1.00  0.00     0.142 A 
ATOM      6  C   UNL     1       1.926  42.613  12.155  1.00  0.00     0.018 A 
ATOM      7  C   UNL     1       1.475  43.879  11.770  1.00  0.00     0.019 A 
ATOM      8  C   UNL     1       2.307  44.697  11.006  1.00  0.00     0.094 A 
ATOM      9  C   UNL     1       3.574  44.227  10.643  1.00  0.00     0.336 A 
ATOM     10  O   UNL     1       4.339  44.951   9.954  1.00  0.00    -0.246 OA
ATOM     11  O   UNL     1       3.978  43.018  11.024  1.00  0.00    -0.423 OA
ENDROOT
BRANCH   3  12
ATOM     12  O   UNL     1       3.360  38.827  13.266  1.00  0.00    -0.508 OA
ATOM     13  H   UNL     1       2.943  37.979  12.902  1.00  0.00     0.293 HD
ENDBRANCH   3  12
TORSDOF 1
ENDMDL
