MODEL 1
REMARK VINA RESULT:    -7.620      0.000      0.000
REMARK INTER + INTRA:          -9.529
REMARK INTER:                  -9.179
REMARK INTRA:                  -0.350
REMARK UNBOUND:                -0.350
REMARK SMILES O=c1c(O)c(-c2ccc(O)cc2O)oc2cc(O)cc(O)c12
REMARK SMILES IDX 5 1 3 2 2 3 1 4 22 5 20 6 19 7 17 8 16 9 15 10 14 11 6 12
REMARK SMILES IDX 8 13 7 14 9 15 11 16 12 17 10 18 13 20 4 22 21 24 18 26
REMARK H PARENT 10 19 13 21 4 23 21 25 18 27
REMARK Flexibility Score: inf
ROOT
ATOM      1  C   UNL     1      38.185  -0.311  -3.278  1.00  0.00     0.184 A 
ATOM      2  C   UNL     1      39.128  -1.190  -2.723  1.00  0.00     0.208 A 
ATOM      3  C   UNL     1      40.123  -1.731  -3.552  1.00  0.00     0.238 A 
ATOM      4  O   UNL     1      40.934  -2.561  -3.062  1.00  0.00    -0.285 OA
ATOM      5  C   UNL     1      40.170  -1.373  -4.921  1.00  0.00     0.111 A 
ATOM      6  C   UNL     1      41.159  -1.829  -5.845  1.00  0.00     0.134 A 
ATOM      7  C   UNL     1      41.032  -1.513  -7.203  1.00  0.00     0.093 A 
ATOM      8  C   UNL     1      39.992  -0.706  -7.661  1.00  0.00     0.123 A 
ATOM      9  C   UNL     1      39.054  -0.205  -6.758  1.00  0.00     0.094 A 
ATOM     10  C   UNL     1      39.132  -0.533  -5.403  1.00  0.00     0.146 A 
ATOM     11  O   UNL     1      38.213  -0.045  -4.578  1.00  0.00    -0.451 OA
ENDROOT
BRANCH   1  12
ATOM     12  C   UNL     1      37.122   0.306  -2.458  1.00  0.00     0.063 A 
ATOM     13  C   UNL     1      34.781   0.377  -1.801  1.00  0.00     0.047 A 
ATOM     14  C   UNL     1      35.811  -0.187  -2.558  1.00  0.00     0.020 A 
ATOM     15  C   UNL     1      35.046   1.450  -0.944  1.00  0.00     0.119 A 
ATOM     16  C   UNL     1      36.345   1.964  -0.854  1.00  0.00     0.093 A 
ATOM     17  C   UNL     1      37.383   1.407  -1.615  1.00  0.00     0.130 A 
BRANCH  15  18
ATOM     18  O   UNL     1      34.009   2.000  -0.192  1.00  0.00    -0.508 OA
ATOM     19  H   UNL     1      33.831   1.704   0.759  1.00  0.00     0.293 HD
ENDBRANCH  15  18
BRANCH  17  20
ATOM     20  O   UNL     1      38.663   1.959  -1.553  1.00  0.00    -0.507 OA
ATOM     21  H   UNL     1      39.244   1.863  -0.728  1.00  0.00     0.293 HD
ENDBRANCH  17  20
ENDBRANCH   1  12
BRANCH   2  22
ATOM     22  O   UNL     1      39.047  -1.542  -1.373  1.00  0.00    -0.502 OA
ATOM     23  H   UNL     1      38.213  -1.947  -0.966  1.00  0.00     0.293 HD
ENDBRANCH   2  22
BRANCH   6  24
ATOM     24  O   UNL     1      42.289  -2.565  -5.478  1.00  0.00    -0.507 OA
ATOM     25  H   UNL     1      43.241  -2.267  -5.622  1.00  0.00     0.293 HD
ENDBRANCH   6  24
BRANCH   8  26
ATOM     26  O   UNL     1      39.906  -0.399  -9.018  1.00  0.00    -0.508 OA
ATOM     27  H   UNL     1      39.614  -1.090  -9.700  1.00  0.00     0.293 HD
ENDBRANCH   8  26
TORSDOF 6
ENDMDL
MODEL 2
REMARK VINA RESULT:    -7.550      1.798      6.597
REMARK INTER + INTRA:          -9.445
REMARK INTER:                  -9.025
REMARK INTRA:                  -0.419
REMARK UNBOUND:                -0.350
REMARK SMILES O=c1c(O)c(-c2ccc(O)cc2O)oc2cc(O)cc(O)c12
REMARK SMILES IDX 5 1 3 2 2 3 1 4 22 5 20 6 19 7 17 8 16 9 15 10 14 11 6 12
REMARK SMILES IDX 8 13 7 14 9 15 11 16 12 17 10 18 13 20 4 22 21 24 18 26
REMARK H PARENT 10 19 13 21 4 23 21 25 18 27
REMARK Flexibility Score: inf
ROOT
ATOM      1  C   UNL     1      39.366  -1.539  -3.395  1.00  0.00     0.184 A 
ATOM      2  C   UNL     1      39.576  -2.493  -2.386  1.00  0.00     0.208 A 
ATOM      3  C   UNL     1      39.043  -2.260  -1.109  1.00  0.00     0.238 A 
ATOM      4  O   UNL     1      39.279  -3.092  -0.194  1.00  0.00    -0.285 OA
ATOM      5  C   UNL     1      38.293  -1.084  -0.863  1.00  0.00     0.111 A 
ATOM      6  C   UNL     1      37.672  -0.766   0.382  1.00  0.00     0.134 A 
ATOM      7  C   UNL     1      37.064   0.485   0.550  1.00  0.00     0.093 A 
ATOM      8  C   UNL     1      36.998   1.401  -0.499  1.00  0.00     0.123 A 
ATOM      9  C   UNL     1      37.550   1.075  -1.739  1.00  0.00     0.094 A 
ATOM     10  C   UNL     1      38.194  -0.149  -1.926  1.00  0.00     0.146 A 
ATOM     11  O   UNL     1      38.716  -0.416  -3.118  1.00  0.00    -0.451 OA
ENDROOT
BRANCH   1  12
ATOM     12  C   UNL     1      39.886  -1.731  -4.765  1.00  0.00     0.063 A 
ATOM     13  C   UNL     1      41.772  -1.666  -6.299  1.00  0.00     0.047 A 
ATOM     14  C   UNL     1      41.248  -1.500  -5.014  1.00  0.00     0.020 A 
ATOM     15  C   UNL     1      40.938  -2.051  -7.353  1.00  0.00     0.119 A 
ATOM     16  C   UNL     1      39.573  -2.261  -7.120  1.00  0.00     0.093 A 
ATOM     17  C   UNL     1      39.039  -2.091  -5.833  1.00  0.00     0.130 A 
BRANCH  15  18
ATOM     18  O   UNL     1      41.475  -2.216  -8.628  1.00  0.00    -0.508 OA
ATOM     19  H   UNL     1      42.459  -2.411  -8.767  1.00  0.00     0.293 HD
ENDBRANCH  15  18
BRANCH  17  20
ATOM     20  O   UNL     1      37.670  -2.256  -5.624  1.00  0.00    -0.507 OA
ATOM     21  H   UNL     1      37.037  -2.463  -6.388  1.00  0.00     0.293 HD
ENDBRANCH  17  20
ENDBRANCH   1  12
BRANCH   2  22
ATOM     22  O   UNL     1      40.336  -3.636  -2.651  1.00  0.00    -0.502 OA
ATOM     23  H   UNL     1      41.063  -3.654  -3.356  1.00  0.00     0.293 HD
ENDBRANCH   2  22
BRANCH   6  24
ATOM     24  O   UNL     1      37.600  -1.645   1.467  1.00  0.00    -0.507 OA
ATOM     25  H   UNL     1      37.097  -1.463   2.322  1.00  0.00     0.293 HD
ENDBRANCH   6  24
BRANCH   8  26
ATOM     26  O   UNL     1      36.372   2.630  -0.301  1.00  0.00    -0.508 OA
ATOM     27  H   UNL     1      36.745   3.317   0.345  1.00  0.00     0.293 HD
ENDBRANCH   8  26
TORSDOF 6
ENDMDL
MODEL 3
REMARK VINA RESULT:    -7.479      1.088      1.664
REMARK INTER + INTRA:          -9.360
REMARK INTER:                  -9.002
REMARK INTRA:                  -0.358
REMARK UNBOUND:                -0.350
REMARK SMILES O=c1c(O)c(-c2ccc(O)cc2O)oc2cc(O)cc(O)c12
REMARK SMILES IDX 5 1 3 2 2 3 1 4 22 5 20 6 19 7 17 8 16 9 15 10 14 11 6 12
REMARK SMILES IDX 8 13 7 14 9 15 11 16 12 17 10 18 13 20 4 22 21 24 18 26
REMARK H PARENT 10 19 13 21 4 23 21 25 18 27
REMARK Flexibility Score: inf
ROOT
ATOM      1  C   UNL     1      38.909  -0.320  -3.328  1.00  0.00     0.184 A 
ATOM      2  C   UNL     1      40.038  -0.832  -2.670  1.00  0.00     0.208 A 
ATOM      3  C   UNL     1      41.097  -1.343  -3.435  1.00  0.00     0.238 A 
ATOM      4  O   UNL     1      42.085  -1.850  -2.840  1.00  0.00    -0.285 OA
ATOM      5  C   UNL     1      41.019  -1.321  -4.849  1.00  0.00     0.111 A 
ATOM      6  C   UNL     1      42.051  -1.775  -5.725  1.00  0.00     0.134 A 
ATOM      7  C   UNL     1      41.813  -1.825  -7.104  1.00  0.00     0.093 A 
ATOM      8  C   UNL     1      40.608  -1.378  -7.644  1.00  0.00     0.123 A 
ATOM      9  C   UNL     1      39.615  -0.876  -6.802  1.00  0.00     0.094 A 
ATOM     10  C   UNL     1      39.809  -0.847  -5.419  1.00  0.00     0.146 A 
ATOM     11  O   UNL     1      38.834  -0.372  -4.652  1.00  0.00    -0.451 OA
ENDROOT
BRANCH   1  12
ATOM     12  C   UNL     1      37.766   0.248  -2.582  1.00  0.00     0.063 A 
ATOM     13  C   UNL     1      36.918   1.932  -1.047  1.00  0.00     0.047 A 
ATOM     14  C   UNL     1      37.975   1.373  -1.770  1.00  0.00     0.020 A 
ATOM     15  C   UNL     1      35.642   1.364  -1.116  1.00  0.00     0.119 A 
ATOM     16  C   UNL     1      35.428   0.227  -1.905  1.00  0.00     0.093 A 
ATOM     17  C   UNL     1      36.486  -0.342  -2.629  1.00  0.00     0.130 A 
BRANCH  15  18
ATOM     18  O   UNL     1      34.597   1.934  -0.392  1.00  0.00    -0.508 OA
ATOM     19  H   UNL     1      33.679   2.064  -0.800  1.00  0.00     0.293 HD
ENDBRANCH  15  18
BRANCH  17  20
ATOM     20  O   UNL     1      36.272  -1.503  -3.373  1.00  0.00    -0.507 OA
ATOM     21  H   UNL     1      35.415  -1.649  -3.895  1.00  0.00     0.293 HD
ENDBRANCH  17  20
ENDBRANCH   1  12
BRANCH   2  22
ATOM     22  O   UNL     1      40.082  -0.859  -1.273  1.00  0.00    -0.502 OA
ATOM     23  H   UNL     1      40.893  -1.182  -0.761  1.00  0.00     0.293 HD
ENDBRANCH   2  22
BRANCH   6  24
ATOM     24  O   UNL     1      43.325  -2.158  -5.297  1.00  0.00    -0.507 OA
ATOM     25  H   UNL     1      44.146  -2.183  -5.884  1.00  0.00     0.293 HD
ENDBRANCH   6  24
BRANCH   8  26
ATOM     26  O   UNL     1      40.412  -1.428  -9.023  1.00  0.00    -0.508 OA
ATOM     27  H   UNL     1      41.065  -1.904  -9.634  1.00  0.00     0.293 HD
ENDBRANCH   8  26
TORSDOF 6
ENDMDL
MODEL 4
REMARK VINA RESULT:    -7.258      1.899      6.909
REMARK INTER + INTRA:          -9.094
REMARK INTER:                  -8.675
REMARK INTRA:                  -0.419
REMARK UNBOUND:                -0.350
REMARK SMILES O=c1c(O)c(-c2ccc(O)cc2O)oc2cc(O)cc(O)c12
REMARK SMILES IDX 5 1 3 2 2 3 1 4 22 5 20 6 19 7 17 8 16 9 15 10 14 11 6 12
REMARK SMILES IDX 8 13 7 14 9 15 11 16 12 17 10 18 13 20 4 22 21 24 18 26
REMARK H PARENT 10 19 13 21 4 23 21 25 18 27
REMARK Flexibility Score: inf
ROOT
ATOM      1  C   UNL     1      39.368  -0.351  -4.021  1.00  0.00     0.184 A 
ATOM      2  C   UNL     1      38.722   0.894  -4.078  1.00  0.00     0.208 A 
ATOM      3  C   UNL     1      38.024   1.349  -2.949  1.00  0.00     0.238 A 
ATOM      4  O   UNL     1      37.401   2.441  -3.023  1.00  0.00    -0.285 OA
ATOM      5  C   UNL     1      37.995   0.561  -1.773  1.00  0.00     0.111 A 
ATOM      6  C   UNL     1      37.352   0.942  -0.557  1.00  0.00     0.134 A 
ATOM      7  C   UNL     1      37.277   0.027   0.501  1.00  0.00     0.093 A 
ATOM      8  C   UNL     1      37.876  -1.229   0.411  1.00  0.00     0.123 A 
ATOM      9  C   UNL     1      38.558  -1.589  -0.751  1.00  0.00     0.094 A 
ATOM     10  C   UNL     1      38.619  -0.713  -1.837  1.00  0.00     0.146 A 
ATOM     11  O   UNL     1      39.269  -1.099  -2.929  1.00  0.00    -0.451 OA
ENDROOT
BRANCH   1  12
ATOM     12  C   UNL     1      40.134  -0.882  -5.168  1.00  0.00     0.063 A 
ATOM     13  C   UNL     1      40.130  -1.929  -7.363  1.00  0.00     0.047 A 
ATOM     14  C   UNL     1      39.437  -1.414  -6.264  1.00  0.00     0.020 A 
ATOM     15  C   UNL     1      41.528  -1.931  -7.373  1.00  0.00     0.119 A 
ATOM     16  C   UNL     1      42.233  -1.423  -6.275  1.00  0.00     0.093 A 
ATOM     17  C   UNL     1      41.544  -0.910  -5.166  1.00  0.00     0.130 A 
BRANCH  15  18
ATOM     18  O   UNL     1      42.205  -2.444  -8.478  1.00  0.00    -0.508 OA
ATOM     19  H   UNL     1      42.306  -3.442  -8.621  1.00  0.00     0.293 HD
ENDBRANCH  15  18
BRANCH  17  20
ATOM     20  O   UNL     1      42.257  -0.452  -4.057  1.00  0.00    -0.507 OA
ATOM     21  H   UNL     1      43.083   0.127  -4.159  1.00  0.00     0.293 HD
ENDBRANCH  17  20
ENDBRANCH   1  12
BRANCH   2  22
ATOM     22  O   UNL     1      38.750   1.644  -5.257  1.00  0.00    -0.502 OA
ATOM     23  H   UNL     1      38.722   1.216  -6.174  1.00  0.00     0.293 HD
ENDBRANCH   2  22
BRANCH   6  24
ATOM     24  O   UNL     1      36.800   2.206  -0.329  1.00  0.00    -0.507 OA
ATOM     25  H   UNL     1      36.564   2.869  -1.051  1.00  0.00     0.293 HD
ENDBRANCH   6  24
BRANCH   8  26
ATOM     26  O   UNL     1      37.794  -2.108   1.489  1.00  0.00    -0.508 OA
ATOM     27  H   UNL     1      37.016  -2.080   2.138  1.00  0.00     0.293 HD
ENDBRANCH   8  26
TORSDOF 6
ENDMDL
MODEL 5
REMARK VINA RESULT:    -7.209      2.810      3.988
REMARK INTER + INTRA:          -9.034
REMARK INTER:                  -8.630
REMARK INTRA:                  -0.405
REMARK UNBOUND:                -0.350
REMARK SMILES O=c1c(O)c(-c2ccc(O)cc2O)oc2cc(O)cc(O)c12
REMARK SMILES IDX 5 1 3 2 2 3 1 4 22 5 20 6 19 7 17 8 16 9 15 10 14 11 6 12
REMARK SMILES IDX 8 13 7 14 9 15 11 16 12 17 10 18 13 20 4 22 21 24 18 26
REMARK H PARENT 10 19 13 21 4 23 21 25 18 27
REMARK Flexibility Score: inf
ROOT
ATOM      1  C   UNL     1      39.923  -0.914  -2.681  1.00  0.00     0.184 A 
ATOM      2  C   UNL     1      39.979   0.469  -2.909  1.00  0.00     0.208 A 
ATOM      3  C   UNL     1      40.072   0.938  -4.229  1.00  0.00     0.238 A 
ATOM      4  O   UNL     1      40.176   2.177  -4.425  1.00  0.00    -0.285 OA
ATOM      5  C   UNL     1      40.090   0.016  -5.304  1.00  0.00     0.111 A 
ATOM      6  C   UNL     1      40.141   0.380  -6.683  1.00  0.00     0.134 A 
ATOM      7  C   UNL     1      40.285  -0.618  -7.655  1.00  0.00     0.093 A 
ATOM      8  C   UNL     1      40.317  -1.967  -7.304  1.00  0.00     0.123 A 
ATOM      9  C   UNL     1      40.208  -2.337  -5.963  1.00  0.00     0.094 A 
ATOM     10  C   UNL     1      40.099  -1.364  -4.967  1.00  0.00     0.146 A 
ATOM     11  O   UNL     1      40.009  -1.757  -3.703  1.00  0.00    -0.451 OA
ENDROOT
BRANCH   1  12
ATOM     12  C   UNL     1      39.809  -1.473  -1.317  1.00  0.00     0.063 A 
ATOM     13  C   UNL     1      38.389  -2.242   0.501  1.00  0.00     0.047 A 
ATOM     14  C   UNL     1      38.533  -1.719  -0.787  1.00  0.00     0.020 A 
ATOM     15  C   UNL     1      39.518  -2.510   1.280  1.00  0.00     0.119 A 
ATOM     16  C   UNL     1      40.795  -2.247   0.769  1.00  0.00     0.093 A 
ATOM     17  C   UNL     1      40.947  -1.717  -0.521  1.00  0.00     0.130 A 
BRANCH  15  18
ATOM     18  O   UNL     1      39.360  -3.035   2.561  1.00  0.00    -0.508 OA
ATOM     19  H   UNL     1      40.157  -3.272   3.139  1.00  0.00     0.293 HD
ENDBRANCH  15  18
BRANCH  17  20
ATOM     20  O   UNL     1      42.222  -1.412  -1.000  1.00  0.00    -0.507 OA
ATOM     21  H   UNL     1      42.792  -2.106  -1.471  1.00  0.00     0.293 HD
ENDBRANCH  17  20
ENDBRANCH   1  12
BRANCH   2  22
ATOM     22  O   UNL     1      39.978   1.357  -1.830  1.00  0.00    -0.502 OA
ATOM     23  H   UNL     1      40.396   2.278  -1.883  1.00  0.00     0.293 HD
ENDBRANCH   2  22
BRANCH   6  24
ATOM     24  O   UNL     1      40.026   1.693  -7.148  1.00  0.00    -0.507 OA
ATOM     25  H   UNL     1      40.593   2.096  -7.878  1.00  0.00     0.293 HD
ENDBRANCH   6  24
BRANCH   8  26
ATOM     26  O   UNL     1      40.446  -2.933  -8.300  1.00  0.00    -0.508 OA
ATOM     27  H   UNL     1      40.797  -3.862  -8.094  1.00  0.00     0.293 HD
ENDBRANCH   8  26
TORSDOF 6
ENDMDL
MODEL 6
REMARK VINA RESULT:    -7.180      3.000      4.767
REMARK INTER + INTRA:          -8.999
REMARK INTER:                  -8.607
REMARK INTRA:                  -0.392
REMARK UNBOUND:                -0.350
REMARK SMILES O=c1c(O)c(-c2ccc(O)cc2O)oc2cc(O)cc(O)c12
REMARK SMILES IDX 5 1 3 2 2 3 1 4 22 5 20 6 19 7 17 8 16 9 15 10 14 11 6 12
REMARK SMILES IDX 8 13 7 14 9 15 11 16 12 17 10 18 13 20 4 22 21 24 18 26
REMARK H PARENT 10 19 13 21 4 23 21 25 18 27
REMARK Flexibility Score: inf
ROOT
ATOM      1  C   UNL     1      40.090  -1.398  -1.821  1.00  0.00     0.184 A 
ATOM      2  C   UNL     1      40.425  -2.126  -2.973  1.00  0.00     0.208 A 
ATOM      3  C   UNL     1      40.327  -1.501  -4.226  1.00  0.00     0.238 A 
ATOM      4  O   UNL     1      40.577  -2.174  -5.260  1.00  0.00    -0.285 OA
ATOM      5  C   UNL     1      39.909  -0.150  -4.307  1.00  0.00     0.111 A 
ATOM      6  C   UNL     1      39.812   0.596  -5.520  1.00  0.00     0.134 A 
ATOM      7  C   UNL     1      39.264   1.885  -5.496  1.00  0.00     0.093 A 
ATOM      8  C   UNL     1      38.870   2.478  -4.297  1.00  0.00     0.123 A 
ATOM      9  C   UNL     1      39.016   1.780  -3.098  1.00  0.00     0.094 A 
ATOM     10  C   UNL     1      39.525   0.479  -3.094  1.00  0.00     0.146 A 
ATOM     11  O   UNL     1      39.638  -0.155  -1.933  1.00  0.00    -0.451 OA
ENDROOT
BRANCH   1  12
ATOM     12  C   UNL     1      40.187  -1.992  -0.471  1.00  0.00     0.063 A 
ATOM     13  C   UNL     1      39.078  -3.034   1.425  1.00  0.00     0.047 A 
ATOM     14  C   UNL     1      39.022  -2.472   0.146  1.00  0.00     0.020 A 
ATOM     15  C   UNL     1      40.296  -3.111   2.106  1.00  0.00     0.119 A 
ATOM     16  C   UNL     1      41.460  -2.613   1.508  1.00  0.00     0.093 A 
ATOM     17  C   UNL     1      41.411  -2.042   0.227  1.00  0.00     0.130 A 
BRANCH  15  18
ATOM     18  O   UNL     1      40.337  -3.678   3.379  1.00  0.00    -0.508 OA
ATOM     19  H   UNL     1      39.699  -4.416   3.650  1.00  0.00     0.293 HD
ENDBRANCH  15  18
BRANCH  17  20
ATOM     20  O   UNL     1      42.569  -1.506  -0.338  1.00  0.00    -0.507 OA
ATOM     21  H   UNL     1      42.574  -0.588  -0.769  1.00  0.00     0.293 HD
ENDBRANCH  17  20
ENDBRANCH   1  12
BRANCH   2  22
ATOM     22  O   UNL     1      40.817  -3.464  -2.867  1.00  0.00    -0.502 OA
ATOM     23  H   UNL     1      41.747  -3.736  -2.574  1.00  0.00     0.293 HD
ENDBRANCH   2  22
BRANCH   6  24
ATOM     24  O   UNL     1      40.261   0.133  -6.760  1.00  0.00    -0.507 OA
ATOM     25  H   UNL     1      39.792   0.294  -7.638  1.00  0.00     0.293 HD
ENDBRANCH   6  24
BRANCH   8  26
ATOM     26  O   UNL     1      38.343   3.768  -4.308  1.00  0.00    -0.508 OA
ATOM     27  H   UNL     1      38.873   4.560  -3.963  1.00  0.00     0.293 HD
ENDBRANCH   8  26
TORSDOF 6
ENDMDL
MODEL 7
REMARK VINA RESULT:    -7.151      2.674      4.486
REMARK INTER + INTRA:          -8.964
REMARK INTER:                  -8.547
REMARK INTRA:                  -0.418
REMARK UNBOUND:                -0.350
REMARK SMILES O=c1c(O)c(-c2ccc(O)cc2O)oc2cc(O)cc(O)c12
REMARK SMILES IDX 5 1 3 2 2 3 1 4 22 5 20 6 19 7 17 8 16 9 15 10 14 11 6 12
REMARK SMILES IDX 8 13 7 14 9 15 11 16 12 17 10 18 13 20 4 22 21 24 18 26
REMARK H PARENT 10 19 13 21 4 23 21 25 18 27
REMARK Flexibility Score: inf
ROOT
ATOM      1  C   UNL     1      39.518  -1.856  -1.990  1.00  0.00     0.184 A 
ATOM      2  C   UNL     1      38.703  -0.822  -2.478  1.00  0.00     0.208 A 
ATOM      3  C   UNL     1      38.951  -0.309  -3.761  1.00  0.00     0.238 A 
ATOM      4  O   UNL     1      38.252   0.654  -4.173  1.00  0.00    -0.285 OA
ATOM      5  C   UNL     1      40.001  -0.848  -4.544  1.00  0.00     0.111 A 
ATOM      6  C   UNL     1      40.316  -0.433  -5.873  1.00  0.00     0.134 A 
ATOM      7  C   UNL     1      41.456  -0.946  -6.504  1.00  0.00     0.093 A 
ATOM      8  C   UNL     1      42.255  -1.904  -5.881  1.00  0.00     0.123 A 
ATOM      9  C   UNL     1      41.922  -2.361  -4.606  1.00  0.00     0.094 A 
ATOM     10  C   UNL     1      40.812  -1.842  -3.936  1.00  0.00     0.146 A 
ATOM     11  O   UNL     1      40.536  -2.296  -2.719  1.00  0.00    -0.451 OA
ENDROOT
BRANCH   1  12
ATOM     12  C   UNL     1      39.301  -2.451  -0.655  1.00  0.00     0.063 A 
ATOM     13  C   UNL     1      39.845  -2.492   1.715  1.00  0.00     0.047 A 
ATOM     14  C   UNL     1      40.022  -1.949   0.440  1.00  0.00     0.020 A 
ATOM     15  C   UNL     1      38.955  -3.553   1.909  1.00  0.00     0.119 A 
ATOM     16  C   UNL     1      38.248  -4.077   0.820  1.00  0.00     0.093 A 
ATOM     17  C   UNL     1      38.425  -3.540  -0.465  1.00  0.00     0.130 A 
BRANCH  15  18
ATOM     18  O   UNL     1      38.786  -4.083   3.187  1.00  0.00    -0.508 OA
ATOM     19  H   UNL     1      38.128  -4.831   3.367  1.00  0.00     0.293 HD
ENDBRANCH  15  18
BRANCH  17  20
ATOM     20  O   UNL     1      37.752  -4.102  -1.550  1.00  0.00    -0.507 OA
ATOM     21  H   UNL     1      37.244  -3.529  -2.214  1.00  0.00     0.293 HD
ENDBRANCH  17  20
ENDBRANCH   1  12
BRANCH   2  22
ATOM     22  O   UNL     1      37.686  -0.295  -1.677  1.00  0.00    -0.502 OA
ATOM     23  H   UNL     1      37.684   0.668  -1.365  1.00  0.00     0.293 HD
ENDBRANCH   2  22
BRANCH   6  24
ATOM     24  O   UNL     1      39.533   0.451  -6.620  1.00  0.00    -0.507 OA
ATOM     25  H   UNL     1      39.526   0.502  -7.628  1.00  0.00     0.293 HD
ENDBRANCH   6  24
BRANCH   8  26
ATOM     26  O   UNL     1      43.374  -2.404  -6.545  1.00  0.00    -0.508 OA
ATOM     27  H   UNL     1      43.293  -3.133  -7.244  1.00  0.00     0.293 HD
ENDBRANCH   8  26
TORSDOF 6
ENDMDL
MODEL 8
REMARK VINA RESULT:    -7.098      1.538      6.515
REMARK INTER + INTRA:          -8.900
REMARK INTER:                  -8.484
REMARK INTRA:                  -0.416
REMARK UNBOUND:                -0.350
REMARK SMILES O=c1c(O)c(-c2ccc(O)cc2O)oc2cc(O)cc(O)c12
REMARK SMILES IDX 5 1 3 2 2 3 1 4 22 5 20 6 19 7 17 8 16 9 15 10 14 11 6 12
REMARK SMILES IDX 8 13 7 14 9 15 11 16 12 17 10 18 13 20 4 22 21 24 18 26
REMARK H PARENT 10 19 13 21 4 23 21 25 18 27
REMARK Flexibility Score: inf
ROOT
ATOM      1  C   UNL     1      38.345  -0.199  -3.514  1.00  0.00     0.184 A 
ATOM      2  C   UNL     1      39.009  -0.885  -2.485  1.00  0.00     0.208 A 
ATOM      3  C   UNL     1      38.517  -0.786  -1.174  1.00  0.00     0.238 A 
ATOM      4  O   UNL     1      39.147  -1.358  -0.246  1.00  0.00    -0.285 OA
ATOM      5  C   UNL     1      37.358  -0.015  -0.914  1.00  0.00     0.111 A 
ATOM      6  C   UNL     1      36.748   0.123   0.370  1.00  0.00     0.134 A 
ATOM      7  C   UNL     1      35.680   1.014   0.534  1.00  0.00     0.093 A 
ATOM      8  C   UNL     1      35.159   1.722  -0.548  1.00  0.00     0.123 A 
ATOM      9  C   UNL     1      35.710   1.550  -1.819  1.00  0.00     0.094 A 
ATOM     10  C   UNL     1      36.799   0.696  -2.008  1.00  0.00     0.146 A 
ATOM     11  O   UNL     1      37.300   0.569  -3.231  1.00  0.00    -0.451 OA
ENDROOT
BRANCH   1  12
ATOM     12  C   UNL     1      38.801  -0.274  -4.918  1.00  0.00     0.063 A 
ATOM     13  C   UNL     1      40.098   0.689  -6.735  1.00  0.00     0.047 A 
ATOM     14  C   UNL     1      39.652   0.726  -5.411  1.00  0.00     0.020 A 
ATOM     15  C   UNL     1      39.687  -0.342  -7.586  1.00  0.00     0.119 A 
ATOM     16  C   UNL     1      38.820  -1.333  -7.110  1.00  0.00     0.093 A 
ATOM     17  C   UNL     1      38.363  -1.298  -5.783  1.00  0.00     0.130 A 
BRANCH  15  18
ATOM     18  O   UNL     1      40.143  -0.369  -8.902  1.00  0.00    -0.508 OA
ATOM     19  H   UNL     1      39.973  -1.164  -9.506  1.00  0.00     0.293 HD
ENDBRANCH  15  18
BRANCH  17  20
ATOM     20  O   UNL     1      37.461  -2.263  -5.335  1.00  0.00    -0.507 OA
ATOM     21  H   UNL     1      36.466  -2.183  -5.512  1.00  0.00     0.293 HD
ENDBRANCH  17  20
ENDBRANCH   1  12
BRANCH   2  22
ATOM     22  O   UNL     1      40.162  -1.623  -2.766  1.00  0.00    -0.502 OA
ATOM     23  H   UNL     1      40.722  -1.462  -3.594  1.00  0.00     0.293 HD
ENDBRANCH   2  22
BRANCH   6  24
ATOM     24  O   UNL     1      37.131  -0.607   1.498  1.00  0.00    -0.507 OA
ATOM     25  H   UNL     1      36.539  -1.258   1.991  1.00  0.00     0.293 HD
ENDBRANCH   6  24
BRANCH   8  26
ATOM     26  O   UNL     1      34.086   2.589  -0.350  1.00  0.00    -0.508 OA
ATOM     27  H   UNL     1      33.128   2.259  -0.376  1.00  0.00     0.293 HD
ENDBRANCH   8  26
TORSDOF 6
ENDMDL
MODEL 9
REMARK VINA RESULT:    -7.020      2.967      6.408
REMARK INTER + INTRA:          -8.807
REMARK INTER:                  -8.384
REMARK INTRA:                  -0.423
REMARK UNBOUND:                -0.350
REMARK SMILES O=c1c(O)c(-c2ccc(O)cc2O)oc2cc(O)cc(O)c12
REMARK SMILES IDX 5 1 3 2 2 3 1 4 22 5 20 6 19 7 17 8 16 9 15 10 14 11 6 12
REMARK SMILES IDX 8 13 7 14 9 15 11 16 12 17 10 18 13 20 4 22 21 24 18 26
REMARK H PARENT 10 19 13 21 4 23 21 25 18 27
REMARK Flexibility Score: inf
ROOT
ATOM      1  C   UNL     1      40.861  -1.561  -3.512  1.00  0.00     0.184 A 
ATOM      2  C   UNL     1      42.165  -1.783  -3.040  1.00  0.00     0.208 A 
ATOM      3  C   UNL     1      42.348  -2.155  -1.700  1.00  0.00     0.238 A 
ATOM      4  O   UNL     1      43.522  -2.301  -1.267  1.00  0.00    -0.285 OA
ATOM      5  C   UNL     1      41.224  -2.315  -0.853  1.00  0.00     0.111 A 
ATOM      6  C   UNL     1      41.289  -2.728   0.511  1.00  0.00     0.134 A 
ATOM      7  C   UNL     1      40.125  -2.728   1.289  1.00  0.00     0.093 A 
ATOM      8  C   UNL     1      38.889  -2.393   0.737  1.00  0.00     0.123 A 
ATOM      9  C   UNL     1      38.805  -2.045  -0.612  1.00  0.00     0.094 A 
ATOM     10  C   UNL     1      39.954  -2.000  -1.404  1.00  0.00     0.146 A 
ATOM     11  O   UNL     1      39.832  -1.653  -2.680  1.00  0.00    -0.451 OA
ENDROOT
BRANCH   1  12
ATOM     12  C   UNL     1      40.598  -1.182  -4.916  1.00  0.00     0.063 A 
ATOM     13  C   UNL     1      40.461  -1.838  -7.254  1.00  0.00     0.047 A 
ATOM     14  C   UNL     1      40.698  -2.163  -5.916  1.00  0.00     0.020 A 
ATOM     15  C   UNL     1      40.135  -0.527  -7.611  1.00  0.00     0.119 A 
ATOM     16  C   UNL     1      40.054   0.464  -6.625  1.00  0.00     0.093 A 
ATOM     17  C   UNL     1      40.297   0.146  -5.280  1.00  0.00     0.130 A 
BRANCH  15  18
ATOM     18  O   UNL     1      39.897  -0.218  -8.950  1.00  0.00    -0.508 OA
ATOM     19  H   UNL     1      39.533  -0.908  -9.595  1.00  0.00     0.293 HD
ENDBRANCH  15  18
BRANCH  17  20
ATOM     20  O   UNL     1      40.262   1.152  -4.313  1.00  0.00    -0.507 OA
ATOM     21  H   UNL     1      40.051   0.948  -3.342  1.00  0.00     0.293 HD
ENDBRANCH  17  20
ENDBRANCH   1  12
BRANCH   2  22
ATOM     22  O   UNL     1      43.258  -1.599  -3.891  1.00  0.00    -0.502 OA
ATOM     23  H   UNL     1      43.958  -2.316  -4.039  1.00  0.00     0.293 HD
ENDBRANCH   2  22
BRANCH   6  24
ATOM     24  O   UNL     1      42.458  -3.171   1.138  1.00  0.00    -0.507 OA
ATOM     25  H   UNL     1      43.213  -2.573   1.435  1.00  0.00     0.293 HD
ENDBRANCH   6  24
BRANCH   8  26
ATOM     26  O   UNL     1      37.749  -2.419   1.537  1.00  0.00    -0.508 OA
ATOM     27  H   UNL     1      37.314  -1.565   1.868  1.00  0.00     0.293 HD
ENDBRANCH   8  26
TORSDOF 6
ENDMDL
