MODEL 1
REMARK VINA RESULT:    -3.635      0.000      0.000
REMARK INTER + INTRA:          -8.135
REMARK INTER:                  -6.186
REMARK INTRA:                  -1.950
REMARK UNBOUND:                -1.950
REMARK SMILES CCCCCCCCCCCCCC(=O)[O-]
REMARK SMILES IDX 8 1 9 2 10 3 11 4 12 5 13 6 14 7 15 8 16 9 7 10 6 11 5 12
REMARK SMILES IDX 4 13 3 14 2 15 1 16
REMARK H PARENT
REMARK Flexibility Score: inf
ROOT
ATOM      1  C   UNL     1      21.343  39.346  34.842  1.00  0.00     0.000 C 
ENDROOT
BRANCH   1   2
ATOM      2  C   UNL     1      22.355  38.232  35.161  1.00  0.00     0.000 C 
BRANCH   2   3
ATOM      3  C   UNL     1      21.680  36.912  35.580  1.00  0.00     0.000 C 
BRANCH   3   4
ATOM      4  C   UNL     1      22.239  36.266  36.862  1.00  0.00     0.000 C 
BRANCH   4   5
ATOM      5  C   UNL     1      21.863  37.039  38.137  1.00  0.00     0.006 C 
BRANCH   5   6
ATOM      6  C   UNL     1      20.406  36.797  38.553  1.00  0.00     0.053 C 
BRANCH   6   7
ATOM      7  C   UNL     1      19.861  37.932  39.364  1.00  0.00     0.041 C 
ATOM      8  O   UNL     1      18.653  38.272  39.247  1.00  0.00    -0.550 OA
ATOM      9  O   UNL     1      20.677  38.597  40.271  1.00  0.00    -0.550 OA
ENDBRANCH   6   7
ENDBRANCH   5   6
ENDBRANCH   4   5
ENDBRANCH   3   4
ENDBRANCH   2   3
ENDBRANCH   1   2
BRANCH   1  10
ATOM     10  C   UNL     1      20.476  39.732  36.056  1.00  0.00     0.000 C 
BRANCH  10  11
ATOM     11  C   UNL     1      18.954  39.732  35.807  1.00  0.00    -0.000 C 
BRANCH  11  12
ATOM     12  C   UNL     1      18.284  38.348  35.871  1.00  0.00    -0.000 C 
BRANCH  12  13
ATOM     13  C   UNL     1      17.366  38.077  34.667  1.00  0.00    -0.000 C 
BRANCH  13  14
ATOM     14  C   UNL     1      18.146  37.947  33.348  1.00  0.00    -0.000 C 
BRANCH  14  15
ATOM     15  C   UNL     1      18.876  36.602  33.227  1.00  0.00    -0.003 C 
ATOM     16  C   UNL     1      20.075  36.711  32.290  1.00  0.00     0.004 C 
ENDBRANCH  14  15
ENDBRANCH  13  14
ENDBRANCH  12  13
ENDBRANCH  11  12
ENDBRANCH  10  11
ENDBRANCH   1  10
TORSDOF 12
ENDMDL
MODEL 2
REMARK VINA RESULT:    -3.597      1.127      2.614
REMARK INTER + INTRA:          -8.071
REMARK INTER:                  -6.241
REMARK INTRA:                  -1.829
REMARK UNBOUND:                -1.950
REMARK SMILES CCCCCCCCCCCCCC(=O)[O-]
REMARK SMILES IDX 8 1 9 2 10 3 11 4 12 5 13 6 14 7 15 8 16 9 7 10 6 11 5 12
REMARK SMILES IDX 4 13 3 14 2 15 1 16
REMARK H PARENT
REMARK Flexibility Score: inf
ROOT
ATOM      1  C   UNL     1      22.354  37.987  35.179  1.00  0.00     0.000 C 
ENDROOT
BRANCH   1   2
ATOM      2  C   UNL     1      21.848  36.584  35.557  1.00  0.00     0.000 C 
BRANCH   2   3
ATOM      3  C   UNL     1      22.196  36.191  37.005  1.00  0.00     0.000 C 
BRANCH   3   4
ATOM      4  C   UNL     1      22.912  37.278  37.828  1.00  0.00     0.000 C 
BRANCH   4   5
ATOM      5  C   UNL     1      22.158  37.651  39.115  1.00  0.00     0.006 C 
BRANCH   5   6
ATOM      6  C   UNL     1      21.537  39.052  39.037  1.00  0.00     0.053 C 
BRANCH   6   7
ATOM      7  C   UNL     1      20.325  39.175  39.908  1.00  0.00     0.041 C 
ATOM      8  O   UNL     1      20.184  40.177  40.659  1.00  0.00    -0.550 OA
ATOM      9  O   UNL     1      19.338  38.198  39.872  1.00  0.00    -0.550 OA
ENDBRANCH   6   7
ENDBRANCH   5   6
ENDBRANCH   4   5
ENDBRANCH   3   4
ENDBRANCH   2   3
ENDBRANCH   1   2
BRANCH   1  10
ATOM     10  C   UNL     1      21.788  38.486  33.836  1.00  0.00     0.000 C 
BRANCH  10  11
ATOM     11  C   UNL     1      20.905  37.476  33.076  1.00  0.00    -0.000 C 
BRANCH  11  12
ATOM     12  C   UNL     1      19.421  37.867  32.958  1.00  0.00    -0.000 C 
BRANCH  12  13
ATOM     13  C   UNL     1      18.531  37.130  33.974  1.00  0.00    -0.000 C 
BRANCH  13  14
ATOM     14  C   UNL     1      17.836  38.090  34.954  1.00  0.00    -0.000 C 
BRANCH  14  15
ATOM     15  C   UNL     1      18.657  38.325  36.230  1.00  0.00    -0.003 C 
ATOM     16  C   UNL     1      19.206  39.747  36.275  1.00  0.00     0.004 C 
ENDBRANCH  14  15
ENDBRANCH  13  14
ENDBRANCH  12  13
ENDBRANCH  11  12
ENDBRANCH  10  11
ENDBRANCH   1  10
TORSDOF 12
ENDMDL
MODEL 3
REMARK VINA RESULT:    -3.565      2.846      5.577
REMARK INTER + INTRA:          -8.016
REMARK INTER:                  -6.037
REMARK INTRA:                  -1.979
REMARK UNBOUND:                -1.950
REMARK SMILES CCCCCCCCCCCCCC(=O)[O-]
REMARK SMILES IDX 8 1 9 2 10 3 11 4 12 5 13 6 14 7 15 8 16 9 7 10 6 11 5 12
REMARK SMILES IDX 4 13 3 14 2 15 1 16
REMARK H PARENT
REMARK Flexibility Score: inf
ROOT
ATOM      1  C   UNL     1      21.396  39.016  34.768  1.00  0.00     0.000 C 
ENDROOT
BRANCH   1   2
ATOM      2  C   UNL     1      20.486  39.766  35.756  1.00  0.00     0.000 C 
BRANCH   2   3
ATOM      3  C   UNL     1      18.989  39.617  35.423  1.00  0.00     0.000 C 
BRANCH   3   4
ATOM      4  C   UNL     1      18.416  38.197  35.594  1.00  0.00     0.000 C 
BRANCH   4   5
ATOM      5  C   UNL     1      17.821  37.630  34.295  1.00  0.00     0.006 C 
BRANCH   5   6
ATOM      6  C   UNL     1      18.797  36.691  33.573  1.00  0.00     0.053 C 
BRANCH   6   7
ATOM      7  C   UNL     1      19.341  37.306  32.321  1.00  0.00     0.041 C 
ATOM      8  O   UNL     1      20.051  36.623  31.536  1.00  0.00    -0.550 OA
ATOM      9  O   UNL     1      19.042  38.625  32.004  1.00  0.00    -0.550 OA
ENDBRANCH   6   7
ENDBRANCH   5   6
ENDBRANCH   4   5
ENDBRANCH   3   4
ENDBRANCH   2   3
ENDBRANCH   1   2
BRANCH   1  10
ATOM     10  C   UNL     1      22.381  38.061  35.470  1.00  0.00     0.000 C 
BRANCH  10  11
ATOM     11  C   UNL     1      21.842  36.644  35.750  1.00  0.00    -0.000 C 
BRANCH  11  12
ATOM     12  C   UNL     1      22.121  36.108  37.165  1.00  0.00    -0.000 C 
BRANCH  12  13
ATOM     13  C   UNL     1      21.049  36.534  38.183  1.00  0.00    -0.000 C 
BRANCH  13  14
ATOM     14  C   UNL     1      21.488  37.738  39.033  1.00  0.00    -0.000 C 
BRANCH  14  15
ATOM     15  C   UNL     1      20.357  38.756  39.239  1.00  0.00    -0.003 C 
ATOM     16  C   UNL     1      18.997  38.066  39.270  1.00  0.00     0.004 C 
ENDBRANCH  14  15
ENDBRANCH  13  14
ENDBRANCH  12  13
ENDBRANCH  11  12
ENDBRANCH  10  11
ENDBRANCH   1  10
TORSDOF 12
ENDMDL
MODEL 4
REMARK VINA RESULT:    -3.522      2.488      4.446
REMARK INTER + INTRA:          -7.943
REMARK INTER:                  -6.302
REMARK INTRA:                  -1.641
REMARK UNBOUND:                -1.950
REMARK SMILES CCCCCCCCCCCCCC(=O)[O-]
REMARK SMILES IDX 8 1 9 2 10 3 11 4 12 5 13 6 14 7 15 8 16 9 7 10 6 11 5 12
REMARK SMILES IDX 4 13 3 14 2 15 1 16
REMARK H PARENT
REMARK Flexibility Score: inf
ROOT
ATOM      1  C   UNL     1      21.660  37.952  38.184  1.00  0.00     0.000 C 
ENDROOT
BRANCH   1   2
ATOM      2  C   UNL     1      20.566  37.966  39.265  1.00  0.00     0.000 C 
BRANCH   2   3
ATOM      3  C   UNL     1      19.222  38.517  38.752  1.00  0.00     0.000 C 
BRANCH   3   4
ATOM      4  C   UNL     1      19.274  39.190  37.367  1.00  0.00     0.000 C 
BRANCH   4   5
ATOM      5  C   UNL     1      18.488  38.417  36.295  1.00  0.00     0.006 C 
BRANCH   5   6
ATOM      6  C   UNL     1      18.022  39.326  35.150  1.00  0.00     0.053 C 
BRANCH   6   7
ATOM      7  C   UNL     1      16.852  38.746  34.417  1.00  0.00     0.041 C 
ATOM      8  O   UNL     1      16.711  37.496  34.337  1.00  0.00    -0.550 OA
ATOM      9  O   UNL     1      15.901  39.583  33.847  1.00  0.00    -0.550 OA
ENDBRANCH   6   7
ENDBRANCH   5   6
ENDBRANCH   4   5
ENDBRANCH   3   4
ENDBRANCH   2   3
ENDBRANCH   1   2
BRANCH   1  10
ATOM     10  C   UNL     1      21.860  36.560  37.554  1.00  0.00     0.000 C 
BRANCH  10  11
ATOM     11  C   UNL     1      21.939  36.536  36.015  1.00  0.00    -0.000 C 
BRANCH  11  12
ATOM     12  C   UNL     1      22.212  37.900  35.355  1.00  0.00    -0.000 C 
BRANCH  12  13
ATOM     13  C   UNL     1      21.470  38.072  34.019  1.00  0.00    -0.000 C 
BRANCH  13  14
ATOM     14  C   UNL     1      20.547  36.884  33.699  1.00  0.00    -0.000 C 
BRANCH  14  15
ATOM     15  C   UNL     1      20.048  36.901  32.247  1.00  0.00    -0.003 C 
ATOM     16  C   UNL     1      21.038  37.620  31.336  1.00  0.00     0.004 C 
ENDBRANCH  14  15
ENDBRANCH  13  14
ENDBRANCH  12  13
ENDBRANCH  11  12
ENDBRANCH  10  11
ENDBRANCH   1  10
TORSDOF 12
ENDMDL
MODEL 5
REMARK VINA RESULT:    -3.491      2.703      5.349
REMARK INTER + INTRA:          -7.889
REMARK INTER:                  -6.186
REMARK INTRA:                  -1.704
REMARK UNBOUND:                -1.950
REMARK SMILES CCCCCCCCCCCCCC(=O)[O-]
REMARK SMILES IDX 8 1 9 2 10 3 11 4 12 5 13 6 14 7 15 8 16 9 7 10 6 11 5 12
REMARK SMILES IDX 4 13 3 14 2 15 1 16
REMARK H PARENT
REMARK Flexibility Score: inf
ROOT
ATOM      1  C   UNL     1      19.545  39.131  38.457  1.00  0.00     0.000 C 
ENDROOT
BRANCH   1   2
ATOM      2  C   UNL     1      18.880  38.658  37.153  1.00  0.00     0.000 C 
BRANCH   2   3
ATOM      3  C   UNL     1      18.980  39.694  36.018  1.00  0.00     0.000 C 
BRANCH   3   4
ATOM      4  C   UNL     1      18.045  39.448  34.819  1.00  0.00     0.000 C 
BRANCH   4   5
ATOM      5  C   UNL     1      17.396  38.054  34.840  1.00  0.00     0.006 C 
BRANCH   5   6
ATOM      6  C   UNL     1      16.960  37.597  33.442  1.00  0.00     0.053 C 
BRANCH   6   7
ATOM      7  C   UNL     1      17.680  36.358  33.009  1.00  0.00     0.041 C 
ATOM      8  O   UNL     1      17.059  35.442  32.407  1.00  0.00    -0.550 OA
ATOM      9  O   UNL     1      19.043  36.224  33.245  1.00  0.00    -0.550 OA
ENDBRANCH   6   7
ENDBRANCH   5   6
ENDBRANCH   4   5
ENDBRANCH   3   4
ENDBRANCH   2   3
ENDBRANCH   1   2
BRANCH   1  10
ATOM     10  C   UNL     1      20.549  38.108  39.022  1.00  0.00     0.000 C 
BRANCH  10  11
ATOM     11  C   UNL     1      20.561  36.736  38.318  1.00  0.00    -0.000 C 
BRANCH  11  12
ATOM     12  C   UNL     1      21.944  36.068  38.216  1.00  0.00    -0.000 C 
BRANCH  12  13
ATOM     13  C   UNL     1      22.606  36.280  36.843  1.00  0.00    -0.000 C 
BRANCH  13  14
ATOM     14  C   UNL     1      21.580  36.547  35.729  1.00  0.00    -0.000 C 
BRANCH  14  15
ATOM     15  C   UNL     1      21.915  37.803  34.910  1.00  0.00    -0.003 C 
ATOM     16  C   UNL     1      22.747  38.785  35.728  1.00  0.00     0.004 C 
ENDBRANCH  14  15
ENDBRANCH  13  14
ENDBRANCH  12  13
ENDBRANCH  11  12
ENDBRANCH  10  11
ENDBRANCH   1  10
TORSDOF 12
ENDMDL
MODEL 6
REMARK VINA RESULT:    -3.474      2.494      5.360
REMARK INTER + INTRA:          -7.860
REMARK INTER:                  -6.313
REMARK INTRA:                  -1.548
REMARK UNBOUND:                -1.950
REMARK SMILES CCCCCCCCCCCCCC(=O)[O-]
REMARK SMILES IDX 8 1 9 2 10 3 11 4 12 5 13 6 14 7 15 8 16 9 7 10 6 11 5 12
REMARK SMILES IDX 4 13 3 14 2 15 1 16
REMARK H PARENT
REMARK Flexibility Score: inf
ROOT
ATOM      1  C   UNL     1      21.904  36.069  38.061  1.00  0.00     0.000 C 
ENDROOT
BRANCH   1   2
ATOM      2  C   UNL     1      22.333  36.176  36.588  1.00  0.00     0.000 C 
BRANCH   2   3
ATOM      3  C   UNL     1      22.007  37.548  35.968  1.00  0.00     0.000 C 
BRANCH   3   4
ATOM      4  C   UNL     1      21.497  37.508  34.515  1.00  0.00     0.000 C 
BRANCH   4   5
ATOM      5  C   UNL     1      20.036  37.042  34.405  1.00  0.00     0.006 C 
BRANCH   5   6
ATOM      6  C   UNL     1      19.116  37.781  35.386  1.00  0.00     0.053 C 
BRANCH   6   7
ATOM      7  C   UNL     1      17.948  38.409  34.692  1.00  0.00     0.041 C 
ATOM      8  O   UNL     1      18.128  39.350  33.874  1.00  0.00    -0.550 OA
ATOM      9  O   UNL     1      16.662  37.937  34.924  1.00  0.00    -0.550 OA
ENDBRANCH   6   7
ENDBRANCH   5   6
ENDBRANCH   4   5
ENDBRANCH   3   4
ENDBRANCH   2   3
ENDBRANCH   1   2
BRANCH   1  10
ATOM     10  C   UNL     1      23.037  36.425  39.042  1.00  0.00     0.000 C 
BRANCH  10  11
ATOM     11  C   UNL     1      23.066  37.893  39.513  1.00  0.00    -0.000 C 
BRANCH  11  12
ATOM     12  C   UNL     1      22.440  38.147  40.896  1.00  0.00    -0.000 C 
BRANCH  12  13
ATOM     13  C   UNL     1      21.072  38.844  40.809  1.00  0.00    -0.000 C 
BRANCH  13  14
ATOM     14  C   UNL     1      20.860  39.562  39.465  1.00  0.00    -0.000 C 
BRANCH  14  15
ATOM     15  C   UNL     1      19.638  39.033  38.702  1.00  0.00    -0.003 C 
ATOM     16  C   UNL     1      18.991  37.866  39.442  1.00  0.00     0.004 C 
ENDBRANCH  14  15
ENDBRANCH  13  14
ENDBRANCH  12  13
ENDBRANCH  11  12
ENDBRANCH  10  11
ENDBRANCH   1  10
TORSDOF 12
ENDMDL
MODEL 7
REMARK VINA RESULT:    -3.467      2.970      5.450
REMARK INTER + INTRA:          -7.849
REMARK INTER:                  -6.122
REMARK INTRA:                  -1.727
REMARK UNBOUND:                -1.950
REMARK SMILES CCCCCCCCCCCCCC(=O)[O-]
REMARK SMILES IDX 8 1 9 2 10 3 11 4 12 5 13 6 14 7 15 8 16 9 7 10 6 11 5 12
REMARK SMILES IDX 4 13 3 14 2 15 1 16
REMARK H PARENT
REMARK Flexibility Score: inf
ROOT
ATOM      1  C   UNL     1      19.406  39.828  36.708  1.00  0.00     0.000 C 
ENDROOT
BRANCH   1   2
ATOM      2  C   UNL     1      18.667  39.525  35.394  1.00  0.00     0.000 C 
BRANCH   2   3
ATOM      3  C   UNL     1      18.035  38.120  35.371  1.00  0.00     0.000 C 
BRANCH   3   4
ATOM      4  C   UNL     1      16.859  37.944  34.393  1.00  0.00     0.000 C 
BRANCH   4   5
ATOM      5  C   UNL     1      17.116  36.859  33.335  1.00  0.00     0.006 C 
BRANCH   5   6
ATOM      6  C   UNL     1      18.582  36.404  33.315  1.00  0.00     0.053 C 
BRANCH   6   7
ATOM      7  C   UNL     1      19.310  36.920  32.112  1.00  0.00     0.041 C 
ATOM      8  O   UNL     1      20.556  36.762  32.010  1.00  0.00    -0.550 OA
ATOM      9  O   UNL     1      18.611  37.552  31.091  1.00  0.00    -0.550 OA
ENDBRANCH   6   7
ENDBRANCH   5   6
ENDBRANCH   4   5
ENDBRANCH   3   4
ENDBRANCH   2   3
ENDBRANCH   1   2
BRANCH   1  10
ATOM     10  C   UNL     1      19.355  38.656  37.707  1.00  0.00     0.000 C 
BRANCH  10  11
ATOM     11  C   UNL     1      20.357  38.741  38.877  1.00  0.00    -0.000 C 
BRANCH  11  12
ATOM     12  C   UNL     1      21.446  37.655  38.882  1.00  0.00    -0.000 C 
BRANCH  12  13
ATOM     13  C   UNL     1      21.127  36.488  37.932  1.00  0.00    -0.000 C 
BRANCH  13  14
ATOM     14  C   UNL     1      22.188  36.315  36.833  1.00  0.00    -0.000 C 
BRANCH  14  15
ATOM     15  C   UNL     1      21.654  36.669  35.438  1.00  0.00    -0.003 C 
ATOM     16  C   UNL     1      22.163  38.034  34.985  1.00  0.00     0.004 C 
ENDBRANCH  14  15
ENDBRANCH  13  14
ENDBRANCH  12  13
ENDBRANCH  11  12
ENDBRANCH  10  11
ENDBRANCH   1  10
TORSDOF 12
ENDMDL
MODEL 8
REMARK VINA RESULT:    -3.406      1.242      2.914
REMARK INTER + INTRA:          -7.746
REMARK INTER:                  -5.990
REMARK INTRA:                  -1.756
REMARK UNBOUND:                -1.950
REMARK SMILES CCCCCCCCCCCCCC(=O)[O-]
REMARK SMILES IDX 8 1 9 2 10 3 11 4 12 5 13 6 14 7 15 8 16 9 7 10 6 11 5 12
REMARK SMILES IDX 4 13 3 14 2 15 1 16
REMARK H PARENT
REMARK Flexibility Score: inf
ROOT
ATOM      1  C   UNL     1      17.833  38.138  35.395  1.00  0.00     0.000 C 
ENDROOT
BRANCH   1   2
ATOM      2  C   UNL     1      18.671  39.427  35.354  1.00  0.00     0.000 C 
BRANCH   2   3
ATOM      3  C   UNL     1      20.187  39.158  35.375  1.00  0.00     0.000 C 
BRANCH   3   4
ATOM      4  C   UNL     1      20.602  37.774  35.910  1.00  0.00     0.000 C 
BRANCH   4   5
ATOM      5  C   UNL     1      21.254  37.839  37.301  1.00  0.00     0.006 C 
BRANCH   5   6
ATOM      6  C   UNL     1      20.426  37.105  38.364  1.00  0.00     0.053 C 
BRANCH   6   7
ATOM      7  C   UNL     1      19.515  38.037  39.102  1.00  0.00     0.041 C 
ATOM      8  O   UNL     1      18.662  37.580  39.909  1.00  0.00    -0.550 OA
ATOM      9  O   UNL     1      19.625  39.410  38.922  1.00  0.00    -0.550 OA
ENDBRANCH   6   7
ENDBRANCH   5   6
ENDBRANCH   4   5
ENDBRANCH   3   4
ENDBRANCH   2   3
ENDBRANCH   1   2
BRANCH   1  10
ATOM     10  C   UNL     1      16.936  37.968  34.153  1.00  0.00     0.000 C 
BRANCH  10  11
ATOM     11  C   UNL     1      17.632  37.373  32.912  1.00  0.00    -0.000 C 
BRANCH  11  12
ATOM     12  C   UNL     1      18.733  36.342  33.214  1.00  0.00    -0.000 C 
BRANCH  12  13
ATOM     13  C   UNL     1      20.035  36.620  32.442  1.00  0.00    -0.000 C 
BRANCH  13  14
ATOM     14  C   UNL     1      19.816  37.539  31.229  1.00  0.00    -0.000 C 
BRANCH  14  15
ATOM     15  C   UNL     1      20.844  38.677  31.160  1.00  0.00    -0.003 C 
ATOM     16  C   UNL     1      21.951  38.480  32.191  1.00  0.00     0.004 C 
ENDBRANCH  14  15
ENDBRANCH  13  14
ENDBRANCH  12  13
ENDBRANCH  11  12
ENDBRANCH  10  11
ENDBRANCH   1  10
TORSDOF 12
ENDMDL
MODEL 9
REMARK VINA RESULT:    -3.370      2.516      5.364
REMARK INTER + INTRA:          -7.684
REMARK INTER:                  -5.723
REMARK INTRA:                  -1.961
REMARK UNBOUND:                -1.950
REMARK SMILES CCCCCCCCCCCCCC(=O)[O-]
REMARK SMILES IDX 8 1 9 2 10 3 11 4 12 5 13 6 14 7 15 8 16 9 7 10 6 11 5 12
REMARK SMILES IDX 4 13 3 14 2 15 1 16
REMARK H PARENT
REMARK Flexibility Score: inf
ROOT
ATOM      1  C   UNL     1      19.438  37.970  37.404  1.00  0.00     0.000 C 
ENDROOT
BRANCH   1   2
ATOM      2  C   UNL     1      20.305  39.058  36.748  1.00  0.00     0.000 C 
BRANCH   2   3
ATOM      3  C   UNL     1      21.442  38.480  35.885  1.00  0.00     0.000 C 
BRANCH   3   4
ATOM      4  C   UNL     1      21.155  37.104  35.255  1.00  0.00     0.000 C 
BRANCH   4   5
ATOM      5  C   UNL     1      20.666  37.201  33.800  1.00  0.00     0.006 C 
BRANCH   5   6
ATOM      6  C   UNL     1      19.224  36.704  33.638  1.00  0.00     0.053 C 
BRANCH   6   7
ATOM      7  C   UNL     1      18.227  37.798  33.863  1.00  0.00     0.041 C 
ATOM      8  O   UNL     1      17.084  37.530  34.320  1.00  0.00    -0.550 OA
ATOM      9  O   UNL     1      18.568  39.118  33.596  1.00  0.00    -0.550 OA
ENDBRANCH   6   7
ENDBRANCH   5   6
ENDBRANCH   4   5
ENDBRANCH   3   4
ENDBRANCH   2   3
ENDBRANCH   1   2
BRANCH   1  10
ATOM     10  C   UNL     1      19.246  38.190  38.917  1.00  0.00     0.000 C 
BRANCH  10  11
ATOM     11  C   UNL     1      20.128  39.290  39.542  1.00  0.00    -0.000 C 
BRANCH  11  12
ATOM     12  C   UNL     1      21.080  38.810  40.651  1.00  0.00    -0.000 C 
BRANCH  12  13
ATOM     13  C   UNL     1      22.558  39.086  40.326  1.00  0.00    -0.000 C 
BRANCH  13  14
ATOM     14  C   UNL     1      23.077  38.224  39.163  1.00  0.00    -0.000 C 
BRANCH  14  15
ATOM     15  C   UNL     1      23.125  36.730  39.514  1.00  0.00    -0.003 C 
ATOM     16  C   UNL     1      22.389  35.897  38.469  1.00  0.00     0.004 C 
ENDBRANCH  14  15
ENDBRANCH  13  14
ENDBRANCH  12  13
ENDBRANCH  11  12
ENDBRANCH  10  11
ENDBRANCH   1  10
TORSDOF 12
ENDMDL
