MODEL 1
REMARK VINA RESULT:    -3.944      0.000      0.000
REMARK INTER + INTRA:         -10.026
REMARK INTER:                  -7.403
REMARK INTRA:                  -2.623
REMARK UNBOUND:                -2.623
REMARK SMILES CCCCCCCCC=CCCCCCCCC(=O)[O-]
REMARK SMILES IDX 10 1 9 2 11 3 12 4 13 5 14 6 15 7 16 8 17 9 18 10 19 11
REMARK SMILES IDX 20 12 8 13 7 14 6 15 5 16 4 17 3 18 2 19 1 20
REMARK H PARENT
REMARK Flexibility Score: inf
ROOT
ATOM      1  C   UNL     1      77.486 -73.588  -3.402  1.00  0.00    -0.031 C 
ATOM      2  C   UNL     1      77.549 -74.134  -2.179  1.00  0.00    -0.031 C 
ENDROOT
BRANCH   1   3
ATOM      3  C   UNL     1      76.586 -72.419  -3.700  1.00  0.00     0.027 C 
BRANCH   3   4
ATOM      4  C   UNL     1      75.097 -72.751  -3.502  1.00  0.00     0.004 C 
BRANCH   4   5
ATOM      5  C   UNL     1      74.446 -72.047  -2.297  1.00  0.00     0.000 C 
BRANCH   5   6
ATOM      6  C   UNL     1      74.399 -72.916  -1.022  1.00  0.00     0.000 C 
BRANCH   6   7
ATOM      7  C   UNL     1      72.972 -73.077  -0.479  1.00  0.00     0.000 C 
BRANCH   7   8
ATOM      8  C   UNL     1      72.191 -71.758  -0.576  1.00  0.00     0.006 C 
BRANCH   8   9
ATOM      9  C   UNL     1      71.887 -71.161   0.804  1.00  0.00     0.053 C 
BRANCH   9  10
ATOM     10  C   UNL     1      72.622 -69.874   1.027  1.00  0.00     0.041 C 
ATOM     11  O   UNL     1      72.060 -68.918   1.621  1.00  0.00    -0.550 OA
ATOM     12  O   UNL     1      73.916 -69.720   0.546  1.00  0.00    -0.550 OA
ENDBRANCH   9  10
ENDBRANCH   8   9
ENDBRANCH   7   8
ENDBRANCH   6   7
ENDBRANCH   5   6
ENDBRANCH   4   5
ENDBRANCH   3   4
ENDBRANCH   1   3
BRANCH   2  13
ATOM     13  C   UNL     1      78.453 -75.307  -1.909  1.00  0.00     0.027 C 
BRANCH  13  14
ATOM     14  C   UNL     1      77.861 -76.228  -0.837  1.00  0.00     0.004 C 
BRANCH  14  15
ATOM     15  C   UNL     1      76.376 -75.928  -0.610  1.00  0.00     0.000 C 
BRANCH  15  16
ATOM     16  C   UNL     1      75.501 -77.110  -1.053  1.00  0.00     0.000 C 
BRANCH  16  17
ATOM     17  C   UNL     1      75.459 -77.287  -2.582  1.00  0.00    -0.000 C 
BRANCH  17  18
ATOM     18  C   UNL     1      74.557 -76.288  -3.328  1.00  0.00    -0.000 C 
BRANCH  18  19
ATOM     19  C   UNL     1      73.178 -76.122  -2.674  1.00  0.00    -0.003 C 
ATOM     20  C   UNL     1      72.299 -75.168  -3.477  1.00  0.00     0.004 C 
ENDBRANCH  18  19
ENDBRANCH  17  18
ENDBRANCH  16  17
ENDBRANCH  15  16
ENDBRANCH  14  15
ENDBRANCH  13  14
ENDBRANCH   2  13
TORSDOF 15
ENDMDL
MODEL 2
REMARK VINA RESULT:    -3.852      1.563      2.746
REMARK INTER + INTRA:          -9.852
REMARK INTER:                  -7.025
REMARK INTRA:                  -2.827
REMARK UNBOUND:                -2.623
REMARK SMILES CCCCCCCCC=CCCCCCCCC(=O)[O-]
REMARK SMILES IDX 10 1 9 2 11 3 12 4 13 5 14 6 15 7 16 8 17 9 18 10 19 11
REMARK SMILES IDX 20 12 8 13 7 14 6 15 5 16 4 17 3 18 2 19 1 20
REMARK H PARENT
REMARK Flexibility Score: inf
ROOT
ATOM      1  C   UNL     1      78.250 -75.866  -1.659  1.00  0.00    -0.031 C 
ATOM      2  C   UNL     1      78.814 -76.714  -2.531  1.00  0.00    -0.031 C 
ENDROOT
BRANCH   1   3
ATOM      3  C   UNL     1      78.043 -74.412  -1.991  1.00  0.00     0.027 C 
BRANCH   3   4
ATOM      4  C   UNL     1      77.501 -74.201  -3.415  1.00  0.00     0.004 C 
BRANCH   4   5
ATOM      5  C   UNL     1      76.732 -72.881  -3.612  1.00  0.00     0.000 C 
BRANCH   5   6
ATOM      6  C   UNL     1      75.290 -73.075  -4.125  1.00  0.00     0.000 C 
BRANCH   6   7
ATOM      7  C   UNL     1      74.244 -72.526  -3.145  1.00  0.00     0.000 C 
BRANCH   7   8
ATOM      8  C   UNL     1      74.759 -72.580  -1.699  1.00  0.00     0.006 C 
BRANCH   8   9
ATOM      9  C   UNL     1      73.622 -72.757  -0.684  1.00  0.00     0.053 C 
BRANCH   9  10
ATOM     10  C   UNL     1      73.094 -71.438  -0.205  1.00  0.00     0.041 C 
ATOM     11  O   UNL     1      71.861 -71.282  -0.012  1.00  0.00    -0.550 OA
ATOM     12  O   UNL     1      73.962 -70.372  -0.009  1.00  0.00    -0.550 OA
ENDBRANCH   9  10
ENDBRANCH   8   9
ENDBRANCH   7   8
ENDBRANCH   6   7
ENDBRANCH   5   6
ENDBRANCH   4   5
ENDBRANCH   3   4
ENDBRANCH   1   3
BRANCH   2  13
ATOM     13  C   UNL     1      79.014 -78.162  -2.172  1.00  0.00     0.027 C 
BRANCH  13  14
ATOM     14  C   UNL     1      78.051 -78.597  -1.062  1.00  0.00     0.004 C 
BRANCH  14  15
ATOM     15  C   UNL     1      77.205 -79.796  -1.504  1.00  0.00     0.000 C 
BRANCH  15  16
ATOM     16  C   UNL     1      76.526 -79.523  -2.854  1.00  0.00     0.000 C 
BRANCH  16  17
ATOM     17  C   UNL     1      75.221 -78.717  -2.718  1.00  0.00    -0.000 C 
BRANCH  17  18
ATOM     18  C   UNL     1      75.267 -77.301  -3.320  1.00  0.00    -0.000 C 
BRANCH  18  19
ATOM     19  C   UNL     1      74.488 -76.272  -2.489  1.00  0.00    -0.003 C 
ATOM     20  C   UNL     1      74.769 -76.443  -0.998  1.00  0.00     0.004 C 
ENDBRANCH  18  19
ENDBRANCH  17  18
ENDBRANCH  16  17
ENDBRANCH  15  16
ENDBRANCH  14  15
ENDBRANCH  13  14
ENDBRANCH   2  13
TORSDOF 15
ENDMDL
MODEL 3
REMARK VINA RESULT:    -3.801      3.567      4.935
REMARK INTER + INTRA:          -9.756
REMARK INTER:                  -7.376
REMARK INTRA:                  -2.381
REMARK UNBOUND:                -2.623
REMARK SMILES CCCCCCCCC=CCCCCCCCC(=O)[O-]
REMARK SMILES IDX 10 1 9 2 11 3 12 4 13 5 14 6 15 7 16 8 17 9 18 10 19 11
REMARK SMILES IDX 20 12 8 13 7 14 6 15 5 16 4 17 3 18 2 19 1 20
REMARK H PARENT
REMARK Flexibility Score: inf
ROOT
ATOM      1  C   UNL     1      74.828 -74.228  -0.564  1.00  0.00    -0.031 C 
ATOM      2  C   UNL     1      74.714 -75.373  -1.250  1.00  0.00    -0.031 C 
ENDROOT
BRANCH   1   3
ATOM      3  C   UNL     1      74.057 -72.994  -0.950  1.00  0.00     0.027 C 
BRANCH   3   4
ATOM      4  C   UNL     1      72.540 -73.240  -1.015  1.00  0.00     0.004 C 
BRANCH   4   5
ATOM      5  C   UNL     1      71.873 -73.449   0.358  1.00  0.00     0.000 C 
BRANCH   5   6
ATOM      6  C   UNL     1      71.531 -74.923   0.661  1.00  0.00     0.000 C 
BRANCH   6   7
ATOM      7  C   UNL     1      71.941 -75.336   2.082  1.00  0.00     0.000 C 
BRANCH   7   8
ATOM      8  C   UNL     1      72.989 -76.457   2.052  1.00  0.00     0.006 C 
BRANCH   8   9
ATOM      9  C   UNL     1      72.793 -77.467   3.190  1.00  0.00     0.053 C 
BRANCH   9  10
ATOM     10  C   UNL     1      73.437 -77.003   4.461  1.00  0.00     0.041 C 
ATOM     11  O   UNL     1      74.624 -77.327   4.725  1.00  0.00    -0.550 OA
ATOM     12  O   UNL     1      72.713 -76.244   5.371  1.00  0.00    -0.550 OA
ENDBRANCH   9  10
ENDBRANCH   8   9
ENDBRANCH   7   8
ENDBRANCH   6   7
ENDBRANCH   5   6
ENDBRANCH   4   5
ENDBRANCH   3   4
ENDBRANCH   1   3
BRANCH   2  13
ATOM     13  C   UNL     1      75.500 -76.591  -0.846  1.00  0.00     0.027 C 
BRANCH  13  14
ATOM     14  C   UNL     1      76.860 -76.204  -0.256  1.00  0.00     0.004 C 
BRANCH  14  15
ATOM     15  C   UNL     1      78.005 -76.868  -1.028  1.00  0.00     0.000 C 
BRANCH  15  16
ATOM     16  C   UNL     1      78.619 -75.897  -2.047  1.00  0.00     0.000 C 
BRANCH  16  17
ATOM     17  C   UNL     1      78.066 -76.091  -3.470  1.00  0.00    -0.000 C 
BRANCH  17  18
ATOM     18  C   UNL     1      77.254 -74.904  -4.019  1.00  0.00    -0.000 C 
BRANCH  18  19
ATOM     19  C   UNL     1      77.452 -73.616  -3.208  1.00  0.00    -0.003 C 
ATOM     20  C   UNL     1      76.514 -72.513  -3.689  1.00  0.00     0.004 C 
ENDBRANCH  18  19
ENDBRANCH  17  18
ENDBRANCH  16  17
ENDBRANCH  15  16
ENDBRANCH  14  15
ENDBRANCH  13  14
ENDBRANCH   2  13
TORSDOF 15
ENDMDL
MODEL 4
REMARK VINA RESULT:    -3.793      1.451      2.162
REMARK INTER + INTRA:          -9.741
REMARK INTER:                  -7.150
REMARK INTRA:                  -2.592
REMARK UNBOUND:                -2.623
REMARK SMILES CCCCCCCCC=CCCCCCCCC(=O)[O-]
REMARK SMILES IDX 10 1 9 2 11 3 12 4 13 5 14 6 15 7 16 8 17 9 18 10 19 11
REMARK SMILES IDX 20 12 8 13 7 14 6 15 5 16 4 17 3 18 2 19 1 20
REMARK H PARENT
REMARK Flexibility Score: inf
ROOT
ATOM      1  C   UNL     1      77.372 -74.157  -2.312  1.00  0.00    -0.031 C 
ATOM      2  C   UNL     1      78.185 -75.161  -1.958  1.00  0.00    -0.031 C 
ENDROOT
BRANCH   1   3
ATOM      3  C   UNL     1      77.674 -73.273  -3.493  1.00  0.00     0.027 C 
BRANCH   3   4
ATOM      4  C   UNL     1      76.455 -72.452  -3.946  1.00  0.00     0.004 C 
BRANCH   4   5
ATOM      5  C   UNL     1      75.147 -73.260  -4.042  1.00  0.00     0.000 C 
BRANCH   5   6
ATOM      6  C   UNL     1      73.995 -72.676  -3.197  1.00  0.00     0.000 C 
BRANCH   6   7
ATOM      7  C   UNL     1      74.490 -71.657  -2.163  1.00  0.00     0.000 C 
BRANCH   7   8
ATOM      8  C   UNL     1      74.090 -72.073  -0.740  1.00  0.00     0.006 C 
BRANCH   8   9
ATOM      9  C   UNL     1      73.398 -70.936   0.025  1.00  0.00     0.053 C 
BRANCH   9  10
ATOM     10  C   UNL     1      71.957 -71.246   0.297  1.00  0.00     0.041 C 
ATOM     11  O   UNL     1      71.331 -70.614   1.188  1.00  0.00    -0.550 OA
ATOM     12  O   UNL     1      71.317 -72.256  -0.409  1.00  0.00    -0.550 OA
ENDBRANCH   9  10
ENDBRANCH   8   9
ENDBRANCH   7   8
ENDBRANCH   6   7
ENDBRANCH   5   6
ENDBRANCH   4   5
ENDBRANCH   3   4
ENDBRANCH   1   3
BRANCH   2  13
ATOM     13  C   UNL     1      77.862 -76.027  -0.770  1.00  0.00     0.027 C 
BRANCH  13  14
ATOM     14  C   UNL     1      77.952 -77.514  -1.126  1.00  0.00     0.004 C 
BRANCH  14  15
ATOM     15  C   UNL     1      77.866 -77.725  -2.642  1.00  0.00     0.000 C 
BRANCH  15  16
ATOM     16  C   UNL     1      76.532 -78.378  -3.032  1.00  0.00     0.000 C 
BRANCH  16  17
ATOM     17  C   UNL     1      75.395 -77.357  -3.221  1.00  0.00    -0.000 C 
BRANCH  17  18
ATOM     18  C   UNL     1      74.373 -77.303  -2.072  1.00  0.00    -0.000 C 
BRANCH  18  19
ATOM     19  C   UNL     1      74.180 -75.887  -1.509  1.00  0.00    -0.003 C 
ATOM     20  C   UNL     1      74.230 -75.890   0.016  1.00  0.00     0.004 C 
ENDBRANCH  18  19
ENDBRANCH  17  18
ENDBRANCH  16  17
ENDBRANCH  15  16
ENDBRANCH  14  15
ENDBRANCH  13  14
ENDBRANCH   2  13
TORSDOF 15
ENDMDL
MODEL 5
REMARK VINA RESULT:    -3.766      2.234      3.181
REMARK INTER + INTRA:          -9.692
REMARK INTER:                  -6.759
REMARK INTRA:                  -2.934
REMARK UNBOUND:                -2.623
REMARK SMILES CCCCCCCCC=CCCCCCCCC(=O)[O-]
REMARK SMILES IDX 10 1 9 2 11 3 12 4 13 5 14 6 15 7 16 8 17 9 18 10 19 11
REMARK SMILES IDX 20 12 8 13 7 14 6 15 5 16 4 17 3 18 2 19 1 20
REMARK H PARENT
REMARK Flexibility Score: inf
ROOT
ATOM      1  C   UNL     1      77.812 -75.682  -3.097  1.00  0.00    -0.031 C 
ATOM      2  C   UNL     1      77.609 -75.509  -1.783  1.00  0.00    -0.031 C 
ENDROOT
BRANCH   1   3
ATOM      3  C   UNL     1      77.560 -74.577  -4.088  1.00  0.00     0.027 C 
BRANCH   3   4
ATOM      4  C   UNL     1      77.524 -73.187  -3.429  1.00  0.00     0.004 C 
BRANCH   4   5
ATOM      5  C   UNL     1      76.276 -72.354  -3.775  1.00  0.00     0.000 C 
BRANCH   5   6
ATOM      6  C   UNL     1      75.010 -73.204  -4.012  1.00  0.00     0.000 C 
BRANCH   6   7
ATOM      7  C   UNL     1      73.856 -72.802  -3.084  1.00  0.00     0.000 C 
BRANCH   7   8
ATOM      8  C   UNL     1      74.366 -72.492  -1.669  1.00  0.00     0.006 C 
BRANCH   8   9
ATOM      9  C   UNL     1      74.551 -73.762  -0.827  1.00  0.00     0.053 C 
BRANCH   9  10
ATOM     10  C   UNL     1      73.246 -74.268  -0.290  1.00  0.00     0.041 C 
ATOM     11  O   UNL     1      72.318 -73.462  -0.021  1.00  0.00    -0.550 OA
ATOM     12  O   UNL     1      73.070 -75.625  -0.055  1.00  0.00    -0.550 OA
ENDBRANCH   9  10
ENDBRANCH   8   9
ENDBRANCH   7   8
ENDBRANCH   6   7
ENDBRANCH   5   6
ENDBRANCH   4   5
ENDBRANCH   3   4
ENDBRANCH   1   3
BRANCH   2  13
ATOM     13  C   UNL     1      77.864 -76.631  -0.813  1.00  0.00     0.027 C 
BRANCH  13  14
ATOM     14  C   UNL     1      78.632 -77.777  -1.480  1.00  0.00     0.004 C 
BRANCH  14  15
ATOM     15  C   UNL     1      78.205 -79.133  -0.908  1.00  0.00     0.000 C 
BRANCH  15  16
ATOM     16  C   UNL     1      76.915 -79.632  -1.575  1.00  0.00     0.000 C 
BRANCH  16  17
ATOM     17  C   UNL     1      76.943 -79.501  -3.109  1.00  0.00    -0.000 C 
BRANCH  17  18
ATOM     18  C   UNL     1      75.750 -78.743  -3.718  1.00  0.00    -0.000 C 
BRANCH  18  19
ATOM     19  C   UNL     1      74.841 -78.106  -2.658  1.00  0.00    -0.003 C 
ATOM     20  C   UNL     1      74.316 -76.751  -3.125  1.00  0.00     0.004 C 
ENDBRANCH  18  19
ENDBRANCH  17  18
ENDBRANCH  16  17
ENDBRANCH  15  16
ENDBRANCH  14  15
ENDBRANCH  13  14
ENDBRANCH   2  13
TORSDOF 15
ENDMDL
MODEL 6
REMARK VINA RESULT:    -3.752      3.605      5.417
REMARK INTER + INTRA:          -9.665
REMARK INTER:                  -7.523
REMARK INTRA:                  -2.142
REMARK UNBOUND:                -2.623
REMARK SMILES CCCCCCCCC=CCCCCCCCC(=O)[O-]
REMARK SMILES IDX 10 1 9 2 11 3 12 4 13 5 14 6 15 7 16 8 17 9 18 10 19 11
REMARK SMILES IDX 20 12 8 13 7 14 6 15 5 16 4 17 3 18 2 19 1 20
REMARK H PARENT
REMARK Flexibility Score: inf
ROOT
ATOM      1  C   UNL     1      76.294 -74.766  -0.848  1.00  0.00    -0.031 C 
ATOM      2  C   UNL     1      76.681 -74.704  -2.130  1.00  0.00    -0.031 C 
ENDROOT
BRANCH   1   3
ATOM      3  C   UNL     1      75.452 -75.901  -0.330  1.00  0.00     0.027 C 
BRANCH   3   4
ATOM      4  C   UNL     1      74.337 -76.306  -1.308  1.00  0.00     0.004 C 
BRANCH   4   5
ATOM      5  C   UNL     1      72.911 -76.056  -0.781  1.00  0.00     0.000 C 
BRANCH   5   6
ATOM      6  C   UNL     1      72.849 -75.051   0.388  1.00  0.00     0.000 C 
BRANCH   6   7
ATOM      7  C   UNL     1      72.177 -75.647   1.633  1.00  0.00     0.000 C 
BRANCH   7   8
ATOM      8  C   UNL     1      72.940 -76.881   2.137  1.00  0.00     0.006 C 
BRANCH   8   9
ATOM      9  C   UNL     1      72.408 -77.382   3.486  1.00  0.00     0.053 C 
BRANCH   9  10
ATOM     10  C   UNL     1      73.260 -76.915   4.627  1.00  0.00     0.041 C 
ATOM     11  O   UNL     1      72.805 -76.089   5.460  1.00  0.00    -0.550 OA
ATOM     12  O   UNL     1      74.568 -77.365   4.748  1.00  0.00    -0.550 OA
ENDBRANCH   9  10
ENDBRANCH   8   9
ENDBRANCH   7   8
ENDBRANCH   6   7
ENDBRANCH   5   6
ENDBRANCH   4   5
ENDBRANCH   3   4
ENDBRANCH   1   3
BRANCH   2  13
ATOM     13  C   UNL     1      77.518 -73.555  -2.624  1.00  0.00     0.027 C 
BRANCH  13  14
ATOM     14  C   UNL     1      76.852 -72.854  -3.813  1.00  0.00     0.004 C 
BRANCH  14  15
ATOM     15  C   UNL     1      75.769 -71.878  -3.341  1.00  0.00     0.000 C 
BRANCH  15  16
ATOM     16  C   UNL     1      74.366 -72.453  -3.583  1.00  0.00     0.000 C 
BRANCH  16  17
ATOM     17  C   UNL     1      73.531 -72.561  -2.294  1.00  0.00    -0.000 C 
BRANCH  17  18
ATOM     18  C   UNL     1      74.151 -71.883  -1.059  1.00  0.00    -0.000 C 
BRANCH  18  19
ATOM     19  C   UNL     1      73.109 -71.190  -0.170  1.00  0.00    -0.003 C 
ATOM     20  C   UNL     1      73.707 -69.972   0.529  1.00  0.00     0.004 C 
ENDBRANCH  18  19
ENDBRANCH  17  18
ENDBRANCH  16  17
ENDBRANCH  15  16
ENDBRANCH  14  15
ENDBRANCH  13  14
ENDBRANCH   2  13
TORSDOF 15
ENDMDL
MODEL 7
REMARK VINA RESULT:    -3.698      2.792      5.933
REMARK INTER + INTRA:          -9.564
REMARK INTER:                  -6.802
REMARK INTRA:                  -2.761
REMARK UNBOUND:                -2.623
REMARK SMILES CCCCCCCCC=CCCCCCCCC(=O)[O-]
REMARK SMILES IDX 10 1 9 2 11 3 12 4 13 5 14 6 15 7 16 8 17 9 18 10 19 11
REMARK SMILES IDX 20 12 8 13 7 14 6 15 5 16 4 17 3 18 2 19 1 20
REMARK H PARENT
REMARK Flexibility Score: inf
ROOT
ATOM      1  C   UNL     1      76.711 -74.826  -1.154  1.00  0.00    -0.031 C 
ATOM      2  C   UNL     1      77.294 -74.488  -2.313  1.00  0.00    -0.031 C 
ENDROOT
BRANCH   1   3
ATOM      3  C   UNL     1      77.062 -76.100  -0.434  1.00  0.00     0.027 C 
BRANCH   3   4
ATOM      4  C   UNL     1      78.177 -76.892  -1.140  1.00  0.00     0.004 C 
BRANCH   4   5
ATOM      5  C   UNL     1      77.739 -78.272  -1.665  1.00  0.00     0.000 C 
BRANCH   5   6
ATOM      6  C   UNL     1      76.277 -78.311  -2.160  1.00  0.00     0.000 C 
BRANCH   6   7
ATOM      7  C   UNL     1      76.148 -77.889  -3.630  1.00  0.00     0.000 C 
BRANCH   7   8
ATOM      8  C   UNL     1      74.954 -76.944  -3.832  1.00  0.00     0.006 C 
BRANCH   8   9
ATOM      9  C   UNL     1      74.060 -76.864  -2.587  1.00  0.00     0.053 C 
BRANCH   9  10
ATOM     10  C   UNL     1      72.613 -76.720  -2.952  1.00  0.00     0.041 C 
ATOM     11  O   UNL     1      72.229 -76.964  -4.125  1.00  0.00    -0.550 OA
ATOM     12  O   UNL     1      71.697 -76.282  -2.004  1.00  0.00    -0.550 OA
ENDBRANCH   9  10
ENDBRANCH   8   9
ENDBRANCH   7   8
ENDBRANCH   6   7
ENDBRANCH   5   6
ENDBRANCH   4   5
ENDBRANCH   3   4
ENDBRANCH   1   3
BRANCH   2  13
ATOM     13  C   UNL     1      76.921 -73.211  -3.015  1.00  0.00     0.027 C 
BRANCH  13  14
ATOM     14  C   UNL     1      75.710 -73.415  -3.933  1.00  0.00     0.004 C 
BRANCH  14  15
ATOM     15  C   UNL     1      74.645 -72.341  -3.687  1.00  0.00     0.000 C 
BRANCH  15  16
ATOM     16  C   UNL     1      73.370 -72.956  -3.090  1.00  0.00     0.000 C 
BRANCH  16  17
ATOM     17  C   UNL     1      73.483 -73.223  -1.578  1.00  0.00    -0.000 C 
BRANCH  17  18
ATOM     18  C   UNL     1      74.118 -72.083  -0.763  1.00  0.00    -0.000 C 
BRANCH  18  19
ATOM     19  C   UNL     1      73.096 -71.035  -0.300  1.00  0.00    -0.003 C 
ATOM     20  C   UNL     1      73.783 -69.874   0.413  1.00  0.00     0.004 C 
ENDBRANCH  18  19
ENDBRANCH  17  18
ENDBRANCH  16  17
ENDBRANCH  15  16
ENDBRANCH  14  15
ENDBRANCH  13  14
ENDBRANCH   2  13
TORSDOF 15
ENDMDL
MODEL 8
REMARK VINA RESULT:    -3.671      2.762      5.600
REMARK INTER + INTRA:          -9.513
REMARK INTER:                  -6.652
REMARK INTRA:                  -2.861
REMARK UNBOUND:                -2.623
REMARK SMILES CCCCCCCCC=CCCCCCCCC(=O)[O-]
REMARK SMILES IDX 10 1 9 2 11 3 12 4 13 5 14 6 15 7 16 8 17 9 18 10 19 11
REMARK SMILES IDX 20 12 8 13 7 14 6 15 5 16 4 17 3 18 2 19 1 20
REMARK H PARENT
REMARK Flexibility Score: inf
ROOT
ATOM      1  C   UNL     1      78.546 -77.162  -1.646  1.00  0.00    -0.031 C 
ATOM      2  C   UNL     1      77.979 -76.042  -1.176  1.00  0.00    -0.031 C 
ENDROOT
BRANCH   1   3
ATOM      3  C   UNL     1      78.299 -78.502  -1.006  1.00  0.00     0.027 C 
BRANCH   3   4
ATOM      4  C   UNL     1      77.174 -79.290  -1.699  1.00  0.00     0.004 C 
BRANCH   4   5
ATOM      5  C   UNL     1      77.078 -79.054  -3.218  1.00  0.00     0.000 C 
BRANCH   5   6
ATOM      6  C   UNL     1      75.643 -78.772  -3.712  1.00  0.00     0.000 C 
BRANCH   6   7
ATOM      7  C   UNL     1      75.235 -77.306  -3.510  1.00  0.00     0.000 C 
BRANCH   7   8
ATOM      8  C   UNL     1      74.055 -77.189  -2.535  1.00  0.00     0.006 C 
BRANCH   8   9
ATOM      9  C   UNL     1      74.509 -76.837  -1.112  1.00  0.00     0.053 C 
BRANCH   9  10
ATOM     10  C   UNL     1      73.407 -77.027  -0.114  1.00  0.00     0.041 C 
ATOM     11  O   UNL     1      73.045 -78.186   0.215  1.00  0.00    -0.550 OA
ATOM     12  O   UNL     1      72.758 -75.923   0.423  1.00  0.00    -0.550 OA
ENDBRANCH   9  10
ENDBRANCH   8   9
ENDBRANCH   7   8
ENDBRANCH   6   7
ENDBRANCH   5   6
ENDBRANCH   4   5
ENDBRANCH   3   4
ENDBRANCH   1   3
BRANCH   2  13
ATOM     13  C   UNL     1      78.247 -74.713  -1.831  1.00  0.00     0.027 C 
BRANCH  13  14
ATOM     14  C   UNL     1      77.452 -74.565  -3.132  1.00  0.00     0.004 C 
BRANCH  14  15
ATOM     15  C   UNL     1      77.543 -73.135  -3.675  1.00  0.00     0.000 C 
BRANCH  15  16
ATOM     16  C   UNL     1      76.145 -72.554  -3.935  1.00  0.00     0.000 C 
BRANCH  16  17
ATOM     17  C   UNL     1      75.045 -73.630  -3.971  1.00  0.00    -0.000 C 
BRANCH  17  18
ATOM     18  C   UNL     1      73.923 -73.448  -2.933  1.00  0.00    -0.000 C 
BRANCH  18  19
ATOM     19  C   UNL     1      74.320 -72.514  -1.780  1.00  0.00    -0.003 C 
ATOM     20  C   UNL     1      74.949 -73.297  -0.631  1.00  0.00     0.004 C 
ENDBRANCH  18  19
ENDBRANCH  17  18
ENDBRANCH  16  17
ENDBRANCH  15  16
ENDBRANCH  14  15
ENDBRANCH  13  14
ENDBRANCH   2  13
TORSDOF 15
ENDMDL
MODEL 9
REMARK VINA RESULT:    -3.650      2.775      3.529
REMARK INTER + INTRA:          -9.473
REMARK INTER:                  -6.792
REMARK INTRA:                  -2.682
REMARK UNBOUND:                -2.623
REMARK SMILES CCCCCCCCC=CCCCCCCCC(=O)[O-]
REMARK SMILES IDX 10 1 9 2 11 3 12 4 13 5 14 6 15 7 16 8 17 9 18 10 19 11
REMARK SMILES IDX 20 12 8 13 7 14 6 15 5 16 4 17 3 18 2 19 1 20
REMARK H PARENT
REMARK Flexibility Score: inf
ROOT
ATOM      1  C   UNL     1      77.056 -72.887  -3.733  1.00  0.00    -0.031 C 
ATOM      2  C   UNL     1      76.808 -74.204  -3.704  1.00  0.00    -0.031 C 
ENDROOT
BRANCH   1   3
ATOM      3  C   UNL     1      75.993 -71.890  -4.109  1.00  0.00     0.027 C 
BRANCH   3   4
ATOM      4  C   UNL     1      74.635 -72.199  -3.456  1.00  0.00     0.004 C 
BRANCH   4   5
ATOM      5  C   UNL     1      74.494 -71.684  -2.011  1.00  0.00     0.000 C 
BRANCH   5   6
ATOM      6  C   UNL     1      73.947 -72.741  -1.027  1.00  0.00     0.000 C 
BRANCH   6   7
ATOM      7  C   UNL     1      74.982 -73.828  -0.706  1.00  0.00     0.000 C 
BRANCH   7   8
ATOM      8  C   UNL     1      74.439 -75.225  -1.041  1.00  0.00     0.006 C 
BRANCH   8   9
ATOM      9  C   UNL     1      74.407 -76.146   0.187  1.00  0.00     0.053 C 
BRANCH   9  10
ATOM     10  C   UNL     1      73.086 -76.087   0.891  1.00  0.00     0.041 C 
ATOM     11  O   UNL     1      72.027 -75.908   0.236  1.00  0.00    -0.550 OA
ATOM     12  O   UNL     1      73.030 -76.193   2.275  1.00  0.00    -0.550 OA
ENDBRANCH   9  10
ENDBRANCH   8   9
ENDBRANCH   7   8
ENDBRANCH   6   7
ENDBRANCH   5   6
ENDBRANCH   4   5
ENDBRANCH   3   4
ENDBRANCH   1   3
BRANCH   2  13
ATOM     13  C   UNL     1      77.891 -75.180  -3.330  1.00  0.00     0.027 C 
BRANCH  13  14
ATOM     14  C   UNL     1      78.284 -75.036  -1.856  1.00  0.00     0.004 C 
BRANCH  14  15
ATOM     15  C   UNL     1      77.986 -76.322  -1.077  1.00  0.00     0.000 C 
BRANCH  15  16
ATOM     16  C   UNL     1      77.918 -77.533  -2.019  1.00  0.00     0.000 C 
BRANCH  16  17
ATOM     17  C   UNL     1      76.585 -78.296  -1.921  1.00  0.00    -0.000 C 
BRANCH  17  18
ATOM     18  C   UNL     1      75.644 -78.117  -3.125  1.00  0.00    -0.000 C 
BRANCH  18  19
ATOM     19  C   UNL     1      74.469 -79.105  -3.120  1.00  0.00    -0.003 C 
ATOM     20  C   UNL     1      73.851 -79.217  -1.729  1.00  0.00     0.004 C 
ENDBRANCH  18  19
ENDBRANCH  17  18
ENDBRANCH  16  17
ENDBRANCH  15  16
ENDBRANCH  14  15
ENDBRANCH  13  14
ENDBRANCH   2  13
TORSDOF 15
ENDMDL
