MODEL 1
REMARK VINA RESULT:    -4.307      0.000      0.000
REMARK INTER + INTRA:          -8.496
REMARK INTER:                  -7.329
REMARK INTRA:                  -1.167
REMARK UNBOUND:                -1.167
REMARK SMILES CCCCCCCCCCCCCC(=O)[O-]
REMARK SMILES IDX 8 1 9 2 10 3 11 4 12 5 13 6 14 7 15 8 16 9 7 10 6 11 5 12
REMARK SMILES IDX 4 13 3 14 2 15 1 16
REMARK H PARENT
REMARK Flexibility Score: inf
ROOT
ATOM      1  C   UNL     1     -19.915  11.540  18.798  1.00  0.00     0.000 C 
ENDROOT
BRANCH   1   2
ATOM      2  C   UNL     1     -20.652  10.854  17.638  1.00  0.00     0.000 C 
BRANCH   2   3
ATOM      3  C   UNL     1     -20.556   9.326  17.756  1.00  0.00     0.000 C 
BRANCH   3   4
ATOM      4  C   UNL     1     -19.122   8.799  17.569  1.00  0.00     0.000 C 
BRANCH   4   5
ATOM      5  C   UNL     1     -18.707   7.674  18.541  1.00  0.00     0.006 C 
BRANCH   5   6
ATOM      6  C   UNL     1     -17.191   7.525  18.735  1.00  0.00     0.053 C 
BRANCH   6   7
ATOM      7  C   UNL     1     -16.794   6.102  18.986  1.00  0.00     0.041 C 
ATOM      8  O   UNL     1     -16.558   5.331  18.020  1.00  0.00    -0.550 OA
ATOM      9  O   UNL     1     -16.720   5.619  20.287  1.00  0.00    -0.550 OA
ENDBRANCH   6   7
ENDBRANCH   5   6
ENDBRANCH   4   5
ENDBRANCH   3   4
ENDBRANCH   2   3
ENDBRANCH   1   2
BRANCH   1  10
ATOM     10  C   UNL     1     -18.918  12.606  18.320  1.00  0.00     0.000 C 
BRANCH  10  11
ATOM     11  C   UNL     1     -19.465  13.450  17.155  1.00  0.00    -0.000 C 
BRANCH  11  12
ATOM     12  C   UNL     1     -18.466  13.539  15.982  1.00  0.00    -0.000 C 
BRANCH  12  13
ATOM     13  C   UNL     1     -18.396  12.255  15.136  1.00  0.00    -0.000 C 
BRANCH  13  14
ATOM     14  C   UNL     1     -19.460  12.213  14.027  1.00  0.00    -0.000 C 
BRANCH  14  15
ATOM     15  C   UNL     1     -20.122  10.834  13.897  1.00  0.00    -0.003 C 
ATOM     16  C   UNL     1     -19.639  10.059  12.670  1.00  0.00     0.004 C 
ENDBRANCH  14  15
ENDBRANCH  13  14
ENDBRANCH  12  13
ENDBRANCH  11  12
ENDBRANCH  10  11
ENDBRANCH   1  10
TORSDOF 12
ENDMDL
MODEL 2
REMARK VINA RESULT:    -4.256      0.862      1.275
REMARK INTER + INTRA:          -8.409
REMARK INTER:                  -6.970
REMARK INTRA:                  -1.439
REMARK UNBOUND:                -1.167
REMARK SMILES CCCCCCCCCCCCCC(=O)[O-]
REMARK SMILES IDX 8 1 9 2 10 3 11 4 12 5 13 6 14 7 15 8 16 9 7 10 6 11 5 12
REMARK SMILES IDX 4 13 3 14 2 15 1 16
REMARK H PARENT
REMARK Flexibility Score: inf
ROOT
ATOM      1  C   UNL     1     -19.295  11.946  18.321  1.00  0.00     0.000 C 
ENDROOT
BRANCH   1   2
ATOM      2  C   UNL     1     -20.698  11.340  18.166  1.00  0.00     0.000 C 
BRANCH   2   3
ATOM      3  C   UNL     1     -20.631   9.807  18.128  1.00  0.00     0.000 C 
BRANCH   3   4
ATOM      4  C   UNL     1     -19.194   9.272  17.987  1.00  0.00     0.000 C 
BRANCH   4   5
ATOM      5  C   UNL     1     -19.007   7.790  18.375  1.00  0.00     0.006 C 
BRANCH   5   6
ATOM      6  C   UNL     1     -17.648   7.464  19.012  1.00  0.00     0.053 C 
BRANCH   6   7
ATOM      7  C   UNL     1     -17.369   5.992  19.015  1.00  0.00     0.041 C 
ATOM      8  O   UNL     1     -17.677   5.291  20.015  1.00  0.00    -0.550 OA
ATOM      9  O   UNL     1     -16.738   5.400  17.928  1.00  0.00    -0.550 OA
ENDBRANCH   6   7
ENDBRANCH   5   6
ENDBRANCH   4   5
ENDBRANCH   3   4
ENDBRANCH   2   3
ENDBRANCH   1   2
BRANCH   1  10
ATOM     10  C   UNL     1     -19.143  13.288  17.590  1.00  0.00     0.000 C 
BRANCH  10  11
ATOM     11  C   UNL     1     -19.389  13.170  16.075  1.00  0.00    -0.000 C 
BRANCH  11  12
ATOM     12  C   UNL     1     -18.105  12.794  15.305  1.00  0.00    -0.000 C 
BRANCH  12  13
ATOM     13  C   UNL     1     -18.361  11.877  14.096  1.00  0.00    -0.000 C 
BRANCH  13  14
ATOM     14  C   UNL     1     -18.488  10.396  14.488  1.00  0.00    -0.000 C 
BRANCH  14  15
ATOM     15  C   UNL     1     -19.936   9.889  14.415  1.00  0.00    -0.003 C 
ATOM     16  C   UNL     1     -20.761  10.609  13.348  1.00  0.00     0.004 C 
ENDBRANCH  14  15
ENDBRANCH  13  14
ENDBRANCH  12  13
ENDBRANCH  11  12
ENDBRANCH  10  11
ENDBRANCH   1  10
TORSDOF 12
ENDMDL
MODEL 3
REMARK VINA RESULT:    -4.221      2.877      6.508
REMARK INTER + INTRA:          -8.348
REMARK INTER:                  -7.471
REMARK INTRA:                  -0.877
REMARK UNBOUND:                -1.167
REMARK SMILES CCCCCCCCCCCCCC(=O)[O-]
REMARK SMILES IDX 8 1 9 2 10 3 11 4 12 5 13 6 14 7 15 8 16 9 7 10 6 11 5 12
REMARK SMILES IDX 4 13 3 14 2 15 1 16
REMARK H PARENT
REMARK Flexibility Score: inf
ROOT
ATOM      1  C   UNL     1     -20.749  11.138  18.139  1.00  0.00     0.000 C 
ENDROOT
BRANCH   1   2
ATOM      2  C   UNL     1     -19.486  11.722  18.789  1.00  0.00     0.000 C 
BRANCH   2   3
ATOM      3  C   UNL     1     -18.950  12.908  17.974  1.00  0.00     0.000 C 
BRANCH   3   4
ATOM      4  C   UNL     1     -19.453  12.913  16.519  1.00  0.00     0.000 C 
BRANCH   4   5
ATOM      5  C   UNL     1     -18.482  12.294  15.491  1.00  0.00     0.006 C 
BRANCH   5   6
ATOM      6  C   UNL     1     -19.164  11.496  14.369  1.00  0.00     0.053 C 
BRANCH   6   7
ATOM      7  C   UNL     1     -18.175  10.967  13.376  1.00  0.00     0.041 C 
ATOM      8  O   UNL     1     -16.960  10.863  13.687  1.00  0.00    -0.550 OA
ATOM      9  O   UNL     1     -18.591  10.623  12.096  1.00  0.00    -0.550 OA
ENDBRANCH   6   7
ENDBRANCH   5   6
ENDBRANCH   4   5
ENDBRANCH   3   4
ENDBRANCH   2   3
ENDBRANCH   1   2
BRANCH   1  10
ATOM     10  C   UNL     1     -20.625   9.635  17.845  1.00  0.00     0.000 C 
BRANCH  10  11
ATOM     11  C   UNL     1     -19.186   9.115  18.012  1.00  0.00    -0.000 C 
BRANCH  11  12
ATOM     12  C   UNL     1     -19.147   7.615  18.375  1.00  0.00    -0.000 C 
BRANCH  12  13
ATOM     13  C   UNL     1     -17.884   7.204  19.152  1.00  0.00    -0.000 C 
BRANCH  13  14
ATOM     14  C   UNL     1     -17.625   5.689  19.108  1.00  0.00    -0.000 C 
BRANCH  14  15
ATOM     15  C   UNL     1     -16.535   5.250  20.097  1.00  0.00    -0.003 C 
ATOM     16  C   UNL     1     -15.678   4.102  19.561  1.00  0.00     0.004 C 
ENDBRANCH  14  15
ENDBRANCH  13  14
ENDBRANCH  12  13
ENDBRANCH  11  12
ENDBRANCH  10  11
ENDBRANCH   1  10
TORSDOF 12
ENDMDL
MODEL 4
REMARK VINA RESULT:    -4.180      1.247      2.265
REMARK INTER + INTRA:          -8.279
REMARK INTER:                  -7.133
REMARK INTRA:                  -1.146
REMARK UNBOUND:                -1.167
REMARK SMILES CCCCCCCCCCCCCC(=O)[O-]
REMARK SMILES IDX 8 1 9 2 10 3 11 4 12 5 13 6 14 7 15 8 16 9 7 10 6 11 5 12
REMARK SMILES IDX 4 13 3 14 2 15 1 16
REMARK H PARENT
REMARK Flexibility Score: inf
ROOT
ATOM      1  C   UNL     1     -20.298   9.406  18.023  1.00  0.00     0.000 C 
ENDROOT
BRANCH   1   2
ATOM      2  C   UNL     1     -18.825   9.159  17.666  1.00  0.00     0.000 C 
BRANCH   2   3
ATOM      3  C   UNL     1     -18.195   8.134  18.620  1.00  0.00     0.000 C 
BRANCH   3   4
ATOM      4  C   UNL     1     -19.057   6.870  18.796  1.00  0.00     0.000 C 
BRANCH   4   5
ATOM      5  C   UNL     1     -18.577   5.901  19.897  1.00  0.00     0.006 C 
BRANCH   5   6
ATOM      6  C   UNL     1     -17.070   5.608  19.878  1.00  0.00     0.053 C 
BRANCH   6   7
ATOM      7  C   UNL     1     -16.669   4.806  18.678  1.00  0.00     0.041 C 
ATOM      8  O   UNL     1     -17.048   3.612  18.559  1.00  0.00    -0.550 OA
ATOM      9  O   UNL     1     -15.849   5.367  17.706  1.00  0.00    -0.550 OA
ENDBRANCH   6   7
ENDBRANCH   5   6
ENDBRANCH   4   5
ENDBRANCH   3   4
ENDBRANCH   2   3
ENDBRANCH   1   2
BRANCH   1  10
ATOM     10  C   UNL     1     -20.620  10.896  18.219  1.00  0.00     0.000 C 
BRANCH  10  11
ATOM     11  C   UNL     1     -19.473  11.666  18.899  1.00  0.00    -0.000 C 
BRANCH  11  12
ATOM     12  C   UNL     1     -19.001  12.870  18.057  1.00  0.00    -0.000 C 
BRANCH  12  13
ATOM     13  C   UNL     1     -19.701  12.977  16.691  1.00  0.00    -0.000 C 
BRANCH  13  14
ATOM     14  C   UNL     1     -18.721  12.888  15.510  1.00  0.00    -0.000 C 
BRANCH  14  15
ATOM     15  C   UNL     1     -18.833  11.558  14.750  1.00  0.00    -0.003 C 
ATOM     16  C   UNL     1     -17.624  11.285  13.855  1.00  0.00     0.004 C 
ENDBRANCH  14  15
ENDBRANCH  13  14
ENDBRANCH  12  13
ENDBRANCH  11  12
ENDBRANCH  10  11
ENDBRANCH   1  10
TORSDOF 12
ENDMDL
MODEL 5
REMARK VINA RESULT:    -4.159      4.063      5.657
REMARK INTER + INTRA:          -8.244
REMARK INTER:                  -6.613
REMARK INTRA:                  -1.631
REMARK UNBOUND:                -1.167
REMARK SMILES CCCCCCCCCCCCCC(=O)[O-]
REMARK SMILES IDX 8 1 9 2 10 3 11 4 12 5 13 6 14 7 15 8 16 9 7 10 6 11 5 12
REMARK SMILES IDX 4 13 3 14 2 15 1 16
REMARK H PARENT
REMARK Flexibility Score: inf
ROOT
ATOM      1  C   UNL     1     -20.913   9.927  17.965  1.00  0.00     0.000 C 
ENDROOT
BRANCH   1   2
ATOM      2  C   UNL     1     -20.855  11.395  18.411  1.00  0.00     0.000 C 
BRANCH   2   3
ATOM      3  C   UNL     1     -19.440  11.773  18.871  1.00  0.00     0.000 C 
BRANCH   3   4
ATOM      4  C   UNL     1     -18.887  13.017  18.152  1.00  0.00     0.000 C 
BRANCH   4   5
ATOM      5  C   UNL     1     -19.471  13.272  16.746  1.00  0.00     0.006 C 
BRANCH   5   6
ATOM      6  C   UNL     1     -18.441  13.220  15.608  1.00  0.00     0.053 C 
BRANCH   6   7
ATOM      7  C   UNL     1     -18.780  14.170  14.501  1.00  0.00     0.041 C 
ATOM      8  O   UNL     1     -18.625  15.409  14.660  1.00  0.00    -0.550 OA
ATOM      9  O   UNL     1     -19.299  13.690  13.305  1.00  0.00    -0.550 OA
ENDBRANCH   6   7
ENDBRANCH   5   6
ENDBRANCH   4   5
ENDBRANCH   3   4
ENDBRANCH   2   3
ENDBRANCH   1   2
BRANCH   1  10
ATOM     10  C   UNL     1     -19.542   9.384  17.535  1.00  0.00     0.000 C 
BRANCH  10  11
ATOM     11  C   UNL     1     -19.240   9.646  16.048  1.00  0.00    -0.000 C 
BRANCH  11  12
ATOM     12  C   UNL     1     -20.516   9.618  15.181  1.00  0.00    -0.000 C 
BRANCH  12  13
ATOM     13  C   UNL     1     -20.428  10.509  13.929  1.00  0.00    -0.000 C 
BRANCH  13  14
ATOM     14  C   UNL     1     -20.069   9.719  12.660  1.00  0.00    -0.000 C 
BRANCH  14  15
ATOM     15  C   UNL     1     -18.957  10.393  11.842  1.00  0.00    -0.003 C 
ATOM     16  C   UNL     1     -17.688  10.637  12.659  1.00  0.00     0.004 C 
ENDBRANCH  14  15
ENDBRANCH  13  14
ENDBRANCH  12  13
ENDBRANCH  11  12
ENDBRANCH  10  11
ENDBRANCH   1  10
TORSDOF 12
ENDMDL
MODEL 6
REMARK VINA RESULT:    -4.128      1.249      2.949
REMARK INTER + INTRA:          -8.191
REMARK INTER:                  -6.466
REMARK INTRA:                  -1.725
REMARK UNBOUND:                -1.167
REMARK SMILES CCCCCCCCCCCCCC(=O)[O-]
REMARK SMILES IDX 8 1 9 2 10 3 11 4 12 5 13 6 14 7 15 8 16 9 7 10 6 11 5 12
REMARK SMILES IDX 4 13 3 14 2 15 1 16
REMARK H PARENT
REMARK Flexibility Score: inf
ROOT
ATOM      1  C   UNL     1     -18.481  10.379  14.633  1.00  0.00     0.000 C 
ENDROOT
BRANCH   1   2
ATOM      2  C   UNL     1     -19.835   9.655  14.629  1.00  0.00     0.000 C 
BRANCH   2   3
ATOM      3  C   UNL     1     -20.044   8.875  15.936  1.00  0.00     0.000 C 
BRANCH   3   4
ATOM      4  C   UNL     1     -19.066   9.296  17.048  1.00  0.00     0.000 C 
BRANCH   4   5
ATOM      5  C   UNL     1     -19.045   8.373  18.284  1.00  0.00     0.006 C 
BRANCH   5   6
ATOM      6  C   UNL     1     -17.647   7.883  18.691  1.00  0.00     0.053 C 
BRANCH   6   7
ATOM      7  C   UNL     1     -17.621   6.406  18.938  1.00  0.00     0.041 C 
ATOM      8  O   UNL     1     -17.727   5.601  17.976  1.00  0.00    -0.550 OA
ATOM      9  O   UNL     1     -17.513   5.917  20.234  1.00  0.00    -0.550 OA
ENDBRANCH   6   7
ENDBRANCH   5   6
ENDBRANCH   4   5
ENDBRANCH   3   4
ENDBRANCH   2   3
ENDBRANCH   1   2
BRANCH   1  10
ATOM     10  C   UNL     1     -18.532  11.736  13.916  1.00  0.00     0.000 C 
BRANCH  10  11
ATOM     11  C   UNL     1     -19.209  12.830  14.761  1.00  0.00    -0.000 C 
BRANCH  11  12
ATOM     12  C   UNL     1     -18.736  12.806  16.230  1.00  0.00    -0.000 C 
BRANCH  12  13
ATOM     13  C   UNL     1     -19.873  13.020  17.245  1.00  0.00    -0.000 C 
BRANCH  13  14
ATOM     14  C   UNL     1     -21.268  12.889  16.614  1.00  0.00    -0.000 C 
BRANCH  14  15
ATOM     15  C   UNL     1     -22.052  11.687  17.161  1.00  0.00    -0.003 C 
ATOM     16  C   UNL     1     -21.529  11.207  18.515  1.00  0.00     0.004 C 
ENDBRANCH  14  15
ENDBRANCH  13  14
ENDBRANCH  12  13
ENDBRANCH  11  12
ENDBRANCH  10  11
ENDBRANCH   1  10
TORSDOF 12
ENDMDL
MODEL 7
REMARK VINA RESULT:    -4.116      4.798      6.678
REMARK INTER + INTRA:          -8.170
REMARK INTER:                  -6.276
REMARK INTRA:                  -1.894
REMARK UNBOUND:                -1.167
REMARK SMILES CCCCCCCCCCCCCC(=O)[O-]
REMARK SMILES IDX 8 1 9 2 10 3 11 4 12 5 13 6 14 7 15 8 16 9 7 10 6 11 5 12
REMARK SMILES IDX 4 13 3 14 2 15 1 16
REMARK H PARENT
REMARK Flexibility Score: inf
ROOT
ATOM      1  C   UNL     1     -21.474  12.745  16.485  1.00  0.00     0.000 C 
ENDROOT
BRANCH   1   2
ATOM      2  C   UNL     1     -21.030  14.174  16.828  1.00  0.00     0.000 C 
BRANCH   2   3
ATOM      3  C   UNL     1     -19.542  14.210  17.205  1.00  0.00     0.000 C 
BRANCH   3   4
ATOM      4  C   UNL     1     -18.679  13.283  16.331  1.00  0.00     0.000 C 
BRANCH   4   5
ATOM      5  C   UNL     1     -18.009  13.965  15.119  1.00  0.00     0.006 C 
BRANCH   5   6
ATOM      6  C   UNL     1     -18.956  14.248  13.942  1.00  0.00     0.053 C 
BRANCH   6   7
ATOM      7  C   UNL     1     -19.027  15.709  13.619  1.00  0.00     0.041 C 
ATOM      8  O   UNL     1     -18.516  16.148  12.556  1.00  0.00    -0.550 OA
ATOM      9  O   UNL     1     -19.629  16.591  14.509  1.00  0.00    -0.550 OA
ENDBRANCH   6   7
ENDBRANCH   5   6
ENDBRANCH   4   5
ENDBRANCH   3   4
ENDBRANCH   2   3
ENDBRANCH   1   2
BRANCH   1  10
ATOM     10  C   UNL     1     -22.384  12.132  17.561  1.00  0.00     0.000 C 
BRANCH  10  11
ATOM     11  C   UNL     1     -21.849  10.793  18.098  1.00  0.00    -0.000 C 
BRANCH  11  12
ATOM     12  C   UNL     1     -20.405  10.914  18.629  1.00  0.00    -0.000 C 
BRANCH  12  13
ATOM     13  C   UNL     1     -19.459   9.826  18.090  1.00  0.00    -0.000 C 
BRANCH  13  14
ATOM     14  C   UNL     1     -19.862   9.324  16.694  1.00  0.00    -0.000 C 
BRANCH  14  15
ATOM     15  C   UNL     1     -18.980   9.908  15.580  1.00  0.00    -0.003 C 
ATOM     16  C   UNL     1     -19.785  10.343  14.356  1.00  0.00     0.004 C 
ENDBRANCH  14  15
ENDBRANCH  13  14
ENDBRANCH  12  13
ENDBRANCH  11  12
ENDBRANCH  10  11
ENDBRANCH   1  10
TORSDOF 12
ENDMDL
MODEL 8
REMARK VINA RESULT:    -4.104      3.213      4.808
REMARK INTER + INTRA:          -8.151
REMARK INTER:                  -6.792
REMARK INTRA:                  -1.358
REMARK UNBOUND:                -1.167
REMARK SMILES CCCCCCCCCCCCCC(=O)[O-]
REMARK SMILES IDX 8 1 9 2 10 3 11 4 12 5 13 6 14 7 15 8 16 9 7 10 6 11 5 12
REMARK SMILES IDX 4 13 3 14 2 15 1 16
REMARK H PARENT
REMARK Flexibility Score: inf
ROOT
ATOM      1  C   UNL     1     -20.207  11.429  18.207  1.00  0.00     0.000 C 
ENDROOT
BRANCH   1   2
ATOM      2  C   UNL     1     -19.743   9.972  18.356  1.00  0.00     0.000 C 
BRANCH   2   3
ATOM      3  C   UNL     1     -19.298   9.397  17.004  1.00  0.00     0.000 C 
BRANCH   3   4
ATOM      4  C   UNL     1     -20.061  10.006  15.813  1.00  0.00     0.000 C 
BRANCH   4   5
ATOM      5  C   UNL     1     -19.590   9.530  14.423  1.00  0.00     0.006 C 
BRANCH   5   6
ATOM      6  C   UNL     1     -19.390  10.656  13.397  1.00  0.00     0.053 C 
BRANCH   6   7
ATOM      7  C   UNL     1     -17.972  10.734  12.919  1.00  0.00     0.041 C 
ATOM      8  O   UNL     1     -17.714  10.666  11.689  1.00  0.00    -0.550 OA
ATOM      9  O   UNL     1     -16.934  10.846  13.835  1.00  0.00    -0.550 OA
ENDBRANCH   6   7
ENDBRANCH   5   6
ENDBRANCH   4   5
ENDBRANCH   3   4
ENDBRANCH   2   3
ENDBRANCH   1   2
BRANCH   1  10
ATOM     10  C   UNL     1     -19.066  12.438  18.404  1.00  0.00     0.000 C 
BRANCH  10  11
ATOM     11  C   UNL     1     -19.159  13.635  17.440  1.00  0.00    -0.000 C 
BRANCH  11  12
ATOM     12  C   UNL     1     -18.475  13.348  16.087  1.00  0.00    -0.000 C 
BRANCH  12  13
ATOM     13  C   UNL     1     -19.165  14.028  14.892  1.00  0.00    -0.000 C 
BRANCH  13  14
ATOM     14  C   UNL     1     -18.354  15.204  14.324  1.00  0.00    -0.000 C 
BRANCH  14  15
ATOM     15  C   UNL     1     -18.942  16.568  14.713  1.00  0.00    -0.003 C 
ATOM     16  C   UNL     1     -20.453  16.518  14.939  1.00  0.00     0.004 C 
ENDBRANCH  14  15
ENDBRANCH  13  14
ENDBRANCH  12  13
ENDBRANCH  11  12
ENDBRANCH  10  11
ENDBRANCH   1  10
TORSDOF 12
ENDMDL
MODEL 9
REMARK VINA RESULT:    -4.062      4.894      7.418
REMARK INTER + INTRA:          -8.078
REMARK INTER:                  -6.839
REMARK INTRA:                  -1.240
REMARK UNBOUND:                -1.167
REMARK SMILES CCCCCCCCCCCCCC(=O)[O-]
REMARK SMILES IDX 8 1 9 2 10 3 11 4 12 5 13 6 14 7 15 8 16 9 7 10 6 11 5 12
REMARK SMILES IDX 4 13 3 14 2 15 1 16
REMARK H PARENT
REMARK Flexibility Score: inf
ROOT
ATOM      1  C   UNL     1     -18.707  12.558  14.490  1.00  0.00     0.000 C 
ENDROOT
BRANCH   1   2
ATOM      2  C   UNL     1     -17.927  13.415  15.498  1.00  0.00     0.000 C 
BRANCH   2   3
ATOM      3  C   UNL     1     -18.692  13.534  16.824  1.00  0.00     0.000 C 
BRANCH   3   4
ATOM      4  C   UNL     1     -20.102  14.128  16.652  1.00  0.00     0.000 C 
BRANCH   4   5
ATOM      5  C   UNL     1     -20.149  15.512  15.969  1.00  0.00     0.006 C 
BRANCH   5   6
ATOM      6  C   UNL     1     -20.850  16.605  16.790  1.00  0.00     0.053 C 
BRANCH   6   7
ATOM      7  C   UNL     1     -19.869  17.531  17.443  1.00  0.00     0.041 C 
ATOM      8  O   UNL     1     -19.454  18.548  16.829  1.00  0.00    -0.550 OA
ATOM      9  O   UNL     1     -19.388  17.251  18.716  1.00  0.00    -0.550 OA
ENDBRANCH   6   7
ENDBRANCH   5   6
ENDBRANCH   4   5
ENDBRANCH   3   4
ENDBRANCH   2   3
ENDBRANCH   1   2
BRANCH   1  10
ATOM     10  C   UNL     1     -17.981  11.252  14.134  1.00  0.00     0.000 C 
BRANCH  10  11
ATOM     11  C   UNL     1     -18.771  10.000  14.556  1.00  0.00    -0.000 C 
BRANCH  11  12
ATOM     12  C   UNL     1     -19.747  10.291  15.716  1.00  0.00    -0.000 C 
BRANCH  12  13
ATOM     13  C   UNL     1     -19.472   9.451  16.976  1.00  0.00    -0.000 C 
BRANCH  13  14
ATOM     14  C   UNL     1     -19.627  10.257  18.275  1.00  0.00    -0.000 C 
BRANCH  14  15
ATOM     15  C   UNL     1     -20.983  10.972  18.367  1.00  0.00    -0.003 C 
ATOM     16  C   UNL     1     -22.156  10.000  18.496  1.00  0.00     0.004 C 
ENDBRANCH  14  15
ENDBRANCH  13  14
ENDBRANCH  12  13
ENDBRANCH  11  12
ENDBRANCH  10  11
ENDBRANCH   1  10
TORSDOF 12
ENDMDL
