MODEL 1
REMARK VINA RESULT:    -6.279      0.000      0.000
REMARK INTER + INTRA:          -7.642
REMARK INTER:                  -7.380
REMARK INTRA:                  -0.262
REMARK UNBOUND:                -0.262
REMARK SMILES O=c1cc(-c2ccc(O)c(O)c2)oc2cc(O)cc(O)c12
REMARK SMILES IDX 4 1 3 2 2 3 1 4 21 5 19 6 18 7 16 8 15 9 14 10 13 11 5 12
REMARK SMILES IDX 6 13 7 14 8 15 12 16 10 17 9 18 11 20 20 22 17 24
REMARK H PARENT 9 19 11 21 20 23 17 25
REMARK Flexibility Score: inf
ROOT
ATOM      1  C   UNL     1      14.531  55.988  34.004  1.00  0.00     0.138 A 
ATOM      2  C   UNL     1      14.436  55.724  32.631  1.00  0.00     0.100 A 
ATOM      3  C   UNL     1      14.991  56.620  31.716  1.00  0.00     0.197 A 
ATOM      4  O   UNL     1      14.938  56.326  30.493  1.00  0.00    -0.289 OA
ATOM      5  C   UNL     1      15.615  57.804  32.178  1.00  0.00     0.107 A 
ATOM      6  C   UNL     1      16.185  58.806  31.336  1.00  0.00     0.134 A 
ATOM      7  C   UNL     1      16.862  59.887  31.913  1.00  0.00     0.093 A 
ATOM      8  C   UNL     1      16.939  60.034  33.299  1.00  0.00     0.123 A 
ATOM      9  C   UNL     1      16.342  59.088  34.129  1.00  0.00     0.094 A 
ATOM     10  C   UNL     1      15.689  57.979  33.586  1.00  0.00     0.146 A 
ATOM     11  O   UNL     1      15.149  57.091  34.414  1.00  0.00    -0.456 OA
ENDROOT
BRANCH   1  12
ATOM     12  C   UNL     1      13.956  55.072  35.021  1.00  0.00     0.021 A 
ATOM     13  C   UNL     1      12.745  55.361  35.678  1.00  0.00     0.016 A 
ATOM     14  C   UNL     1      12.223  54.475  36.624  1.00  0.00     0.051 A 
ATOM     15  C   UNL     1      12.897  53.285  36.925  1.00  0.00     0.157 A 
ATOM     16  C   UNL     1      14.619  53.868  35.321  1.00  0.00     0.062 A 
ATOM     17  C   UNL     1      14.096  52.980  36.271  1.00  0.00     0.158 A 
BRANCH  15  18
ATOM     18  O   UNL     1      12.379  52.400  37.870  1.00  0.00    -0.504 OA
ATOM     19  H   UNL     1      12.948  52.044  38.629  1.00  0.00     0.293 HD
ENDBRANCH  15  18
BRANCH  17  20
ATOM     20  O   UNL     1      14.762  51.793  36.570  1.00  0.00    -0.504 OA
ATOM     21  H   UNL     1      14.865  51.055  35.883  1.00  0.00     0.293 HD
ENDBRANCH  17  20
ENDBRANCH   1  12
BRANCH   6  22
ATOM     22  O   UNL     1      16.097  58.800  29.940  1.00  0.00    -0.507 OA
ATOM     23  H   UNL     1      15.857  59.597  29.372  1.00  0.00     0.293 HD
ENDBRANCH   6  22
BRANCH   8  24
ATOM     24  O   UNL     1      17.602  61.121  33.864  1.00  0.00    -0.508 OA
ATOM     25  H   UNL     1      18.511  61.420  33.529  1.00  0.00     0.293 HD
ENDBRANCH   8  24
TORSDOF 5
ENDMDL
MODEL 2
REMARK VINA RESULT:    -5.892      0.725      1.470
REMARK INTER + INTRA:          -7.187
REMARK INTER:                  -6.925
REMARK INTRA:                  -0.263
REMARK UNBOUND:                -0.262
REMARK SMILES O=c1cc(-c2ccc(O)c(O)c2)oc2cc(O)cc(O)c12
REMARK SMILES IDX 4 1 3 2 2 3 1 4 21 5 19 6 18 7 16 8 15 9 14 10 13 11 5 12
REMARK SMILES IDX 6 13 7 14 8 15 12 16 10 17 9 18 11 20 20 22 17 24
REMARK H PARENT 9 19 11 21 20 23 17 25
REMARK Flexibility Score: inf
ROOT
ATOM      1  C   UNL     1      14.561  56.024  33.720  1.00  0.00     0.138 A 
ATOM      2  C   UNL     1      14.310  55.830  32.355  1.00  0.00     0.100 A 
ATOM      3  C   UNL     1      14.781  56.761  31.428  1.00  0.00     0.197 A 
ATOM      4  O   UNL     1      14.587  56.531  30.206  1.00  0.00    -0.289 OA
ATOM      5  C   UNL     1      15.478  57.910  31.874  1.00  0.00     0.107 A 
ATOM      6  C   UNL     1      15.974  58.943  31.023  1.00  0.00     0.134 A 
ATOM      7  C   UNL     1      16.734  59.983  31.573  1.00  0.00     0.093 A 
ATOM      8  C   UNL     1      16.966  60.059  32.948  1.00  0.00     0.123 A 
ATOM      9  C   UNL     1      16.443  59.083  33.792  1.00  0.00     0.094 A 
ATOM     10  C   UNL     1      15.710  58.014  33.272  1.00  0.00     0.146 A 
ATOM     11  O   UNL     1      15.245  57.094  34.111  1.00  0.00    -0.456 OA
ENDROOT
BRANCH   1  12
ATOM     12  C   UNL     1      14.082  55.068  34.750  1.00  0.00     0.021 A 
ATOM     13  C   UNL     1      14.965  54.210  35.433  1.00  0.00     0.016 A 
ATOM     14  C   UNL     1      14.485  53.327  36.404  1.00  0.00     0.051 A 
ATOM     15  C   UNL     1      13.121  53.292  36.715  1.00  0.00     0.157 A 
ATOM     16  C   UNL     1      12.714  55.034  35.078  1.00  0.00     0.062 A 
ATOM     17  C   UNL     1      12.234  54.148  36.053  1.00  0.00     0.158 A 
BRANCH  15  18
ATOM     18  O   UNL     1      12.640  52.411  37.683  1.00  0.00    -0.504 OA
ATOM     19  H   UNL     1      13.061  52.352  38.602  1.00  0.00     0.293 HD
ENDBRANCH  15  18
BRANCH  17  20
ATOM     20  O   UNL     1      10.876  54.113  36.367  1.00  0.00    -0.504 OA
ATOM     21  H   UNL     1      10.263  54.890  36.153  1.00  0.00     0.293 HD
ENDBRANCH  17  20
ENDBRANCH   1  12
BRANCH   6  22
ATOM     22  O   UNL     1      15.733  59.010  29.647  1.00  0.00    -0.507 OA
ATOM     23  H   UNL     1      14.914  58.648  29.184  1.00  0.00     0.293 HD
ENDBRANCH   6  22
BRANCH   8  24
ATOM     24  O   UNL     1      17.711  61.105  33.487  1.00  0.00    -0.508 OA
ATOM     25  H   UNL     1      18.714  61.032  33.614  1.00  0.00     0.293 HD
ENDBRANCH   8  24
TORSDOF 5
ENDMDL
MODEL 3
REMARK VINA RESULT:    -5.392      1.810      2.156
REMARK INTER + INTRA:          -6.599
REMARK INTER:                  -6.306
REMARK INTRA:                  -0.293
REMARK UNBOUND:                -0.262
REMARK SMILES O=c1cc(-c2ccc(O)c(O)c2)oc2cc(O)cc(O)c12
REMARK SMILES IDX 4 1 3 2 2 3 1 4 21 5 19 6 18 7 16 8 15 9 14 10 13 11 5 12
REMARK SMILES IDX 6 13 7 14 8 15 12 16 10 17 9 18 11 20 20 22 17 24
REMARK H PARENT 9 19 11 21 20 23 17 25
REMARK Flexibility Score: inf
ROOT
ATOM      1  C   UNL     1      14.235  56.214  34.134  1.00  0.00     0.138 A 
ATOM      2  C   UNL     1      15.524  56.148  33.589  1.00  0.00     0.100 A 
ATOM      3  C   UNL     1      15.927  57.102  32.654  1.00  0.00     0.197 A 
ATOM      4  O   UNL     1      17.109  57.048  32.224  1.00  0.00    -0.289 OA
ATOM      5  C   UNL     1      15.021  58.107  32.237  1.00  0.00     0.107 A 
ATOM      6  C   UNL     1      15.311  59.111  31.264  1.00  0.00     0.134 A 
ATOM      7  C   UNL     1      14.367  60.113  31.006  1.00  0.00     0.093 A 
ATOM      8  C   UNL     1      13.123  60.113  31.640  1.00  0.00     0.123 A 
ATOM      9  C   UNL     1      12.812  59.109  32.554  1.00  0.00     0.094 A 
ATOM     10  C   UNL     1      13.745  58.116  32.860  1.00  0.00     0.146 A 
ATOM     11  O   UNL     1      13.414  57.186  33.750  1.00  0.00    -0.456 OA
ENDROOT
BRANCH   1  12
ATOM     12  C   UNL     1      13.752  55.224  35.130  1.00  0.00     0.021 A 
ATOM     13  C   UNL     1      12.549  55.412  35.839  1.00  0.00     0.016 A 
ATOM     14  C   UNL     1      12.116  54.459  36.763  1.00  0.00     0.051 A 
ATOM     15  C   UNL     1      12.868  53.300  36.990  1.00  0.00     0.157 A 
ATOM     16  C   UNL     1      14.495  54.051  35.356  1.00  0.00     0.062 A 
ATOM     17  C   UNL     1      14.059  53.095  36.284  1.00  0.00     0.158 A 
BRANCH  15  18
ATOM     18  O   UNL     1      12.438  52.348  37.913  1.00  0.00    -0.504 OA
ATOM     19  H   UNL     1      11.773  51.628  37.660  1.00  0.00     0.293 HD
ENDBRANCH  15  18
BRANCH  17  20
ATOM     20  O   UNL     1      14.805  51.939  36.509  1.00  0.00    -0.504 OA
ATOM     21  H   UNL     1      14.425  51.019  36.322  1.00  0.00     0.293 HD
ENDBRANCH  17  20
ENDBRANCH   1  12
BRANCH   6  22
ATOM     22  O   UNL     1      16.490  59.160  30.513  1.00  0.00    -0.507 OA
ATOM     23  H   UNL     1      16.576  58.866  29.553  1.00  0.00     0.293 HD
ENDBRANCH   6  22
BRANCH   8  24
ATOM     24  O   UNL     1      12.184  61.106  31.366  1.00  0.00    -0.508 OA
ATOM     25  H   UNL     1      11.606  61.506  32.096  1.00  0.00     0.293 HD
ENDBRANCH   8  24
TORSDOF 5
ENDMDL
MODEL 4
REMARK VINA RESULT:    -5.286      1.359      2.997
REMARK INTER + INTRA:          -6.475
REMARK INTER:                  -6.204
REMARK INTRA:                  -0.271
REMARK UNBOUND:                -0.262
REMARK SMILES O=c1cc(-c2ccc(O)c(O)c2)oc2cc(O)cc(O)c12
REMARK SMILES IDX 4 1 3 2 2 3 1 4 21 5 19 6 18 7 16 8 15 9 14 10 13 11 5 12
REMARK SMILES IDX 6 13 7 14 8 15 12 16 10 17 9 18 11 20 20 22 17 24
REMARK H PARENT 9 19 11 21 20 23 17 25
REMARK Flexibility Score: inf
ROOT
ATOM      1  C   UNL     1      14.313  56.049  33.828  1.00  0.00     0.138 A 
ATOM      2  C   UNL     1      14.950  57.261  34.128  1.00  0.00     0.100 A 
ATOM      3  C   UNL     1      15.388  58.085  33.091  1.00  0.00     0.197 A 
ATOM      4  O   UNL     1      15.907  59.192  33.392  1.00  0.00    -0.289 OA
ATOM      5  C   UNL     1      15.219  57.676  31.746  1.00  0.00     0.107 A 
ATOM      6  C   UNL     1      15.657  58.419  30.608  1.00  0.00     0.134 A 
ATOM      7  C   UNL     1      15.345  57.958  29.323  1.00  0.00     0.093 A 
ATOM      8  C   UNL     1      14.662  56.754  29.133  1.00  0.00     0.123 A 
ATOM      9  C   UNL     1      14.275  55.999  30.237  1.00  0.00     0.094 A 
ATOM     10  C   UNL     1      14.541  56.447  31.532  1.00  0.00     0.146 A 
ATOM     11  O   UNL     1      14.137  55.703  32.557  1.00  0.00    -0.456 OA
ENDROOT
BRANCH   1  12
ATOM     12  C   UNL     1      13.829  55.132  34.891  1.00  0.00     0.021 A 
ATOM     13  C   UNL     1      12.641  55.385  35.604  1.00  0.00     0.016 A 
ATOM     14  C   UNL     1      12.206  54.498  36.592  1.00  0.00     0.051 A 
ATOM     15  C   UNL     1      12.943  53.343  36.880  1.00  0.00     0.157 A 
ATOM     16  C   UNL     1      14.556  53.962  35.179  1.00  0.00     0.062 A 
ATOM     17  C   UNL     1      14.119  53.074  36.171  1.00  0.00     0.158 A 
BRANCH  15  18
ATOM     18  O   UNL     1      12.512  52.458  37.867  1.00  0.00    -0.504 OA
ATOM     19  H   UNL     1      12.612  52.674  38.852  1.00  0.00     0.293 HD
ENDBRANCH  15  18
BRANCH  17  20
ATOM     20  O   UNL     1      14.849  51.921  36.458  1.00  0.00    -0.504 OA
ATOM     21  H   UNL     1      14.693  51.056  35.953  1.00  0.00     0.293 HD
ENDBRANCH  17  20
ENDBRANCH   1  12
BRANCH   6  22
ATOM     22  O   UNL     1      16.414  59.592  30.681  1.00  0.00    -0.507 OA
ATOM     23  H   UNL     1      17.288  59.688  31.175  1.00  0.00     0.293 HD
ENDBRANCH   6  22
BRANCH   8  24
ATOM     24  O   UNL     1      14.369  56.297  27.851  1.00  0.00    -0.508 OA
ATOM     25  H   UNL     1      14.938  56.556  27.053  1.00  0.00     0.293 HD
ENDBRANCH   8  24
TORSDOF 5
ENDMDL
MODEL 5
REMARK VINA RESULT:    -5.141      3.197      6.997
REMARK INTER + INTRA:          -6.304
REMARK INTER:                  -6.033
REMARK INTRA:                  -0.272
REMARK UNBOUND:                -0.262
REMARK SMILES O=c1cc(-c2ccc(O)c(O)c2)oc2cc(O)cc(O)c12
REMARK SMILES IDX 4 1 3 2 2 3 1 4 21 5 19 6 18 7 16 8 15 9 14 10 13 11 5 12
REMARK SMILES IDX 6 13 7 14 8 15 12 16 10 17 9 18 11 20 20 22 17 24
REMARK H PARENT 9 19 11 21 20 23 17 25
REMARK Flexibility Score: inf
ROOT
ATOM      1  C   UNL     1      15.385  54.886  32.665  1.00  0.00     0.138 A 
ATOM      2  C   UNL     1      15.117  53.944  33.668  1.00  0.00     0.100 A 
ATOM      3  C   UNL     1      14.731  52.650  33.314  1.00  0.00     0.197 A 
ATOM      4  O   UNL     1      14.550  51.813  34.236  1.00  0.00    -0.289 OA
ATOM      5  C   UNL     1      14.579  52.309  31.948  1.00  0.00     0.107 A 
ATOM      6  C   UNL     1      14.157  51.032  31.471  1.00  0.00     0.134 A 
ATOM      7  C   UNL     1      14.138  50.783  30.093  1.00  0.00     0.093 A 
ATOM      8  C   UNL     1      14.470  51.782  29.174  1.00  0.00     0.123 A 
ATOM      9  C   UNL     1      14.834  53.046  29.630  1.00  0.00     0.094 A 
ATOM     10  C   UNL     1      14.896  53.316  30.998  1.00  0.00     0.146 A 
ATOM     11  O   UNL     1      15.266  54.531  31.390  1.00  0.00    -0.456 OA
ENDROOT
BRANCH   1  12
ATOM     12  C   UNL     1      15.797  56.276  32.984  1.00  0.00     0.021 A 
ATOM     13  C   UNL     1      14.929  57.175  33.635  1.00  0.00     0.016 A 
ATOM     14  C   UNL     1      15.348  58.475  33.930  1.00  0.00     0.051 A 
ATOM     15  C   UNL     1      16.639  58.897  33.589  1.00  0.00     0.157 A 
ATOM     16  C   UNL     1      17.096  56.705  32.657  1.00  0.00     0.062 A 
ATOM     17  C   UNL     1      17.515  58.010  32.954  1.00  0.00     0.158 A 
BRANCH  15  18
ATOM     18  O   UNL     1      17.059  60.194  33.882  1.00  0.00    -0.504 OA
ATOM     19  H   UNL     1      17.349  60.833  33.152  1.00  0.00     0.293 HD
ENDBRANCH  15  18
BRANCH  17  20
ATOM     20  O   UNL     1      18.801  58.431  32.619  1.00  0.00    -0.504 OA
ATOM     21  H   UNL     1      19.415  58.856  33.304  1.00  0.00     0.293 HD
ENDBRANCH  17  20
ENDBRANCH   1  12
BRANCH   6  22
ATOM     22  O   UNL     1      13.727  49.988  32.297  1.00  0.00    -0.507 OA
ATOM     23  H   UNL     1      14.010  49.025  32.206  1.00  0.00     0.293 HD
ENDBRANCH   6  22
BRANCH   8  24
ATOM     24  O   UNL     1      14.435  51.529  27.805  1.00  0.00    -0.508 OA
ATOM     25  H   UNL     1      14.734  52.222  27.130  1.00  0.00     0.293 HD
ENDBRANCH   8  24
TORSDOF 5
ENDMDL
MODEL 6
REMARK VINA RESULT:    -5.067      3.465      6.925
REMARK INTER + INTRA:          -6.218
REMARK INTER:                  -5.956
REMARK INTRA:                  -0.263
REMARK UNBOUND:                -0.262
REMARK SMILES O=c1cc(-c2ccc(O)c(O)c2)oc2cc(O)cc(O)c12
REMARK SMILES IDX 4 1 3 2 2 3 1 4 21 5 19 6 18 7 16 8 15 9 14 10 13 11 5 12
REMARK SMILES IDX 6 13 7 14 8 15 12 16 10 17 9 18 11 20 20 22 17 24
REMARK H PARENT 9 19 11 21 20 23 17 25
REMARK Flexibility Score: inf
ROOT
ATOM      1  C   UNL     1      15.307  54.945  31.487  1.00  0.00     0.138 A 
ATOM      2  C   UNL     1      15.127  54.965  30.097  1.00  0.00     0.100 A 
ATOM      3  C   UNL     1      14.752  53.796  29.433  1.00  0.00     0.197 A 
ATOM      4  O   UNL     1      14.544  53.860  28.193  1.00  0.00    -0.289 OA
ATOM      5  C   UNL     1      14.591  52.593  30.160  1.00  0.00     0.107 A 
ATOM      6  C   UNL     1      14.245  51.333  29.584  1.00  0.00     0.134 A 
ATOM      7  C   UNL     1      14.018  50.232  30.419  1.00  0.00     0.093 A 
ATOM      8  C   UNL     1      14.182  50.330  31.803  1.00  0.00     0.123 A 
ATOM      9  C   UNL     1      14.568  51.542  32.369  1.00  0.00     0.094 A 
ATOM     10  C   UNL     1      14.769  52.668  31.568  1.00  0.00     0.146 A 
ATOM     11  O   UNL     1      15.119  53.809  32.151  1.00  0.00    -0.456 OA
ENDROOT
BRANCH   1  12
ATOM     12  C   UNL     1      15.708  56.157  32.244  1.00  0.00     0.021 A 
ATOM     13  C   UNL     1      14.804  56.843  33.077  1.00  0.00     0.016 A 
ATOM     14  C   UNL     1      15.213  57.976  33.785  1.00  0.00     0.051 A 
ATOM     15  C   UNL     1      16.531  58.437  33.682  1.00  0.00     0.157 A 
ATOM     16  C   UNL     1      17.034  56.621  32.156  1.00  0.00     0.062 A 
ATOM     17  C   UNL     1      17.443  57.757  32.867  1.00  0.00     0.158 A 
BRANCH  15  18
ATOM     18  O   UNL     1      16.941  59.568  34.386  1.00  0.00    -0.504 OA
ATOM     19  H   UNL     1      17.888  59.921  34.316  1.00  0.00     0.293 HD
ENDBRANCH  15  18
BRANCH  17  20
ATOM     20  O   UNL     1      18.756  58.217  32.768  1.00  0.00    -0.504 OA
ATOM     21  H   UNL     1      19.327  58.369  33.591  1.00  0.00     0.293 HD
ENDBRANCH  17  20
ENDBRANCH   1  12
BRANCH   6  22
ATOM     22  O   UNL     1      14.134  51.104  28.209  1.00  0.00    -0.507 OA
ATOM     23  H   UNL     1      14.836  51.336  27.525  1.00  0.00     0.293 HD
ENDBRANCH   6  22
BRANCH   8  24
ATOM     24  O   UNL     1      13.968  49.226  32.624  1.00  0.00    -0.508 OA
ATOM     25  H   UNL     1      14.619  48.450  32.651  1.00  0.00     0.293 HD
ENDBRANCH   8  24
TORSDOF 5
ENDMDL
MODEL 7
REMARK VINA RESULT:    -5.067      2.775      3.788
REMARK INTER + INTRA:          -6.218
REMARK INTER:                  -5.956
REMARK INTRA:                  -0.262
REMARK UNBOUND:                -0.262
REMARK SMILES O=c1cc(-c2ccc(O)c(O)c2)oc2cc(O)cc(O)c12
REMARK SMILES IDX 4 1 3 2 2 3 1 4 21 5 19 6 18 7 16 8 15 9 14 10 13 11 5 12
REMARK SMILES IDX 6 13 7 14 8 15 12 16 10 17 9 18 11 20 20 22 17 24
REMARK H PARENT 9 19 11 21 20 23 17 25
REMARK Flexibility Score: inf
ROOT
ATOM      1  C   UNL     1      15.648  56.127  33.060  1.00  0.00     0.138 A 
ATOM      2  C   UNL     1      16.934  56.638  32.837  1.00  0.00     0.100 A 
ATOM      3  C   UNL     1      17.177  57.999  33.023  1.00  0.00     0.197 A 
ATOM      4  O   UNL     1      18.354  58.417  32.868  1.00  0.00    -0.289 OA
ATOM      5  C   UNL     1      16.117  58.860  33.400  1.00  0.00     0.107 A 
ATOM      6  C   UNL     1      16.241  60.270  33.584  1.00  0.00     0.134 A 
ATOM      7  C   UNL     1      15.143  61.002  34.054  1.00  0.00     0.093 A 
ATOM      8  C   UNL     1      13.912  60.386  34.291  1.00  0.00     0.123 A 
ATOM      9  C   UNL     1      13.769  59.019  34.065  1.00  0.00     0.094 A 
ATOM     10  C   UNL     1      14.853  58.254  33.630  1.00  0.00     0.146 A 
ATOM     11  O   UNL     1      14.677  56.950  33.445  1.00  0.00    -0.456 OA
ENDROOT
BRANCH   1  12
ATOM     12  C   UNL     1      15.331  54.688  32.876  1.00  0.00     0.021 A 
ATOM     13  C   UNL     1      15.358  53.779  33.951  1.00  0.00     0.016 A 
ATOM     14  C   UNL     1      15.047  52.433  33.749  1.00  0.00     0.051 A 
ATOM     15  C   UNL     1      14.695  51.972  32.474  1.00  0.00     0.157 A 
ATOM     16  C   UNL     1      14.964  54.218  31.601  1.00  0.00     0.062 A 
ATOM     17  C   UNL     1      14.652  52.867  31.399  1.00  0.00     0.158 A 
BRANCH  15  18
ATOM     18  O   UNL     1      14.385  50.628  32.269  1.00  0.00    -0.504 OA
ATOM     19  H   UNL     1      14.897  49.890  32.737  1.00  0.00     0.293 HD
ENDBRANCH  15  18
BRANCH  17  20
ATOM     20  O   UNL     1      14.298  52.406  30.132  1.00  0.00    -0.504 OA
ATOM     21  H   UNL     1      14.963  52.394  29.368  1.00  0.00     0.293 HD
ENDBRANCH  17  20
ENDBRANCH   1  12
BRANCH   6  22
ATOM     22  O   UNL     1      17.400  61.000  33.302  1.00  0.00    -0.507 OA
ATOM     23  H   UNL     1      18.296  60.599  33.076  1.00  0.00     0.293 HD
ENDBRANCH   6  22
BRANCH   8  24
ATOM     24  O   UNL     1      12.822  61.125  34.744  1.00  0.00    -0.508 OA
ATOM     25  H   UNL     1      12.561  61.139  35.723  1.00  0.00     0.293 HD
ENDBRANCH   8  24
TORSDOF 5
ENDMDL
MODEL 8
REMARK VINA RESULT:    -4.960      3.532      4.303
REMARK INTER + INTRA:          -6.092
REMARK INTER:                  -5.779
REMARK INTRA:                  -0.314
REMARK UNBOUND:                -0.262
REMARK SMILES O=c1cc(-c2ccc(O)c(O)c2)oc2cc(O)cc(O)c12
REMARK SMILES IDX 4 1 3 2 2 3 1 4 21 5 19 6 18 7 16 8 15 9 14 10 13 11 5 12
REMARK SMILES IDX 6 13 7 14 8 15 12 16 10 17 9 18 11 20 20 22 17 24
REMARK H PARENT 9 19 11 21 20 23 17 25
REMARK Flexibility Score: inf
ROOT
ATOM      1  C   UNL     1      14.211  53.853  32.503  1.00  0.00     0.138 A 
ATOM      2  C   UNL     1      13.127  54.606  32.975  1.00  0.00     0.100 A 
ATOM      3  C   UNL     1      13.312  55.949  33.305  1.00  0.00     0.197 A 
ATOM      4  O   UNL     1      12.307  56.612  33.674  1.00  0.00    -0.289 OA
ATOM      5  C   UNL     1      14.597  56.533  33.194  1.00  0.00     0.107 A 
ATOM      6  C   UNL     1      14.910  57.883  33.535  1.00  0.00     0.134 A 
ATOM      7  C   UNL     1      16.198  58.375  33.289  1.00  0.00     0.093 A 
ATOM      8  C   UNL     1      17.199  57.550  32.770  1.00  0.00     0.123 A 
ATOM      9  C   UNL     1      16.916  56.218  32.482  1.00  0.00     0.094 A 
ATOM     10  C   UNL     1      15.632  55.705  32.683  1.00  0.00     0.146 A 
ATOM     11  O   UNL     1      15.401  54.433  32.377  1.00  0.00    -0.456 OA
ENDROOT
BRANCH   1  12
ATOM     12  C   UNL     1      14.074  52.420  32.140  1.00  0.00     0.021 A 
ATOM     13  C   UNL     1      12.818  51.839  31.881  1.00  0.00     0.016 A 
ATOM     14  C   UNL     1      12.721  50.489  31.532  1.00  0.00     0.051 A 
ATOM     15  C   UNL     1      13.873  49.701  31.428  1.00  0.00     0.157 A 
ATOM     16  C   UNL     1      15.227  51.623  32.021  1.00  0.00     0.062 A 
ATOM     17  C   UNL     1      15.128  50.269  31.671  1.00  0.00     0.158 A 
BRANCH  15  18
ATOM     18  O   UNL     1      13.778  48.354  31.082  1.00  0.00    -0.504 OA
ATOM     19  H   UNL     1      13.058  47.757  31.470  1.00  0.00     0.293 HD
ENDBRANCH  15  18
BRANCH  17  20
ATOM     20  O   UNL     1      16.274  49.483  31.564  1.00  0.00    -0.504 OA
ATOM     21  H   UNL     1      16.410  48.847  30.787  1.00  0.00     0.293 HD
ENDBRANCH  17  20
ENDBRANCH   1  12
BRANCH   6  22
ATOM     22  O   UNL     1      14.009  58.771  34.133  1.00  0.00    -0.507 OA
ATOM     23  H   UNL     1      13.491  58.588  34.977  1.00  0.00     0.293 HD
ENDBRANCH   6  22
BRANCH   8  24
ATOM     24  O   UNL     1      18.481  58.045  32.542  1.00  0.00    -0.508 OA
ATOM     25  H   UNL     1      18.734  58.477  31.662  1.00  0.00     0.293 HD
ENDBRANCH   8  24
TORSDOF 5
ENDMDL
MODEL 9
REMARK VINA RESULT:    -4.900      3.177      6.839
REMARK INTER + INTRA:          -6.022
REMARK INTER:                  -5.704
REMARK INTRA:                  -0.317
REMARK UNBOUND:                -0.262
REMARK SMILES O=c1cc(-c2ccc(O)c(O)c2)oc2cc(O)cc(O)c12
REMARK SMILES IDX 4 1 3 2 2 3 1 4 21 5 19 6 18 7 16 8 15 9 14 10 13 11 5 12
REMARK SMILES IDX 6 13 7 14 8 15 12 16 10 17 9 18 11 20 20 22 17 24
REMARK H PARENT 9 19 11 21 20 23 17 25
REMARK Flexibility Score: inf
ROOT
ATOM      1  C   UNL     1      14.368  55.885  32.808  1.00  0.00     0.138 A 
ATOM      2  C   UNL     1      13.024  55.827  33.200  1.00  0.00     0.100 A 
ATOM      3  C   UNL     1      12.291  54.659  32.983  1.00  0.00     0.197 A 
ATOM      4  O   UNL     1      11.103  54.619  33.395  1.00  0.00    -0.289 OA
ATOM      5  C   UNL     1      12.900  53.555  32.338  1.00  0.00     0.107 A 
ATOM      6  C   UNL     1      12.241  52.325  32.034  1.00  0.00     0.134 A 
ATOM      7  C   UNL     1      12.976  51.268  31.482  1.00  0.00     0.093 A 
ATOM      8  C   UNL     1      14.329  51.415  31.170  1.00  0.00     0.123 A 
ATOM      9  C   UNL     1      14.968  52.627  31.417  1.00  0.00     0.094 A 
ATOM     10  C   UNL     1      14.273  53.690  31.999  1.00  0.00     0.146 A 
ATOM     11  O   UNL     1      14.926  54.823  32.234  1.00  0.00    -0.456 OA
ENDROOT
BRANCH   1  12
ATOM     12  C   UNL     1      15.194  57.102  33.012  1.00  0.00     0.021 A 
ATOM     13  C   UNL     1      14.634  58.308  33.475  1.00  0.00     0.016 A 
ATOM     14  C   UNL     1      15.438  59.435  33.666  1.00  0.00     0.051 A 
ATOM     15  C   UNL     1      16.812  59.375  33.406  1.00  0.00     0.157 A 
ATOM     16  C   UNL     1      16.578  57.048  32.766  1.00  0.00     0.062 A 
ATOM     17  C   UNL     1      17.384  58.179  32.957  1.00  0.00     0.158 A 
BRANCH  15  18
ATOM     18  O   UNL     1      17.617  60.498  33.594  1.00  0.00    -0.504 OA
ATOM     19  H   UNL     1      17.503  61.331  33.030  1.00  0.00     0.293 HD
ENDBRANCH  15  18
BRANCH  17  20
ATOM     20  O   UNL     1      18.753  58.121  32.703  1.00  0.00    -0.504 OA
ATOM     21  H   UNL     1      19.418  58.645  33.260  1.00  0.00     0.293 HD
ENDBRANCH  17  20
ENDBRANCH   1  12
BRANCH   6  22
ATOM     22  O   UNL     1      10.875  52.098  32.230  1.00  0.00    -0.507 OA
ATOM     23  H   UNL     1      10.464  51.736  33.076  1.00  0.00     0.293 HD
ENDBRANCH   6  22
BRANCH   8  24
ATOM     24  O   UNL     1      15.047  50.363  30.608  1.00  0.00    -0.508 OA
ATOM     25  H   UNL     1      15.716  50.516  29.862  1.00  0.00     0.293 HD
ENDBRANCH   8  24
TORSDOF 5
ENDMDL
