MODEL 1
REMARK VINA RESULT:    -7.384      0.000      0.000
REMARK INTER + INTRA:          -9.217
REMARK INTER:                  -8.895
REMARK INTRA:                  -0.322
REMARK UNBOUND:                -0.322
REMARK SMILES O=c1c(O)c(-c2ccc(O)c(O)c2)oc2cc(O)cc(O)c12
REMARK SMILES IDX 5 1 3 2 2 3 1 4 22 5 20 6 19 7 17 8 16 9 15 10 14 11 6 12
REMARK SMILES IDX 7 13 8 14 9 15 13 16 11 17 10 18 12 20 4 22 21 24 18 26
REMARK H PARENT 10 19 12 21 4 23 21 25 18 27
REMARK Flexibility Score: inf
ROOT
ATOM      1  C   UNL     1      28.388   2.127  20.554  1.00  0.00     0.180 A 
ATOM      2  C   UNL     1      29.263   3.103  21.062  1.00  0.00     0.208 A 
ATOM      3  C   UNL     1      30.366   3.498  20.290  1.00  0.00     0.238 A 
ATOM      4  O   UNL     1      31.176   4.332  20.774  1.00  0.00    -0.285 OA
ATOM      5  C   UNL     1      30.572   2.925  19.012  1.00  0.00     0.111 A 
ATOM      6  C   UNL     1      31.635   3.279  18.127  1.00  0.00     0.134 A 
ATOM      7  C   UNL     1      31.818   2.556  16.942  1.00  0.00     0.093 A 
ATOM      8  C   UNL     1      30.938   1.532  16.580  1.00  0.00     0.123 A 
ATOM      9  C   UNL     1      29.864   1.219  17.409  1.00  0.00     0.094 A 
ATOM     10  C   UNL     1      29.675   1.899  18.615  1.00  0.00     0.146 A 
ATOM     11  O   UNL     1      28.645   1.561  19.380  1.00  0.00    -0.452 OA
ENDROOT
BRANCH   1  12
ATOM     12  C   UNL     1      27.189   1.678  21.299  1.00  0.00     0.025 A 
ATOM     13  C   UNL     1      27.239   0.581  22.172  1.00  0.00     0.016 A 
ATOM     14  C   UNL     1      26.102   0.191  22.881  1.00  0.00     0.051 A 
ATOM     15  C   UNL     1      24.899   0.893  22.744  1.00  0.00     0.157 A 
ATOM     16  C   UNL     1      25.991   2.398  21.176  1.00  0.00     0.062 A 
ATOM     17  C   UNL     1      24.843   2.014  21.882  1.00  0.00     0.158 A 
BRANCH  15  18
ATOM     18  O   UNL     1      23.797   0.449  23.479  1.00  0.00    -0.504 OA
ATOM     19  H   UNL     1      23.108  -0.198  23.125  1.00  0.00     0.293 HD
ENDBRANCH  15  18
BRANCH  17  20
ATOM     20  O   UNL     1      23.682   2.769  21.702  1.00  0.00    -0.504 OA
ATOM     21  H   UNL     1      23.599   3.743  21.949  1.00  0.00     0.293 HD
ENDBRANCH  17  20
ENDBRANCH   1  12
BRANCH   2  22
ATOM     22  O   UNL     1      29.053   3.639  22.336  1.00  0.00    -0.502 OA
ATOM     23  H   UNL     1      28.648   4.557  22.480  1.00  0.00     0.293 HD
ENDBRANCH   2  22
BRANCH   6  24
ATOM     24  O   UNL     1      32.513   4.344  18.349  1.00  0.00    -0.507 OA
ATOM     25  H   UNL     1      32.233   5.273  18.625  1.00  0.00     0.293 HD
ENDBRANCH   6  24
BRANCH   8  26
ATOM     26  O   UNL     1      31.118   0.827  15.392  1.00  0.00    -0.508 OA
ATOM     27  H   UNL     1      30.639  -0.049  15.219  1.00  0.00     0.293 HD
ENDBRANCH   8  26
TORSDOF 6
ENDMDL
MODEL 2
REMARK VINA RESULT:    -7.368      3.951      6.883
REMARK INTER + INTRA:          -9.197
REMARK INTER:                  -8.877
REMARK INTRA:                  -0.320
REMARK UNBOUND:                -0.322
REMARK SMILES O=c1c(O)c(-c2ccc(O)c(O)c2)oc2cc(O)cc(O)c12
REMARK SMILES IDX 5 1 3 2 2 3 1 4 22 5 20 6 19 7 17 8 16 9 15 10 14 11 6 12
REMARK SMILES IDX 7 13 8 14 9 15 13 16 11 17 10 18 12 20 4 22 21 24 18 26
REMARK H PARENT 10 19 12 21 4 23 21 25 18 27
REMARK Flexibility Score: inf
ROOT
ATOM      1  C   UNL     1      31.253   6.077  18.099  1.00  0.00     0.180 A 
ATOM      2  C   UNL     1      32.535   5.646  17.721  1.00  0.00     0.208 A 
ATOM      3  C   UNL     1      32.731   4.295  17.390  1.00  0.00     0.238 A 
ATOM      4  O   UNL     1      33.893   3.904  17.105  1.00  0.00    -0.285 OA
ATOM      5  C   UNL     1      31.637   3.397  17.425  1.00  0.00     0.111 A 
ATOM      6  C   UNL     1      31.711   2.016  17.071  1.00  0.00     0.134 A 
ATOM      7  C   UNL     1      30.597   1.191  17.268  1.00  0.00     0.093 A 
ATOM      8  C   UNL     1      29.391   1.712  17.746  1.00  0.00     0.123 A 
ATOM      9  C   UNL     1      29.292   3.070  18.038  1.00  0.00     0.094 A 
ATOM     10  C   UNL     1      30.397   3.911  17.885  1.00  0.00     0.146 A 
ATOM     11  O   UNL     1      30.261   5.197  18.186  1.00  0.00    -0.452 OA
ENDROOT
BRANCH   1  12
ATOM     12  C   UNL     1      30.964   7.490  18.437  1.00  0.00     0.025 A 
ATOM     13  C   UNL     1      30.723   8.446  17.439  1.00  0.00     0.016 A 
ATOM     14  C   UNL     1      30.429   9.767  17.783  1.00  0.00     0.051 A 
ATOM     15  C   UNL     1      30.357  10.156  19.125  1.00  0.00     0.157 A 
ATOM     16  C   UNL     1      30.871   7.872  19.784  1.00  0.00     0.062 A 
ATOM     17  C   UNL     1      30.578   9.195  20.140  1.00  0.00     0.158 A 
BRANCH  15  18
ATOM     18  O   UNL     1      30.064  11.493  19.402  1.00  0.00    -0.504 OA
ATOM     19  H   UNL     1      29.188  11.809  19.792  1.00  0.00     0.293 HD
ENDBRANCH  15  18
BRANCH  17  20
ATOM     20  O   UNL     1      30.514   9.507  21.500  1.00  0.00    -0.504 OA
ATOM     21  H   UNL     1      30.552  10.446  21.866  1.00  0.00     0.293 HD
ENDBRANCH  17  20
ENDBRANCH   1  12
BRANCH   2  22
ATOM     22  O   UNL     1      33.606   6.545  17.714  1.00  0.00    -0.502 OA
ATOM     23  H   UNL     1      34.424   6.412  17.133  1.00  0.00     0.293 HD
ENDBRANCH   2  22
BRANCH   6  24
ATOM     24  O   UNL     1      32.838   1.416  16.500  1.00  0.00    -0.507 OA
ATOM     25  H   UNL     1      33.657   1.127  17.013  1.00  0.00     0.293 HD
ENDBRANCH   6  24
BRANCH   8  26
ATOM     26  O   UNL     1      28.282   0.888  17.925  1.00  0.00    -0.508 OA
ATOM     27  H   UNL     1      28.349  -0.119  17.830  1.00  0.00     0.293 HD
ENDBRANCH   8  26
TORSDOF 6
ENDMDL
MODEL 3
REMARK VINA RESULT:    -7.252      3.849      6.631
REMARK INTER + INTRA:          -9.058
REMARK INTER:                  -8.742
REMARK INTRA:                  -0.315
REMARK UNBOUND:                -0.322
REMARK SMILES O=c1c(O)c(-c2ccc(O)c(O)c2)oc2cc(O)cc(O)c12
REMARK SMILES IDX 5 1 3 2 2 3 1 4 22 5 20 6 19 7 17 8 16 9 15 10 14 11 6 12
REMARK SMILES IDX 7 13 8 14 9 15 13 16 11 17 10 18 12 20 4 22 21 24 18 26
REMARK H PARENT 10 19 12 21 4 23 21 25 18 27
REMARK Flexibility Score: inf
ROOT
ATOM      1  C   UNL     1      31.298   5.618  18.376  1.00  0.00     0.180 A 
ATOM      2  C   UNL     1      32.519   5.250  17.786  1.00  0.00     0.208 A 
ATOM      3  C   UNL     1      32.664   3.953  17.269  1.00  0.00     0.238 A 
ATOM      4  O   UNL     1      33.777   3.613  16.791  1.00  0.00    -0.285 OA
ATOM      5  C   UNL     1      31.579   3.045  17.333  1.00  0.00     0.111 A 
ATOM      6  C   UNL     1      31.600   1.719  16.805  1.00  0.00     0.134 A 
ATOM      7  C   UNL     1      30.517   0.864  17.041  1.00  0.00     0.093 A 
ATOM      8  C   UNL     1      29.385   1.309  17.730  1.00  0.00     0.123 A 
ATOM      9  C   UNL     1      29.331   2.619  18.198  1.00  0.00     0.094 A 
ATOM     10  C   UNL     1      30.411   3.485  18.009  1.00  0.00     0.146 A 
ATOM     11  O   UNL     1      30.322   4.723  18.480  1.00  0.00    -0.452 OA
ENDROOT
BRANCH   1  12
ATOM     12  C   UNL     1      31.062   6.975  18.920  1.00  0.00     0.025 A 
ATOM     13  C   UNL     1      31.279   7.268  20.275  1.00  0.00     0.016 A 
ATOM     14  C   UNL     1      31.073   8.560  20.760  1.00  0.00     0.051 A 
ATOM     15  C   UNL     1      30.661   9.587  19.903  1.00  0.00     0.157 A 
ATOM     16  C   UNL     1      30.671   8.008  18.054  1.00  0.00     0.062 A 
ATOM     17  C   UNL     1      30.460   9.308  18.531  1.00  0.00     0.158 A 
BRANCH  15  18
ATOM     18  O   UNL     1      30.468  10.857  20.452  1.00  0.00    -0.504 OA
ATOM     19  H   UNL     1      29.652  11.427  20.282  1.00  0.00     0.293 HD
ENDBRANCH  15  18
BRANCH  17  20
ATOM     20  O   UNL     1      30.058  10.282  17.614  1.00  0.00    -0.504 OA
ATOM     21  H   UNL     1      30.560  11.142  17.449  1.00  0.00     0.293 HD
ENDBRANCH  17  20
ENDBRANCH   1  12
BRANCH   2  22
ATOM     22  O   UNL     1      33.584   6.155  17.752  1.00  0.00    -0.502 OA
ATOM     23  H   UNL     1      33.483   7.102  17.406  1.00  0.00     0.293 HD
ENDBRANCH   2  22
BRANCH   6  24
ATOM     24  O   UNL     1      32.641   1.206  16.025  1.00  0.00    -0.507 OA
ATOM     25  H   UNL     1      33.376   1.759  15.613  1.00  0.00     0.293 HD
ENDBRANCH   6  24
BRANCH   8  26
ATOM     26  O   UNL     1      28.304   0.457  17.947  1.00  0.00    -0.508 OA
ATOM     27  H   UNL     1      27.359   0.727  17.702  1.00  0.00     0.293 HD
ENDBRANCH   8  26
TORSDOF 6
ENDMDL
MODEL 4
REMARK VINA RESULT:    -7.216      1.341      2.982
REMARK INTER + INTRA:          -9.015
REMARK INTER:                  -8.680
REMARK INTRA:                  -0.335
REMARK UNBOUND:                -0.322
REMARK SMILES O=c1c(O)c(-c2ccc(O)c(O)c2)oc2cc(O)cc(O)c12
REMARK SMILES IDX 5 1 3 2 2 3 1 4 22 5 20 6 19 7 17 8 16 9 15 10 14 11 6 12
REMARK SMILES IDX 7 13 8 14 9 15 13 16 11 17 10 18 12 20 4 22 21 24 18 26
REMARK H PARENT 10 19 12 21 4 23 21 25 18 27
REMARK Flexibility Score: inf
ROOT
ATOM      1  C   UNL     1      28.057   2.272  20.273  1.00  0.00     0.180 A 
ATOM      2  C   UNL     1      28.320   1.660  19.036  1.00  0.00     0.208 A 
ATOM      3  C   UNL     1      29.346   2.172  18.226  1.00  0.00     0.238 A 
ATOM      4  O   UNL     1      29.541   1.654  17.096  1.00  0.00    -0.285 OA
ATOM      5  C   UNL     1      30.108   3.279  18.671  1.00  0.00     0.111 A 
ATOM      6  C   UNL     1      31.197   3.855  17.951  1.00  0.00     0.134 A 
ATOM      7  C   UNL     1      31.795   5.030  18.425  1.00  0.00     0.093 A 
ATOM      8  C   UNL     1      31.385   5.612  19.628  1.00  0.00     0.123 A 
ATOM      9  C   UNL     1      30.362   5.024  20.367  1.00  0.00     0.094 A 
ATOM     10  C   UNL     1      29.723   3.872  19.902  1.00  0.00     0.146 A 
ATOM     11  O   UNL     1      28.745   3.350  20.633  1.00  0.00    -0.452 OA
ENDROOT
BRANCH   1  12
ATOM     12  C   UNL     1      27.008   1.774  21.192  1.00  0.00     0.025 A 
ATOM     13  C   UNL     1      27.285   0.790  22.153  1.00  0.00     0.016 A 
ATOM     14  C   UNL     1      26.287   0.353  23.025  1.00  0.00     0.051 A 
ATOM     15  C   UNL     1      24.999   0.895  22.964  1.00  0.00     0.157 A 
ATOM     16  C   UNL     1      25.723   2.336  21.144  1.00  0.00     0.062 A 
ATOM     17  C   UNL     1      24.713   1.903  22.013  1.00  0.00     0.158 A 
BRANCH  15  18
ATOM     18  O   UNL     1      24.043   0.412  23.861  1.00  0.00    -0.504 OA
ATOM     19  H   UNL     1      23.191  -0.053  23.582  1.00  0.00     0.293 HD
ENDBRANCH  15  18
BRANCH  17  20
ATOM     20  O   UNL     1      23.455   2.499  21.899  1.00  0.00    -0.504 OA
ATOM     21  H   UNL     1      23.302   3.434  21.552  1.00  0.00     0.293 HD
ENDBRANCH  17  20
ENDBRANCH   1  12
BRANCH   2  22
ATOM     22  O   UNL     1      27.541   0.582  18.606  1.00  0.00    -0.502 OA
ATOM     23  H   UNL     1      27.372  -0.232  19.185  1.00  0.00     0.293 HD
ENDBRANCH   2  22
BRANCH   6  24
ATOM     24  O   UNL     1      31.745   3.302  16.790  1.00  0.00    -0.507 OA
ATOM     25  H   UNL     1      32.471   3.730  16.236  1.00  0.00     0.293 HD
ENDBRANCH   6  24
BRANCH   8  26
ATOM     26  O   UNL     1      31.996   6.771  20.101  1.00  0.00    -0.508 OA
ATOM     27  H   UNL     1      32.257   7.525  19.476  1.00  0.00     0.293 HD
ENDBRANCH   8  26
TORSDOF 6
ENDMDL
MODEL 5
REMARK VINA RESULT:    -7.074      4.642      6.952
REMARK INTER + INTRA:          -8.843
REMARK INTER:                  -8.516
REMARK INTRA:                  -0.327
REMARK UNBOUND:                -0.322
REMARK SMILES O=c1c(O)c(-c2ccc(O)c(O)c2)oc2cc(O)cc(O)c12
REMARK SMILES IDX 5 1 3 2 2 3 1 4 22 5 20 6 19 7 17 8 16 9 15 10 14 11 6 12
REMARK SMILES IDX 7 13 8 14 9 15 13 16 11 17 10 18 12 20 4 22 21 24 18 26
REMARK H PARENT 10 19 12 21 4 23 21 25 18 27
REMARK Flexibility Score: inf
ROOT
ATOM      1  C   UNL     1      31.367   4.453  18.468  1.00  0.00     0.180 A 
ATOM      2  C   UNL     1      31.616   4.535  19.848  1.00  0.00     0.208 A 
ATOM      3  C   UNL     1      31.483   5.776  20.492  1.00  0.00     0.238 A 
ATOM      4  O   UNL     1      31.760   5.854  21.717  1.00  0.00    -0.285 OA
ATOM      5  C   UNL     1      31.085   6.914  19.751  1.00  0.00     0.111 A 
ATOM      6  C   UNL     1      30.880   8.212  20.308  1.00  0.00     0.134 A 
ATOM      7  C   UNL     1      30.614   9.295  19.460  1.00  0.00     0.093 A 
ATOM      8  C   UNL     1      30.483   9.113  18.080  1.00  0.00     0.123 A 
ATOM      9  C   UNL     1      30.623   7.839  17.534  1.00  0.00     0.094 A 
ATOM     10  C   UNL     1      30.923   6.746  18.351  1.00  0.00     0.146 A 
ATOM     11  O   UNL     1      31.060   5.552  17.788  1.00  0.00    -0.452 OA
ENDROOT
BRANCH   1  12
ATOM     12  C   UNL     1      31.463   3.175  17.724  1.00  0.00     0.025 A 
ATOM     13  C   UNL     1      30.341   2.354  17.534  1.00  0.00     0.016 A 
ATOM     14  C   UNL     1      30.450   1.166  16.810  1.00  0.00     0.051 A 
ATOM     15  C   UNL     1      31.673   0.781  16.250  1.00  0.00     0.157 A 
ATOM     16  C   UNL     1      32.686   2.803  17.145  1.00  0.00     0.062 A 
ATOM     17  C   UNL     1      32.806   1.612  16.417  1.00  0.00     0.158 A 
BRANCH  15  18
ATOM     18  O   UNL     1      31.717  -0.421  15.540  1.00  0.00    -0.504 OA
ATOM     19  H   UNL     1      32.230  -1.236  15.843  1.00  0.00     0.293 HD
ENDBRANCH  15  18
BRANCH  17  20
ATOM     20  O   UNL     1      34.057   1.299  15.881  1.00  0.00    -0.504 OA
ATOM     21  H   UNL     1      34.831   0.947  16.423  1.00  0.00     0.293 HD
ENDBRANCH  17  20
ENDBRANCH   1  12
BRANCH   2  22
ATOM     22  O   UNL     1      32.029   3.403  20.556  1.00  0.00    -0.502 OA
ATOM     23  H   UNL     1      32.925   2.958  20.397  1.00  0.00     0.293 HD
ENDBRANCH   2  22
BRANCH   6  24
ATOM     24  O   UNL     1      30.897   8.485  21.679  1.00  0.00    -0.507 OA
ATOM     25  H   UNL     1      31.372   9.267  22.104  1.00  0.00     0.293 HD
ENDBRANCH   6  24
BRANCH   8  26
ATOM     26  O   UNL     1      30.203  10.192  17.244  1.00  0.00    -0.508 OA
ATOM     27  H   UNL     1      30.863  10.502  16.541  1.00  0.00     0.293 HD
ENDBRANCH   8  26
TORSDOF 6
ENDMDL
MODEL 6
REMARK VINA RESULT:    -7.068      4.355      6.034
REMARK INTER + INTRA:          -8.836
REMARK INTER:                  -8.522
REMARK INTRA:                  -0.314
REMARK UNBOUND:                -0.322
REMARK SMILES O=c1c(O)c(-c2ccc(O)c(O)c2)oc2cc(O)cc(O)c12
REMARK SMILES IDX 5 1 3 2 2 3 1 4 22 5 20 6 19 7 17 8 16 9 15 10 14 11 6 12
REMARK SMILES IDX 7 13 8 14 9 15 13 16 11 17 10 18 12 20 4 22 21 24 18 26
REMARK H PARENT 10 19 12 21 4 23 21 25 18 27
REMARK Flexibility Score: inf
ROOT
ATOM      1  C   UNL     1      31.492   4.274  18.401  1.00  0.00     0.180 A 
ATOM      2  C   UNL     1      30.492   3.332  18.109  1.00  0.00     0.208 A 
ATOM      3  C   UNL     1      30.819   2.206  17.336  1.00  0.00     0.238 A 
ATOM      4  O   UNL     1      29.907   1.394  17.032  1.00  0.00    -0.285 OA
ATOM      5  C   UNL     1      32.147   2.029  16.879  1.00  0.00     0.111 A 
ATOM      6  C   UNL     1      32.601   0.907  16.122  1.00  0.00     0.134 A 
ATOM      7  C   UNL     1      33.905   0.899  15.611  1.00  0.00     0.093 A 
ATOM      8  C   UNL     1      34.792   1.945  15.885  1.00  0.00     0.123 A 
ATOM      9  C   UNL     1      34.376   3.016  16.672  1.00  0.00     0.094 A 
ATOM     10  C   UNL     1      33.071   3.069  17.166  1.00  0.00     0.146 A 
ATOM     11  O   UNL     1      32.713   4.113  17.903  1.00  0.00    -0.452 OA
ENDROOT
BRANCH   1  12
ATOM     12  C   UNL     1      31.228   5.472  19.231  1.00  0.00     0.025 A 
ATOM     13  C   UNL     1      31.524   5.491  20.603  1.00  0.00     0.016 A 
ATOM     14  C   UNL     1      31.289   6.640  21.360  1.00  0.00     0.051 A 
ATOM     15  C   UNL     1      30.768   7.793  20.764  1.00  0.00     0.157 A 
ATOM     16  C   UNL     1      30.727   6.635  18.626  1.00  0.00     0.062 A 
ATOM     17  C   UNL     1      30.486   7.793  19.377  1.00  0.00     0.158 A 
BRANCH  15  18
ATOM     18  O   UNL     1      30.552   8.908  21.578  1.00  0.00    -0.504 OA
ATOM     19  H   UNL     1      29.672   9.398  21.641  1.00  0.00     0.293 HD
ENDBRANCH  15  18
BRANCH  17  20
ATOM     20  O   UNL     1      29.975   8.908  18.711  1.00  0.00    -0.504 OA
ATOM     21  H   UNL     1      29.990   9.845  19.085  1.00  0.00     0.293 HD
ENDBRANCH  17  20
ENDBRANCH   1  12
BRANCH   2  22
ATOM     22  O   UNL     1      29.182   3.537  18.552  1.00  0.00    -0.502 OA
ATOM     23  H   UNL     1      28.374   3.231  18.023  1.00  0.00     0.293 HD
ENDBRANCH   2  22
BRANCH   6  24
ATOM     24  O   UNL     1      31.826  -0.229  15.870  1.00  0.00    -0.507 OA
ATOM     25  H   UNL     1      31.230  -0.351  15.067  1.00  0.00     0.293 HD
ENDBRANCH   6  24
BRANCH   8  26
ATOM     26  O   UNL     1      36.092   1.922  15.386  1.00  0.00    -0.508 OA
ATOM     27  H   UNL     1      36.287   1.670  14.424  1.00  0.00     0.293 HD
ENDBRANCH   8  26
TORSDOF 6
ENDMDL
MODEL 7
REMARK VINA RESULT:    -6.999      2.678      6.170
REMARK INTER + INTRA:          -8.753
REMARK INTER:                  -8.436
REMARK INTRA:                  -0.317
REMARK UNBOUND:                -0.322
REMARK SMILES O=c1c(O)c(-c2ccc(O)c(O)c2)oc2cc(O)cc(O)c12
REMARK SMILES IDX 5 1 3 2 2 3 1 4 22 5 20 6 19 7 17 8 16 9 15 10 14 11 6 12
REMARK SMILES IDX 7 13 8 14 9 15 13 16 11 17 10 18 12 20 4 22 21 24 18 26
REMARK H PARENT 10 19 12 21 4 23 21 25 18 27
REMARK Flexibility Score: inf
ROOT
ATOM      1  C   UNL     1      29.939   3.486  19.760  1.00  0.00     0.180 A 
ATOM      2  C   UNL     1      30.840   2.455  19.447  1.00  0.00     0.208 A 
ATOM      3  C   UNL     1      30.339   1.173  19.170  1.00  0.00     0.238 A 
ATOM      4  O   UNL     1      31.153   0.241  18.943  1.00  0.00    -0.285 OA
ATOM      5  C   UNL     1      28.942   0.943  19.195  1.00  0.00     0.111 A 
ATOM      6  C   UNL     1      28.321  -0.306  18.892  1.00  0.00     0.134 A 
ATOM      7  C   UNL     1      26.940  -0.454  19.075  1.00  0.00     0.093 A 
ATOM      8  C   UNL     1      26.150   0.622  19.488  1.00  0.00     0.123 A 
ATOM      9  C   UNL     1      26.738   1.861  19.729  1.00  0.00     0.094 A 
ATOM     10  C   UNL     1      28.118   2.029  19.589  1.00  0.00     0.146 A 
ATOM     11  O   UNL     1      28.640   3.224  19.840  1.00  0.00    -0.452 OA
ENDROOT
BRANCH   1  12
ATOM     12  C   UNL     1      30.391   4.870  20.038  1.00  0.00     0.025 A 
ATOM     13  C   UNL     1      30.806   5.260  21.321  1.00  0.00     0.016 A 
ATOM     14  C   UNL     1      31.250   6.563  21.554  1.00  0.00     0.051 A 
ATOM     15  C   UNL     1      31.302   7.496  20.512  1.00  0.00     0.157 A 
ATOM     16  C   UNL     1      30.463   5.797  18.987  1.00  0.00     0.062 A 
ATOM     17  C   UNL     1      30.906   7.108  19.210  1.00  0.00     0.158 A 
BRANCH  15  18
ATOM     18  O   UNL     1      31.751   8.784  20.812  1.00  0.00    -0.504 OA
ATOM     19  H   UNL     1      31.244   9.439  21.389  1.00  0.00     0.293 HD
ENDBRANCH  15  18
BRANCH  17  20
ATOM     20  O   UNL     1      30.939   7.980  18.121  1.00  0.00    -0.504 OA
ATOM     21  H   UNL     1      30.768   7.698  17.167  1.00  0.00     0.293 HD
ENDBRANCH  17  20
ENDBRANCH   1  12
BRANCH   2  22
ATOM     22  O   UNL     1      32.217   2.698  19.449  1.00  0.00    -0.502 OA
ATOM     23  H   UNL     1      32.900   1.961  19.574  1.00  0.00     0.293 HD
ENDBRANCH   2  22
BRANCH   6  24
ATOM     24  O   UNL     1      29.005  -1.415  18.385  1.00  0.00    -0.507 OA
ATOM     25  H   UNL     1      28.619  -2.343  18.310  1.00  0.00     0.293 HD
ENDBRANCH   6  24
BRANCH   8  26
ATOM     26  O   UNL     1      24.774   0.471  19.653  1.00  0.00    -0.508 OA
ATOM     27  H   UNL     1      24.113   0.993  19.090  1.00  0.00     0.293 HD
ENDBRANCH   8  26
TORSDOF 6
ENDMDL
MODEL 8
REMARK VINA RESULT:    -6.972      3.279      6.444
REMARK INTER + INTRA:          -8.721
REMARK INTER:                  -8.397
REMARK INTRA:                  -0.324
REMARK UNBOUND:                -0.322
REMARK SMILES O=c1c(O)c(-c2ccc(O)c(O)c2)oc2cc(O)cc(O)c12
REMARK SMILES IDX 5 1 3 2 2 3 1 4 22 5 20 6 19 7 17 8 16 9 15 10 14 11 6 12
REMARK SMILES IDX 7 13 8 14 9 15 13 16 11 17 10 18 12 20 4 22 21 24 18 26
REMARK H PARENT 10 19 12 21 4 23 21 25 18 27
REMARK Flexibility Score: inf
ROOT
ATOM      1  C   UNL     1      30.505   4.774  19.858  1.00  0.00     0.180 A 
ATOM      2  C   UNL     1      31.680   4.057  20.143  1.00  0.00     0.208 A 
ATOM      3  C   UNL     1      31.590   2.683  20.417  1.00  0.00     0.238 A 
ATOM      4  O   UNL     1      32.638   2.058  20.725  1.00  0.00    -0.285 OA
ATOM      5  C   UNL     1      30.330   2.040  20.387  1.00  0.00     0.111 A 
ATOM      6  C   UNL     1      30.126   0.645  20.610  1.00  0.00     0.134 A 
ATOM      7  C   UNL     1      28.822   0.140  20.685  1.00  0.00     0.093 A 
ATOM      8  C   UNL     1      27.716   0.970  20.481  1.00  0.00     0.123 A 
ATOM      9  C   UNL     1      27.906   2.321  20.204  1.00  0.00     0.094 A 
ATOM     10  C   UNL     1      29.194   2.861  20.158  1.00  0.00     0.146 A 
ATOM     11  O   UNL     1      29.330   4.156  19.902  1.00  0.00    -0.452 OA
ENDROOT
BRANCH   1  12
ATOM     12  C   UNL     1      30.523   6.219  19.535  1.00  0.00     0.025 A 
ATOM     13  C   UNL     1      30.574   6.671  18.207  1.00  0.00     0.016 A 
ATOM     14  C   UNL     1      30.565   8.038  17.925  1.00  0.00     0.051 A 
ATOM     15  C   UNL     1      30.493   8.979  18.958  1.00  0.00     0.157 A 
ATOM     16  C   UNL     1      30.427   7.160  20.571  1.00  0.00     0.062 A 
ATOM     17  C   UNL     1      30.419   8.535  20.300  1.00  0.00     0.158 A 
BRANCH  15  18
ATOM     18  O   UNL     1      30.493  10.332  18.610  1.00  0.00    -0.504 OA
ATOM     19  H   UNL     1      29.715  10.800  18.167  1.00  0.00     0.293 HD
ENDBRANCH  15  18
BRANCH  17  20
ATOM     20  O   UNL     1      30.335   9.414  21.381  1.00  0.00    -0.504 OA
ATOM     21  H   UNL     1      29.791   9.235  22.212  1.00  0.00     0.293 HD
ENDBRANCH  17  20
ENDBRANCH   1  12
BRANCH   2  22
ATOM     22  O   UNL     1      32.912   4.716  20.189  1.00  0.00    -0.502 OA
ATOM     23  H   UNL     1      33.729   4.378  19.696  1.00  0.00     0.293 HD
ENDBRANCH   2  22
BRANCH   6  24
ATOM     24  O   UNL     1      31.163  -0.285  20.734  1.00  0.00    -0.507 OA
ATOM     25  H   UNL     1      31.066  -1.203  21.140  1.00  0.00     0.293 HD
ENDBRANCH   6  24
BRANCH   8  26
ATOM     26  O   UNL     1      26.422   0.456  20.541  1.00  0.00    -0.508 OA
ATOM     27  H   UNL     1      25.833   0.406  19.718  1.00  0.00     0.293 HD
ENDBRANCH   8  26
TORSDOF 6
ENDMDL
MODEL 9
REMARK VINA RESULT:    -6.922      2.321      6.725
REMARK INTER + INTRA:          -8.661
REMARK INTER:                  -8.338
REMARK INTRA:                  -0.322
REMARK UNBOUND:                -0.322
REMARK SMILES O=c1c(O)c(-c2ccc(O)c(O)c2)oc2cc(O)cc(O)c12
REMARK SMILES IDX 5 1 3 2 2 3 1 4 22 5 20 6 19 7 17 8 16 9 15 10 14 11 6 12
REMARK SMILES IDX 7 13 8 14 9 15 13 16 11 17 10 18 12 20 4 22 21 24 18 26
REMARK H PARENT 10 19 12 21 4 23 21 25 18 27
REMARK Flexibility Score: inf
ROOT
ATOM      1  C   UNL     1      29.289   3.178  20.757  1.00  0.00     0.180 A 
ATOM      2  C   UNL     1      29.893   1.910  20.722  1.00  0.00     0.208 A 
ATOM      3  C   UNL     1      29.105   0.773  20.961  1.00  0.00     0.238 A 
ATOM      4  O   UNL     1      29.662  -0.355  20.983  1.00  0.00    -0.285 OA
ATOM      5  C   UNL     1      27.720   0.918  21.216  1.00  0.00     0.111 A 
ATOM      6  C   UNL     1      26.818  -0.167  21.433  1.00  0.00     0.134 A 
ATOM      7  C   UNL     1      25.494   0.097  21.806  1.00  0.00     0.093 A 
ATOM      8  C   UNL     1      25.023   1.410  21.906  1.00  0.00     0.123 A 
ATOM      9  C   UNL     1      25.880   2.474  21.639  1.00  0.00     0.094 A 
ATOM     10  C   UNL     1      27.216   2.242  21.299  1.00  0.00     0.146 A 
ATOM     11  O   UNL     1      28.001   3.286  21.063  1.00  0.00    -0.452 OA
ENDROOT
BRANCH   1  12
ATOM     12  C   UNL     1      30.049   4.421  20.489  1.00  0.00     0.025 A 
ATOM     13  C   UNL     1      30.667   5.138  21.525  1.00  0.00     0.016 A 
ATOM     14  C   UNL     1      31.398   6.294  21.245  1.00  0.00     0.051 A 
ATOM     15  C   UNL     1      31.539   6.749  19.930  1.00  0.00     0.157 A 
ATOM     16  C   UNL     1      30.207   4.863  19.166  1.00  0.00     0.062 A 
ATOM     17  C   UNL     1      30.938   6.022  18.875  1.00  0.00     0.158 A 
BRANCH  15  18
ATOM     18  O   UNL     1      32.280   7.914  19.718  1.00  0.00    -0.504 OA
ATOM     19  H   UNL     1      32.586   8.530  20.457  1.00  0.00     0.293 HD
ENDBRANCH  15  18
BRANCH  17  20
ATOM     20  O   UNL     1      31.042   6.409  17.537  1.00  0.00    -0.504 OA
ATOM     21  H   UNL     1      30.919   7.356  17.213  1.00  0.00     0.293 HD
ENDBRANCH  17  20
ENDBRANCH   1  12
BRANCH   2  22
ATOM     22  O   UNL     1      31.266   1.792  20.490  1.00  0.00    -0.502 OA
ATOM     23  H   UNL     1      31.879   2.596  20.429  1.00  0.00     0.293 HD
ENDBRANCH   2  22
BRANCH   6  24
ATOM     24  O   UNL     1      27.162  -1.513  21.269  1.00  0.00    -0.507 OA
ATOM     25  H   UNL     1      27.496  -1.920  20.409  1.00  0.00     0.293 HD
ENDBRANCH   6  24
BRANCH   8  26
ATOM     26  O   UNL     1      23.701   1.665  22.262  1.00  0.00    -0.508 OA
ATOM     27  H   UNL     1      23.405   2.580  22.581  1.00  0.00     0.293 HD
ENDBRANCH   8  26
TORSDOF 6
ENDMDL
