MODEL 1
REMARK VINA RESULT:    -4.038      0.000      0.000
REMARK INTER + INTRA:          -9.305
REMARK INTER:                  -7.342
REMARK INTRA:                  -1.963
REMARK UNBOUND:                -1.963
REMARK SMILES CCCCCCCCCCCCCCCC(=O)[O-]
REMARK SMILES IDX 9 1 10 2 11 3 12 4 13 5 14 6 15 7 16 8 17 9 18 10 8 11 7 12
REMARK SMILES IDX 6 13 5 14 4 15 3 16 2 17 1 18
REMARK H PARENT
REMARK Flexibility Score: inf
ROOT
ATOM      1  C   UNL     1      16.373  21.609 -11.279  1.00  0.00     0.000 C 
ENDROOT
BRANCH   1   2
ATOM      2  C   UNL     1      17.752  22.282 -11.185  1.00  0.00     0.000 C 
BRANCH   2   3
ATOM      3  C   UNL     1      17.675  23.705 -10.610  1.00  0.00     0.000 C 
BRANCH   3   4
ATOM      4  C   UNL     1      18.518  23.880  -9.333  1.00  0.00     0.000 C 
BRANCH   4   5
ATOM      5  C   UNL     1      17.859  23.216  -8.105  1.00  0.00     0.000 C 
BRANCH   5   6
ATOM      6  C   UNL     1      18.809  22.296  -7.319  1.00  0.00     0.006 C 
BRANCH   6   7
ATOM      7  C   UNL     1      19.264  21.076  -8.127  1.00  0.00     0.053 C 
BRANCH   7   8
ATOM      8  C   UNL     1      18.651  19.827  -7.578  1.00  0.00     0.041 C 
ATOM      9  O   UNL     1      19.030  18.700  -7.991  1.00  0.00    -0.550 OA
ATOM     10  O   UNL     1      17.625  19.908  -6.645  1.00  0.00    -0.550 OA
ENDBRANCH   7   8
ENDBRANCH   6   7
ENDBRANCH   5   6
ENDBRANCH   4   5
ENDBRANCH   3   4
ENDBRANCH   2   3
ENDBRANCH   1   2
BRANCH   1  11
ATOM     11  C   UNL     1      16.156  20.538 -10.193  1.00  0.00     0.000 C 
BRANCH  11  12
ATOM     12  C   UNL     1      15.174  20.933  -9.072  1.00  0.00    -0.000 C 
BRANCH  12  13
ATOM     13  C   UNL     1      14.516  22.319  -9.233  1.00  0.00    -0.000 C 
BRANCH  13  14
ATOM     14  C   UNL     1      13.105  22.304  -9.850  1.00  0.00    -0.000 C 
BRANCH  14  15
ATOM     15  C   UNL     1      12.736  23.635 -10.527  1.00  0.00    -0.000 C 
BRANCH  15  16
ATOM     16  C   UNL     1      13.752  24.051 -11.603  1.00  0.00    -0.000 C 
BRANCH  16  17
ATOM     17  C   UNL     1      13.082  24.622 -12.862  1.00  0.00    -0.003 C 
ATOM     18  C   UNL     1      12.406  25.958 -12.565  1.00  0.00     0.004 C 
ENDBRANCH  16  17
ENDBRANCH  15  16
ENDBRANCH  14  15
ENDBRANCH  13  14
ENDBRANCH  12  13
ENDBRANCH  11  12
ENDBRANCH   1  11
TORSDOF 14
ENDMDL
MODEL 2
REMARK VINA RESULT:    -4.019      2.777      4.380
REMARK INTER + INTRA:          -9.272
REMARK INTER:                  -6.568
REMARK INTRA:                  -2.703
REMARK UNBOUND:                -1.963
REMARK SMILES CCCCCCCCCCCCCCCC(=O)[O-]
REMARK SMILES IDX 9 1 10 2 11 3 12 4 13 5 14 6 15 7 16 8 17 9 18 10 8 11 7 12
REMARK SMILES IDX 6 13 5 14 4 15 3 16 2 17 1 18
REMARK H PARENT
REMARK Flexibility Score: inf
ROOT
ATOM      1  C   UNL     1      19.081  22.102  -6.700  1.00  0.00     0.000 C 
ENDROOT
BRANCH   1   2
ATOM      2  C   UNL     1      18.352  23.190  -7.507  1.00  0.00     0.000 C 
BRANCH   2   3
ATOM      3  C   UNL     1      16.855  23.271  -7.168  1.00  0.00     0.000 C 
BRANCH   3   4
ATOM      4  C   UNL     1      16.434  22.271  -6.077  1.00  0.00     0.000 C 
BRANCH   4   5
ATOM      5  C   UNL     1      15.240  21.397  -6.519  1.00  0.00     0.000 C 
BRANCH   5   6
ATOM      6  C   UNL     1      15.433  19.898  -6.227  1.00  0.00     0.006 C 
BRANCH   6   7
ATOM      7  C   UNL     1      16.659  19.614  -5.354  1.00  0.00     0.053 C 
BRANCH   7   8
ATOM      8  C   UNL     1      16.324  18.616  -4.290  1.00  0.00     0.041 C 
ATOM      9  O   UNL     1      15.245  17.968  -4.347  1.00  0.00    -0.550 OA
ATOM     10  O   UNL     1      17.177  18.437  -3.210  1.00  0.00    -0.550 OA
ENDBRANCH   7   8
ENDBRANCH   6   7
ENDBRANCH   5   6
ENDBRANCH   4   5
ENDBRANCH   3   4
ENDBRANCH   2   3
ENDBRANCH   1   2
BRANCH   1  11
ATOM     11  C   UNL     1      19.520  20.908  -7.569  1.00  0.00     0.000 C 
BRANCH  11  12
ATOM     12  C   UNL     1      18.940  20.892  -8.998  1.00  0.00    -0.000 C 
BRANCH  12  13
ATOM     13  C   UNL     1      17.751  19.934  -9.214  1.00  0.00    -0.000 C 
BRANCH  13  14
ATOM     14  C   UNL     1      16.488  20.586  -9.808  1.00  0.00    -0.000 C 
BRANCH  14  15
ATOM     15  C   UNL     1      16.788  21.452 -11.043  1.00  0.00    -0.000 C 
BRANCH  15  16
ATOM     16  C   UNL     1      16.361  22.917 -10.855  1.00  0.00    -0.000 C 
BRANCH  16  17
ATOM     17  C   UNL     1      17.529  23.901 -11.015  1.00  0.00    -0.003 C 
ATOM     18  C   UNL     1      18.683  23.262 -11.784  1.00  0.00     0.004 C 
ENDBRANCH  16  17
ENDBRANCH  15  16
ENDBRANCH  14  15
ENDBRANCH  13  14
ENDBRANCH  12  13
ENDBRANCH  11  12
ENDBRANCH   1  11
TORSDOF 14
ENDMDL
MODEL 3
REMARK VINA RESULT:    -4.000      2.970      5.321
REMARK INTER + INTRA:          -9.237
REMARK INTER:                  -6.742
REMARK INTRA:                  -2.495
REMARK UNBOUND:                -1.963
REMARK SMILES CCCCCCCCCCCCCCCC(=O)[O-]
REMARK SMILES IDX 9 1 10 2 11 3 12 4 13 5 14 6 15 7 16 8 17 9 18 10 8 11 7 12
REMARK SMILES IDX 6 13 5 14 4 15 3 16 2 17 1 18
REMARK H PARENT
REMARK Flexibility Score: inf
ROOT
ATOM      1  C   UNL     1      18.928  20.903  -5.784  1.00  0.00     0.000 C 
ENDROOT
BRANCH   1   2
ATOM      2  C   UNL     1      19.648  22.026  -6.550  1.00  0.00     0.000 C 
BRANCH   2   3
ATOM      3  C   UNL     1      18.671  22.987  -7.244  1.00  0.00     0.000 C 
BRANCH   3   4
ATOM      4  C   UNL     1      18.452  22.646  -8.730  1.00  0.00     0.000 C 
BRANCH   4   5
ATOM      5  C   UNL     1      18.283  23.912  -9.598  1.00  0.00     0.000 C 
BRANCH   5   6
ATOM      6  C   UNL     1      17.521  23.660 -10.911  1.00  0.00     0.006 C 
BRANCH   6   7
ATOM      7  C   UNL     1      17.204  22.178 -11.142  1.00  0.00     0.053 C 
BRANCH   7   8
ATOM      8  C   UNL     1      15.724  21.961 -11.179  1.00  0.00     0.041 C 
ATOM      9  O   UNL     1      15.250  20.918 -11.702  1.00  0.00    -0.550 OA
ATOM     10  O   UNL     1      14.865  22.933 -10.683  1.00  0.00    -0.550 OA
ENDBRANCH   7   8
ENDBRANCH   6   7
ENDBRANCH   5   6
ENDBRANCH   4   5
ENDBRANCH   3   4
ENDBRANCH   2   3
ENDBRANCH   1   2
BRANCH   1  11
ATOM     11  C   UNL     1      19.352  19.497  -6.250  1.00  0.00     0.000 C 
BRANCH  11  12
ATOM     12  C   UNL     1      18.203  18.604  -6.761  1.00  0.00    -0.000 C 
BRANCH  12  13
ATOM     13  C   UNL     1      18.013  18.589  -8.291  1.00  0.00    -0.000 C 
BRANCH  13  14
ATOM     14  C   UNL     1      16.777  19.351  -8.803  1.00  0.00    -0.000 C 
BRANCH  14  15
ATOM     15  C   UNL     1      15.728  19.592  -7.705  1.00  0.00    -0.000 C 
BRANCH  15  16
ATOM     16  C   UNL     1      15.251  21.052  -7.654  1.00  0.00    -0.000 C 
BRANCH  16  17
ATOM     17  C   UNL     1      15.362  21.664  -6.250  1.00  0.00    -0.003 C 
ATOM     18  C   UNL     1      15.266  20.587  -5.173  1.00  0.00     0.004 C 
ENDBRANCH  16  17
ENDBRANCH  15  16
ENDBRANCH  14  15
ENDBRANCH  13  14
ENDBRANCH  12  13
ENDBRANCH  11  12
ENDBRANCH   1  11
TORSDOF 14
ENDMDL
MODEL 4
REMARK VINA RESULT:    -3.968      3.357      5.516
REMARK INTER + INTRA:          -9.178
REMARK INTER:                  -6.885
REMARK INTRA:                  -2.293
REMARK UNBOUND:                -1.963
REMARK SMILES CCCCCCCCCCCCCCCC(=O)[O-]
REMARK SMILES IDX 9 1 10 2 11 3 12 4 13 5 14 6 15 7 16 8 17 9 18 10 8 11 7 12
REMARK SMILES IDX 6 13 5 14 4 15 3 16 2 17 1 18
REMARK H PARENT
REMARK Flexibility Score: inf
ROOT
ATOM      1  C   UNL     1      18.649  22.912  -7.794  1.00  0.00     0.000 C 
ENDROOT
BRANCH   1   2
ATOM      2  C   UNL     1      17.348  23.246  -7.046  1.00  0.00     0.000 C 
BRANCH   2   3
ATOM      3  C   UNL     1      16.650  21.995  -6.489  1.00  0.00     0.000 C 
BRANCH   3   4
ATOM      4  C   UNL     1      15.130  22.176  -6.336  1.00  0.00     0.000 C 
BRANCH   4   5
ATOM      5  C   UNL     1      14.489  22.807  -7.591  1.00  0.00     0.000 C 
BRANCH   5   6
ATOM      6  C   UNL     1      12.990  23.112  -7.429  1.00  0.00     0.006 C 
BRANCH   6   7
ATOM      7  C   UNL     1      12.688  23.992  -6.212  1.00  0.00     0.053 C 
BRANCH   7   8
ATOM      8  C   UNL     1      11.750  23.292  -5.280  1.00  0.00     0.041 C 
ATOM      9  O   UNL     1      11.557  22.052  -5.388  1.00  0.00    -0.550 OA
ATOM     10  O   UNL     1      11.050  24.017  -4.324  1.00  0.00    -0.550 OA
ENDBRANCH   7   8
ENDBRANCH   6   7
ENDBRANCH   5   6
ENDBRANCH   4   5
ENDBRANCH   3   4
ENDBRANCH   2   3
ENDBRANCH   1   2
BRANCH   1  11
ATOM     11  C   UNL     1      18.996  21.412  -7.748  1.00  0.00     0.000 C 
BRANCH  11  12
ATOM     12  C   UNL     1      18.930  20.683  -9.106  1.00  0.00    -0.000 C 
BRANCH  12  13
ATOM     13  C   UNL     1      17.676  19.812  -9.324  1.00  0.00    -0.000 C 
BRANCH  13  14
ATOM     14  C   UNL     1      16.436  20.568  -9.833  1.00  0.00    -0.000 C 
BRANCH  14  15
ATOM     15  C   UNL     1      16.739  21.464 -11.045  1.00  0.00    -0.000 C 
BRANCH  15  16
ATOM     16  C   UNL     1      16.350  22.932 -10.807  1.00  0.00    -0.000 C 
BRANCH  16  17
ATOM     17  C   UNL     1      17.545  23.889 -10.929  1.00  0.00    -0.003 C 
ATOM     18  C   UNL     1      18.654  23.277 -11.780  1.00  0.00     0.004 C 
ENDBRANCH  16  17
ENDBRANCH  15  16
ENDBRANCH  14  15
ENDBRANCH  13  14
ENDBRANCH  12  13
ENDBRANCH  11  12
ENDBRANCH   1  11
TORSDOF 14
ENDMDL
MODEL 5
REMARK VINA RESULT:    -3.967      3.040      6.221
REMARK INTER + INTRA:          -9.177
REMARK INTER:                  -6.536
REMARK INTRA:                  -2.641
REMARK UNBOUND:                -1.963
REMARK SMILES CCCCCCCCCCCCCCCC(=O)[O-]
REMARK SMILES IDX 9 1 10 2 11 3 12 4 13 5 14 6 15 7 16 8 17 9 18 10 8 11 7 12
REMARK SMILES IDX 6 13 5 14 4 15 3 16 2 17 1 18
REMARK H PARENT
REMARK Flexibility Score: inf
ROOT
ATOM      1  C   UNL     1      15.485  20.164  -7.364  1.00  0.00     0.000 C 
ENDROOT
BRANCH   1   2
ATOM      2  C   UNL     1      15.785  21.603  -7.816  1.00  0.00     0.000 C 
BRANCH   2   3
ATOM      3  C   UNL     1      16.524  22.417  -6.741  1.00  0.00     0.000 C 
BRANCH   3   4
ATOM      4  C   UNL     1      17.318  23.598  -7.327  1.00  0.00     0.000 C 
BRANCH   4   5
ATOM      5  C   UNL     1      18.426  23.132  -8.296  1.00  0.00     0.000 C 
BRANCH   5   6
ATOM      6  C   UNL     1      18.307  23.741  -9.704  1.00  0.00     0.006 C 
BRANCH   6   7
ATOM      7  C   UNL     1      18.177  22.681 -10.803  1.00  0.00     0.053 C 
BRANCH   7   8
ATOM      8  C   UNL     1      16.741  22.488 -11.176  1.00  0.00     0.041 C 
ATOM      9  O   UNL     1      16.286  21.330 -11.369  1.00  0.00    -0.550 OA
ATOM     10  O   UNL     1      15.917  23.590 -11.360  1.00  0.00    -0.550 OA
ENDBRANCH   7   8
ENDBRANCH   6   7
ENDBRANCH   5   6
ENDBRANCH   4   5
ENDBRANCH   3   4
ENDBRANCH   2   3
ENDBRANCH   1   2
BRANCH   1  11
ATOM     11  C   UNL     1      16.194  19.107  -8.232  1.00  0.00     0.000 C 
BRANCH  11  12
ATOM     12  C   UNL     1      17.573  19.526  -8.778  1.00  0.00    -0.000 C 
BRANCH  12  13
ATOM     13  C   UNL     1      18.782  19.032  -7.958  1.00  0.00    -0.000 C 
BRANCH  13  14
ATOM     14  C   UNL     1      19.378  20.067  -6.986  1.00  0.00    -0.000 C 
BRANCH  14  15
ATOM     15  C   UNL     1      18.980  19.808  -5.523  1.00  0.00    -0.000 C 
BRANCH  15  16
ATOM     16  C   UNL     1      18.589  18.344  -5.266  1.00  0.00    -0.000 C 
BRANCH  16  17
ATOM     17  C   UNL     1      17.177  18.201  -4.681  1.00  0.00    -0.003 C 
ATOM     18  C   UNL     1      16.751  19.476  -3.958  1.00  0.00     0.004 C 
ENDBRANCH  16  17
ENDBRANCH  15  16
ENDBRANCH  14  15
ENDBRANCH  13  14
ENDBRANCH  12  13
ENDBRANCH  11  12
ENDBRANCH   1  11
TORSDOF 14
ENDMDL
MODEL 6
REMARK VINA RESULT:    -3.954      3.616      6.132
REMARK INTER + INTRA:          -9.154
REMARK INTER:                  -7.058
REMARK INTRA:                  -2.095
REMARK UNBOUND:                -1.963
REMARK SMILES CCCCCCCCCCCCCCCC(=O)[O-]
REMARK SMILES IDX 9 1 10 2 11 3 12 4 13 5 14 6 15 7 16 8 17 9 18 10 8 11 7 12
REMARK SMILES IDX 6 13 5 14 4 15 3 16 2 17 1 18
REMARK H PARENT
REMARK Flexibility Score: inf
ROOT
ATOM      1  C   UNL     1      17.871  18.666  -8.242  1.00  0.00     0.000 C 
ENDROOT
BRANCH   1   2
ATOM      2  C   UNL     1      19.201  19.108  -8.875  1.00  0.00     0.000 C 
BRANCH   2   3
ATOM      3  C   UNL     1      19.335  20.636  -8.961  1.00  0.00     0.000 C 
BRANCH   3   4
ATOM      4  C   UNL     1      19.414  21.307  -7.578  1.00  0.00     0.000 C 
BRANCH   4   5
ATOM      5  C   UNL     1      18.750  22.701  -7.568  1.00  0.00     0.000 C 
BRANCH   5   6
ATOM      6  C   UNL     1      17.799  22.938  -8.755  1.00  0.00     0.006 C 
BRANCH   6   7
ATOM      7  C   UNL     1      18.370  23.911  -9.791  1.00  0.00     0.053 C 
BRANCH   7   8
ATOM      8  C   UNL     1      18.140  23.394 -11.176  1.00  0.00     0.041 C 
ATOM      9  O   UNL     1      18.677  23.964 -12.163  1.00  0.00    -0.550 OA
ATOM     10  O   UNL     1      17.293  22.313 -11.383  1.00  0.00    -0.550 OA
ENDBRANCH   7   8
ENDBRANCH   6   7
ENDBRANCH   5   6
ENDBRANCH   4   5
ENDBRANCH   3   4
ENDBRANCH   2   3
ENDBRANCH   1   2
BRANCH   1  11
ATOM     11  C   UNL     1      17.978  17.312  -7.514  1.00  0.00     0.000 C 
BRANCH  11  12
ATOM     12  C   UNL     1      19.192  17.169  -6.575  1.00  0.00    -0.000 C 
BRANCH  12  13
ATOM     13  C   UNL     1      19.151  18.046  -5.307  1.00  0.00    -0.000 C 
BRANCH  13  14
ATOM     14  C   UNL     1      18.040  17.689  -4.303  1.00  0.00    -0.000 C 
BRANCH  14  15
ATOM     15  C   UNL     1      16.887  18.707  -4.303  1.00  0.00    -0.000 C 
BRANCH  15  16
ATOM     16  C   UNL     1      17.299  20.066  -4.892  1.00  0.00    -0.000 C 
BRANCH  16  17
ATOM     17  C   UNL     1      16.111  21.027  -5.053  1.00  0.00    -0.003 C 
ATOM     18  C   UNL     1      15.537  20.959  -6.465  1.00  0.00     0.004 C 
ENDBRANCH  16  17
ENDBRANCH  15  16
ENDBRANCH  14  15
ENDBRANCH  13  14
ENDBRANCH  12  13
ENDBRANCH  11  12
ENDBRANCH   1  11
TORSDOF 14
ENDMDL
MODEL 7
REMARK VINA RESULT:    -3.912      3.451      5.333
REMARK INTER + INTRA:          -9.077
REMARK INTER:                  -6.822
REMARK INTRA:                  -2.255
REMARK UNBOUND:                -1.963
REMARK SMILES CCCCCCCCCCCCCCCC(=O)[O-]
REMARK SMILES IDX 9 1 10 2 11 3 12 4 13 5 14 6 15 7 16 8 17 9 18 10 8 11 7 12
REMARK SMILES IDX 6 13 5 14 4 15 3 16 2 17 1 18
REMARK H PARENT
REMARK Flexibility Score: inf
ROOT
ATOM      1  C   UNL     1      19.013  18.368  -6.322  1.00  0.00     0.000 C 
ENDROOT
BRANCH   1   2
ATOM      2  C   UNL     1      18.602  19.803  -5.950  1.00  0.00     0.000 C 
BRANCH   2   3
ATOM      3  C   UNL     1      19.667  20.841  -6.339  1.00  0.00     0.000 C 
BRANCH   3   4
ATOM      4  C   UNL     1      19.365  21.531  -7.681  1.00  0.00     0.000 C 
BRANCH   4   5
ATOM      5  C   UNL     1      18.655  22.888  -7.491  1.00  0.00     0.000 C 
BRANCH   5   6
ATOM      6  C   UNL     1      18.209  23.540  -8.812  1.00  0.00     0.006 C 
BRANCH   6   7
ATOM      7  C   UNL     1      18.282  22.581 -10.005  1.00  0.00     0.053 C 
BRANCH   7   8
ATOM      8  C   UNL     1      17.801  23.257 -11.250  1.00  0.00     0.041 C 
ATOM      9  O   UNL     1      16.567  23.373 -11.471  1.00  0.00    -0.550 OA
ATOM     10  O   UNL     1      18.714  23.716 -12.190  1.00  0.00    -0.550 OA
ENDBRANCH   7   8
ENDBRANCH   6   7
ENDBRANCH   5   6
ENDBRANCH   4   5
ENDBRANCH   3   4
ENDBRANCH   2   3
ENDBRANCH   1   2
BRANCH   1  11
ATOM     11  C   UNL     1      18.506  17.945  -7.713  1.00  0.00     0.000 C 
BRANCH  11  12
ATOM     12  C   UNL     1      17.117  17.275  -7.727  1.00  0.00    -0.000 C 
BRANCH  12  13
ATOM     13  C   UNL     1      16.002  18.087  -8.418  1.00  0.00    -0.000 C 
BRANCH  13  14
ATOM     14  C   UNL     1      16.435  19.464  -8.955  1.00  0.00    -0.000 C 
BRANCH  14  15
ATOM     15  C   UNL     1      15.738  20.631  -8.235  1.00  0.00    -0.000 C 
BRANCH  15  16
ATOM     16  C   UNL     1      15.100  20.207  -6.903  1.00  0.00    -0.000 C 
BRANCH  16  17
ATOM     17  C   UNL     1      14.553  21.397  -6.102  1.00  0.00    -0.003 C 
ATOM     18  C   UNL     1      15.687  22.265  -5.565  1.00  0.00     0.004 C 
ENDBRANCH  16  17
ENDBRANCH  15  16
ENDBRANCH  14  15
ENDBRANCH  13  14
ENDBRANCH  12  13
ENDBRANCH  11  12
ENDBRANCH   1  11
TORSDOF 14
ENDMDL
MODEL 8
REMARK VINA RESULT:    -3.911      1.845      3.726
REMARK INTER + INTRA:          -9.075
REMARK INTER:                  -6.792
REMARK INTRA:                  -2.283
REMARK UNBOUND:                -1.963
REMARK SMILES CCCCCCCCCCCCCCCC(=O)[O-]
REMARK SMILES IDX 9 1 10 2 11 3 12 4 13 5 14 6 15 7 16 8 17 9 18 10 8 11 7 12
REMARK SMILES IDX 6 13 5 14 4 15 3 16 2 17 1 18
REMARK H PARENT
REMARK Flexibility Score: inf
ROOT
ATOM      1  C   UNL     1      17.790  23.518 -11.104  1.00  0.00     0.000 C 
ENDROOT
BRANCH   1   2
ATOM      2  C   UNL     1      18.279  23.984  -9.723  1.00  0.00     0.000 C 
BRANCH   2   3
ATOM      3  C   UNL     1      17.982  22.960  -8.616  1.00  0.00     0.000 C 
BRANCH   3   4
ATOM      4  C   UNL     1      18.899  23.122  -7.390  1.00  0.00     0.000 C 
BRANCH   4   5
ATOM      5  C   UNL     1      19.586  21.796  -6.998  1.00  0.00     0.000 C 
BRANCH   5   6
ATOM      6  C   UNL     1      19.111  20.589  -7.825  1.00  0.00     0.006 C 
BRANCH   6   7
ATOM      7  C   UNL     1      18.248  19.614  -7.017  1.00  0.00     0.053 C 
BRANCH   7   8
ATOM      8  C   UNL     1      19.111  18.652  -6.264  1.00  0.00     0.041 C 
ATOM      9  O   UNL     1      19.327  18.821  -5.035  1.00  0.00    -0.550 OA
ATOM     10  O   UNL     1      19.718  17.595  -6.930  1.00  0.00    -0.550 OA
ENDBRANCH   7   8
ENDBRANCH   6   7
ENDBRANCH   5   6
ENDBRANCH   4   5
ENDBRANCH   3   4
ENDBRANCH   2   3
ENDBRANCH   1   2
BRANCH   1  11
ATOM     11  C   UNL     1      16.804  22.337 -11.021  1.00  0.00     0.000 C 
BRANCH  11  12
ATOM     12  C   UNL     1      15.316  22.717 -11.155  1.00  0.00    -0.000 C 
BRANCH  12  13
ATOM     13  C   UNL     1      14.460  22.477  -9.895  1.00  0.00    -0.000 C 
BRANCH  13  14
ATOM     14  C   UNL     1      14.773  21.177  -9.132  1.00  0.00    -0.000 C 
BRANCH  14  15
ATOM     15  C   UNL     1      14.892  21.391  -7.613  1.00  0.00    -0.000 C 
BRANCH  15  16
ATOM     16  C   UNL     1      14.634  22.849  -7.200  1.00  0.00    -0.000 C 
BRANCH  16  17
ATOM     17  C   UNL     1      15.411  23.256  -5.940  1.00  0.00    -0.003 C 
ATOM     18  C   UNL     1      15.992  22.033  -5.235  1.00  0.00     0.004 C 
ENDBRANCH  16  17
ENDBRANCH  15  16
ENDBRANCH  14  15
ENDBRANCH  13  14
ENDBRANCH  12  13
ENDBRANCH  11  12
ENDBRANCH   1  11
TORSDOF 14
ENDMDL
MODEL 9
REMARK VINA RESULT:    -3.902      3.517      5.994
REMARK INTER + INTRA:          -9.058
REMARK INTER:                  -6.457
REMARK INTRA:                  -2.601
REMARK UNBOUND:                -1.963
REMARK SMILES CCCCCCCCCCCCCCCC(=O)[O-]
REMARK SMILES IDX 9 1 10 2 11 3 12 4 13 5 14 6 15 7 16 8 17 9 18 10 8 11 7 12
REMARK SMILES IDX 6 13 5 14 4 15 3 16 2 17 1 18
REMARK H PARENT
REMARK Flexibility Score: inf
ROOT
ATOM      1  C   UNL     1      16.633  21.132  -4.862  1.00  0.00     0.000 C 
ENDROOT
BRANCH   1   2
ATOM      2  C   UNL     1      15.597  20.816  -5.955  1.00  0.00     0.000 C 
BRANCH   2   3
ATOM      3  C   UNL     1      15.246  22.045  -6.808  1.00  0.00     0.000 C 
BRANCH   3   4
ATOM      4  C   UNL     1      16.234  22.270  -7.966  1.00  0.00     0.000 C 
BRANCH   4   5
ATOM      5  C   UNL     1      17.268  23.371  -7.644  1.00  0.00     0.000 C 
BRANCH   5   6
ATOM      6  C   UNL     1      18.321  23.568  -8.748  1.00  0.00     0.006 C 
BRANCH   6   7
ATOM      7  C   UNL     1      18.122  22.624  -9.938  1.00  0.00     0.053 C 
BRANCH   7   8
ATOM      8  C   UNL     1      17.804  23.402 -11.176  1.00  0.00     0.041 C 
ATOM      9  O   UNL     1      16.638  23.837 -11.369  1.00  0.00    -0.550 OA
ATOM     10  O   UNL     1      18.782  23.605 -12.141  1.00  0.00    -0.550 OA
ENDBRANCH   7   8
ENDBRANCH   6   7
ENDBRANCH   5   6
ENDBRANCH   4   5
ENDBRANCH   3   4
ENDBRANCH   2   3
ENDBRANCH   1   2
BRANCH   1  11
ATOM     11  C   UNL     1      17.324  19.870  -4.313  1.00  0.00     0.000 C 
BRANCH  11  12
ATOM     12  C   UNL     1      18.651  19.497  -5.004  1.00  0.00    -0.000 C 
BRANCH  12  13
ATOM     13  C   UNL     1      19.312  20.632  -5.813  1.00  0.00    -0.000 C 
BRANCH  13  14
ATOM     14  C   UNL     1      19.391  20.390  -7.332  1.00  0.00    -0.000 C 
BRANCH  14  15
ATOM     15  C   UNL     1      18.846  19.012  -7.746  1.00  0.00    -0.000 C 
BRANCH  15  16
ATOM     16  C   UNL     1      17.707  19.112  -8.773  1.00  0.00    -0.000 C 
BRANCH  16  17
ATOM     17  C   UNL     1      16.469  18.300  -8.365  1.00  0.00    -0.003 C 
ATOM     18  C   UNL     1      15.223  18.796  -9.094  1.00  0.00     0.004 C 
ENDBRANCH  16  17
ENDBRANCH  15  16
ENDBRANCH  14  15
ENDBRANCH  13  14
ENDBRANCH  12  13
ENDBRANCH  11  12
ENDBRANCH   1  11
TORSDOF 14
ENDMDL
