MODEL 1
REMARK VINA RESULT:    -4.194      0.000      0.000
REMARK INTER + INTRA:          -5.698
REMARK INTER:                  -5.175
REMARK INTRA:                  -0.523
REMARK UNBOUND:                -0.523
REMARK SMILES C=CC(=C)CCC=C(C)C
REMARK SMILES IDX 5 1 6 2 7 3 9 4 8 5 10 6 3 7 4 8 2 9 1 10
REMARK H PARENT
REMARK Flexibility Score: inf
ROOT
ATOM      1  C   UNL     1      30.337  24.828  12.185  1.00  0.00     0.039 C 
ENDROOT
BRANCH   1   2
ATOM      2  C   UNL     1      29.851  25.670  11.000  1.00  0.00     0.032 C 
BRANCH   2   3
ATOM      3  C   UNL     1      30.298  27.103  11.142  1.00  0.00    -0.028 C 
ATOM      4  C   UNL     1      28.005  27.932  11.710  1.00  0.00     0.039 C 
ATOM      5  C   UNL     1      29.486  28.126  11.485  1.00  0.00    -0.080 C 
ATOM      6  C   UNL     1      30.084  29.502  11.629  1.00  0.00     0.039 C 
ENDBRANCH   2   3
ENDBRANCH   1   2
BRANCH   1   7
ATOM      7  C   UNL     1      29.218  23.966  12.727  1.00  0.00    -0.055 C 
ATOM      8  C   UNL     1      29.522  22.813  13.331  1.00  0.00     0.012 C 
BRANCH   7   9
ATOM      9  C   UNL     1      27.793  24.380  12.655  1.00  0.00    -0.005 C 
ATOM     10  C   UNL     1      26.886  23.801  11.867  1.00  0.00     0.009 C 
ENDBRANCH   7   9
ENDBRANCH   1   7
TORSDOF 4
ENDMDL
MODEL 2
REMARK VINA RESULT:    -4.180      1.377      3.120
REMARK INTER + INTRA:          -5.680
REMARK INTER:                  -5.143
REMARK INTRA:                  -0.537
REMARK UNBOUND:                -0.523
REMARK SMILES C=CC(=C)CCC=C(C)C
REMARK SMILES IDX 5 1 6 2 7 3 9 4 8 5 10 6 3 7 4 8 2 9 1 10
REMARK H PARENT
REMARK Flexibility Score: inf
ROOT
ATOM      1  C   UNL     1      28.715  23.381  13.712  1.00  0.00     0.039 C 
ENDROOT
BRANCH   1   2
ATOM      2  C   UNL     1      28.224  23.770  12.313  1.00  0.00     0.032 C 
BRANCH   2   3
ATOM      3  C   UNL     1      27.913  25.244  12.247  1.00  0.00    -0.028 C 
ATOM      4  C   UNL     1      30.030  25.804  11.033  1.00  0.00     0.039 C 
ATOM      5  C   UNL     1      28.702  26.167  11.654  1.00  0.00    -0.080 C 
ATOM      6  C   UNL     1      28.239  27.601  11.630  1.00  0.00     0.039 C 
ENDBRANCH   2   3
ENDBRANCH   1   2
BRANCH   1   7
ATOM      7  C   UNL     1      30.143  22.884  13.662  1.00  0.00    -0.055 C 
ATOM      8  C   UNL     1      31.130  23.708  14.029  1.00  0.00     0.012 C 
BRANCH   7   9
ATOM      9  C   UNL     1      30.486  21.494  13.264  1.00  0.00    -0.005 C 
ATOM     10  C   UNL     1      30.413  20.444  14.083  1.00  0.00     0.009 C 
ENDBRANCH   7   9
ENDBRANCH   1   7
TORSDOF 4
ENDMDL
MODEL 3
REMARK VINA RESULT:    -4.128      1.124      2.222
REMARK INTER + INTRA:          -5.616
REMARK INTER:                  -5.065
REMARK INTRA:                  -0.551
REMARK UNBOUND:                -0.523
REMARK SMILES C=CC(=C)CCC=C(C)C
REMARK SMILES IDX 5 1 6 2 7 3 9 4 8 5 10 6 3 7 4 8 2 9 1 10
REMARK H PARENT
REMARK Flexibility Score: inf
ROOT
ATOM      1  C   UNL     1      29.128  24.278  11.047  1.00  0.00     0.039 C 
ENDROOT
BRANCH   1   2
ATOM      2  C   UNL     1      30.180  25.389  10.944  1.00  0.00     0.032 C 
BRANCH   2   3
ATOM      3  C   UNL     1      29.608  26.710  11.392  1.00  0.00    -0.028 C 
ATOM      4  C   UNL     1      31.577  27.257  12.839  1.00  0.00     0.039 C 
ATOM      5  C   UNL     1      30.234  27.571  12.223  1.00  0.00    -0.080 C 
ATOM      6  C   UNL     1      29.555  28.877  12.551  1.00  0.00     0.039 C 
ENDBRANCH   2   3
ENDBRANCH   1   2
BRANCH   1   7
ATOM      7  C   UNL     1      28.842  23.942  12.494  1.00  0.00    -0.055 C 
ATOM      8  C   UNL     1      27.606  24.123  12.970  1.00  0.00     0.012 C 
BRANCH   7   9
ATOM      9  C   UNL     1      29.877  23.370  13.395  1.00  0.00    -0.005 C 
ATOM     10  C   UNL     1      30.183  22.074  13.452  1.00  0.00     0.009 C 
ENDBRANCH   7   9
ENDBRANCH   1   7
TORSDOF 4
ENDMDL
MODEL 4
REMARK VINA RESULT:    -4.116      1.343      4.897
REMARK INTER + INTRA:          -5.601
REMARK INTER:                  -4.875
REMARK INTRA:                  -0.726
REMARK UNBOUND:                -0.523
REMARK SMILES C=CC(=C)CCC=C(C)C
REMARK SMILES IDX 5 1 6 2 7 3 9 4 8 5 10 6 3 7 4 8 2 9 1 10
REMARK H PARENT
REMARK Flexibility Score: inf
ROOT
ATOM      1  C   UNL     1      29.019  28.547  12.387  1.00  0.00     0.039 C 
ENDROOT
BRANCH   1   2
ATOM      2  C   UNL     1      28.309  27.583  11.431  1.00  0.00     0.032 C 
BRANCH   2   3
ATOM      3  C   UNL     1      28.055  26.256  12.102  1.00  0.00    -0.028 C 
ATOM      4  C   UNL     1      29.871  25.085  10.837  1.00  0.00     0.039 C 
ATOM      5  C   UNL     1      28.764  25.131  11.863  1.00  0.00    -0.080 C 
ATOM      6  C   UNL     1      28.421  23.886  12.641  1.00  0.00     0.039 C 
ENDBRANCH   2   3
ENDBRANCH   1   2
BRANCH   1   7
ATOM      7  C   UNL     1      30.345  28.996  11.812  1.00  0.00    -0.055 C 
ATOM      8  C   UNL     1      30.401  30.147  11.134  1.00  0.00     0.012 C 
BRANCH   7   9
ATOM      9  C   UNL     1      31.599  28.225  12.016  1.00  0.00    -0.005 C 
ATOM     10  C   UNL     1      31.771  27.321  12.980  1.00  0.00     0.009 C 
ENDBRANCH   7   9
ENDBRANCH   1   7
TORSDOF 4
ENDMDL
MODEL 5
REMARK VINA RESULT:    -4.110      0.675      4.826
REMARK INTER + INTRA:          -5.593
REMARK INTER:                  -5.136
REMARK INTRA:                  -0.458
REMARK UNBOUND:                -0.523
REMARK SMILES C=CC(=C)CCC=C(C)C
REMARK SMILES IDX 5 1 6 2 7 3 9 4 8 5 10 6 3 7 4 8 2 9 1 10
REMARK H PARENT
REMARK Flexibility Score: inf
ROOT
ATOM      1  C   UNL     1      30.366  26.816  12.118  1.00  0.00     0.039 C 
ENDROOT
BRANCH   1   2
ATOM      2  C   UNL     1      29.916  25.585  11.324  1.00  0.00     0.032 C 
BRANCH   2   3
ATOM      3  C   UNL     1      30.194  24.320  12.097  1.00  0.00    -0.028 C 
ATOM      4  C   UNL     1      27.848  24.134  12.952  1.00  0.00     0.039 C 
ATOM      5  C   UNL     1      29.269  23.643  12.813  1.00  0.00    -0.080 C 
ATOM      6  C   UNL     1      29.685  22.369  13.502  1.00  0.00     0.039 C 
ENDBRANCH   2   3
ENDBRANCH   1   2
BRANCH   1   7
ATOM      7  C   UNL     1      29.411  27.971  11.905  1.00  0.00    -0.055 C 
ATOM      8  C   UNL     1      28.104  27.717  11.781  1.00  0.00     0.012 C 
BRANCH   7   9
ATOM      9  C   UNL     1      29.870  29.384  11.876  1.00  0.00    -0.005 C 
ATOM     10  C   UNL     1      30.756  29.864  11.003  1.00  0.00     0.009 C 
ENDBRANCH   7   9
ENDBRANCH   1   7
TORSDOF 4
ENDMDL
MODEL 6
REMARK VINA RESULT:    -4.054      0.433      1.665
REMARK INTER + INTRA:          -5.525
REMARK INTER:                  -5.058
REMARK INTRA:                  -0.467
REMARK UNBOUND:                -0.523
REMARK SMILES C=CC(=C)CCC=C(C)C
REMARK SMILES IDX 5 1 6 2 7 3 9 4 8 5 10 6 3 7 4 8 2 9 1 10
REMARK H PARENT
REMARK Flexibility Score: inf
ROOT
ATOM      1  C   UNL     1      30.267  24.930  12.161  1.00  0.00     0.039 C 
ENDROOT
BRANCH   1   2
ATOM      2  C   UNL     1      29.843  25.737  10.928  1.00  0.00     0.032 C 
BRANCH   2   3
ATOM      3  C   UNL     1      30.308  27.167  11.039  1.00  0.00    -0.028 C 
ATOM      4  C   UNL     1      28.055  28.017  11.724  1.00  0.00     0.039 C 
ATOM      5  C   UNL     1      29.523  28.198  11.420  1.00  0.00    -0.080 C 
ATOM      6  C   UNL     1      30.139  29.570  11.525  1.00  0.00     0.039 C 
ENDBRANCH   2   3
ENDBRANCH   1   2
BRANCH   1   7
ATOM      7  C   UNL     1      29.121  24.082  12.668  1.00  0.00    -0.055 C 
ATOM      8  C   UNL     1      27.894  24.292  12.182  1.00  0.00     0.012 C 
BRANCH   7   9
ATOM      9  C   UNL     1      29.321  22.987  13.653  1.00  0.00    -0.005 C 
ATOM     10  C   UNL     1      30.073  21.909  13.429  1.00  0.00     0.009 C 
ENDBRANCH   7   9
ENDBRANCH   1   7
TORSDOF 4
ENDMDL
MODEL 7
REMARK VINA RESULT:    -3.982      1.243      4.192
REMARK INTER + INTRA:          -5.436
REMARK INTER:                  -4.637
REMARK INTRA:                  -0.799
REMARK UNBOUND:                -0.523
REMARK SMILES C=CC(=C)CCC=C(C)C
REMARK SMILES IDX 5 1 6 2 7 3 9 4 8 5 10 6 3 7 4 8 2 9 1 10
REMARK H PARENT
REMARK Flexibility Score: inf
ROOT
ATOM      1  C   UNL     1      30.953  26.393  10.779  1.00  0.00     0.039 C 
ENDROOT
BRANCH   1   2
ATOM      2  C   UNL     1      30.614  24.902  10.890  1.00  0.00     0.032 C 
BRANCH   2   3
ATOM      3  C   UNL     1      29.200  24.710  11.378  1.00  0.00    -0.028 C 
ATOM      4  C   UNL     1      29.903  23.425  13.409  1.00  0.00     0.039 C 
ATOM      5  C   UNL     1      28.866  24.071  12.520  1.00  0.00    -0.080 C 
ATOM      6  C   UNL     1      27.410  23.992  12.901  1.00  0.00     0.039 C 
ENDBRANCH   2   3
ENDBRANCH   1   2
BRANCH   1   7
ATOM      7  C   UNL     1      31.080  27.019  12.150  1.00  0.00    -0.055 C 
ATOM      8  C   UNL     1      32.007  26.552  12.993  1.00  0.00     0.012 C 
BRANCH   7   9
ATOM      9  C   UNL     1      30.242  28.170  12.578  1.00  0.00    -0.005 C 
ATOM     10  C   UNL     1      28.972  28.345  12.211  1.00  0.00     0.009 C 
ENDBRANCH   7   9
ENDBRANCH   1   7
TORSDOF 4
ENDMDL
MODEL 8
REMARK VINA RESULT:    -3.931      1.715      4.585
REMARK INTER + INTRA:          -5.373
REMARK INTER:                  -4.478
REMARK INTRA:                  -0.895
REMARK UNBOUND:                -0.523
REMARK SMILES C=CC(=C)CCC=C(C)C
REMARK SMILES IDX 5 1 6 2 7 3 9 4 8 5 10 6 3 7 4 8 2 9 1 10
REMARK H PARENT
REMARK Flexibility Score: inf
ROOT
ATOM      1  C   UNL     1      29.977  24.155  10.702  1.00  0.00     0.039 C 
ENDROOT
BRANCH   1   2
ATOM      2  C   UNL     1      31.252  23.580  11.328  1.00  0.00     0.032 C 
BRANCH   2   3
ATOM      3  C   UNL     1      30.950  22.316  12.093  1.00  0.00    -0.028 C 
ATOM      4  C   UNL     1      31.018  23.455  14.322  1.00  0.00     0.039 C 
ATOM      5  C   UNL     1      30.817  22.249  13.436  1.00  0.00    -0.080 C 
ATOM      6  C   UNL     1      30.472  20.920  14.059  1.00  0.00     0.039 C 
ENDBRANCH   2   3
ENDBRANCH   1   2
BRANCH   1   7
ATOM      7  C   UNL     1      29.405  25.258  11.564  1.00  0.00    -0.055 C 
ATOM      8  C   UNL     1      30.113  26.379  11.738  1.00  0.00     0.012 C 
BRANCH   7   9
ATOM      9  C   UNL     1      28.059  25.160  12.188  1.00  0.00    -0.005 C 
ATOM     10  C   UNL     1      27.592  24.065  12.788  1.00  0.00     0.009 C 
ENDBRANCH   7   9
ENDBRANCH   1   7
TORSDOF 4
ENDMDL
MODEL 9
REMARK VINA RESULT:    -3.830      1.549      2.241
REMARK INTER + INTRA:          -5.249
REMARK INTER:                  -4.595
REMARK INTRA:                  -0.653
REMARK UNBOUND:                -0.523
REMARK SMILES C=CC(=C)CCC=C(C)C
REMARK SMILES IDX 5 1 6 2 7 3 9 4 8 5 10 6 3 7 4 8 2 9 1 10
REMARK H PARENT
REMARK Flexibility Score: inf
ROOT
ATOM      1  C   UNL     1      31.177  23.744  14.126  1.00  0.00     0.039 C 
ENDROOT
BRANCH   1   2
ATOM      2  C   UNL     1      31.851  24.398  12.914  1.00  0.00     0.032 C 
BRANCH   2   3
ATOM      3  C   UNL     1      31.695  25.897  12.959  1.00  0.00    -0.028 C 
ATOM      4  C   UNL     1      30.546  26.007  10.737  1.00  0.00     0.039 C 
ATOM      5  C   UNL     1      31.089  26.631  12.001  1.00  0.00    -0.080 C 
ATOM      6  C   UNL     1      30.970  28.120  12.203  1.00  0.00     0.039 C 
ENDBRANCH   2   3
ENDBRANCH   1   2
BRANCH   1   7
ATOM      7  C   UNL     1      29.994  22.906  13.695  1.00  0.00    -0.055 C 
ATOM      8  C   UNL     1      30.193  21.628  13.358  1.00  0.00     0.012 C 
BRANCH   7   9
ATOM      9  C   UNL     1      28.607  23.441  13.679  1.00  0.00    -0.005 C 
ATOM     10  C   UNL     1      28.097  24.166  12.683  1.00  0.00     0.009 C 
ENDBRANCH   7   9
ENDBRANCH   1   7
TORSDOF 4
ENDMDL
