MODEL 1
REMARK VINA RESULT:    -5.034      0.000      0.000
REMARK INTER + INTRA:         -12.344
REMARK INTER:                  -9.742
REMARK INTRA:                  -2.602
REMARK UNBOUND:                -2.602
REMARK SMILES CCCCCCCCCCCCCCCCCC(=O)[O-]
REMARK SMILES IDX 10 1 11 2 12 3 13 4 14 5 15 6 16 7 17 8 18 9 19 10 20 11
REMARK SMILES IDX 9 12 8 13 7 14 6 15 5 16 4 17 3 18 2 19 1 20
REMARK H PARENT
REMARK Flexibility Score: inf
ROOT
ATOM      1  C   UNL     1       5.283  49.683  10.291  1.00  0.00     0.000 C 
ENDROOT
BRANCH   1   2
ATOM      2  C   UNL     1       6.304  49.259   9.229  1.00  0.00     0.000 C 
BRANCH   2   3
ATOM      3  C   UNL     1       6.346  47.733   9.084  1.00  0.00     0.000 C 
BRANCH   3   4
ATOM      4  C   UNL     1       5.242  47.070   9.917  1.00  0.00     0.000 C 
BRANCH   4   5
ATOM      5  C   UNL     1       4.558  45.944   9.127  1.00  0.00     0.000 C 
BRANCH   5   6
ATOM      6  C   UNL     1       4.294  44.694   9.982  1.00  0.00     0.000 C 
BRANCH   6   7
ATOM      7  C   UNL     1       3.838  45.040  11.410  1.00  0.00     0.006 C 
BRANCH   7   8
ATOM      8  C   UNL     1       3.693  43.791  12.290  1.00  0.00     0.053 C 
BRANCH   8   9
ATOM      9  C   UNL     1       2.498  42.973  11.906  1.00  0.00     0.041 C 
ATOM     10  O   UNL     1       1.344  43.472  11.961  1.00  0.00    -0.550 OA
ATOM     11  O   UNL     1       2.662  41.668  11.459  1.00  0.00    -0.550 OA
ENDBRANCH   8   9
ENDBRANCH   7   8
ENDBRANCH   6   7
ENDBRANCH   5   6
ENDBRANCH   4   5
ENDBRANCH   3   4
ENDBRANCH   2   3
ENDBRANCH   1   2
BRANCH   1  12
ATOM     12  C   UNL     1       4.325  50.750   9.737  1.00  0.00     0.000 C 
BRANCH  12  13
ATOM     13  C   UNL     1       4.304  50.786   8.202  1.00  0.00    -0.000 C 
BRANCH  13  14
ATOM     14  C   UNL     1       2.996  50.230   7.611  1.00  0.00    -0.000 C 
BRANCH  14  15
ATOM     15  C   UNL     1       3.021  48.693   7.481  1.00  0.00    -0.000 C 
BRANCH  15  16
ATOM     16  C   UNL     1       1.655  48.027   7.738  1.00  0.00    -0.000 C 
BRANCH  16  17
ATOM     17  C   UNL     1       1.204  48.026   9.209  1.00  0.00    -0.000 C 
BRANCH  17  18
ATOM     18  C   UNL     1       1.057  46.609   9.783  1.00  0.00    -0.000 C 
BRANCH  18  19
ATOM     19  C   UNL     1       0.166  45.745   8.883  1.00  0.00    -0.003 C 
ATOM     20  C   UNL     1       0.788  44.372   8.646  1.00  0.00     0.004 C 
ENDBRANCH  18  19
ENDBRANCH  17  18
ENDBRANCH  16  17
ENDBRANCH  15  16
ENDBRANCH  14  15
ENDBRANCH  13  14
ENDBRANCH  12  13
ENDBRANCH   1  12
TORSDOF 16
ENDMDL
MODEL 2
REMARK VINA RESULT:    -5.026      1.531      3.234
REMARK INTER + INTRA:         -12.329
REMARK INTER:                 -10.143
REMARK INTRA:                  -2.186
REMARK UNBOUND:                -2.602
REMARK SMILES CCCCCCCCCCCCCCCCCC(=O)[O-]
REMARK SMILES IDX 10 1 11 2 12 3 13 4 14 5 15 6 16 7 17 8 18 9 19 10 20 11
REMARK SMILES IDX 9 12 8 13 7 14 6 15 5 16 4 17 3 18 2 19 1 20
REMARK H PARENT
REMARK Flexibility Score: inf
ROOT
ATOM      1  C   UNL     1       5.226  46.765   9.217  1.00  0.00     0.000 C 
ENDROOT
BRANCH   1   2
ATOM      2  C   UNL     1       4.426  46.704  10.523  1.00  0.00     0.000 C 
BRANCH   2   3
ATOM      3  C   UNL     1       4.110  45.254  10.908  1.00  0.00     0.000 C 
BRANCH   3   4
ATOM      4  C   UNL     1       4.112  44.344   9.674  1.00  0.00     0.000 C 
BRANCH   4   5
ATOM      5  C   UNL     1       2.995  43.294   9.763  1.00  0.00     0.000 C 
BRANCH   5   6
ATOM      6  C   UNL     1       2.297  43.284  11.133  1.00  0.00     0.000 C 
BRANCH   6   7
ATOM      7  C   UNL     1       2.318  41.895  11.797  1.00  0.00     0.006 C 
BRANCH   7   8
ATOM      8  C   UNL     1       3.743  41.439  12.138  1.00  0.00     0.053 C 
BRANCH   8   9
ATOM      9  C   UNL     1       3.764  40.056  12.713  1.00  0.00     0.041 C 
ATOM     10  O   UNL     1       2.745  39.321  12.635  1.00  0.00    -0.550 OA
ATOM     11  O   UNL     1       4.920  39.567  13.310  1.00  0.00    -0.550 OA
ENDBRANCH   8   9
ENDBRANCH   7   8
ENDBRANCH   6   7
ENDBRANCH   5   6
ENDBRANCH   4   5
ENDBRANCH   3   4
ENDBRANCH   2   3
ENDBRANCH   1   2
BRANCH   1  12
ATOM     12  C   UNL     1       6.539  47.540   9.412  1.00  0.00     0.000 C 
BRANCH  12  13
ATOM     13  C   UNL     1       6.439  49.001   8.946  1.00  0.00    -0.000 C 
BRANCH  13  14
ATOM     14  C   UNL     1       5.743  49.908   9.975  1.00  0.00    -0.000 C 
BRANCH  14  15
ATOM     15  C   UNL     1       4.457  50.550   9.413  1.00  0.00    -0.000 C 
BRANCH  15  16
ATOM     16  C   UNL     1       4.212  50.243   7.923  1.00  0.00    -0.000 C 
BRANCH  16  17
ATOM     17  C   UNL     1       2.757  49.890   7.568  1.00  0.00    -0.000 C 
BRANCH  17  18
ATOM     18  C   UNL     1       2.137  48.877   8.542  1.00  0.00    -0.000 C 
BRANCH  18  19
ATOM     19  C   UNL     1       1.854  47.545   7.837  1.00  0.00    -0.003 C 
ATOM     20  C   UNL     1       1.171  46.558   8.778  1.00  0.00     0.004 C 
ENDBRANCH  18  19
ENDBRANCH  17  18
ENDBRANCH  16  17
ENDBRANCH  15  16
ENDBRANCH  14  15
ENDBRANCH  13  14
ENDBRANCH  12  13
ENDBRANCH   1  12
TORSDOF 16
ENDMDL
MODEL 3
REMARK VINA RESULT:    -5.023      1.920      3.441
REMARK INTER + INTRA:         -12.324
REMARK INTER:                 -10.268
REMARK INTRA:                  -2.056
REMARK UNBOUND:                -2.602
REMARK SMILES CCCCCCCCCCCCCCCCCC(=O)[O-]
REMARK SMILES IDX 10 1 11 2 12 3 13 4 14 5 15 6 16 7 17 8 18 9 19 10 20 11
REMARK SMILES IDX 9 12 8 13 7 14 6 15 5 16 4 17 3 18 2 19 1 20
REMARK H PARENT
REMARK Flexibility Score: inf
ROOT
ATOM      1  C   UNL     1       4.429  46.591  10.485  1.00  0.00     0.000 C 
ENDROOT
BRANCH   1   2
ATOM      2  C   UNL     1       4.348  45.122  10.915  1.00  0.00     0.000 C 
BRANCH   2   3
ATOM      3  C   UNL     1       4.094  44.208   9.711  1.00  0.00     0.000 C 
BRANCH   3   4
ATOM      4  C   UNL     1       2.901  43.279   9.966  1.00  0.00     0.000 C 
BRANCH   4   5
ATOM      5  C   UNL     1       2.178  43.657  11.267  1.00  0.00     0.000 C 
BRANCH   5   6
ATOM      6  C   UNL     1       1.764  42.430  12.096  1.00  0.00     0.000 C 
BRANCH   6   7
ATOM      7  C   UNL     1       2.670  41.212  11.841  1.00  0.00     0.006 C 
BRANCH   7   8
ATOM      8  C   UNL     1       2.442  40.096  12.869  1.00  0.00     0.053 C 
BRANCH   8   9
ATOM      9  C   UNL     1       3.483  39.024  12.771  1.00  0.00     0.041 C 
ATOM     10  O   UNL     1       3.213  37.927  12.216  1.00  0.00    -0.550 OA
ATOM     11  O   UNL     1       4.762  39.248  13.266  1.00  0.00    -0.550 OA
ENDBRANCH   8   9
ENDBRANCH   7   8
ENDBRANCH   6   7
ENDBRANCH   5   6
ENDBRANCH   4   5
ENDBRANCH   3   4
ENDBRANCH   2   3
ENDBRANCH   1   2
BRANCH   1  12
ATOM     12  C   UNL     1       5.161  46.730   9.141  1.00  0.00     0.000 C 
BRANCH  12  13
ATOM     13  C   UNL     1       5.690  48.152   8.899  1.00  0.00    -0.000 C 
BRANCH  13  14
ATOM     14  C   UNL     1       4.599  49.116   8.401  1.00  0.00    -0.000 C 
BRANCH  14  15
ATOM     15  C   UNL     1       3.658  48.452   7.373  1.00  0.00    -0.000 C 
BRANCH  15  16
ATOM     16  C   UNL     1       2.164  48.583   7.727  1.00  0.00    -0.000 C 
BRANCH  16  17
ATOM     17  C   UNL     1       1.372  47.265   7.679  1.00  0.00    -0.000 C 
BRANCH  17  18
ATOM     18  C   UNL     1       1.145  46.658   9.072  1.00  0.00    -0.000 C 
BRANCH  18  19
ATOM     19  C   UNL     1       0.011  45.626   9.040  1.00  0.00    -0.003 C 
ATOM     20  C   UNL     1       0.182  44.656   7.875  1.00  0.00     0.004 C 
ENDBRANCH  18  19
ENDBRANCH  17  18
ENDBRANCH  16  17
ENDBRANCH  15  16
ENDBRANCH  14  15
ENDBRANCH  13  14
ENDBRANCH  12  13
ENDBRANCH   1  12
TORSDOF 16
ENDMDL
MODEL 4
REMARK VINA RESULT:    -5.005      1.884      4.579
REMARK INTER + INTRA:         -12.290
REMARK INTER:                 -10.054
REMARK INTRA:                  -2.236
REMARK UNBOUND:                -2.602
REMARK SMILES CCCCCCCCCCCCCCCCCC(=O)[O-]
REMARK SMILES IDX 10 1 11 2 12 3 13 4 14 5 15 6 16 7 17 8 18 9 19 10 20 11
REMARK SMILES IDX 9 12 8 13 7 14 6 15 5 16 4 17 3 18 2 19 1 20
REMARK H PARENT
REMARK Flexibility Score: inf
ROOT
ATOM      1  C   UNL     1       4.519  45.787   9.692  1.00  0.00     0.000 C 
ENDROOT
BRANCH   1   2
ATOM      2  C   UNL     1       4.233  44.363  10.186  1.00  0.00     0.000 C 
BRANCH   2   3
ATOM      3  C   UNL     1       3.445  43.566   9.141  1.00  0.00     0.000 C 
BRANCH   3   4
ATOM      4  C   UNL     1       2.074  43.147   9.687  1.00  0.00     0.000 C 
BRANCH   4   5
ATOM      5  C   UNL     1       1.872  43.662  11.120  1.00  0.00     0.000 C 
BRANCH   5   6
ATOM      6  C   UNL     1       1.867  42.532  12.162  1.00  0.00     0.000 C 
BRANCH   6   7
ATOM      7  C   UNL     1       2.615  41.277  11.677  1.00  0.00     0.006 C 
BRANCH   7   8
ATOM      8  C   UNL     1       3.927  41.053  12.440  1.00  0.00     0.053 C 
BRANCH   8   9
ATOM      9  C   UNL     1       4.055  39.643  12.930  1.00  0.00     0.041 C 
ATOM     10  O   UNL     1       3.158  38.799  12.673  1.00  0.00    -0.550 OA
ATOM     11  O   UNL     1       5.181  39.255  13.646  1.00  0.00    -0.550 OA
ENDBRANCH   8   9
ENDBRANCH   7   8
ENDBRANCH   6   7
ENDBRANCH   5   6
ENDBRANCH   4   5
ENDBRANCH   3   4
ENDBRANCH   2   3
ENDBRANCH   1   2
BRANCH   1  12
ATOM     12  C   UNL     1       3.755  46.823  10.532  1.00  0.00     0.000 C 
BRANCH  12  13
ATOM     13  C   UNL     1       2.363  47.136   9.963  1.00  0.00    -0.000 C 
BRANCH  13  14
ATOM     14  C   UNL     1       2.309  47.029   8.428  1.00  0.00    -0.000 C 
BRANCH  14  15
ATOM     15  C   UNL     1       2.270  48.414   7.748  1.00  0.00    -0.000 C 
BRANCH  15  16
ATOM     16  C   UNL     1       3.628  48.861   7.174  1.00  0.00    -0.000 C 
BRANCH  16  17
ATOM     17  C   UNL     1       4.499  49.679   8.143  1.00  0.00    -0.000 C 
BRANCH  17  18
ATOM     18  C   UNL     1       5.822  48.977   8.489  1.00  0.00    -0.000 C 
BRANCH  18  19
ATOM     19  C   UNL     1       6.387  49.502   9.814  1.00  0.00    -0.003 C 
ATOM     20  C   UNL     1       5.314  50.222  10.624  1.00  0.00     0.004 C 
ENDBRANCH  18  19
ENDBRANCH  17  18
ENDBRANCH  16  17
ENDBRANCH  15  16
ENDBRANCH  14  15
ENDBRANCH  13  14
ENDBRANCH  12  13
ENDBRANCH   1  12
TORSDOF 16
ENDMDL
MODEL 5
REMARK VINA RESULT:    -4.960      1.999      4.248
REMARK INTER + INTRA:         -12.202
REMARK INTER:                 -10.089
REMARK INTRA:                  -2.112
REMARK UNBOUND:                -2.602
REMARK SMILES CCCCCCCCCCCCCCCCCC(=O)[O-]
REMARK SMILES IDX 10 1 11 2 12 3 13 4 14 5 15 6 16 7 17 8 18 9 19 10 20 11
REMARK SMILES IDX 9 12 8 13 7 14 6 15 5 16 4 17 3 18 2 19 1 20
REMARK H PARENT
REMARK Flexibility Score: inf
ROOT
ATOM      1  C   UNL     1       2.006  46.804   8.744  1.00  0.00     0.000 C 
ENDROOT
BRANCH   1   2
ATOM      2  C   UNL     1       2.562  45.937   9.880  1.00  0.00     0.000 C 
BRANCH   2   3
ATOM      3  C   UNL     1       3.980  45.452   9.558  1.00  0.00     0.000 C 
BRANCH   3   4
ATOM      4  C   UNL     1       4.031  43.922   9.462  1.00  0.00     0.000 C 
BRANCH   4   5
ATOM      5  C   UNL     1       2.894  43.282  10.273  1.00  0.00     0.000 C 
BRANCH   5   6
ATOM      6  C   UNL     1       3.268  43.056  11.746  1.00  0.00     0.000 C 
BRANCH   6   7
ATOM      7  C   UNL     1       3.880  41.665  11.993  1.00  0.00     0.006 C 
BRANCH   7   8
ATOM      8  C   UNL     1       2.813  40.614  12.323  1.00  0.00     0.053 C 
BRANCH   8   9
ATOM      9  C   UNL     1       3.422  39.299  12.701  1.00  0.00     0.041 C 
ATOM     10  O   UNL     1       2.754  38.237  12.598  1.00  0.00    -0.550 OA
ATOM     11  O   UNL     1       4.739  39.242  13.140  1.00  0.00    -0.550 OA
ENDBRANCH   8   9
ENDBRANCH   7   8
ENDBRANCH   6   7
ENDBRANCH   5   6
ENDBRANCH   4   5
ENDBRANCH   3   4
ENDBRANCH   2   3
ENDBRANCH   1   2
BRANCH   1  12
ATOM     12  C   UNL     1       3.142  47.366   7.875  1.00  0.00     0.000 C 
BRANCH  12  13
ATOM     13  C   UNL     1       2.932  48.843   7.508  1.00  0.00    -0.000 C 
BRANCH  13  14
ATOM     14  C   UNL     1       2.043  49.587   8.521  1.00  0.00    -0.000 C 
BRANCH  14  15
ATOM     15  C   UNL     1       2.871  50.403   9.536  1.00  0.00    -0.000 C 
BRANCH  15  16
ATOM     16  C   UNL     1       3.276  49.603  10.789  1.00  0.00    -0.000 C 
BRANCH  16  17
ATOM     17  C   UNL     1       4.704  49.033  10.757  1.00  0.00    -0.000 C 
BRANCH  17  18
ATOM     18  C   UNL     1       5.707  49.981  10.081  1.00  0.00    -0.000 C 
BRANCH  18  19
ATOM     19  C   UNL     1       6.404  49.288   8.904  1.00  0.00    -0.003 C 
ATOM     20  C   UNL     1       6.652  47.813   9.202  1.00  0.00     0.004 C 
ENDBRANCH  18  19
ENDBRANCH  17  18
ENDBRANCH  16  17
ENDBRANCH  15  16
ENDBRANCH  14  15
ENDBRANCH  13  14
ENDBRANCH  12  13
ENDBRANCH   1  12
TORSDOF 16
ENDMDL
MODEL 6
REMARK VINA RESULT:    -4.932      1.736      4.379
REMARK INTER + INTRA:         -12.147
REMARK INTER:                  -9.904
REMARK INTRA:                  -2.243
REMARK UNBOUND:                -2.602
REMARK SMILES CCCCCCCCCCCCCCCCCC(=O)[O-]
REMARK SMILES IDX 10 1 11 2 12 3 13 4 14 5 15 6 16 7 17 8 18 9 19 10 20 11
REMARK SMILES IDX 9 12 8 13 7 14 6 15 5 16 4 17 3 18 2 19 1 20
REMARK H PARENT
REMARK Flexibility Score: inf
ROOT
ATOM      1  C   UNL     1       1.327  46.581   8.323  1.00  0.00     0.000 C 
ENDROOT
BRANCH   1   2
ATOM      2  C   UNL     1       0.728  46.375   9.719  1.00  0.00     0.000 C 
BRANCH   2   3
ATOM      3  C   UNL     1       0.700  44.888  10.092  1.00  0.00     0.000 C 
BRANCH   3   4
ATOM      4  C   UNL     1       1.440  44.044   9.046  1.00  0.00     0.000 C 
BRANCH   4   5
ATOM      5  C   UNL     1       2.285  42.952   9.719  1.00  0.00     0.000 C 
BRANCH   5   6
ATOM      6  C   UNL     1       2.610  43.272  11.186  1.00  0.00     0.000 C 
BRANCH   6   7
ATOM      7  C   UNL     1       3.509  42.207  11.839  1.00  0.00     0.006 C 
BRANCH   7   8
ATOM      8  C   UNL     1       2.780  40.869  12.025  1.00  0.00     0.053 C 
BRANCH   8   9
ATOM      9  C   UNL     1       3.661  39.835  12.655  1.00  0.00     0.041 C 
ATOM     10  O   UNL     1       3.278  38.639  12.737  1.00  0.00    -0.550 OA
ATOM     11  O   UNL     1       4.920  40.187  13.127  1.00  0.00    -0.550 OA
ENDBRANCH   8   9
ENDBRANCH   7   8
ENDBRANCH   6   7
ENDBRANCH   5   6
ENDBRANCH   4   5
ENDBRANCH   3   4
ENDBRANCH   2   3
ENDBRANCH   1   2
BRANCH   1  12
ATOM     12  C   UNL     1       1.834  48.021   8.150  1.00  0.00     0.000 C 
BRANCH  12  13
ATOM     13  C   UNL     1       1.999  48.756   9.489  1.00  0.00    -0.000 C 
BRANCH  13  14
ATOM     14  C   UNL     1       3.006  49.917   9.411  1.00  0.00    -0.000 C 
BRANCH  14  15
ATOM     15  C   UNL     1       4.087  49.828  10.509  1.00  0.00    -0.000 C 
BRANCH  15  16
ATOM     16  C   UNL     1       5.527  49.913   9.968  1.00  0.00    -0.000 C 
BRANCH  16  17
ATOM     17  C   UNL     1       5.867  48.887   8.874  1.00  0.00    -0.000 C 
BRANCH  17  18
ATOM     18  C   UNL     1       6.233  47.509   9.444  1.00  0.00    -0.000 C 
BRANCH  18  19
ATOM     19  C   UNL     1       5.076  46.518   9.264  1.00  0.00    -0.003 C 
ATOM     20  C   UNL     1       4.418  46.191  10.601  1.00  0.00     0.004 C 
ENDBRANCH  18  19
ENDBRANCH  17  18
ENDBRANCH  16  17
ENDBRANCH  15  16
ENDBRANCH  14  15
ENDBRANCH  13  14
ENDBRANCH  12  13
ENDBRANCH   1  12
TORSDOF 16
ENDMDL
MODEL 7
REMARK VINA RESULT:    -4.886      1.259      3.880
REMARK INTER + INTRA:         -12.059
REMARK INTER:                  -9.241
REMARK INTRA:                  -2.818
REMARK UNBOUND:                -2.602
REMARK SMILES CCCCCCCCCCCCCCCCCC(=O)[O-]
REMARK SMILES IDX 10 1 11 2 12 3 13 4 14 5 15 6 16 7 17 8 18 9 19 10 20 11
REMARK SMILES IDX 9 12 8 13 7 14 6 15 5 16 4 17 3 18 2 19 1 20
REMARK H PARENT
REMARK Flexibility Score: inf
ROOT
ATOM      1  C   UNL     1       2.589  47.696   7.490  1.00  0.00     0.000 C 
ENDROOT
BRANCH   1   2
ATOM      2  C   UNL     1       1.207  48.248   7.860  1.00  0.00     0.000 C 
BRANCH   2   3
ATOM      3  C   UNL     1       0.294  47.137   8.393  1.00  0.00     0.000 C 
BRANCH   3   4
ATOM      4  C   UNL     1       0.684  46.741   9.822  1.00  0.00     0.000 C 
BRANCH   4   5
ATOM      5  C   UNL     1       0.406  45.252  10.076  1.00  0.00     0.000 C 
BRANCH   5   6
ATOM      6  C   UNL     1       1.036  44.340   9.011  1.00  0.00     0.000 C 
BRANCH   6   7
ATOM      7  C   UNL     1       2.248  43.556   9.546  1.00  0.00     0.006 C 
BRANCH   7   8
ATOM      8  C   UNL     1       2.014  43.029  10.967  1.00  0.00     0.053 C 
BRANCH   8   9
ATOM      9  C   UNL     1       3.277  43.013  11.772  1.00  0.00     0.041 C 
ATOM     10  O   UNL     1       3.927  41.944  11.913  1.00  0.00    -0.550 OA
ATOM     11  O   UNL     1       3.753  44.187  12.343  1.00  0.00    -0.550 OA
ENDBRANCH   8   9
ENDBRANCH   7   8
ENDBRANCH   6   7
ENDBRANCH   5   6
ENDBRANCH   4   5
ENDBRANCH   3   4
ENDBRANCH   2   3
ENDBRANCH   1   2
BRANCH   1  12
ATOM     12  C   UNL     1       3.547  48.831   7.100  1.00  0.00     0.000 C 
BRANCH  12  13
ATOM     13  C   UNL     1       3.043  50.212   7.546  1.00  0.00    -0.000 C 
BRANCH  13  14
ATOM     14  C   UNL     1       3.883  50.813   8.687  1.00  0.00    -0.000 C 
BRANCH  14  15
ATOM     15  C   UNL     1       3.107  50.861  10.020  1.00  0.00    -0.000 C 
BRANCH  15  16
ATOM     16  C   UNL     1       3.096  49.520  10.779  1.00  0.00    -0.000 C 
BRANCH  16  17
ATOM     17  C   UNL     1       4.412  48.727  10.707  1.00  0.00    -0.000 C 
BRANCH  17  18
ATOM     18  C   UNL     1       4.186  47.214  10.570  1.00  0.00    -0.000 C 
BRANCH  18  19
ATOM     19  C   UNL     1       5.281  46.575   9.706  1.00  0.00    -0.003 C 
ATOM     20  C   UNL     1       6.306  47.613   9.260  1.00  0.00     0.004 C 
ENDBRANCH  18  19
ENDBRANCH  17  18
ENDBRANCH  16  17
ENDBRANCH  15  16
ENDBRANCH  14  15
ENDBRANCH  13  14
ENDBRANCH  12  13
ENDBRANCH   1  12
TORSDOF 16
ENDMDL
MODEL 8
REMARK VINA RESULT:    -4.875      2.463      6.014
REMARK INTER + INTRA:         -12.037
REMARK INTER:                 -10.517
REMARK INTRA:                  -1.520
REMARK UNBOUND:                -2.602
REMARK SMILES CCCCCCCCCCCCCCCCCC(=O)[O-]
REMARK SMILES IDX 10 1 11 2 12 3 13 4 14 5 15 6 16 7 17 8 18 9 19 10 20 11
REMARK SMILES IDX 9 12 8 13 7 14 6 15 5 16 4 17 3 18 2 19 1 20
REMARK H PARENT
REMARK Flexibility Score: inf
ROOT
ATOM      1  C   UNL     1       5.451  47.103   9.869  1.00  0.00     0.000 C 
ENDROOT
BRANCH   1   2
ATOM      2  C   UNL     1       6.567  47.782   9.067  1.00  0.00     0.000 C 
BRANCH   2   3
ATOM      3  C   UNL     1       6.379  49.303   9.039  1.00  0.00     0.000 C 
BRANCH   3   4
ATOM      4  C   UNL     1       5.568  49.780  10.250  1.00  0.00     0.000 C 
BRANCH   4   5
ATOM      5  C   UNL     1       4.489  50.787   9.827  1.00  0.00     0.000 C 
BRANCH   5   6
ATOM      6  C   UNL     1       4.449  51.012   8.307  1.00  0.00     0.000 C 
BRANCH   6   7
ATOM      7  C   UNL     1       3.113  50.578   7.680  1.00  0.00     0.006 C 
BRANCH   7   8
ATOM      8  C   UNL     1       3.078  49.074   7.377  1.00  0.00     0.053 C 
BRANCH   8   9
ATOM      9  C   UNL     1       1.961  48.385   8.100  1.00  0.00     0.041 C 
ATOM     10  O   UNL     1       1.672  48.712   9.280  1.00  0.00    -0.550 OA
ATOM     11  O   UNL     1       1.220  47.400   7.458  1.00  0.00    -0.550 OA
ENDBRANCH   8   9
ENDBRANCH   7   8
ENDBRANCH   6   7
ENDBRANCH   5   6
ENDBRANCH   4   5
ENDBRANCH   3   4
ENDBRANCH   2   3
ENDBRANCH   1   2
BRANCH   1  12
ATOM     12  C   UNL     1       4.657  46.126   8.988  1.00  0.00     0.000 C 
BRANCH  12  13
ATOM     13  C   UNL     1       4.096  44.935   9.780  1.00  0.00    -0.000 C 
BRANCH  13  14
ATOM     14  C   UNL     1       4.158  45.151  11.303  1.00  0.00    -0.000 C 
BRANCH  14  15
ATOM     15  C   UNL     1       3.362  44.080  12.077  1.00  0.00    -0.000 C 
BRANCH  15  16
ATOM     16  C   UNL     1       3.843  42.640  11.814  1.00  0.00    -0.000 C 
BRANCH  16  17
ATOM     17  C   UNL     1       2.720  41.621  11.558  1.00  0.00    -0.000 C 
BRANCH  17  18
ATOM     18  C   UNL     1       2.473  40.695  12.759  1.00  0.00    -0.000 C 
BRANCH  18  19
ATOM     19  C   UNL     1       3.228  39.371  12.592  1.00  0.00    -0.003 C 
ATOM     20  C   UNL     1       4.640  39.467  13.163  1.00  0.00     0.004 C 
ENDBRANCH  18  19
ENDBRANCH  17  18
ENDBRANCH  16  17
ENDBRANCH  15  16
ENDBRANCH  14  15
ENDBRANCH  13  14
ENDBRANCH  12  13
ENDBRANCH   1  12
TORSDOF 16
ENDMDL
MODEL 9
REMARK VINA RESULT:    -4.804      2.189      5.085
REMARK INTER + INTRA:         -11.900
REMARK INTER:                  -9.726
REMARK INTRA:                  -2.174
REMARK UNBOUND:                -2.602
REMARK SMILES CCCCCCCCCCCCCCCCCC(=O)[O-]
REMARK SMILES IDX 10 1 11 2 12 3 13 4 14 5 15 6 16 7 17 8 18 9 19 10 20 11
REMARK SMILES IDX 9 12 8 13 7 14 6 15 5 16 4 17 3 18 2 19 1 20
REMARK H PARENT
REMARK Flexibility Score: inf
ROOT
ATOM      1  C   UNL     1       6.438  47.827   9.057  1.00  0.00     0.000 C 
ENDROOT
BRANCH   1   2
ATOM      2  C   UNL     1       6.399  49.358   9.139  1.00  0.00     0.000 C 
BRANCH   2   3
ATOM      3  C   UNL     1       5.521  49.825  10.306  1.00  0.00     0.000 C 
BRANCH   3   4
ATOM      4  C   UNL     1       4.484  50.853   9.837  1.00  0.00     0.000 C 
BRANCH   4   5
ATOM      5  C   UNL     1       4.527  51.022   8.311  1.00  0.00     0.000 C 
BRANCH   5   6
ATOM      6  C   UNL     1       3.185  50.691   7.639  1.00  0.00     0.000 C 
BRANCH   6   7
ATOM      7  C   UNL     1       2.963  49.177   7.475  1.00  0.00     0.006 C 
BRANCH   7   8
ATOM      8  C   UNL     1       1.921  48.635   8.463  1.00  0.00     0.053 C 
BRANCH   8   9
ATOM      9  C   UNL     1       0.734  48.052   7.758  1.00  0.00     0.041 C 
ATOM     10  O   UNL     1       0.768  46.867   7.336  1.00  0.00    -0.550 OA
ATOM     11  O   UNL     1      -0.420  48.808   7.595  1.00  0.00    -0.550 OA
ENDBRANCH   8   9
ENDBRANCH   7   8
ENDBRANCH   6   7
ENDBRANCH   5   6
ENDBRANCH   4   5
ENDBRANCH   3   4
ENDBRANCH   2   3
ENDBRANCH   1   2
BRANCH   1  12
ATOM     12  C   UNL     1       5.270  47.205   9.839  1.00  0.00     0.000 C 
BRANCH  12  13
ATOM     13  C   UNL     1       4.517  46.138   9.030  1.00  0.00    -0.000 C 
BRANCH  13  14
ATOM     14  C   UNL     1       4.239  44.861   9.842  1.00  0.00    -0.000 C 
BRANCH  14  15
ATOM     15  C   UNL     1       4.151  45.141  11.358  1.00  0.00    -0.000 C 
BRANCH  15  16
ATOM     16  C   UNL     1       3.572  43.968  12.172  1.00  0.00    -0.000 C 
BRANCH  16  17
ATOM     17  C   UNL     1       2.443  43.192  11.472  1.00  0.00    -0.000 C 
BRANCH  17  18
ATOM     18  C   UNL     1       1.078  43.886  11.599  1.00  0.00    -0.000 C 
BRANCH  18  19
ATOM     19  C   UNL     1       0.717  44.621  10.303  1.00  0.00    -0.003 C 
ATOM     20  C   UNL     1      -0.301  45.727  10.563  1.00  0.00     0.004 C 
ENDBRANCH  18  19
ENDBRANCH  17  18
ENDBRANCH  16  17
ENDBRANCH  15  16
ENDBRANCH  14  15
ENDBRANCH  13  14
ENDBRANCH  12  13
ENDBRANCH   1  12
TORSDOF 16
ENDMDL
