MODEL 1
REMARK VINA RESULT:    -8.178      0.000      0.000
REMARK INTER + INTRA:         -10.166
REMARK INTER:                  -9.851
REMARK INTRA:                  -0.315
REMARK UNBOUND:                -0.315
REMARK SMILES Oc1cc(O)c2cc(O)c(-c3ccc(O)c(O)c3)[o+]c2c1
REMARK SMILES IDX 10 1 19 2 20 3 21 4 2 5 3 6 4 7 6 8 7 9 8 10 11 11 12 12
REMARK SMILES IDX 13 13 14 14 18 15 16 16 15 17 17 19 9 21 1 23 5 25
REMARK H PARENT 15 18 17 20 9 22 1 24 5 26
REMARK Flexibility Score: inf
ROOT
ATOM      1  C   UNL     1     -32.723   7.095   2.326  1.00  0.00     0.402 A 
ATOM      2  O   UNL     1     -31.962   7.019   1.238  1.00  0.00    -0.202 OA
ATOM      3  C   UNL     1     -30.705   7.451   1.196  1.00  0.00     0.368 A 
ATOM      4  C   UNL     1     -29.983   7.325   0.007  1.00  0.00     0.162 A 
ATOM      5  C   UNL     1     -28.661   7.766  -0.067  1.00  0.00     0.128 A 
ATOM      6  C   UNL     1     -28.054   8.338   1.058  1.00  0.00     0.093 A 
ATOM      7  C   UNL     1     -28.756   8.475   2.261  1.00  0.00     0.136 A 
ATOM      8  C   UNL     1     -30.102   8.029   2.339  1.00  0.00     0.125 A 
ATOM      9  C   UNL     1     -30.886   8.138   3.498  1.00  0.00     0.078 A 
ATOM     10  C   UNL     1     -32.207   7.681   3.498  1.00  0.00     0.223 A 
ENDROOT
BRANCH   1  11
ATOM     11  C   UNL     1     -34.105   6.570   2.251  1.00  0.00     0.087 A 
ATOM     12  C   UNL     1     -35.208   7.425   2.083  1.00  0.00     0.022 A 
ATOM     13  C   UNL     1     -36.504   6.907   2.039  1.00  0.00     0.051 A 
ATOM     14  C   UNL     1     -36.721   5.528   2.175  1.00  0.00     0.157 A 
ATOM     15  C   UNL     1     -34.329   5.191   2.408  1.00  0.00     0.068 A 
ATOM     16  C   UNL     1     -35.627   4.668   2.363  1.00  0.00     0.158 A 
BRANCH  14  17
ATOM     17  O   UNL     1     -38.016   5.015   2.129  1.00  0.00    -0.504 OA
ATOM     18  H   UNL     1     -38.327   4.427   1.366  1.00  0.00     0.293 HD
ENDBRANCH  14  17
BRANCH  16  19
ATOM     19  O   UNL     1     -35.808   3.293   2.509  1.00  0.00    -0.504 OA
ATOM     20  H   UNL     1     -35.626   2.644   1.752  1.00  0.00     0.293 HD
ENDBRANCH  16  19
ENDBRANCH   1  11
BRANCH  10  21
ATOM     21  O   UNL     1     -33.002   7.834   4.634  1.00  0.00    -0.500 OA
ATOM     22  H   UNL     1     -33.434   7.040   5.092  1.00  0.00     0.294 HD
ENDBRANCH  10  21
BRANCH   5  23
ATOM     23  O   UNL     1     -27.958   7.633  -1.261  1.00  0.00    -0.507 OA
ATOM     24  H   UNL     1     -28.426   7.680  -2.160  1.00  0.00     0.293 HD
ENDBRANCH   5  23
BRANCH   7  25
ATOM     25  O   UNL     1     -28.080   9.052   3.340  1.00  0.00    -0.507 OA
ATOM     26  H   UNL     1     -28.511   9.301   4.217  1.00  0.00     0.293 HD
ENDBRANCH   7  25
TORSDOF 6
ENDMDL
MODEL 2
REMARK VINA RESULT:    -7.938      1.951      6.973
REMARK INTER + INTRA:          -9.877
REMARK INTER:                  -9.609
REMARK INTRA:                  -0.269
REMARK UNBOUND:                -0.315
REMARK SMILES Oc1cc(O)c2cc(O)c(-c3ccc(O)c(O)c3)[o+]c2c1
REMARK SMILES IDX 10 1 19 2 20 3 21 4 2 5 3 6 4 7 6 8 7 9 8 10 11 11 12 12
REMARK SMILES IDX 13 13 14 14 18 15 16 16 15 17 17 19 9 21 1 23 5 25
REMARK H PARENT 15 18 17 20 9 22 1 24 5 26
REMARK Flexibility Score: inf
ROOT
ATOM      1  C   UNL     1     -30.065   7.626   2.041  1.00  0.00     0.402 A 
ATOM      2  O   UNL     1     -30.895   7.209   1.089  1.00  0.00    -0.202 OA
ATOM      3  C   UNL     1     -32.179   6.940   1.307  1.00  0.00     0.368 A 
ATOM      4  C   UNL     1     -32.973   6.510   0.242  1.00  0.00     0.162 A 
ATOM      5  C   UNL     1     -34.325   6.223   0.439  1.00  0.00     0.128 A 
ATOM      6  C   UNL     1     -34.889   6.370   1.712  1.00  0.00     0.093 A 
ATOM      7  C   UNL     1     -34.114   6.800   2.796  1.00  0.00     0.136 A 
ATOM      8  C   UNL     1     -32.738   7.090   2.600  1.00  0.00     0.125 A 
ATOM      9  C   UNL     1     -31.883   7.514   3.629  1.00  0.00     0.078 A 
ATOM     10  C   UNL     1     -30.537   7.776   3.359  1.00  0.00     0.223 A 
ENDROOT
BRANCH   1  11
ATOM     11  C   UNL     1     -28.659   7.903   1.672  1.00  0.00     0.087 A 
ATOM     12  C   UNL     1     -28.145   9.211   1.667  1.00  0.00     0.022 A 
ATOM     13  C   UNL     1     -26.820   9.449   1.292  1.00  0.00     0.051 A 
ATOM     14  C   UNL     1     -25.992   8.386   0.904  1.00  0.00     0.157 A 
ATOM     15  C   UNL     1     -27.831   6.844   1.262  1.00  0.00     0.068 A 
ATOM     16  C   UNL     1     -26.503   7.078   0.887  1.00  0.00     0.158 A 
BRANCH  14  17
ATOM     17  O   UNL     1     -24.671   8.627   0.532  1.00  0.00    -0.504 OA
ATOM     18  H   UNL     1     -24.312   9.568   0.429  1.00  0.00     0.293 HD
ENDBRANCH  14  17
BRANCH  16  19
ATOM     19  O   UNL     1     -25.709   5.999   0.499  1.00  0.00    -0.504 OA
ATOM     20  H   UNL     1     -26.085   5.064   0.395  1.00  0.00     0.293 HD
ENDBRANCH  16  19
ENDBRANCH   1  11
BRANCH  10  21
ATOM     21  O   UNL     1     -29.675   8.149   4.391  1.00  0.00    -0.500 OA
ATOM     22  H   UNL     1     -29.945   8.834   5.088  1.00  0.00     0.294 HD
ENDBRANCH  10  21
BRANCH   5  23
ATOM     23  O   UNL     1     -35.100   5.795  -0.634  1.00  0.00    -0.507 OA
ATOM     24  H   UNL     1     -35.187   6.348  -1.480  1.00  0.00     0.293 HD
ENDBRANCH   5  23
BRANCH   7  25
ATOM     25  O   UNL     1     -34.751   6.925   4.035  1.00  0.00    -0.507 OA
ATOM     26  H   UNL     1     -35.549   6.379   4.323  1.00  0.00     0.293 HD
ENDBRANCH   7  25
TORSDOF 6
ENDMDL
MODEL 3
REMARK VINA RESULT:    -7.837      1.673      2.666
REMARK INTER + INTRA:          -9.756
REMARK INTER:                  -9.680
REMARK INTRA:                  -0.076
REMARK UNBOUND:                -0.315
REMARK SMILES Oc1cc(O)c2cc(O)c(-c3ccc(O)c(O)c3)[o+]c2c1
REMARK SMILES IDX 10 1 19 2 20 3 21 4 2 5 3 6 4 7 6 8 7 9 8 10 11 11 12 12
REMARK SMILES IDX 13 13 14 14 18 15 16 16 15 17 17 19 9 21 1 23 5 25
REMARK H PARENT 15 18 17 20 9 22 1 24 5 26
REMARK Flexibility Score: inf
ROOT
ATOM      1  C   UNL     1     -32.511   5.622   1.394  1.00  0.00     0.402 A 
ATOM      2  O   UNL     1     -31.905   6.738   1.788  1.00  0.00    -0.202 OA
ATOM      3  C   UNL     1     -30.595   6.934   1.676  1.00  0.00     0.368 A 
ATOM      4  C   UNL     1     -30.049   8.143   2.117  1.00  0.00     0.162 A 
ATOM      5  C   UNL     1     -28.677   8.379   2.010  1.00  0.00     0.128 A 
ATOM      6  C   UNL     1     -27.844   7.400   1.456  1.00  0.00     0.093 A 
ATOM      7  C   UNL     1     -28.366   6.181   1.006  1.00  0.00     0.136 A 
ATOM      8  C   UNL     1     -29.760   5.936   1.117  1.00  0.00     0.125 A 
ATOM      9  C   UNL     1     -30.370   4.740   0.706  1.00  0.00     0.078 A 
ATOM     10  C   UNL     1     -31.750   4.570   0.850  1.00  0.00     0.223 A 
ENDROOT
BRANCH   1  11
ATOM     11  C   UNL     1     -33.979   5.527   1.561  1.00  0.00     0.087 A 
ATOM     12  C   UNL     1     -34.844   6.495   1.023  1.00  0.00     0.022 A 
ATOM     13  C   UNL     1     -36.224   6.396   1.214  1.00  0.00     0.051 A 
ATOM     14  C   UNL     1     -36.761   5.334   1.956  1.00  0.00     0.157 A 
ATOM     15  C   UNL     1     -34.521   4.477   2.322  1.00  0.00     0.068 A 
ATOM     16  C   UNL     1     -35.903   4.372   2.515  1.00  0.00     0.158 A 
BRANCH  14  17
ATOM     17  O   UNL     1     -38.138   5.237   2.144  1.00  0.00    -0.504 OA
ATOM     18  H   UNL     1     -38.777   5.160   1.361  1.00  0.00     0.293 HD
ENDBRANCH  14  17
BRANCH  16  19
ATOM     19  O   UNL     1     -36.404   3.309   3.264  1.00  0.00    -0.504 OA
ATOM     20  H   UNL     1     -36.771   3.436   4.200  1.00  0.00     0.293 HD
ENDBRANCH  16  19
ENDBRANCH   1  11
BRANCH  10  21
ATOM     21  O   UNL     1     -32.348   3.364   0.488  1.00  0.00    -0.500 OA
ATOM     22  H   UNL     1     -33.238   3.335   0.003  1.00  0.00     0.294 HD
ENDBRANCH  10  21
BRANCH   5  23
ATOM     23  O   UNL     1     -28.152   9.588   2.455  1.00  0.00    -0.507 OA
ATOM     24  H   UNL     1     -28.722  10.425   2.510  1.00  0.00     0.293 HD
ENDBRANCH   5  23
BRANCH   7  25
ATOM     25  O   UNL     1     -27.469   5.256   0.463  1.00  0.00    -0.507 OA
ATOM     26  H   UNL     1     -26.972   4.560   0.999  1.00  0.00     0.293 HD
ENDBRANCH   7  25
TORSDOF 6
ENDMDL
MODEL 4
REMARK VINA RESULT:    -7.773      1.515      7.184
REMARK INTER + INTRA:          -9.679
REMARK INTER:                  -9.421
REMARK INTRA:                  -0.258
REMARK UNBOUND:                -0.315
REMARK SMILES Oc1cc(O)c2cc(O)c(-c3ccc(O)c(O)c3)[o+]c2c1
REMARK SMILES IDX 10 1 19 2 20 3 21 4 2 5 3 6 4 7 6 8 7 9 8 10 11 11 12 12
REMARK SMILES IDX 13 13 14 14 18 15 16 16 15 17 17 19 9 21 1 23 5 25
REMARK H PARENT 15 18 17 20 9 22 1 24 5 26
REMARK Flexibility Score: inf
ROOT
ATOM      1  C   UNL     1     -31.124   6.629   1.468  1.00  0.00     0.402 A 
ATOM      2  O   UNL     1     -32.261   7.291   1.669  1.00  0.00    -0.202 OA
ATOM      3  C   UNL     1     -33.430   6.689   1.864  1.00  0.00     0.368 A 
ATOM      4  C   UNL     1     -34.570   7.471   2.069  1.00  0.00     0.162 A 
ATOM      5  C   UNL     1     -35.811   6.868   2.280  1.00  0.00     0.128 A 
ATOM      6  C   UNL     1     -35.914   5.472   2.287  1.00  0.00     0.093 A 
ATOM      7  C   UNL     1     -34.787   4.666   2.084  1.00  0.00     0.136 A 
ATOM      8  C   UNL     1     -33.523   5.276   1.867  1.00  0.00     0.125 A 
ATOM      9  C   UNL     1     -32.343   4.550   1.642  1.00  0.00     0.078 A 
ATOM     10  C   UNL     1     -31.136   5.222   1.431  1.00  0.00     0.223 A 
ENDROOT
BRANCH   1  11
ATOM     11  C   UNL     1     -29.883   7.412   1.274  1.00  0.00     0.087 A 
ATOM     12  C   UNL     1     -29.258   7.496   0.018  1.00  0.00     0.022 A 
ATOM     13  C   UNL     1     -28.074   8.222  -0.135  1.00  0.00     0.051 A 
ATOM     14  C   UNL     1     -27.490   8.865   0.965  1.00  0.00     0.157 A 
ATOM     15  C   UNL     1     -29.283   8.040   2.378  1.00  0.00     0.068 A 
ATOM     16  C   UNL     1     -28.098   8.770   2.229  1.00  0.00     0.158 A 
BRANCH  14  17
ATOM     17  O   UNL     1     -26.311   9.590   0.808  1.00  0.00    -0.504 OA
ATOM     18  H   UNL     1     -25.767   9.898   1.604  1.00  0.00     0.293 HD
ENDBRANCH  14  17
BRANCH  16  19
ATOM     19  O   UNL     1     -27.540   9.391   3.345  1.00  0.00    -0.504 OA
ATOM     20  H   UNL     1     -27.968  10.199   3.782  1.00  0.00     0.293 HD
ENDBRANCH  16  19
ENDBRANCH   1  11
BRANCH  10  21
ATOM     21  O   UNL     1     -29.972   4.502   1.158  1.00  0.00    -0.500 OA
ATOM     22  H   UNL     1     -29.147   4.582   1.742  1.00  0.00     0.294 HD
ENDBRANCH  10  21
BRANCH   5  23
ATOM     23  O   UNL     1     -36.935   7.663   2.482  1.00  0.00    -0.507 OA
ATOM     24  H   UNL     1     -37.652   7.408   3.152  1.00  0.00     0.293 HD
ENDBRANCH   5  23
BRANCH   7  25
ATOM     25  O   UNL     1     -34.972   3.281   2.109  1.00  0.00    -0.507 OA
ATOM     26  H   UNL     1     -35.657   2.806   2.677  1.00  0.00     0.293 HD
ENDBRANCH   7  25
TORSDOF 6
ENDMDL
MODEL 5
REMARK VINA RESULT:    -7.645      2.009      3.030
REMARK INTER + INTRA:          -9.524
REMARK INTER:                  -9.195
REMARK INTRA:                  -0.329
REMARK UNBOUND:                -0.315
REMARK SMILES Oc1cc(O)c2cc(O)c(-c3ccc(O)c(O)c3)[o+]c2c1
REMARK SMILES IDX 10 1 19 2 20 3 21 4 2 5 3 6 4 7 6 8 7 9 8 10 11 11 12 12
REMARK SMILES IDX 13 13 14 14 18 15 16 16 15 17 17 19 9 21 1 23 5 25
REMARK H PARENT 15 18 17 20 9 22 1 24 5 26
REMARK Flexibility Score: inf
ROOT
ATOM      1  C   UNL     1     -31.086   6.262   1.104  1.00  0.00     0.402 A 
ATOM      2  O   UNL     1     -30.516   7.456   1.244  1.00  0.00    -0.202 OA
ATOM      3  C   UNL     1     -29.204   7.651   1.167  1.00  0.00     0.368 A 
ATOM      4  C   UNL     1     -28.699   8.944   1.325  1.00  0.00     0.162 A 
ATOM      5  C   UNL     1     -27.325   9.181   1.247  1.00  0.00     0.128 A 
ATOM      6  C   UNL     1     -26.449   8.117   1.006  1.00  0.00     0.093 A 
ATOM      7  C   UNL     1     -26.929   6.811   0.844  1.00  0.00     0.136 A 
ATOM      8  C   UNL     1     -28.325   6.567   0.926  1.00  0.00     0.125 A 
ATOM      9  C   UNL     1     -28.896   5.291   0.789  1.00  0.00     0.078 A 
ATOM     10  C   UNL     1     -30.280   5.127   0.887  1.00  0.00     0.223 A 
ENDROOT
BRANCH   1  11
ATOM     11  C   UNL     1     -32.561   6.174   1.200  1.00  0.00     0.087 A 
ATOM     12  C   UNL     1     -33.365   6.056   0.053  1.00  0.00     0.022 A 
ATOM     13  C   UNL     1     -34.756   5.998   0.168  1.00  0.00     0.051 A 
ATOM     14  C   UNL     1     -35.366   6.069   1.428  1.00  0.00     0.157 A 
ATOM     15  C   UNL     1     -33.178   6.266   2.459  1.00  0.00     0.068 A 
ATOM     16  C   UNL     1     -34.571   6.207   2.578  1.00  0.00     0.158 A 
BRANCH  14  17
ATOM     17  O   UNL     1     -36.753   6.010   1.539  1.00  0.00    -0.504 OA
ATOM     18  H   UNL     1     -37.357   6.583   0.963  1.00  0.00     0.293 HD
ENDBRANCH  14  17
BRANCH  16  19
ATOM     19  O   UNL     1     -35.146   6.288   3.846  1.00  0.00    -0.504 OA
ATOM     20  H   UNL     1     -35.775   7.039   4.104  1.00  0.00     0.293 HD
ENDBRANCH  16  19
ENDBRANCH   1  11
BRANCH  10  21
ATOM     21  O   UNL     1     -30.843   3.854   0.801  1.00  0.00    -0.500 OA
ATOM     22  H   UNL     1     -31.779   3.708   0.439  1.00  0.00     0.294 HD
ENDBRANCH  10  21
BRANCH   5  23
ATOM     23  O   UNL     1     -26.842  10.476   1.408  1.00  0.00    -0.507 OA
ATOM     24  H   UNL     1     -26.794  11.124   0.630  1.00  0.00     0.293 HD
ENDBRANCH   5  23
BRANCH   7  25
ATOM     25  O   UNL     1     -25.990   5.804   0.604  1.00  0.00    -0.507 OA
ATOM     26  H   UNL     1     -25.903   4.962   1.154  1.00  0.00     0.293 HD
ENDBRANCH   7  25
TORSDOF 6
ENDMDL
MODEL 6
REMARK VINA RESULT:    -7.484      1.567      7.095
REMARK INTER + INTRA:          -9.330
REMARK INTER:                  -9.357
REMARK INTRA:                   0.028
REMARK UNBOUND:                -0.315
REMARK SMILES Oc1cc(O)c2cc(O)c(-c3ccc(O)c(O)c3)[o+]c2c1
REMARK SMILES IDX 10 1 19 2 20 3 21 4 2 5 3 6 4 7 6 8 7 9 8 10 11 11 12 12
REMARK SMILES IDX 13 13 14 14 18 15 16 16 15 17 17 19 9 21 1 23 5 25
REMARK H PARENT 15 18 17 20 9 22 1 24 5 26
REMARK Flexibility Score: inf
ROOT
ATOM      1  C   UNL     1     -32.011   6.782   1.613  1.00  0.00     0.402 A 
ATOM      2  O   UNL     1     -32.494   5.591   1.954  1.00  0.00    -0.202 OA
ATOM      3  C   UNL     1     -33.793   5.333   2.057  1.00  0.00     0.368 A 
ATOM      4  C   UNL     1     -34.204   4.047   2.420  1.00  0.00     0.162 A 
ATOM      5  C   UNL     1     -35.562   3.745   2.533  1.00  0.00     0.128 A 
ATOM      6  C   UNL     1     -36.519   4.736   2.281  1.00  0.00     0.093 A 
ATOM      7  C   UNL     1     -36.133   6.032   1.916  1.00  0.00     0.136 A 
ATOM      8  C   UNL     1     -34.752   6.343   1.803  1.00  0.00     0.125 A 
ATOM      9  C   UNL     1     -34.273   7.616   1.456  1.00  0.00     0.078 A 
ATOM     10  C   UNL     1     -32.898   7.848   1.368  1.00  0.00     0.223 A 
ENDROOT
BRANCH   1  11
ATOM     11  C   UNL     1     -30.542   6.943   1.521  1.00  0.00     0.087 A 
ATOM     12  C   UNL     1     -29.744   6.014   0.832  1.00  0.00     0.022 A 
ATOM     13  C   UNL     1     -28.358   6.175   0.779  1.00  0.00     0.051 A 
ATOM     14  C   UNL     1     -27.745   7.259   1.424  1.00  0.00     0.157 A 
ATOM     15  C   UNL     1     -29.922   8.016   2.184  1.00  0.00     0.068 A 
ATOM     16  C   UNL     1     -28.533   8.181   2.133  1.00  0.00     0.158 A 
BRANCH  14  17
ATOM     17  O   UNL     1     -26.362   7.417   1.368  1.00  0.00    -0.504 OA
ATOM     18  H   UNL     1     -25.885   8.125   1.913  1.00  0.00     0.293 HD
ENDBRANCH  14  17
BRANCH  16  19
ATOM     19  O   UNL     1     -27.956   9.266   2.791  1.00  0.00    -0.504 OA
ATOM     20  H   UNL     1     -28.278  10.216   2.649  1.00  0.00     0.293 HD
ENDBRANCH  16  19
ENDBRANCH   1  11
BRANCH  10  21
ATOM     21  O   UNL     1     -32.420   9.125   1.072  1.00  0.00    -0.500 OA
ATOM     22  H   UNL     1     -32.719   9.627   0.243  1.00  0.00     0.294 HD
ENDBRANCH  10  21
BRANCH   5  23
ATOM     23  O   UNL     1     -35.952   2.459   2.896  1.00  0.00    -0.507 OA
ATOM     24  H   UNL     1     -36.278   2.248   3.832  1.00  0.00     0.293 HD
ENDBRANCH   5  23
BRANCH   7  25
ATOM     25  O   UNL     1     -37.148   6.963   1.678  1.00  0.00    -0.507 OA
ATOM     26  H   UNL     1     -37.649   7.458   2.401  1.00  0.00     0.293 HD
ENDBRANCH   7  25
TORSDOF 6
ENDMDL
MODEL 7
REMARK VINA RESULT:    -7.389      1.986      2.812
REMARK INTER + INTRA:          -9.216
REMARK INTER:                  -8.863
REMARK INTRA:                  -0.353
REMARK UNBOUND:                -0.315
REMARK SMILES Oc1cc(O)c2cc(O)c(-c3ccc(O)c(O)c3)[o+]c2c1
REMARK SMILES IDX 10 1 19 2 20 3 21 4 2 5 3 6 4 7 6 8 7 9 8 10 11 11 12 12
REMARK SMILES IDX 13 13 14 14 18 15 16 16 15 17 17 19 9 21 1 23 5 25
REMARK H PARENT 15 18 17 20 9 22 1 24 5 26
REMARK Flexibility Score: inf
ROOT
ATOM      1  C   UNL     1     -30.567   7.078   1.601  1.00  0.00     0.402 A 
ATOM      2  O   UNL     1     -29.526   6.405   1.120  1.00  0.00    -0.202 OA
ATOM      3  C   UNL     1     -28.311   6.930   0.997  1.00  0.00     0.368 A 
ATOM      4  C   UNL     1     -27.279   6.141   0.482  1.00  0.00     0.162 A 
ATOM      5  C   UNL     1     -25.992   6.664   0.345  1.00  0.00     0.128 A 
ATOM      6  C   UNL     1     -25.733   7.985   0.727  1.00  0.00     0.093 A 
ATOM      7  C   UNL     1     -26.750   8.796   1.246  1.00  0.00     0.136 A 
ATOM      8  C   UNL     1     -28.061   8.269   1.385  1.00  0.00     0.125 A 
ATOM      9  C   UNL     1     -29.144   9.010   1.882  1.00  0.00     0.078 A 
ATOM     10  C   UNL     1     -30.408   8.424   1.985  1.00  0.00     0.223 A 
ENDROOT
BRANCH   1  11
ATOM     11  C   UNL     1     -31.869   6.380   1.698  1.00  0.00     0.087 A 
ATOM     12  C   UNL     1     -32.253   5.704   2.869  1.00  0.00     0.022 A 
ATOM     13  C   UNL     1     -33.477   5.033   2.928  1.00  0.00     0.051 A 
ATOM     14  C   UNL     1     -34.330   5.016   1.815  1.00  0.00     0.157 A 
ATOM     15  C   UNL     1     -32.718   6.342   0.579  1.00  0.00     0.068 A 
ATOM     16  C   UNL     1     -33.945   5.672   0.635  1.00  0.00     0.158 A 
BRANCH  14  17
ATOM     17  O   UNL     1     -35.550   4.347   1.879  1.00  0.00    -0.504 OA
ATOM     18  H   UNL     1     -35.938   4.031   2.760  1.00  0.00     0.293 HD
ENDBRANCH  14  17
BRANCH  16  19
ATOM     19  O   UNL     1     -34.766   5.669  -0.492  1.00  0.00    -0.504 OA
ATOM     20  H   UNL     1     -34.457   5.293  -1.382  1.00  0.00     0.293 HD
ENDBRANCH  16  19
ENDBRANCH   1  11
BRANCH  10  21
ATOM     21  O   UNL     1     -31.495   9.175   2.432  1.00  0.00    -0.500 OA
ATOM     22  H   UNL     1     -32.372   8.739   2.695  1.00  0.00     0.294 HD
ENDBRANCH  10  21
BRANCH   5  23
ATOM     23  O   UNL     1     -24.977   5.863  -0.171  1.00  0.00    -0.507 OA
ATOM     24  H   UNL     1     -24.959   5.593  -1.148  1.00  0.00     0.293 HD
ENDBRANCH   5  23
BRANCH   7  25
ATOM     25  O   UNL     1     -26.411  10.103   1.608  1.00  0.00    -0.507 OA
ATOM     26  H   UNL     1     -26.710  10.929   1.110  1.00  0.00     0.293 HD
ENDBRANCH   7  25
TORSDOF 6
ENDMDL
MODEL 8
REMARK VINA RESULT:    -7.381      1.728      7.052
REMARK INTER + INTRA:          -9.206
REMARK INTER:                  -8.927
REMARK INTRA:                  -0.279
REMARK UNBOUND:                -0.315
REMARK SMILES Oc1cc(O)c2cc(O)c(-c3ccc(O)c(O)c3)[o+]c2c1
REMARK SMILES IDX 10 1 19 2 20 3 21 4 2 5 3 6 4 7 6 8 7 9 8 10 11 11 12 12
REMARK SMILES IDX 13 13 14 14 18 15 16 16 15 17 17 19 9 21 1 23 5 25
REMARK H PARENT 15 18 17 20 9 22 1 24 5 26
REMARK Flexibility Score: inf
ROOT
ATOM      1  C   UNL     1     -30.194   6.871   1.255  1.00  0.00     0.402 A 
ATOM      2  O   UNL     1     -30.993   5.818   1.114  1.00  0.00    -0.202 OA
ATOM      3  C   UNL     1     -32.159   5.698   1.741  1.00  0.00     0.368 A 
ATOM      4  C   UNL     1     -32.931   4.553   1.528  1.00  0.00     0.162 A 
ATOM      5  C   UNL     1     -34.161   4.401   2.170  1.00  0.00     0.128 A 
ATOM      6  C   UNL     1     -34.625   5.401   3.032  1.00  0.00     0.093 A 
ATOM      7  C   UNL     1     -33.870   6.558   3.263  1.00  0.00     0.136 A 
ATOM      8  C   UNL     1     -32.617   6.715   2.614  1.00  0.00     0.125 A 
ATOM      9  C   UNL     1     -31.787   7.833   2.795  1.00  0.00     0.078 A 
ATOM     10  C   UNL     1     -30.564   7.915   2.123  1.00  0.00     0.223 A 
ENDROOT
BRANCH   1  11
ATOM     11  C   UNL     1     -28.924   6.893   0.494  1.00  0.00     0.087 A 
ATOM     12  C   UNL     1     -28.903   7.118  -0.894  1.00  0.00     0.022 A 
ATOM     13  C   UNL     1     -27.695   7.111  -1.593  1.00  0.00     0.051 A 
ATOM     14  C   UNL     1     -26.489   6.867  -0.921  1.00  0.00     0.157 A 
ATOM     15  C   UNL     1     -27.715   6.628   1.159  1.00  0.00     0.068 A 
ATOM     16  C   UNL     1     -26.502   6.621   0.462  1.00  0.00     0.158 A 
BRANCH  14  17
ATOM     17  O   UNL     1     -25.285   6.862  -1.622  1.00  0.00    -0.504 OA
ATOM     18  H   UNL     1     -24.421   7.178  -1.197  1.00  0.00     0.293 HD
ENDBRANCH  14  17
BRANCH  16  19
ATOM     19  O   UNL     1     -25.321   6.368   1.160  1.00  0.00    -0.504 OA
ATOM     20  H   UNL     1     -24.616   7.082   1.301  1.00  0.00     0.293 HD
ENDBRANCH  16  19
ENDBRANCH   1  11
BRANCH  10  21
ATOM     21  O   UNL     1     -29.717   9.002   2.341  1.00  0.00    -0.500 OA
ATOM     22  H   UNL     1     -30.049   9.858   2.772  1.00  0.00     0.294 HD
ENDBRANCH  10  21
BRANCH   5  23
ATOM     23  O   UNL     1     -34.916   3.253   1.944  1.00  0.00    -0.507 OA
ATOM     24  H   UNL     1     -34.763   2.405   2.479  1.00  0.00     0.293 HD
ENDBRANCH   5  23
BRANCH   7  25
ATOM     25  O   UNL     1     -34.402   7.512   4.135  1.00  0.00    -0.507 OA
ATOM     26  H   UNL     1     -34.549   8.482   3.899  1.00  0.00     0.293 HD
ENDBRANCH   7  25
TORSDOF 6
ENDMDL
MODEL 9
REMARK VINA RESULT:    -7.275      2.116      7.637
REMARK INTER + INTRA:          -9.079
REMARK INTER:                  -9.073
REMARK INTRA:                  -0.006
REMARK UNBOUND:                -0.315
REMARK SMILES Oc1cc(O)c2cc(O)c(-c3ccc(O)c(O)c3)[o+]c2c1
REMARK SMILES IDX 10 1 19 2 20 3 21 4 2 5 3 6 4 7 6 8 7 9 8 10 11 11 12 12
REMARK SMILES IDX 13 13 14 14 18 15 16 16 15 17 17 19 9 21 1 23 5 25
REMARK H PARENT 15 18 17 20 9 22 1 24 5 26
REMARK Flexibility Score: inf
ROOT
ATOM      1  C   UNL     1     -29.379   7.043   1.252  1.00  0.00     0.402 A 
ATOM      2  O   UNL     1     -30.491   7.651   1.657  1.00  0.00    -0.202 OA
ATOM      3  C   UNL     1     -31.664   7.035   1.756  1.00  0.00     0.368 A 
ATOM      4  C   UNL     1     -32.777   7.758   2.195  1.00  0.00     0.162 A 
ATOM      5  C   UNL     1     -34.021   7.137   2.312  1.00  0.00     0.128 A 
ATOM      6  C   UNL     1     -34.156   5.782   1.990  1.00  0.00     0.093 A 
ATOM      7  C   UNL     1     -33.057   5.035   1.549  1.00  0.00     0.136 A 
ATOM      8  C   UNL     1     -31.790   5.664   1.426  1.00  0.00     0.125 A 
ATOM      9  C   UNL     1     -30.637   4.998   0.979  1.00  0.00     0.078 A 
ATOM     10  C   UNL     1     -29.424   5.686   0.880  1.00  0.00     0.223 A 
ENDROOT
BRANCH   1  11
ATOM     11  C   UNL     1     -28.130   7.835   1.193  1.00  0.00     0.087 A 
ATOM     12  C   UNL     1     -27.705   8.619   2.280  1.00  0.00     0.022 A 
ATOM     13  C   UNL     1     -26.535   9.375   2.192  1.00  0.00     0.051 A 
ATOM     14  C   UNL     1     -25.776   9.370   1.013  1.00  0.00     0.157 A 
ATOM     15  C   UNL     1     -27.377   7.850   0.006  1.00  0.00     0.068 A 
ATOM     16  C   UNL     1     -26.203   8.606  -0.085  1.00  0.00     0.158 A 
BRANCH  14  17
ATOM     17  O   UNL     1     -24.608  10.125   0.929  1.00  0.00    -0.504 OA
ATOM     18  H   UNL     1     -24.616  11.083   0.600  1.00  0.00     0.293 HD
ENDBRANCH  14  17
BRANCH  16  19
ATOM     19  O   UNL     1     -25.476   8.585  -1.275  1.00  0.00    -0.504 OA
ATOM     20  H   UNL     1     -24.529   8.226  -1.320  1.00  0.00     0.293 HD
ENDBRANCH  16  19
ENDBRANCH   1  11
BRANCH  10  21
ATOM     21  O   UNL     1     -28.290   5.039   0.389  1.00  0.00    -0.500 OA
ATOM     22  H   UNL     1     -28.318   4.070   0.090  1.00  0.00     0.294 HD
ENDBRANCH  10  21
BRANCH   5  23
ATOM     23  O   UNL     1     -35.118   7.875   2.750  1.00  0.00    -0.507 OA
ATOM     24  H   UNL     1     -35.004   8.707   3.318  1.00  0.00     0.293 HD
ENDBRANCH   5  23
BRANCH   7  25
ATOM     25  O   UNL     1     -33.272   3.686   1.250  1.00  0.00    -0.507 OA
ATOM     26  H   UNL     1     -32.664   2.934   1.537  1.00  0.00     0.293 HD
ENDBRANCH   7  25
TORSDOF 6
ENDMDL
