MODEL 1
REMARK VINA RESULT:    -3.792      0.000      0.000
REMARK INTER + INTRA:          -8.170
REMARK INTER:                  -6.896
REMARK INTRA:                  -1.274
REMARK UNBOUND:                -1.274
REMARK SMILES CCCCCCCCCCCCCCCC(=O)[O-]
REMARK SMILES IDX 9 1 10 2 11 3 12 4 13 5 14 6 15 7 16 8 17 9 18 10 8 11 7 12
REMARK SMILES IDX 6 13 5 14 4 15 3 16 2 17 1 18
REMARK H PARENT
REMARK Flexibility Score: inf
ROOT
ATOM      1  C   UNL     1      63.443  45.143  16.430  1.00  0.00     0.000 C 
ENDROOT
BRANCH   1   2
ATOM      2  C   UNL     1      62.108  44.464  16.787  1.00  0.00     0.000 C 
BRANCH   2   3
ATOM      3  C   UNL     1      61.133  45.405  17.514  1.00  0.00     0.000 C 
BRANCH   3   4
ATOM      4  C   UNL     1      59.751  44.769  17.755  1.00  0.00     0.000 C 
BRANCH   4   5
ATOM      5  C   UNL     1      58.794  44.805  16.549  1.00  0.00     0.000 C 
BRANCH   5   6
ATOM      6  C   UNL     1      57.520  45.620  16.818  1.00  0.00     0.006 C 
BRANCH   6   7
ATOM      7  C   UNL     1      57.476  46.876  15.941  1.00  0.00     0.053 C 
BRANCH   7   8
ATOM      8  C   UNL     1      56.902  46.558  14.597  1.00  0.00     0.041 C 
ATOM      9  O   UNL     1      55.823  45.915  14.506  1.00  0.00    -0.550 OA
ATOM     10  O   UNL     1      57.585  46.927  13.446  1.00  0.00    -0.550 OA
ENDBRANCH   7   8
ENDBRANCH   6   7
ENDBRANCH   5   6
ENDBRANCH   4   5
ENDBRANCH   3   4
ENDBRANCH   2   3
ENDBRANCH   1   2
BRANCH   1  11
ATOM     11  C   UNL     1      64.210  44.509  15.251  1.00  0.00     0.000 C 
BRANCH  11  12
ATOM     12  C   UNL     1      63.834  43.047  14.939  1.00  0.00    -0.000 C 
BRANCH  12  13
ATOM     13  C   UNL     1      64.694  41.989  15.658  1.00  0.00    -0.000 C 
BRANCH  13  14
ATOM     14  C   UNL     1      63.941  40.710  16.075  1.00  0.00    -0.000 C 
BRANCH  14  15
ATOM     15  C   UNL     1      63.815  40.488  17.594  1.00  0.00    -0.000 C 
BRANCH  15  16
ATOM     16  C   UNL     1      64.172  41.741  18.411  1.00  0.00    -0.000 C 
BRANCH  16  17
ATOM     17  C   UNL     1      63.059  42.140  19.393  1.00  0.00    -0.003 C 
ATOM     18  C   UNL     1      62.560  40.964  20.233  1.00  0.00     0.004 C 
ENDBRANCH  16  17
ENDBRANCH  15  16
ENDBRANCH  14  15
ENDBRANCH  13  14
ENDBRANCH  12  13
ENDBRANCH  11  12
ENDBRANCH   1  11
TORSDOF 14
ENDMDL
MODEL 2
REMARK VINA RESULT:    -3.710      1.202      2.496
REMARK INTER + INTRA:          -8.020
REMARK INTER:                  -6.639
REMARK INTRA:                  -1.381
REMARK UNBOUND:                -1.274
REMARK SMILES CCCCCCCCCCCCCCCC(=O)[O-]
REMARK SMILES IDX 9 1 10 2 11 3 12 4 13 5 14 6 15 7 16 8 17 9 18 10 8 11 7 12
REMARK SMILES IDX 6 13 5 14 4 15 3 16 2 17 1 18
REMARK H PARENT
REMARK Flexibility Score: inf
ROOT
ATOM      1  C   UNL     1      60.883  45.158  17.992  1.00  0.00     0.000 C 
ENDROOT
BRANCH   1   2
ATOM      2  C   UNL     1      60.460  44.241  19.155  1.00  0.00     0.000 C 
BRANCH   2   3
ATOM      3  C   UNL     1      58.934  44.148  19.320  1.00  0.00     0.000 C 
BRANCH   3   4
ATOM      4  C   UNL     1      58.165  44.636  18.078  1.00  0.00     0.000 C 
BRANCH   4   5
ATOM      5  C   UNL     1      57.609  43.522  17.171  1.00  0.00     0.000 C 
BRANCH   5   6
ATOM      6  C   UNL     1      57.639  43.890  15.681  1.00  0.00     0.006 C 
BRANCH   6   7
ATOM      7  C   UNL     1      56.324  44.550  15.252  1.00  0.00     0.053 C 
BRANCH   7   8
ATOM      8  C   UNL     1      56.572  45.943  14.765  1.00  0.00     0.041 C 
ATOM      9  O   UNL     1      57.594  46.573  15.142  1.00  0.00    -0.550 OA
ATOM     10  O   UNL     1      55.647  46.562  13.934  1.00  0.00    -0.550 OA
ENDBRANCH   7   8
ENDBRANCH   6   7
ENDBRANCH   5   6
ENDBRANCH   4   5
ENDBRANCH   3   4
ENDBRANCH   2   3
ENDBRANCH   1   2
BRANCH   1  11
ATOM     11  C   UNL     1      61.808  44.507  16.943  1.00  0.00     0.000 C 
BRANCH  11  12
ATOM     12  C   UNL     1      63.194  45.166  16.796  1.00  0.00    -0.000 C 
BRANCH  12  13
ATOM     13  C   UNL     1      64.040  44.641  15.619  1.00  0.00    -0.000 C 
BRANCH  13  14
ATOM     14  C   UNL     1      63.607  43.270  15.064  1.00  0.00    -0.000 C 
BRANCH  14  15
ATOM     15  C   UNL     1      64.569  42.106  15.367  1.00  0.00    -0.000 C 
BRANCH  15  16
ATOM     16  C   UNL     1      63.868  40.911  16.033  1.00  0.00    -0.000 C 
BRANCH  16  17
ATOM     17  C   UNL     1      64.311  40.707  17.491  1.00  0.00    -0.003 C 
ATOM     18  C   UNL     1      63.666  41.708  18.452  1.00  0.00     0.004 C 
ENDBRANCH  16  17
ENDBRANCH  15  16
ENDBRANCH  14  15
ENDBRANCH  13  14
ENDBRANCH  12  13
ENDBRANCH  11  12
ENDBRANCH   1  11
TORSDOF 14
ENDMDL
MODEL 3
REMARK VINA RESULT:    -3.488     11.355     13.190
REMARK INTER + INTRA:          -7.617
REMARK INTER:                  -5.992
REMARK INTRA:                  -1.625
REMARK UNBOUND:                -1.274
REMARK SMILES CCCCCCCCCCCCCCCC(=O)[O-]
REMARK SMILES IDX 9 1 10 2 11 3 12 4 13 5 14 6 15 7 16 8 17 9 18 10 8 11 7 12
REMARK SMILES IDX 6 13 5 14 4 15 3 16 2 17 1 18
REMARK H PARENT
REMARK Flexibility Score: inf
ROOT
ATOM      1  C   UNL     1      49.241  44.342  14.891  1.00  0.00     0.000 C 
ENDROOT
BRANCH   1   2
ATOM      2  C   UNL     1      50.511  45.156  15.200  1.00  0.00     0.000 C 
BRANCH   2   3
ATOM      3  C   UNL     1      50.897  46.119  14.065  1.00  0.00     0.000 C 
BRANCH   3   4
ATOM      4  C   UNL     1      50.885  47.596  14.499  1.00  0.00     0.000 C 
BRANCH   4   5
ATOM      5  C   UNL     1      49.657  48.405  14.041  1.00  0.00     0.000 C 
BRANCH   5   6
ATOM      6  C   UNL     1      49.984  49.417  12.932  1.00  0.00     0.006 C 
BRANCH   6   7
ATOM      7  C   UNL     1      51.254  50.206  13.267  1.00  0.00     0.053 C 
BRANCH   7   8
ATOM      8  C   UNL     1      52.174  50.244  12.088  1.00  0.00     0.041 C 
ATOM      9  O   UNL     1      52.020  51.115  11.193  1.00  0.00    -0.550 OA
ATOM     10  O   UNL     1      53.169  49.285  11.952  1.00  0.00    -0.550 OA
ENDBRANCH   7   8
ENDBRANCH   6   7
ENDBRANCH   5   6
ENDBRANCH   4   5
ENDBRANCH   3   4
ENDBRANCH   2   3
ENDBRANCH   1   2
BRANCH   1  11
ATOM     11  C   UNL     1      47.910  45.049  15.223  1.00  0.00     0.000 C 
BRANCH  11  12
ATOM     12  C   UNL     1      46.645  44.196  14.999  1.00  0.00    -0.000 C 
BRANCH  12  13
ATOM     13  C   UNL     1      46.895  42.825  14.339  1.00  0.00    -0.000 C 
BRANCH  13  14
ATOM     14  C   UNL     1      46.248  41.626  15.060  1.00  0.00    -0.000 C 
BRANCH  14  15
ATOM     15  C   UNL     1      46.524  41.544  16.573  1.00  0.00    -0.000 C 
BRANCH  15  16
ATOM     16  C   UNL     1      47.996  41.240  16.894  1.00  0.00    -0.000 C 
BRANCH  16  17
ATOM     17  C   UNL     1      48.599  42.239  17.895  1.00  0.00    -0.003 C 
ATOM     18  C   UNL     1      47.555  43.187  18.487  1.00  0.00     0.004 C 
ENDBRANCH  16  17
ENDBRANCH  15  16
ENDBRANCH  14  15
ENDBRANCH  13  14
ENDBRANCH  12  13
ENDBRANCH  11  12
ENDBRANCH   1  11
TORSDOF 14
ENDMDL
MODEL 4
REMARK VINA RESULT:    -3.478     10.809     13.739
REMARK INTER + INTRA:          -7.598
REMARK INTER:                  -6.024
REMARK INTRA:                  -1.574
REMARK UNBOUND:                -1.274
REMARK SMILES CCCCCCCCCCCCCCCC(=O)[O-]
REMARK SMILES IDX 9 1 10 2 11 3 12 4 13 5 14 6 15 7 16 8 17 9 18 10 8 11 7 12
REMARK SMILES IDX 6 13 5 14 4 15 3 16 2 17 1 18
REMARK H PARENT
REMARK Flexibility Score: inf
ROOT
ATOM      1  C   UNL     1      49.498  45.524  15.826  1.00  0.00     0.000 C 
ENDROOT
BRANCH   1   2
ATOM      2  C   UNL     1      48.725  46.798  15.436  1.00  0.00     0.000 C 
BRANCH   2   3
ATOM      3  C   UNL     1      49.550  47.753  14.557  1.00  0.00     0.000 C 
BRANCH   3   4
ATOM      4  C   UNL     1      51.064  47.479  14.629  1.00  0.00     0.000 C 
BRANCH   4   5
ATOM      5  C   UNL     1      51.710  47.015  13.310  1.00  0.00     0.000 C 
BRANCH   5   6
ATOM      6  C   UNL     1      52.857  47.927  12.850  1.00  0.00     0.006 C 
BRANCH   6   7
ATOM      7  C   UNL     1      52.390  49.382  12.736  1.00  0.00     0.053 C 
BRANCH   7   8
ATOM      8  C   UNL     1      51.683  49.605  11.437  1.00  0.00     0.041 C 
ATOM      9  O   UNL     1      50.429  49.708  11.408  1.00  0.00    -0.550 OA
ATOM     10  O   UNL     1      52.405  49.647  10.251  1.00  0.00    -0.550 OA
ENDBRANCH   7   8
ENDBRANCH   6   7
ENDBRANCH   5   6
ENDBRANCH   4   5
ENDBRANCH   3   4
ENDBRANCH   2   3
ENDBRANCH   1   2
BRANCH   1  11
ATOM     11  C   UNL     1      49.270  44.308  14.905  1.00  0.00     0.000 C 
BRANCH  11  12
ATOM     12  C   UNL     1      48.236  43.286  15.417  1.00  0.00    -0.000 C 
BRANCH  12  13
ATOM     13  C   UNL     1      46.961  43.166  14.559  1.00  0.00    -0.000 C 
BRANCH  13  14
ATOM     14  C   UNL     1      45.755  42.518  15.268  1.00  0.00    -0.000 C 
BRANCH  14  15
ATOM     15  C   UNL     1      44.926  43.469  16.152  1.00  0.00    -0.000 C 
BRANCH  15  16
ATOM     16  C   UNL     1      45.123  44.949  15.783  1.00  0.00    -0.000 C 
BRANCH  16  17
ATOM     17  C   UNL     1      45.445  45.822  17.007  1.00  0.00    -0.003 C 
ATOM     18  C   UNL     1      46.361  45.121  18.011  1.00  0.00     0.004 C 
ENDBRANCH  16  17
ENDBRANCH  15  16
ENDBRANCH  14  15
ENDBRANCH  13  14
ENDBRANCH  12  13
ENDBRANCH  11  12
ENDBRANCH   1  11
TORSDOF 14
ENDMDL
MODEL 5
REMARK VINA RESULT:    -3.474      9.205     10.679
REMARK INTER + INTRA:          -7.592
REMARK INTER:                  -5.813
REMARK INTRA:                  -1.778
REMARK UNBOUND:                -1.274
REMARK SMILES CCCCCCCCCCCCCCCC(=O)[O-]
REMARK SMILES IDX 9 1 10 2 11 3 12 4 13 5 14 6 15 7 16 8 17 9 18 10 8 11 7 12
REMARK SMILES IDX 6 13 5 14 4 15 3 16 2 17 1 18
REMARK H PARENT
REMARK Flexibility Score: inf
ROOT
ATOM      1  C   UNL     1      56.513  34.382  13.655  1.00  0.00     0.000 C 
ENDROOT
BRANCH   1   2
ATOM      2  C   UNL     1      56.885  35.279  12.460  1.00  0.00     0.000 C 
BRANCH   2   3
ATOM      3  C   UNL     1      55.851  36.387  12.198  1.00  0.00     0.000 C 
BRANCH   3   4
ATOM      4  C   UNL     1      54.422  35.983  12.606  1.00  0.00     0.000 C 
BRANCH   4   5
ATOM      5  C   UNL     1      53.701  36.975  13.538  1.00  0.00     0.000 C 
BRANCH   5   6
ATOM      6  C   UNL     1      53.705  36.530  15.008  1.00  0.00     0.006 C 
BRANCH   6   7
ATOM      7  C   UNL     1      53.889  37.729  15.944  1.00  0.00     0.053 C 
BRANCH   7   8
ATOM      8  C   UNL     1      55.023  37.487  16.889  1.00  0.00     0.041 C 
ATOM      9  O   UNL     1      56.202  37.768  16.550  1.00  0.00    -0.550 OA
ATOM     10  O   UNL     1      54.782  36.904  18.127  1.00  0.00    -0.550 OA
ENDBRANCH   7   8
ENDBRANCH   6   7
ENDBRANCH   5   6
ENDBRANCH   4   5
ENDBRANCH   3   4
ENDBRANCH   2   3
ENDBRANCH   1   2
BRANCH   1  11
ATOM     11  C   UNL     1      57.243  34.708  14.975  1.00  0.00     0.000 C 
BRANCH  11  12
ATOM     12  C   UNL     1      58.329  33.695  15.387  1.00  0.00    -0.000 C 
BRANCH  12  13
ATOM     13  C   UNL     1      59.737  34.295  15.578  1.00  0.00    -0.000 C 
BRANCH  13  14
ATOM     14  C   UNL     1      60.843  33.650  14.718  1.00  0.00    -0.000 C 
BRANCH  14  15
ATOM     15  C   UNL     1      61.262  34.458  13.476  1.00  0.00    -0.000 C 
BRANCH  15  16
ATOM     16  C   UNL     1      60.339  34.218  12.269  1.00  0.00    -0.000 C 
BRANCH  16  17
ATOM     17  C   UNL     1      60.040  32.726  12.045  1.00  0.00    -0.003 C 
ATOM     18  C   UNL     1      58.797  32.494  11.185  1.00  0.00     0.004 C 
ENDBRANCH  16  17
ENDBRANCH  15  16
ENDBRANCH  14  15
ENDBRANCH  13  14
ENDBRANCH  12  13
ENDBRANCH  11  12
ENDBRANCH   1  11
TORSDOF 14
ENDMDL
MODEL 6
REMARK VINA RESULT:    -3.464      3.394      4.908
REMARK INTER + INTRA:          -7.574
REMARK INTER:                  -6.709
REMARK INTRA:                  -0.865
REMARK UNBOUND:                -1.274
REMARK SMILES CCCCCCCCCCCCCCCC(=O)[O-]
REMARK SMILES IDX 9 1 10 2 11 3 12 4 13 5 14 6 15 7 16 8 17 9 18 10 8 11 7 12
REMARK SMILES IDX 6 13 5 14 4 15 3 16 2 17 1 18
REMARK H PARENT
REMARK Flexibility Score: inf
ROOT
ATOM      1  C   UNL     1      59.663  44.872  17.196  1.00  0.00     0.000 C 
ENDROOT
BRANCH   1   2
ATOM      2  C   UNL     1      58.414  45.650  16.743  1.00  0.00     0.000 C 
BRANCH   2   3
ATOM      3  C   UNL     1      57.620  44.922  15.645  1.00  0.00     0.000 C 
BRANCH   3   4
ATOM      4  C   UNL     1      57.472  43.412  15.911  1.00  0.00     0.000 C 
BRANCH   4   5
ATOM      5  C   UNL     1      56.542  43.040  17.081  1.00  0.00     0.000 C 
BRANCH   5   6
ATOM      6  C   UNL     1      56.643  41.561  17.481  1.00  0.00     0.006 C 
BRANCH   6   7
ATOM      7  C   UNL     1      56.673  41.406  19.005  1.00  0.00     0.053 C 
BRANCH   7   8
ATOM      8  C   UNL     1      55.414  40.760  19.491  1.00  0.00     0.041 C 
ATOM      9  O   UNL     1      55.420  40.076  20.548  1.00  0.00    -0.550 OA
ATOM     10  O   UNL     1      54.245  40.872  18.749  1.00  0.00    -0.550 OA
ENDBRANCH   7   8
ENDBRANCH   6   7
ENDBRANCH   5   6
ENDBRANCH   4   5
ENDBRANCH   3   4
ENDBRANCH   2   3
ENDBRANCH   1   2
BRANCH   1  11
ATOM     11  C   UNL     1      60.705  45.698  17.978  1.00  0.00     0.000 C 
BRANCH  11  12
ATOM     12  C   UNL     1      62.152  45.581  17.461  1.00  0.00    -0.000 C 
BRANCH  12  13
ATOM     13  C   UNL     1      62.514  44.214  16.847  1.00  0.00    -0.000 C 
BRANCH  13  14
ATOM     14  C   UNL     1      63.574  44.261  15.728  1.00  0.00    -0.000 C 
BRANCH  14  15
ATOM     15  C   UNL     1      63.715  42.968  14.903  1.00  0.00    -0.000 C 
BRANCH  15  16
ATOM     16  C   UNL     1      64.682  41.957  15.540  1.00  0.00    -0.000 C 
BRANCH  16  17
ATOM     17  C   UNL     1      63.954  40.740  16.135  1.00  0.00    -0.003 C 
ATOM     18  C   UNL     1      63.874  40.785  17.661  1.00  0.00     0.004 C 
ENDBRANCH  16  17
ENDBRANCH  15  16
ENDBRANCH  14  15
ENDBRANCH  13  14
ENDBRANCH  12  13
ENDBRANCH  11  12
ENDBRANCH   1  11
TORSDOF 14
ENDMDL
MODEL 7
REMARK VINA RESULT:    -3.441      9.676     12.201
REMARK INTER + INTRA:          -7.530
REMARK INTER:                  -5.585
REMARK INTRA:                  -1.945
REMARK UNBOUND:                -1.274
REMARK SMILES CCCCCCCCCCCCCCCC(=O)[O-]
REMARK SMILES IDX 9 1 10 2 11 3 12 4 13 5 14 6 15 7 16 8 17 9 18 10 8 11 7 12
REMARK SMILES IDX 6 13 5 14 4 15 3 16 2 17 1 18
REMARK H PARENT
REMARK Flexibility Score: inf
ROOT
ATOM      1  C   UNL     1      50.533  50.435  14.496  1.00  0.00     0.000 C 
ENDROOT
BRANCH   1   2
ATOM      2  C   UNL     1      49.644  50.595  13.249  1.00  0.00     0.000 C 
BRANCH   2   3
ATOM      3  C   UNL     1      50.416  51.119  12.026  1.00  0.00     0.000 C 
BRANCH   3   4
ATOM      4  C   UNL     1      50.871  49.996  11.077  1.00  0.00     0.000 C 
BRANCH   4   5
ATOM      5  C   UNL     1      52.356  50.040  10.672  1.00  0.00     0.000 C 
BRANCH   5   6
ATOM      6  C   UNL     1      53.294  50.315  11.857  1.00  0.00     0.006 C 
BRANCH   6   7
ATOM      7  C   UNL     1      53.628  49.019  12.603  1.00  0.00     0.053 C 
BRANCH   7   8
ATOM      8  C   UNL     1      54.665  49.270  13.652  1.00  0.00     0.041 C 
ATOM      9  O   UNL     1      55.873  48.999  13.426  1.00  0.00    -0.550 OA
ATOM     10  O   UNL     1      54.289  49.757  14.897  1.00  0.00    -0.550 OA
ENDBRANCH   7   8
ENDBRANCH   6   7
ENDBRANCH   5   6
ENDBRANCH   4   5
ENDBRANCH   3   4
ENDBRANCH   2   3
ENDBRANCH   1   2
BRANCH   1  11
ATOM     11  C   UNL     1      50.786  48.980  14.942  1.00  0.00     0.000 C 
BRANCH  11  12
ATOM     12  C   UNL     1      50.281  47.901  13.964  1.00  0.00    -0.000 C 
BRANCH  12  13
ATOM     13  C   UNL     1      51.177  46.651  13.857  1.00  0.00    -0.000 C 
BRANCH  13  14
ATOM     14  C   UNL     1      51.653  46.072  15.205  1.00  0.00    -0.000 C 
BRANCH  14  15
ATOM     15  C   UNL     1      50.983  44.750  15.623  1.00  0.00    -0.000 C 
BRANCH  15  16
ATOM     16  C   UNL     1      49.666  44.486  14.875  1.00  0.00    -0.000 C 
BRANCH  16  17
ATOM     17  C   UNL     1      48.441  44.542  15.802  1.00  0.00    -0.003 C 
ATOM     18  C   UNL     1      47.909  45.963  15.995  1.00  0.00     0.004 C 
ENDBRANCH  16  17
ENDBRANCH  15  16
ENDBRANCH  14  15
ENDBRANCH  13  14
ENDBRANCH  12  13
ENDBRANCH  11  12
ENDBRANCH   1  11
TORSDOF 14
ENDMDL
MODEL 8
REMARK VINA RESULT:    -3.421     10.253     13.188
REMARK INTER + INTRA:          -7.495
REMARK INTER:                  -5.210
REMARK INTRA:                  -2.285
REMARK UNBOUND:                -1.274
REMARK SMILES CCCCCCCCCCCCCCCC(=O)[O-]
REMARK SMILES IDX 9 1 10 2 11 3 12 4 13 5 14 6 15 7 16 8 17 9 18 10 8 11 7 12
REMARK SMILES IDX 6 13 5 14 4 15 3 16 2 17 1 18
REMARK H PARENT
REMARK Flexibility Score: inf
ROOT
ATOM      1  C   UNL     1      47.444  45.120  16.746  1.00  0.00     0.000 C 
ENDROOT
BRANCH   1   2
ATOM      2  C   UNL     1      48.356  44.319  17.694  1.00  0.00     0.000 C 
BRANCH   2   3
ATOM      3  C   UNL     1      49.810  44.820  17.692  1.00  0.00     0.000 C 
BRANCH   3   4
ATOM      4  C   UNL     1      50.805  43.773  17.158  1.00  0.00     0.000 C 
BRANCH   4   5
ATOM      5  C   UNL     1      51.624  44.213  15.930  1.00  0.00     0.000 C 
BRANCH   5   6
ATOM      6  C   UNL     1      51.461  45.704  15.602  1.00  0.00     0.006 C 
BRANCH   6   7
ATOM      7  C   UNL     1      50.889  45.896  14.193  1.00  0.00     0.053 C 
BRANCH   7   8
ATOM      8  C   UNL     1      51.408  47.161  13.585  1.00  0.00     0.041 C 
ATOM      9  O   UNL     1      50.648  48.155  13.447  1.00  0.00    -0.550 OA
ATOM     10  O   UNL     1      52.716  47.224  13.124  1.00  0.00    -0.550 OA
ENDBRANCH   7   8
ENDBRANCH   6   7
ENDBRANCH   5   6
ENDBRANCH   4   5
ENDBRANCH   3   4
ENDBRANCH   2   3
ENDBRANCH   1   2
BRANCH   1  11
ATOM     11  C   UNL     1      47.605  44.794  15.247  1.00  0.00     0.000 C 
BRANCH  11  12
ATOM     12  C   UNL     1      47.949  43.325  14.932  1.00  0.00    -0.000 C 
BRANCH  12  13
ATOM     13  C   UNL     1      46.831  42.533  14.223  1.00  0.00    -0.000 C 
BRANCH  13  14
ATOM     14  C   UNL     1      46.277  41.334  15.017  1.00  0.00    -0.000 C 
BRANCH  14  15
ATOM     15  C   UNL     1      45.680  41.678  16.395  1.00  0.00    -0.000 C 
BRANCH  15  16
ATOM     16  C   UNL     1      46.490  41.087  17.560  1.00  0.00    -0.000 C 
BRANCH  16  17
ATOM     17  C   UNL     1      47.604  40.142  17.083  1.00  0.00    -0.003 C 
ATOM     18  C   UNL     1      48.999  40.610  17.501  1.00  0.00     0.004 C 
ENDBRANCH  16  17
ENDBRANCH  15  16
ENDBRANCH  14  15
ENDBRANCH  13  14
ENDBRANCH  12  13
ENDBRANCH  11  12
ENDBRANCH   1  11
TORSDOF 14
ENDMDL
MODEL 9
REMARK VINA RESULT:    -3.355     10.092     11.443
REMARK INTER + INTRA:          -7.375
REMARK INTER:                  -5.383
REMARK INTRA:                  -1.992
REMARK UNBOUND:                -1.274
REMARK SMILES CCCCCCCCCCCCCCCC(=O)[O-]
REMARK SMILES IDX 9 1 10 2 11 3 12 4 13 5 14 6 15 7 16 8 17 9 18 10 8 11 7 12
REMARK SMILES IDX 6 13 5 14 4 15 3 16 2 17 1 18
REMARK H PARENT
REMARK Flexibility Score: inf
ROOT
ATOM      1  C   UNL     1      56.351  32.763  12.269  1.00  0.00     0.000 C 
ENDROOT
BRANCH   1   2
ATOM      2  C   UNL     1      56.702  33.298  13.669  1.00  0.00     0.000 C 
BRANCH   2   3
ATOM      3  C   UNL     1      56.832  34.830  13.710  1.00  0.00     0.000 C 
BRANCH   3   4
ATOM      4  C   UNL     1      56.699  35.481  12.321  1.00  0.00     0.000 C 
BRANCH   4   5
ATOM      5  C   UNL     1      55.553  36.500  12.181  1.00  0.00     0.000 C 
BRANCH   5   6
ATOM      6  C   UNL     1      54.580  36.477  13.369  1.00  0.00     0.006 C 
BRANCH   6   7
ATOM      7  C   UNL     1      53.357  35.607  13.061  1.00  0.00     0.053 C 
BRANCH   7   8
ATOM      8  C   UNL     1      53.026  34.734  14.229  1.00  0.00     0.041 C 
ATOM      9  O   UNL     1      52.054  33.936  14.168  1.00  0.00    -0.550 OA
ATOM     10  O   UNL     1      53.759  34.839  15.404  1.00  0.00    -0.550 OA
ENDBRANCH   7   8
ENDBRANCH   6   7
ENDBRANCH   5   6
ENDBRANCH   4   5
ENDBRANCH   3   4
ENDBRANCH   2   3
ENDBRANCH   1   2
BRANCH   1  11
ATOM     11  C   UNL     1      57.486  32.004  11.550  1.00  0.00     0.000 C 
BRANCH  11  12
ATOM     12  C   UNL     1      58.844  32.020  12.278  1.00  0.00    -0.000 C 
BRANCH  12  13
ATOM     13  C   UNL     1      59.867  33.031  11.723  1.00  0.00    -0.000 C 
BRANCH  13  14
ATOM     14  C   UNL     1      60.208  34.201  12.667  1.00  0.00    -0.000 C 
BRANCH  14  15
ATOM     15  C   UNL     1      61.582  34.109  13.355  1.00  0.00    -0.000 C 
BRANCH  15  16
ATOM     16  C   UNL     1      61.479  33.762  14.850  1.00  0.00    -0.000 C 
BRANCH  16  17
ATOM     17  C   UNL     1      60.033  33.489  15.292  1.00  0.00    -0.003 C 
ATOM     18  C   UNL     1      59.532  34.489  16.335  1.00  0.00     0.004 C 
ENDBRANCH  16  17
ENDBRANCH  15  16
ENDBRANCH  14  15
ENDBRANCH  13  14
ENDBRANCH  12  13
ENDBRANCH  11  12
ENDBRANCH   1  11
TORSDOF 14
ENDMDL
