MODEL 1
REMARK VINA RESULT:    -5.160      0.000      0.000
REMARK INTER + INTRA:          -5.462
REMARK INTER:                  -5.462
REMARK INTRA:                   0.000
REMARK UNBOUND:                 0.000
REMARK SMILES O=c1ccc2cc(O)c(O)cc2o1
REMARK SMILES IDX 4 1 3 2 2 3 1 4 13 5 12 6 11 7 9 8 7 9 6 10 5 11 8 12 10 14
REMARK H PARENT 8 13 10 15
REMARK Flexibility Score: inf
ROOT
ATOM      1  C   UNL     1      -5.714 -31.769 -50.777  1.00  0.00     0.019 A 
ATOM      2  C   UNL     1      -5.073 -30.532 -50.832  1.00  0.00     0.094 A 
ATOM      3  C   UNL     1      -5.376 -29.569 -49.863  1.00  0.00     0.336 A 
ATOM      4  O   UNL     1      -4.808 -28.446 -49.893  1.00  0.00    -0.246 OA
ATOM      5  O   UNL     1      -6.262 -29.833 -48.906  1.00  0.00    -0.423 OA
ATOM      6  C   UNL     1      -6.896 -30.999 -48.818  1.00  0.00     0.142 A 
ATOM      7  C   UNL     1      -7.818 -31.219 -47.790  1.00  0.00     0.098 A 
ATOM      8  C   UNL     1      -8.489 -32.448 -47.693  1.00  0.00     0.161 A 
ATOM      9  C   UNL     1      -8.235 -33.461 -48.630  1.00  0.00     0.158 A 
ATOM     10  C   UNL     1      -7.312 -33.246 -49.663  1.00  0.00     0.062 A 
ATOM     11  C   UNL     1      -6.641 -32.018 -49.761  1.00  0.00     0.022 A 
ENDROOT
BRANCH   9  12
ATOM     12  O   UNL     1      -8.907 -34.678 -48.527  1.00  0.00    -0.504 OA
ATOM     13  H   UNL     1      -9.903 -34.749 -48.693  1.00  0.00     0.293 HD
ENDBRANCH   9  12
BRANCH   8  14
ATOM     14  O   UNL     1      -9.408 -32.669 -46.670  1.00  0.00    -0.504 OA
ATOM     15  H   UNL     1      -9.527 -32.008 -45.911  1.00  0.00     0.293 HD
ENDBRANCH   8  14
TORSDOF 2
ENDMDL
MODEL 2
REMARK VINA RESULT:    -5.108      1.076      2.273
REMARK INTER + INTRA:          -5.407
REMARK INTER:                  -5.407
REMARK INTRA:                   0.000
REMARK UNBOUND:                 0.000
REMARK SMILES O=c1ccc2cc(O)c(O)cc2o1
REMARK SMILES IDX 4 1 3 2 2 3 1 4 13 5 12 6 11 7 9 8 7 9 6 10 5 11 8 12 10 14
REMARK H PARENT 8 13 10 15
REMARK Flexibility Score: inf
ROOT
ATOM      1  C   UNL     1      -6.707 -28.973 -48.461  1.00  0.00     0.019 A 
ATOM      2  C   UNL     1      -5.634 -28.521 -49.228  1.00  0.00     0.094 A 
ATOM      3  C   UNL     1      -4.879 -29.450 -49.952  1.00  0.00     0.336 A 
ATOM      4  O   UNL     1      -3.907 -29.063 -50.651  1.00  0.00    -0.246 OA
ATOM      5  O   UNL     1      -5.182 -30.745 -49.906  1.00  0.00    -0.423 OA
ATOM      6  C   UNL     1      -6.195 -31.219 -49.187  1.00  0.00     0.142 A 
ATOM      7  C   UNL     1      -6.467 -32.590 -49.177  1.00  0.00     0.098 A 
ATOM      8  C   UNL     1      -7.535 -33.094 -48.419  1.00  0.00     0.161 A 
ATOM      9  C   UNL     1      -8.336 -32.220 -47.669  1.00  0.00     0.158 A 
ATOM     10  C   UNL     1      -8.069 -30.844 -47.675  1.00  0.00     0.062 A 
ATOM     11  C   UNL     1      -7.002 -30.340 -48.431  1.00  0.00     0.022 A 
ENDROOT
BRANCH   9  12
ATOM     12  O   UNL     1      -9.396 -32.730 -46.919  1.00  0.00    -0.504 OA
ATOM     13  H   UNL     1     -10.311 -32.876 -47.327  1.00  0.00     0.293 HD
ENDBRANCH   9  12
BRANCH   8  14
ATOM     14  O   UNL     1      -7.807 -34.461 -48.408  1.00  0.00    -0.504 OA
ATOM     15  H   UNL     1      -7.547 -35.047 -47.622  1.00  0.00     0.293 HD
ENDBRANCH   8  14
TORSDOF 2
ENDMDL
MODEL 3
REMARK VINA RESULT:    -5.083      2.928      4.101
REMARK INTER + INTRA:          -5.380
REMARK INTER:                  -5.380
REMARK INTRA:                   0.000
REMARK UNBOUND:                 0.000
REMARK SMILES O=c1ccc2cc(O)c(O)cc2o1
REMARK SMILES IDX 4 1 3 2 2 3 1 4 13 5 12 6 11 7 9 8 7 9 6 10 5 11 8 12 10 14
REMARK H PARENT 8 13 10 15
REMARK Flexibility Score: inf
ROOT
ATOM      1  C   UNL     1      -6.016 -33.366 -48.106  1.00  0.00     0.019 A 
ATOM      2  C   UNL     1      -5.297 -34.420 -48.669  1.00  0.00     0.094 A 
ATOM      3  C   UNL     1      -5.835 -35.096 -49.770  1.00  0.00     0.336 A 
ATOM      4  O   UNL     1      -5.202 -36.048 -50.294  1.00  0.00    -0.246 OA
ATOM      5  O   UNL     1      -7.016 -34.737 -50.268  1.00  0.00    -0.423 OA
ATOM      6  C   UNL     1      -7.734 -33.739 -49.761  1.00  0.00     0.142 A 
ATOM      7  C   UNL     1      -8.969 -33.407 -50.327  1.00  0.00     0.098 A 
ATOM      8  C   UNL     1      -9.730 -32.355 -49.795  1.00  0.00     0.161 A 
ATOM      9  C   UNL     1      -9.253 -31.632 -48.692  1.00  0.00     0.158 A 
ATOM     10  C   UNL     1      -8.016 -31.961 -48.120  1.00  0.00     0.062 A 
ATOM     11  C   UNL     1      -7.254 -33.012 -48.650  1.00  0.00     0.022 A 
ENDROOT
BRANCH   9  12
ATOM     12  O   UNL     1     -10.016 -30.589 -48.170  1.00  0.00    -0.504 OA
ATOM     13  H   UNL     1     -10.546 -30.698 -47.314  1.00  0.00     0.293 HD
ENDBRANCH   9  12
BRANCH   8  14
ATOM     14  O   UNL     1     -10.961 -32.023 -50.358  1.00  0.00    -0.504 OA
ATOM     15  H   UNL     1     -11.414 -31.138 -50.159  1.00  0.00     0.293 HD
ENDBRANCH   8  14
TORSDOF 2
ENDMDL
MODEL 4
REMARK VINA RESULT:    -5.071      4.267      5.996
REMARK INTER + INTRA:          -5.368
REMARK INTER:                  -5.368
REMARK INTRA:                   0.000
REMARK UNBOUND:                 0.000
REMARK SMILES O=c1ccc2cc(O)c(O)cc2o1
REMARK SMILES IDX 4 1 3 2 2 3 1 4 13 5 12 6 11 7 9 8 7 9 6 10 5 11 8 12 10 14
REMARK H PARENT 8 13 10 15
REMARK Flexibility Score: inf
ROOT
ATOM      1  C   UNL     1      -5.097 -37.612 -50.240  1.00  0.00     0.019 A 
ATOM      2  C   UNL     1      -6.160 -37.663 -51.142  1.00  0.00     0.094 A 
ATOM      3  C   UNL     1      -6.835 -36.480 -51.461  1.00  0.00     0.336 A 
ATOM      4  O   UNL     1      -7.796 -36.504 -52.273  1.00  0.00    -0.246 OA
ATOM      5  O   UNL     1      -6.468 -35.325 -50.910  1.00  0.00    -0.423 OA
ATOM      6  C   UNL     1      -5.461 -35.233 -50.046  1.00  0.00     0.142 A 
ATOM      7  C   UNL     1      -5.120 -33.992 -49.499  1.00  0.00     0.098 A 
ATOM      8  C   UNL     1      -4.059 -33.889 -48.586  1.00  0.00     0.161 A 
ATOM      9  C   UNL     1      -3.335 -35.034 -48.220  1.00  0.00     0.158 A 
ATOM     10  C   UNL     1      -3.673 -36.281 -48.765  1.00  0.00     0.062 A 
ATOM     11  C   UNL     1      -4.733 -36.385 -49.676  1.00  0.00     0.022 A 
ENDROOT
BRANCH   9  12
ATOM     12  O   UNL     1      -2.283 -34.923 -47.312  1.00  0.00    -0.504 OA
ATOM     13  H   UNL     1      -1.479 -35.537 -47.357  1.00  0.00     0.293 HD
ENDBRANCH   9  12
BRANCH   8  14
ATOM     14  O   UNL     1      -3.717 -32.654 -48.040  1.00  0.00    -0.504 OA
ATOM     15  H   UNL     1      -3.902 -31.787 -48.531  1.00  0.00     0.293 HD
ENDBRANCH   8  14
TORSDOF 2
ENDMDL
MODEL 5
REMARK VINA RESULT:    -5.059      3.763      5.030
REMARK INTER + INTRA:          -5.355
REMARK INTER:                  -5.355
REMARK INTRA:                   0.000
REMARK UNBOUND:                 0.000
REMARK SMILES O=c1ccc2cc(O)c(O)cc2o1
REMARK SMILES IDX 4 1 3 2 2 3 1 4 13 5 12 6 11 7 9 8 7 9 6 10 5 11 8 12 10 14
REMARK H PARENT 8 13 10 15
REMARK Flexibility Score: inf
ROOT
ATOM      1  C   UNL     1      -5.983 -33.747 -48.124  1.00  0.00     0.019 A 
ATOM      2  C   UNL     1      -6.780 -32.611 -48.257  1.00  0.00     0.094 A 
ATOM      3  C   UNL     1      -6.308 -31.538 -49.022  1.00  0.00     0.336 A 
ATOM      4  O   UNL     1      -7.013 -30.503 -49.156  1.00  0.00    -0.246 OA
ATOM      5  O   UNL     1      -5.117 -31.604 -49.611  1.00  0.00    -0.423 OA
ATOM      6  C   UNL     1      -4.325 -32.667 -49.509  1.00  0.00     0.142 A 
ATOM      7  C   UNL     1      -3.083 -32.680 -50.150  1.00  0.00     0.098 A 
ATOM      8  C   UNL     1      -2.244 -33.800 -50.045  1.00  0.00     0.161 A 
ATOM      9  C   UNL     1      -2.651 -34.913 -49.295  1.00  0.00     0.158 A 
ATOM     10  C   UNL     1      -3.896 -34.906 -48.650  1.00  0.00     0.062 A 
ATOM     11  C   UNL     1      -4.734 -33.788 -48.753  1.00  0.00     0.022 A 
ENDROOT
BRANCH   9  12
ATOM     12  O   UNL     1      -1.811 -36.022 -49.195  1.00  0.00    -0.504 OA
ATOM     13  H   UNL     1      -1.563 -36.418 -48.298  1.00  0.00     0.293 HD
ENDBRANCH   9  12
BRANCH   8  14
ATOM     14  O   UNL     1      -1.005 -33.814 -50.683  1.00  0.00    -0.504 OA
ATOM     15  H   UNL     1      -0.753 -34.547 -51.336  1.00  0.00     0.293 HD
ENDBRANCH   8  14
TORSDOF 2
ENDMDL
MODEL 6
REMARK VINA RESULT:    -5.018      3.618      5.566
REMARK INTER + INTRA:          -5.311
REMARK INTER:                  -5.311
REMARK INTRA:                   0.000
REMARK UNBOUND:                 0.000
REMARK SMILES O=c1ccc2cc(O)c(O)cc2o1
REMARK SMILES IDX 4 1 3 2 2 3 1 4 13 5 12 6 11 7 9 8 7 9 6 10 5 11 8 12 10 14
REMARK H PARENT 8 13 10 15
REMARK Flexibility Score: inf
ROOT
ATOM      1  C   UNL     1      -6.378 -33.337 -50.830  1.00  0.00     0.019 A 
ATOM      2  C   UNL     1      -7.180 -34.330 -51.390  1.00  0.00     0.094 A 
ATOM      3  C   UNL     1      -6.926 -35.668 -51.069  1.00  0.00     0.336 A 
ATOM      4  O   UNL     1      -7.639 -36.580 -51.563  1.00  0.00    -0.246 OA
ATOM      5  O   UNL     1      -5.932 -35.985 -50.243  1.00  0.00    -0.423 OA
ATOM      6  C   UNL     1      -5.143 -35.069 -49.688  1.00  0.00     0.142 A 
ATOM      7  C   UNL     1      -4.113 -35.461 -48.826  1.00  0.00     0.098 A 
ATOM      8  C   UNL     1      -3.278 -34.499 -48.239  1.00  0.00     0.161 A 
ATOM      9  C   UNL     1      -3.475 -33.137 -48.515  1.00  0.00     0.158 A 
ATOM     10  C   UNL     1      -4.505 -32.738 -49.378  1.00  0.00     0.062 A 
ATOM     11  C   UNL     1      -5.340 -33.699 -49.966  1.00  0.00     0.022 A 
ENDROOT
BRANCH   9  12
ATOM     12  O   UNL     1      -2.640 -32.188 -47.927  1.00  0.00    -0.504 OA
ATOM     13  H   UNL     1      -2.352 -31.355 -48.426  1.00  0.00     0.293 HD
ENDBRANCH   9  12
BRANCH   8  14
ATOM     14  O   UNL     1      -2.252 -34.887 -47.381  1.00  0.00    -0.504 OA
ATOM     15  H   UNL     1      -2.392 -35.600 -46.674  1.00  0.00     0.293 HD
ENDBRANCH   8  14
TORSDOF 2
ENDMDL
MODEL 7
REMARK VINA RESULT:    -4.949      3.684      5.081
REMARK INTER + INTRA:          -5.239
REMARK INTER:                  -5.239
REMARK INTRA:                   0.000
REMARK UNBOUND:                 0.000
REMARK SMILES O=c1ccc2cc(O)c(O)cc2o1
REMARK SMILES IDX 4 1 3 2 2 3 1 4 13 5 12 6 11 7 9 8 7 9 6 10 5 11 8 12 10 14
REMARK H PARENT 8 13 10 15
REMARK Flexibility Score: inf
ROOT
ATOM      1  C   UNL     1      -5.305 -31.376 -49.943  1.00  0.00     0.019 A 
ATOM      2  C   UNL     1      -6.526 -31.334 -49.271  1.00  0.00     0.094 A 
ATOM      3  C   UNL     1      -6.836 -32.352 -48.363  1.00  0.00     0.336 A 
ATOM      4  O   UNL     1      -7.932 -32.333 -47.745  1.00  0.00    -0.246 OA
ATOM      5  O   UNL     1      -5.976 -33.345 -48.147  1.00  0.00    -0.423 OA
ATOM      6  C   UNL     1      -4.802 -33.424 -48.767  1.00  0.00     0.142 A 
ATOM      7  C   UNL     1      -3.939 -34.491 -48.499  1.00  0.00     0.098 A 
ATOM      8  C   UNL     1      -2.699 -34.578 -49.151  1.00  0.00     0.161 A 
ATOM      9  C   UNL     1      -2.322 -33.592 -50.074  1.00  0.00     0.158 A 
ATOM     10  C   UNL     1      -3.183 -32.519 -50.346  1.00  0.00     0.062 A 
ATOM     11  C   UNL     1      -4.422 -32.432 -49.697  1.00  0.00     0.022 A 
ENDROOT
BRANCH   9  12
ATOM     12  O   UNL     1      -1.088 -33.686 -50.717  1.00  0.00    -0.504 OA
ATOM     13  H   UNL     1      -0.260 -34.004 -50.229  1.00  0.00     0.293 HD
ENDBRANCH   9  12
BRANCH   8  14
ATOM     14  O   UNL     1      -1.838 -35.640 -48.886  1.00  0.00    -0.504 OA
ATOM     15  H   UNL     1      -0.869 -35.487 -48.633  1.00  0.00     0.293 HD
ENDBRANCH   8  14
TORSDOF 2
ENDMDL
MODEL 8
REMARK VINA RESULT:    -4.945      3.037      3.731
REMARK INTER + INTRA:          -5.234
REMARK INTER:                  -5.234
REMARK INTRA:                   0.000
REMARK UNBOUND:                 0.000
REMARK SMILES O=c1ccc2cc(O)c(O)cc2o1
REMARK SMILES IDX 4 1 3 2 2 3 1 4 13 5 12 6 11 7 9 8 7 9 6 10 5 11 8 12 10 14
REMARK H PARENT 8 13 10 15
REMARK Flexibility Score: inf
ROOT
ATOM      1  C   UNL     1      -5.913 -32.036 -48.883  1.00  0.00     0.019 A 
ATOM      2  C   UNL     1      -4.741 -32.697 -48.515  1.00  0.00     0.094 A 
ATOM      3  C   UNL     1      -4.714 -34.095 -48.541  1.00  0.00     0.336 A 
ATOM      4  O   UNL     1      -3.666 -34.711 -48.214  1.00  0.00    -0.246 OA
ATOM      5  O   UNL     1      -5.792 -34.783 -48.912  1.00  0.00    -0.423 OA
ATOM      6  C   UNL     1      -6.929 -34.193 -49.269  1.00  0.00     0.142 A 
ATOM      7  C   UNL     1      -8.030 -34.967 -49.650  1.00  0.00     0.098 A 
ATOM      8  C   UNL     1      -9.232 -34.349 -50.027  1.00  0.00     0.161 A 
ATOM      9  C   UNL     1      -9.332 -32.950 -50.025  1.00  0.00     0.158 A 
ATOM     10  C   UNL     1      -8.231 -32.169 -49.645  1.00  0.00     0.062 A 
ATOM     11  C   UNL     1      -7.030 -32.784 -49.267  1.00  0.00     0.022 A 
ENDROOT
BRANCH   9  12
ATOM     12  O   UNL     1     -10.530 -32.344 -50.402  1.00  0.00    -0.504 OA
ATOM     13  H   UNL     1     -11.414 -32.621 -49.994  1.00  0.00     0.293 HD
ENDBRANCH   9  12
BRANCH   8  14
ATOM     14  O   UNL     1     -10.330 -35.118 -50.406  1.00  0.00    -0.504 OA
ATOM     15  H   UNL     1     -10.217 -36.040 -50.814  1.00  0.00     0.293 HD
ENDBRANCH   8  14
TORSDOF 2
ENDMDL
MODEL 9
REMARK VINA RESULT:    -4.931      2.905      3.496
REMARK INTER + INTRA:          -5.219
REMARK INTER:                  -5.219
REMARK INTRA:                   0.000
REMARK UNBOUND:                 0.000
REMARK SMILES O=c1ccc2cc(O)c(O)cc2o1
REMARK SMILES IDX 4 1 3 2 2 3 1 4 13 5 12 6 11 7 9 8 7 9 6 10 5 11 8 12 10 14
REMARK H PARENT 8 13 10 15
REMARK Flexibility Score: inf
ROOT
ATOM      1  C   UNL     1      -6.515 -35.081 -50.375  1.00  0.00     0.019 A 
ATOM      2  C   UNL     1      -5.279 -35.361 -49.795  1.00  0.00     0.094 A 
ATOM      3  C   UNL     1      -4.864 -34.613 -48.688  1.00  0.00     0.336 A 
ATOM      4  O   UNL     1      -3.751 -34.851 -48.149  1.00  0.00    -0.246 OA
ATOM      5  O   UNL     1      -5.639 -33.649 -48.198  1.00  0.00    -0.423 OA
ATOM      6  C   UNL     1      -6.825 -33.348 -48.721  1.00  0.00     0.142 A 
ATOM      7  C   UNL     1      -7.597 -32.324 -48.164  1.00  0.00     0.098 A 
ATOM      8  C   UNL     1      -8.848 -32.004 -48.713  1.00  0.00     0.161 A 
ATOM      9  C   UNL     1      -9.329 -32.713 -49.823  1.00  0.00     0.158 A 
ATOM     10  C   UNL     1      -8.560 -33.741 -50.386  1.00  0.00     0.062 A 
ATOM     11  C   UNL     1      -7.309 -34.061 -49.840  1.00  0.00     0.022 A 
ENDROOT
BRANCH   9  12
ATOM     12  O   UNL     1     -10.573 -32.388 -50.362  1.00  0.00    -0.504 OA
ATOM     13  H   UNL     1     -11.401 -32.929 -50.147  1.00  0.00     0.293 HD
ENDBRANCH   9  12
BRANCH   8  14
ATOM     14  O   UNL     1      -9.618 -30.984 -48.159  1.00  0.00    -0.504 OA
ATOM     15  H   UNL     1      -9.896 -30.997 -47.184  1.00  0.00     0.293 HD
ENDBRANCH   8  14
TORSDOF 2
ENDMDL
