MODEL 1
REMARK VINA RESULT:    -4.420      0.000      0.000
REMARK INTER + INTRA:         -11.258
REMARK INTER:                  -9.589
REMARK INTRA:                  -1.669
REMARK UNBOUND:                -1.669
REMARK SMILES CCCCCCCCCCCCCCCCCCCCCC(=O)[O-]
REMARK SMILES IDX 12 1 11 2 10 3 9 4 8 5 7 6 6 7 5 8 4 9 3 10 2 11 1 12 13 13
REMARK SMILES IDX 14 14 15 15 16 16 17 17 18 18 19 19 20 20 21 21 22 22 23 23
REMARK SMILES IDX 24 24
REMARK H PARENT
REMARK Flexibility Score: inf
ROOT
ATOM      1  C   UNL     1     156.273 155.021 166.800  1.00  0.00     0.000 C 
ENDROOT
BRANCH   1   2
ATOM      2  C   UNL     1     155.310 154.322 167.777  1.00  0.00     0.000 C 
BRANCH   2   3
ATOM      3  C   UNL     1     153.868 154.861 167.763  1.00  0.00     0.000 C 
BRANCH   3   4
ATOM      4  C   UNL     1     153.307 155.109 169.171  1.00  0.00    -0.000 C 
BRANCH   4   5
ATOM      5  C   UNL     1     154.317 154.678 170.246  1.00  0.00    -0.000 C 
BRANCH   5   6
ATOM      6  C   UNL     1     154.024 155.299 171.621  1.00  0.00    -0.000 C 
BRANCH   6   7
ATOM      7  C   UNL     1     153.969 154.246 172.743  1.00  0.00    -0.000 C 
BRANCH   7   8
ATOM      8  C   UNL     1     153.890 152.809 172.202  1.00  0.00    -0.000 C 
BRANCH   8   9
ATOM      9  C   UNL     1     154.399 151.767 173.213  1.00  0.00    -0.000 C 
BRANCH   9  10
ATOM     10  C   UNL     1     154.973 152.411 174.485  1.00  0.00    -0.000 C 
BRANCH  10  11
ATOM     11  C   UNL     1     156.107 151.584 175.107  1.00  0.00    -0.003 C 
ATOM     12  C   UNL     1     157.449 151.917 174.461  1.00  0.00     0.004 C 
ENDBRANCH  10  11
ENDBRANCH   9  10
ENDBRANCH   8   9
ENDBRANCH   7   8
ENDBRANCH   6   7
ENDBRANCH   5   6
ENDBRANCH   4   5
ENDBRANCH   3   4
ENDBRANCH   2   3
ENDBRANCH   1   2
BRANCH   1  13
ATOM     13  C   UNL     1     155.582 156.091 165.942  1.00  0.00     0.000 C 
BRANCH  13  14
ATOM     14  C   UNL     1     155.348 155.580 164.512  1.00  0.00     0.000 C 
BRANCH  14  15
ATOM     15  C   UNL     1     156.019 154.222 164.243  1.00  0.00     0.000 C 
BRANCH  15  16
ATOM     16  C   UNL     1     157.070 154.227 163.118  1.00  0.00     0.000 C 
BRANCH  16  17
ATOM     17  C   UNL     1     158.184 153.190 163.334  1.00  0.00     0.000 C 
BRANCH  17  18
ATOM     18  C   UNL     1     157.782 152.169 164.409  1.00  0.00     0.000 C 
BRANCH  18  19
ATOM     19  C   UNL     1     158.981 151.652 165.224  1.00  0.00     0.000 C 
BRANCH  19  20
ATOM     20  C   UNL     1     160.152 152.646 165.363  1.00  0.00     0.006 C 
BRANCH  20  21
ATOM     21  C   UNL     1     160.796 152.683 166.758  1.00  0.00     0.053 C 
BRANCH  21  22
ATOM     22  C   UNL     1     162.131 153.361 166.742  1.00  0.00     0.041 C 
ATOM     23  O   UNL     1     162.597 153.817 165.665  1.00  0.00    -0.550 OA
ATOM     24  O   UNL     1     162.877 153.458 167.910  1.00  0.00    -0.550 OA
ENDBRANCH  21  22
ENDBRANCH  20  21
ENDBRANCH  19  20
ENDBRANCH  18  19
ENDBRANCH  17  18
ENDBRANCH  16  17
ENDBRANCH  15  16
ENDBRANCH  14  15
ENDBRANCH  13  14
ENDBRANCH   1  13
TORSDOF 20
ENDMDL
MODEL 2
REMARK VINA RESULT:    -4.233     12.318     15.354
REMARK INTER + INTRA:         -10.851
REMARK INTER:                  -6.662
REMARK INTRA:                  -4.189
REMARK UNBOUND:                -1.669
REMARK SMILES CCCCCCCCCCCCCCCCCCCCCC(=O)[O-]
REMARK SMILES IDX 12 1 11 2 10 3 9 4 8 5 7 6 6 7 5 8 4 9 3 10 2 11 1 12 13 13
REMARK SMILES IDX 14 14 15 15 16 16 17 17 18 18 19 19 20 20 21 21 22 22 23 23
REMARK SMILES IDX 24 24
REMARK H PARENT
REMARK Flexibility Score: inf
ROOT
ATOM      1  C   UNL     1     165.794 155.536 179.726  1.00  0.00     0.000 C 
ENDROOT
BRANCH   1   2
ATOM      2  C   UNL     1     166.594 154.370 180.335  1.00  0.00     0.000 C 
BRANCH   2   3
ATOM      3  C   UNL     1     168.086 154.338 179.955  1.00  0.00     0.000 C 
BRANCH   3   4
ATOM      4  C   UNL     1     168.630 152.913 179.781  1.00  0.00    -0.000 C 
BRANCH   4   5
ATOM      5  C   UNL     1     167.487 151.885 179.801  1.00  0.00    -0.000 C 
BRANCH   5   6
ATOM      6  C   UNL     1     167.570 150.881 178.640  1.00  0.00    -0.000 C 
BRANCH   6   7
ATOM      7  C   UNL     1     167.399 151.554 177.266  1.00  0.00    -0.000 C 
BRANCH   7   8
ATOM      8  C   UNL     1     166.147 152.444 177.195  1.00  0.00    -0.000 C 
BRANCH   8   9
ATOM      9  C   UNL     1     166.407 153.776 176.470  1.00  0.00    -0.000 C 
BRANCH   9  10
ATOM     10  C   UNL     1     167.810 153.842 175.845  1.00  0.00    -0.000 C 
BRANCH  10  11
ATOM     11  C   UNL     1     168.387 155.265 175.836  1.00  0.00    -0.003 C 
ATOM     12  C   UNL     1     169.569 155.384 176.794  1.00  0.00     0.004 C 
ENDBRANCH  10  11
ENDBRANCH   9  10
ENDBRANCH   8   9
ENDBRANCH   7   8
ENDBRANCH   6   7
ENDBRANCH   5   6
ENDBRANCH   4   5
ENDBRANCH   3   4
ENDBRANCH   2   3
ENDBRANCH   1   2
BRANCH   1  13
ATOM     13  C   UNL     1     166.674 156.522 178.944  1.00  0.00     0.000 C 
BRANCH  13  14
ATOM     14  C   UNL     1     166.146 157.958 179.084  1.00  0.00     0.000 C 
BRANCH  14  15
ATOM     15  C   UNL     1     165.860 158.626 177.727  1.00  0.00     0.000 C 
BRANCH  15  16
ATOM     16  C   UNL     1     165.710 157.656 176.541  1.00  0.00     0.000 C 
BRANCH  16  17
ATOM     17  C   UNL     1     164.245 157.407 176.152  1.00  0.00     0.000 C 
BRANCH  17  18
ATOM     18  C   UNL     1     163.760 156.048 176.679  1.00  0.00     0.000 C 
BRANCH  18  19
ATOM     19  C   UNL     1     162.586 156.172 177.667  1.00  0.00     0.000 C 
BRANCH  19  20
ATOM     20  C   UNL     1     162.386 157.577 178.269  1.00  0.00     0.006 C 
BRANCH  20  21
ATOM     21  C   UNL     1     162.566 157.651 179.793  1.00  0.00     0.053 C 
BRANCH  21  22
ATOM     22  C   UNL     1     161.257 157.793 180.507  1.00  0.00     0.041 C 
ATOM     23  O   UNL     1     160.421 156.851 180.492  1.00  0.00    -0.550 OA
ATOM     24  O   UNL     1     160.943 158.980 181.158  1.00  0.00    -0.550 OA
ENDBRANCH  21  22
ENDBRANCH  20  21
ENDBRANCH  19  20
ENDBRANCH  18  19
ENDBRANCH  17  18
ENDBRANCH  16  17
ENDBRANCH  15  16
ENDBRANCH  14  15
ENDBRANCH  13  14
ENDBRANCH   1  13
TORSDOF 20
ENDMDL
MODEL 3
REMARK VINA RESULT:    -4.227     11.336     14.579
REMARK INTER + INTRA:         -10.838
REMARK INTER:                  -7.117
REMARK INTRA:                  -3.722
REMARK UNBOUND:                -1.669
REMARK SMILES CCCCCCCCCCCCCCCCCCCCCC(=O)[O-]
REMARK SMILES IDX 12 1 11 2 10 3 9 4 8 5 7 6 6 7 5 8 4 9 3 10 2 11 1 12 13 13
REMARK SMILES IDX 14 14 15 15 16 16 17 17 18 18 19 19 20 20 21 21 22 22 23 23
REMARK SMILES IDX 24 24
REMARK H PARENT
REMARK Flexibility Score: inf
ROOT
ATOM      1  C   UNL     1     167.518 153.737 180.522  1.00  0.00     0.000 C 
ENDROOT
BRANCH   1   2
ATOM      2  C   UNL     1     166.353 154.620 180.038  1.00  0.00     0.000 C 
BRANCH   2   3
ATOM      3  C   UNL     1     166.746 156.058 179.652  1.00  0.00     0.000 C 
BRANCH   3   4
ATOM      4  C   UNL     1     165.687 156.756 178.786  1.00  0.00    -0.000 C 
BRANCH   4   5
ATOM      5  C   UNL     1     164.471 157.165 179.632  1.00  0.00    -0.000 C 
BRANCH   5   6
ATOM      6  C   UNL     1     163.164 156.515 179.148  1.00  0.00    -0.000 C 
BRANCH   6   7
ATOM      7  C   UNL     1     163.152 156.278 177.627  1.00  0.00    -0.000 C 
BRANCH   7   8
ATOM      8  C   UNL     1     161.960 156.956 176.933  1.00  0.00    -0.000 C 
BRANCH   8   9
ATOM      9  C   UNL     1     162.399 157.984 175.874  1.00  0.00    -0.000 C 
BRANCH   9  10
ATOM     10  C   UNL     1     163.765 158.612 176.193  1.00  0.00    -0.000 C 
BRANCH  10  11
ATOM     11  C   UNL     1     164.696 158.654 174.973  1.00  0.00    -0.003 C 
ATOM     12  C   UNL     1     165.498 157.362 174.848  1.00  0.00     0.004 C 
ENDBRANCH  10  11
ENDBRANCH   9  10
ENDBRANCH   8   9
ENDBRANCH   7   8
ENDBRANCH   6   7
ENDBRANCH   5   6
ENDBRANCH   4   5
ENDBRANCH   3   4
ENDBRANCH   2   3
ENDBRANCH   1   2
BRANCH   1  13
ATOM     13  C   UNL     1     168.774 153.873 179.649  1.00  0.00     0.000 C 
BRANCH  13  14
ATOM     14  C   UNL     1     169.161 152.521 179.031  1.00  0.00     0.000 C 
BRANCH  14  15
ATOM     15  C   UNL     1     168.143 151.408 179.336  1.00  0.00     0.000 C 
BRANCH  15  16
ATOM     16  C   UNL     1     167.373 150.876 178.114  1.00  0.00     0.000 C 
BRANCH  16  17
ATOM     17  C   UNL     1     167.404 151.842 176.920  1.00  0.00     0.000 C 
BRANCH  17  18
ATOM     18  C   UNL     1     166.204 152.800 176.956  1.00  0.00     0.000 C 
BRANCH  18  19
ATOM     19  C   UNL     1     166.510 154.169 176.322  1.00  0.00     0.000 C 
BRANCH  19  20
ATOM     20  C   UNL     1     167.988 154.400 175.949  1.00  0.00     0.006 C 
BRANCH  20  21
ATOM     21  C   UNL     1     168.577 155.723 176.462  1.00  0.00     0.053 C 
BRANCH  21  22
ATOM     22  C   UNL     1     169.770 156.152 175.665  1.00  0.00     0.041 C 
ATOM     23  O   UNL     1     169.626 156.583 174.491  1.00  0.00    -0.550 OA
ATOM     24  O   UNL     1     171.045 156.043 176.205  1.00  0.00    -0.550 OA
ENDBRANCH  21  22
ENDBRANCH  20  21
ENDBRANCH  19  20
ENDBRANCH  18  19
ENDBRANCH  17  18
ENDBRANCH  16  17
ENDBRANCH  15  16
ENDBRANCH  14  15
ENDBRANCH  13  14
ENDBRANCH   1  13
TORSDOF 20
ENDMDL
MODEL 4
REMARK VINA RESULT:    -4.209     11.211     14.357
REMARK INTER + INTRA:         -10.798
REMARK INTER:                  -7.315
REMARK INTRA:                  -3.484
REMARK UNBOUND:                -1.669
REMARK SMILES CCCCCCCCCCCCCCCCCCCCCC(=O)[O-]
REMARK SMILES IDX 12 1 11 2 10 3 9 4 8 5 7 6 6 7 5 8 4 9 3 10 2 11 1 12 13 13
REMARK SMILES IDX 14 14 15 15 16 16 17 17 18 18 19 19 20 20 21 21 22 22 23 23
REMARK SMILES IDX 24 24
REMARK H PARENT
REMARK Flexibility Score: inf
ROOT
ATOM      1  C   UNL     1     165.981 152.378 177.256  1.00  0.00     0.000 C 
ENDROOT
BRANCH   1   2
ATOM      2  C   UNL     1     167.208 151.449 177.252  1.00  0.00     0.000 C 
BRANCH   2   3
ATOM      3  C   UNL     1     167.864 151.233 178.628  1.00  0.00     0.000 C 
BRANCH   3   4
ATOM      4  C   UNL     1     169.141 152.064 178.820  1.00  0.00    -0.000 C 
BRANCH   4   5
ATOM      5  C   UNL     1     168.833 153.378 179.555  1.00  0.00    -0.000 C 
BRANCH   5   6
ATOM      6  C   UNL     1     167.598 153.277 180.464  1.00  0.00    -0.000 C 
BRANCH   6   7
ATOM      7  C   UNL     1     167.156 154.646 181.012  1.00  0.00    -0.000 C 
BRANCH   7   8
ATOM      8  C   UNL     1     165.875 155.166 180.339  1.00  0.00    -0.000 C 
BRANCH   8   9
ATOM      9  C   UNL     1     166.154 156.287 179.322  1.00  0.00    -0.000 C 
BRANCH   9  10
ATOM     10  C   UNL     1     164.899 157.111 178.994  1.00  0.00    -0.000 C 
BRANCH  10  11
ATOM     11  C   UNL     1     163.663 156.234 178.750  1.00  0.00    -0.003 C 
ATOM     12  C   UNL     1     162.444 156.785 179.484  1.00  0.00     0.004 C 
ENDBRANCH  10  11
ENDBRANCH   9  10
ENDBRANCH   8   9
ENDBRANCH   7   8
ENDBRANCH   6   7
ENDBRANCH   5   6
ENDBRANCH   4   5
ENDBRANCH   3   4
ENDBRANCH   2   3
ENDBRANCH   1   2
BRANCH   1  13
ATOM     13  C   UNL     1     166.311 153.807 176.802  1.00  0.00     0.000 C 
BRANCH  13  14
ATOM     14  C   UNL     1     167.588 153.830 175.947  1.00  0.00     0.000 C 
BRANCH  14  15
ATOM     15  C   UNL     1     167.853 155.201 175.300  1.00  0.00     0.000 C 
BRANCH  15  16
ATOM     16  C   UNL     1     167.554 156.414 176.199  1.00  0.00     0.000 C 
BRANCH  16  17
ATOM     17  C   UNL     1     166.681 157.472 175.507  1.00  0.00     0.000 C 
BRANCH  17  18
ATOM     18  C   UNL     1     165.528 156.814 174.735  1.00  0.00     0.000 C 
BRANCH  18  19
ATOM     19  C   UNL     1     164.142 157.234 175.254  1.00  0.00     0.000 C 
BRANCH  19  20
ATOM     20  C   UNL     1     163.973 158.744 175.516  1.00  0.00     0.006 C 
BRANCH  20  21
ATOM     21  C   UNL     1     162.856 159.099 176.510  1.00  0.00     0.053 C 
BRANCH  21  22
ATOM     22  C   UNL     1     161.519 158.604 176.052  1.00  0.00     0.041 C 
ATOM     23  O   UNL     1     160.951 157.659 176.661  1.00  0.00    -0.550 OA
ATOM     24  O   UNL     1     160.916 159.161 174.932  1.00  0.00    -0.550 OA
ENDBRANCH  21  22
ENDBRANCH  20  21
ENDBRANCH  19  20
ENDBRANCH  18  19
ENDBRANCH  17  18
ENDBRANCH  16  17
ENDBRANCH  15  16
ENDBRANCH  14  15
ENDBRANCH  13  14
ENDBRANCH   1  13
TORSDOF 20
ENDMDL
MODEL 5
REMARK VINA RESULT:    -4.177     11.263     15.386
REMARK INTER + INTRA:         -10.729
REMARK INTER:                  -7.095
REMARK INTRA:                  -3.634
REMARK UNBOUND:                -1.669
REMARK SMILES CCCCCCCCCCCCCCCCCCCCCC(=O)[O-]
REMARK SMILES IDX 12 1 11 2 10 3 9 4 8 5 7 6 6 7 5 8 4 9 3 10 2 11 1 12 13 13
REMARK SMILES IDX 14 14 15 15 16 16 17 17 18 18 19 19 20 20 21 21 22 22 23 23
REMARK SMILES IDX 24 24
REMARK H PARENT
REMARK Flexibility Score: inf
ROOT
ATOM      1  C   UNL     1     168.712 152.516 178.948  1.00  0.00     0.000 C 
ENDROOT
BRANCH   1   2
ATOM      2  C   UNL     1     167.836 151.350 178.454  1.00  0.00     0.000 C 
BRANCH   2   3
ATOM      3  C   UNL     1     167.080 151.619 177.140  1.00  0.00     0.000 C 
BRANCH   3   4
ATOM      4  C   UNL     1     165.957 152.655 177.296  1.00  0.00    -0.000 C 
BRANCH   4   5
ATOM      5  C   UNL     1     166.297 153.948 176.539  1.00  0.00    -0.000 C 
BRANCH   5   6
ATOM      6  C   UNL     1     167.611 153.847 175.747  1.00  0.00    -0.000 C 
BRANCH   6   7
ATOM      7  C   UNL     1     168.287 155.215 175.551  1.00  0.00    -0.000 C 
BRANCH   7   8
ATOM      8  C   UNL     1     168.107 156.144 176.763  1.00  0.00    -0.000 C 
BRANCH   8   9
ATOM      9  C   UNL     1     167.885 157.611 176.357  1.00  0.00    -0.000 C 
BRANCH   9  10
ATOM     10  C   UNL     1     167.058 157.747 175.068  1.00  0.00    -0.000 C 
BRANCH  10  11
ATOM     11  C   UNL     1     165.546 157.758 175.334  1.00  0.00    -0.003 C 
ATOM     12  C   UNL     1     164.846 156.637 174.572  1.00  0.00     0.004 C 
ENDBRANCH  10  11
ENDBRANCH   9  10
ENDBRANCH   8   9
ENDBRANCH   7   8
ENDBRANCH   6   7
ENDBRANCH   5   6
ENDBRANCH   4   5
ENDBRANCH   3   4
ENDBRANCH   2   3
ENDBRANCH   1   2
BRANCH   1  13
ATOM     13  C   UNL     1     168.888 152.527 180.474  1.00  0.00     0.000 C 
BRANCH  13  14
ATOM     14  C   UNL     1     168.339 153.828 181.080  1.00  0.00     0.000 C 
BRANCH  14  15
ATOM     15  C   UNL     1     167.552 154.677 180.065  1.00  0.00     0.000 C 
BRANCH  15  16
ATOM     16  C   UNL     1     166.060 154.868 180.393  1.00  0.00     0.000 C 
BRANCH  16  17
ATOM     17  C   UNL     1     165.573 156.305 180.153  1.00  0.00     0.000 C 
BRANCH  17  18
ATOM     18  C   UNL     1     164.952 156.448 178.756  1.00  0.00     0.000 C 
BRANCH  18  19
ATOM     19  C   UNL     1     163.460 156.068 178.721  1.00  0.00     0.000 C 
BRANCH  19  20
ATOM     20  C   UNL     1     162.654 156.698 177.567  1.00  0.00     0.006 C 
BRANCH  20  21
ATOM     21  C   UNL     1     162.135 158.116 177.851  1.00  0.00     0.053 C 
BRANCH  21  22
ATOM     22  C   UNL     1     161.642 158.792 176.609  1.00  0.00     0.041 C 
ATOM     23  O   UNL     1     161.117 159.935 176.675  1.00  0.00    -0.550 OA
ATOM     24  O   UNL     1     161.729 158.147 175.382  1.00  0.00    -0.550 OA
ENDBRANCH  21  22
ENDBRANCH  20  21
ENDBRANCH  19  20
ENDBRANCH  18  19
ENDBRANCH  17  18
ENDBRANCH  16  17
ENDBRANCH  15  16
ENDBRANCH  14  15
ENDBRANCH  13  14
ENDBRANCH   1  13
TORSDOF 20
ENDMDL
MODEL 6
REMARK VINA RESULT:    -4.140     11.054     14.762
REMARK INTER + INTRA:         -10.650
REMARK INTER:                  -7.202
REMARK INTRA:                  -3.448
REMARK UNBOUND:                -1.669
REMARK SMILES CCCCCCCCCCCCCCCCCCCCCC(=O)[O-]
REMARK SMILES IDX 12 1 11 2 10 3 9 4 8 5 7 6 6 7 5 8 4 9 3 10 2 11 1 12 13 13
REMARK SMILES IDX 14 14 15 15 16 16 17 17 18 18 19 19 20 20 21 21 22 22 23 23
REMARK SMILES IDX 24 24
REMARK H PARENT
REMARK Flexibility Score: inf
ROOT
ATOM      1  C   UNL     1     167.993 154.444 179.923  1.00  0.00     0.000 C 
ENDROOT
BRANCH   1   2
ATOM      2  C   UNL     1     168.617 153.071 179.613  1.00  0.00     0.000 C 
BRANCH   2   3
ATOM      3  C   UNL     1     167.701 151.865 179.889  1.00  0.00     0.000 C 
BRANCH   3   4
ATOM      4  C   UNL     1     167.642 150.876 178.715  1.00  0.00    -0.000 C 
BRANCH   4   5
ATOM      5  C   UNL     1     167.442 151.617 177.384  1.00  0.00    -0.000 C 
BRANCH   5   6
ATOM      6  C   UNL     1     166.021 152.182 177.226  1.00  0.00    -0.000 C 
BRANCH   6   7
ATOM      7  C   UNL     1     166.018 153.633 176.712  1.00  0.00    -0.000 C 
BRANCH   7   8
ATOM      8  C   UNL     1     167.377 154.057 176.132  1.00  0.00    -0.000 C 
BRANCH   8   9
ATOM      9  C   UNL     1     167.367 155.499 175.592  1.00  0.00    -0.000 C 
BRANCH   9  10
ATOM     10  C   UNL     1     165.957 155.971 175.203  1.00  0.00    -0.000 C 
BRANCH  10  11
ATOM     11  C   UNL     1     165.880 157.490 174.990  1.00  0.00    -0.003 C 
ATOM     12  C   UNL     1     167.172 158.025 174.379  1.00  0.00     0.004 C 
ENDBRANCH  10  11
ENDBRANCH   9  10
ENDBRANCH   8   9
ENDBRANCH   7   8
ENDBRANCH   6   7
ENDBRANCH   5   6
ENDBRANCH   4   5
ENDBRANCH   3   4
ENDBRANCH   2   3
ENDBRANCH   1   2
BRANCH   1  13
ATOM     13  C   UNL     1     166.501 154.357 180.277  1.00  0.00     0.000 C 
BRANCH  13  14
ATOM     14  C   UNL     1     165.858 155.752 180.291  1.00  0.00     0.000 C 
BRANCH  14  15
ATOM     15  C   UNL     1     165.914 156.452 178.922  1.00  0.00     0.000 C 
BRANCH  15  16
ATOM     16  C   UNL     1     164.588 157.082 178.457  1.00  0.00     0.000 C 
BRANCH  16  17
ATOM     17  C   UNL     1     163.485 156.041 178.208  1.00  0.00     0.000 C 
BRANCH  17  18
ATOM     18  C   UNL     1     162.389 156.611 177.295  1.00  0.00     0.000 C 
BRANCH  18  19
ATOM     19  C   UNL     1     162.682 158.049 176.831  1.00  0.00     0.000 C 
BRANCH  19  20
ATOM     20  C   UNL     1     162.314 158.349 175.364  1.00  0.00     0.006 C 
BRANCH  20  21
ATOM     21  C   UNL     1     162.383 159.835 174.979  1.00  0.00     0.053 C 
BRANCH  21  22
ATOM     22  C   UNL     1     161.021 160.444 174.845  1.00  0.00     0.041 C 
ATOM     23  O   UNL     1     160.894 161.691 174.721  1.00  0.00    -0.550 OA
ATOM     24  O   UNL     1     159.890 159.640 174.893  1.00  0.00    -0.550 OA
ENDBRANCH  21  22
ENDBRANCH  20  21
ENDBRANCH  19  20
ENDBRANCH  18  19
ENDBRANCH  17  18
ENDBRANCH  16  17
ENDBRANCH  15  16
ENDBRANCH  14  15
ENDBRANCH  13  14
ENDBRANCH   1  13
TORSDOF 20
ENDMDL
MODEL 7
REMARK VINA RESULT:    -4.118     11.923     15.064
REMARK INTER + INTRA:         -10.601
REMARK INTER:                  -6.206
REMARK INTRA:                  -4.395
REMARK UNBOUND:                -1.669
REMARK SMILES CCCCCCCCCCCCCCCCCCCCCC(=O)[O-]
REMARK SMILES IDX 12 1 11 2 10 3 9 4 8 5 7 6 6 7 5 8 4 9 3 10 2 11 1 12 13 13
REMARK SMILES IDX 14 14 15 15 16 16 17 17 18 18 19 19 20 20 21 21 22 22 23 23
REMARK SMILES IDX 24 24
REMARK H PARENT
REMARK Flexibility Score: inf
ROOT
ATOM      1  C   UNL     1     167.410 151.506 177.357  1.00  0.00     0.000 C 
ENDROOT
BRANCH   1   2
ATOM      2  C   UNL     1     167.678 150.876 178.737  1.00  0.00     0.000 C 
BRANCH   2   3
ATOM      3  C   UNL     1     167.722 151.873 179.908  1.00  0.00     0.000 C 
BRANCH   3   4
ATOM      4  C   UNL     1     168.743 153.001 179.698  1.00  0.00    -0.000 C 
BRANCH   4   5
ATOM      5  C   UNL     1     168.123 154.369 180.024  1.00  0.00    -0.000 C 
BRANCH   5   6
ATOM      6  C   UNL     1     166.666 154.262 180.504  1.00  0.00    -0.000 C 
BRANCH   6   7
ATOM      7  C   UNL     1     165.800 155.440 180.023  1.00  0.00    -0.000 C 
BRANCH   7   8
ATOM      8  C   UNL     1     166.519 156.317 178.984  1.00  0.00    -0.000 C 
BRANCH   8   9
ATOM      9  C   UNL     1     166.118 157.800 179.082  1.00  0.00    -0.000 C 
BRANCH   9  10
ATOM     10  C   UNL     1     167.333 158.733 179.192  1.00  0.00    -0.000 C 
BRANCH  10  11
ATOM     11  C   UNL     1     168.637 157.975 179.483  1.00  0.00    -0.003 C 
ATOM     12  C   UNL     1     169.785 158.511 178.633  1.00  0.00     0.004 C 
ENDBRANCH  10  11
ENDBRANCH   9  10
ENDBRANCH   8   9
ENDBRANCH   7   8
ENDBRANCH   6   7
ENDBRANCH   5   6
ENDBRANCH   4   5
ENDBRANCH   3   4
ENDBRANCH   2   3
ENDBRANCH   1   2
BRANCH   1  13
ATOM     13  C   UNL     1     166.116 152.332 177.319  1.00  0.00     0.000 C 
BRANCH  13  14
ATOM     14  C   UNL     1     166.325 153.642 176.543  1.00  0.00     0.000 C 
BRANCH  14  15
ATOM     15  C   UNL     1     167.805 153.924 176.231  1.00  0.00     0.000 C 
BRANCH  15  16
ATOM     16  C   UNL     1     168.054 155.088 175.254  1.00  0.00     0.000 C 
BRANCH  16  17
ATOM     17  C   UNL     1     168.727 156.298 175.922  1.00  0.00     0.000 C 
BRANCH  17  18
ATOM     18  C   UNL     1     167.928 157.583 175.662  1.00  0.00     0.000 C 
BRANCH  18  19
ATOM     19  C   UNL     1     166.665 157.344 174.815  1.00  0.00     0.000 C 
BRANCH  19  20
ATOM     20  C   UNL     1     165.336 157.700 175.510  1.00  0.00     0.006 C 
BRANCH  20  21
ATOM     21  C   UNL     1     164.371 156.518 175.688  1.00  0.00     0.053 C 
BRANCH  21  22
ATOM     22  C   UNL     1     163.371 156.769 176.774  1.00  0.00     0.041 C 
ATOM     23  O   UNL     1     162.911 155.808 177.446  1.00  0.00    -0.550 OA
ATOM     24  O   UNL     1     162.918 158.058 177.021  1.00  0.00    -0.550 OA
ENDBRANCH  21  22
ENDBRANCH  20  21
ENDBRANCH  19  20
ENDBRANCH  18  19
ENDBRANCH  17  18
ENDBRANCH  16  17
ENDBRANCH  15  16
ENDBRANCH  14  15
ENDBRANCH  13  14
ENDBRANCH   1  13
TORSDOF 20
ENDMDL
MODEL 8
REMARK VINA RESULT:    -4.113     11.424     15.517
REMARK INTER + INTRA:         -10.592
REMARK INTER:                  -6.673
REMARK INTRA:                  -3.918
REMARK UNBOUND:                -1.669
REMARK SMILES CCCCCCCCCCCCCCCCCCCCCC(=O)[O-]
REMARK SMILES IDX 12 1 11 2 10 3 9 4 8 5 7 6 6 7 5 8 4 9 3 10 2 11 1 12 13 13
REMARK SMILES IDX 14 14 15 15 16 16 17 17 18 18 19 19 20 20 21 21 22 22 23 23
REMARK SMILES IDX 24 24
REMARK H PARENT
REMARK Flexibility Score: inf
ROOT
ATOM      1  C   UNL     1     168.768 152.885 180.137  1.00  0.00     0.000 C 
ENDROOT
BRANCH   1   2
ATOM      2  C   UNL     1     167.474 152.212 179.642  1.00  0.00     0.000 C 
BRANCH   2   3
ATOM      3  C   UNL     1     167.668 151.193 178.504  1.00  0.00     0.000 C 
BRANCH   3   4
ATOM      4  C   UNL     1     166.965 151.608 177.203  1.00  0.00    -0.000 C 
BRANCH   4   5
ATOM      5  C   UNL     1     166.017 152.793 177.447  1.00  0.00    -0.000 C 
BRANCH   5   6
ATOM      6  C   UNL     1     166.263 153.961 176.478  1.00  0.00    -0.000 C 
BRANCH   6   7
ATOM      7  C   UNL     1     167.663 153.911 175.838  1.00  0.00    -0.000 C 
BRANCH   7   8
ATOM      8  C   UNL     1     168.149 155.293 175.373  1.00  0.00    -0.000 C 
BRANCH   8   9
ATOM      9  C   UNL     1     167.034 156.354 175.401  1.00  0.00    -0.000 C 
BRANCH   9  10
ATOM     10  C   UNL     1     167.400 157.615 174.602  1.00  0.00    -0.000 C 
BRANCH  10  11
ATOM     11  C   UNL     1     167.743 158.809 175.505  1.00  0.00    -0.003 C 
ATOM     12  C   UNL     1     167.152 158.629 176.900  1.00  0.00     0.004 C 
ENDBRANCH  10  11
ENDBRANCH   9  10
ENDBRANCH   8   9
ENDBRANCH   7   8
ENDBRANCH   6   7
ENDBRANCH   5   6
ENDBRANCH   4   5
ENDBRANCH   3   4
ENDBRANCH   2   3
ENDBRANCH   1   2
BRANCH   1  13
ATOM     13  C   UNL     1     169.544 153.588 179.014  1.00  0.00     0.000 C 
BRANCH  13  14
ATOM     14  C   UNL     1     169.623 155.101 179.264  1.00  0.00     0.000 C 
BRANCH  14  15
ATOM     15  C   UNL     1     168.277 155.816 179.047  1.00  0.00     0.000 C 
BRANCH  15  16
ATOM     16  C   UNL     1     167.689 156.493 180.299  1.00  0.00     0.000 C 
BRANCH  16  17
ATOM     17  C   UNL     1     166.210 156.874 180.135  1.00  0.00     0.000 C 
BRANCH  17  18
ATOM     18  C   UNL     1     165.386 155.676 179.639  1.00  0.00     0.000 C 
BRANCH  18  19
ATOM     19  C   UNL     1     164.021 156.086 179.058  1.00  0.00     0.000 C 
BRANCH  19  20
ATOM     20  C   UNL     1     164.083 156.824 177.705  1.00  0.00     0.006 C 
BRANCH  20  21
ATOM     21  C   UNL     1     162.803 156.719 176.861  1.00  0.00     0.053 C 
BRANCH  21  22
ATOM     22  C   UNL     1     162.736 157.782 175.808  1.00  0.00     0.041 C 
ATOM     23  O   UNL     1     161.626 158.273 175.473  1.00  0.00    -0.550 OA
ATOM     24  O   UNL     1     163.895 158.206 175.171  1.00  0.00    -0.550 OA
ENDBRANCH  21  22
ENDBRANCH  20  21
ENDBRANCH  19  20
ENDBRANCH  18  19
ENDBRANCH  17  18
ENDBRANCH  16  17
ENDBRANCH  15  16
ENDBRANCH  14  15
ENDBRANCH  13  14
ENDBRANCH   1  13
TORSDOF 20
ENDMDL
MODEL 9
REMARK VINA RESULT:    -4.081     10.844     14.347
REMARK INTER + INTRA:         -10.522
REMARK INTER:                  -7.022
REMARK INTRA:                  -3.499
REMARK UNBOUND:                -1.669
REMARK SMILES CCCCCCCCCCCCCCCCCCCCCC(=O)[O-]
REMARK SMILES IDX 12 1 11 2 10 3 9 4 8 5 7 6 6 7 5 8 4 9 3 10 2 11 1 12 13 13
REMARK SMILES IDX 14 14 15 15 16 16 17 17 18 18 19 19 20 20 21 21 22 22 23 23
REMARK SMILES IDX 24 24
REMARK H PARENT
REMARK Flexibility Score: inf
ROOT
ATOM      1  C   UNL     1     168.701 153.259 179.678  1.00  0.00     0.000 C 
ENDROOT
BRANCH   1   2
ATOM      2  C   UNL     1     167.433 153.063 180.530  1.00  0.00     0.000 C 
BRANCH   2   3
ATOM      3  C   UNL     1     166.393 154.192 180.416  1.00  0.00     0.000 C 
BRANCH   3   4
ATOM      4  C   UNL     1     167.010 155.592 180.549  1.00  0.00    -0.000 C 
BRANCH   4   5
ATOM      5  C   UNL     1     165.916 156.669 180.606  1.00  0.00    -0.000 C 
BRANCH   5   6
ATOM      6  C   UNL     1     165.614 157.285 179.231  1.00  0.00    -0.000 C 
BRANCH   6   7
ATOM      7  C   UNL     1     164.107 157.313 178.916  1.00  0.00    -0.000 C 
BRANCH   7   8
ATOM      8  C   UNL     1     163.655 156.103 178.082  1.00  0.00    -0.000 C 
BRANCH   8   9
ATOM      9  C   UNL     1     162.381 156.389 177.267  1.00  0.00    -0.000 C 
BRANCH   9  10
ATOM     10  C   UNL     1     161.514 157.490 177.896  1.00  0.00    -0.000 C 
BRANCH  10  11
ATOM     11  C   UNL     1     161.324 158.697 176.966  1.00  0.00    -0.003 C 
ATOM     12  C   UNL     1     161.602 158.321 175.513  1.00  0.00     0.004 C 
ENDBRANCH  10  11
ENDBRANCH   9  10
ENDBRANCH   8   9
ENDBRANCH   7   8
ENDBRANCH   6   7
ENDBRANCH   5   6
ENDBRANCH   4   5
ENDBRANCH   3   4
ENDBRANCH   2   3
ENDBRANCH   1   2
BRANCH   1  13
ATOM     13  C   UNL     1     169.030 152.039 178.806  1.00  0.00     0.000 C 
BRANCH  13  14
ATOM     14  C   UNL     1     167.796 151.140 178.632  1.00  0.00     0.000 C 
BRANCH  14  15
ATOM     15  C   UNL     1     167.141 151.282 177.246  1.00  0.00     0.000 C 
BRANCH  15  16
ATOM     16  C   UNL     1     165.878 152.161 177.210  1.00  0.00     0.000 C 
BRANCH  16  17
ATOM     17  C   UNL     1     166.180 153.633 176.892  1.00  0.00     0.000 C 
BRANCH  17  18
ATOM     18  C   UNL     1     167.394 153.755 175.959  1.00  0.00     0.000 C 
BRANCH  18  19
ATOM     19  C   UNL     1     168.290 154.961 176.294  1.00  0.00     0.000 C 
BRANCH  19  20
ATOM     20  C   UNL     1     167.539 156.290 176.515  1.00  0.00     0.006 C 
BRANCH  20  21
ATOM     21  C   UNL     1     167.176 157.040 175.224  1.00  0.00     0.053 C 
BRANCH  21  22
ATOM     22  C   UNL     1     165.698 157.244 175.091  1.00  0.00     0.041 C 
ATOM     23  O   UNL     1     165.200 158.389 175.255  1.00  0.00    -0.550 OA
ATOM     24  O   UNL     1     164.867 156.165 174.821  1.00  0.00    -0.550 OA
ENDBRANCH  21  22
ENDBRANCH  20  21
ENDBRANCH  19  20
ENDBRANCH  18  19
ENDBRANCH  17  18
ENDBRANCH  16  17
ENDBRANCH  15  16
ENDBRANCH  14  15
ENDBRANCH  13  14
ENDBRANCH   1  13
TORSDOF 20
ENDMDL
