MODEL 1
REMARK VINA RESULT:    -4.977      0.000      0.000
REMARK INTER + INTRA:          -8.395
REMARK INTER:                  -7.886
REMARK INTRA:                  -0.509
REMARK UNBOUND:                -0.509
REMARK SMILES CCCCCCCCCCCC(=O)[O-]
REMARK SMILES IDX 7 1 8 2 9 3 10 4 11 5 12 6 13 7 14 8 6 9 5 10 4 11 3 12 2 13
REMARK SMILES IDX 1 14
REMARK H PARENT
REMARK Flexibility Score: inf
ROOT
ATOM      1  C   UNL     1      80.874  58.883  10.604  1.00  0.00     0.000 C 
ENDROOT
BRANCH   1   2
ATOM      2  C   UNL     1      81.220  60.331  10.221  1.00  0.00     0.000 C 
BRANCH   2   3
ATOM      3  C   UNL     1      82.699  60.671  10.463  1.00  0.00     0.000 C 
BRANCH   3   4
ATOM      4  C   UNL     1      83.424  59.602  11.298  1.00  0.00     0.006 C 
BRANCH   4   5
ATOM      5  C   UNL     1      83.741  60.091  12.717  1.00  0.00     0.053 C 
BRANCH   5   6
ATOM      6  C   UNL     1      85.199  59.965  13.039  1.00  0.00     0.041 C 
ATOM      7  O   UNL     1      85.681  60.565  14.034  1.00  0.00    -0.550 OA
ATOM      8  O   UNL     1      86.030  59.207  12.223  1.00  0.00    -0.550 OA
ENDBRANCH   5   6
ENDBRANCH   4   5
ENDBRANCH   3   4
ENDBRANCH   2   3
ENDBRANCH   1   2
BRANCH   1   9
ATOM      9  C   UNL     1      79.417  58.555  10.246  1.00  0.00     0.000 C 
BRANCH   9  10
ATOM     10  C   UNL     1      78.989  57.159  10.727  1.00  0.00    -0.000 C 
BRANCH  10  11
ATOM     11  C   UNL     1      77.912  56.529   9.831  1.00  0.00    -0.000 C 
BRANCH  11  12
ATOM     12  C   UNL     1      78.471  55.326   9.063  1.00  0.00    -0.000 C 
BRANCH  12  13
ATOM     13  C   UNL     1      78.029  55.356   7.595  1.00  0.00    -0.003 C 
ATOM     14  C   UNL     1      77.737  56.781   7.137  1.00  0.00     0.004 C 
ENDBRANCH  12  13
ENDBRANCH  11  12
ENDBRANCH  10  11
ENDBRANCH   9  10
ENDBRANCH   1   9
TORSDOF 10
ENDMDL
MODEL 2
REMARK VINA RESULT:    -4.965      2.394      2.854
REMARK INTER + INTRA:          -8.376
REMARK INTER:                  -7.890
REMARK INTRA:                  -0.487
REMARK UNBOUND:                -0.509
REMARK SMILES CCCCCCCCCCCC(=O)[O-]
REMARK SMILES IDX 7 1 8 2 9 3 10 4 11 5 12 6 13 7 14 8 6 9 5 10 4 11 3 12 2 13
REMARK SMILES IDX 1 14
REMARK H PARENT
REMARK Flexibility Score: inf
ROOT
ATOM      1  C   UNL     1      80.644  59.929  10.254  1.00  0.00     0.000 C 
ENDROOT
BRANCH   1   2
ATOM      2  C   UNL     1      81.939  59.191  10.626  1.00  0.00     0.000 C 
BRANCH   2   3
ATOM      3  C   UNL     1      82.933  60.082  11.386  1.00  0.00     0.000 C 
BRANCH   3   4
ATOM      4  C   UNL     1      83.946  60.769  10.454  1.00  0.00     0.006 C 
BRANCH   4   5
ATOM      5  C   UNL     1      83.396  62.075   9.863  1.00  0.00     0.053 C 
BRANCH   5   6
ATOM      6  C   UNL     1      84.444  62.828   9.101  1.00  0.00     0.041 C 
ATOM      7  O   UNL     1      85.518  63.161   9.664  1.00  0.00    -0.550 OA
ATOM      8  O   UNL     1      84.220  63.186   7.777  1.00  0.00    -0.550 OA
ENDBRANCH   5   6
ENDBRANCH   4   5
ENDBRANCH   3   4
ENDBRANCH   2   3
ENDBRANCH   1   2
BRANCH   1   9
ATOM      9  C   UNL     1      79.467  58.949  10.140  1.00  0.00     0.000 C 
BRANCH   9  10
ATOM     10  C   UNL     1      79.852  57.514  10.531  1.00  0.00    -0.000 C 
BRANCH  10  11
ATOM     11  C   UNL     1      78.647  56.561  10.547  1.00  0.00    -0.000 C 
BRANCH  11  12
ATOM     12  C   UNL     1      77.716  56.833   9.360  1.00  0.00    -0.000 C 
BRANCH  12  13
ATOM     13  C   UNL     1      78.173  56.067   8.114  1.00  0.00    -0.003 C 
ATOM     14  C   UNL     1      77.791  56.811   6.838  1.00  0.00     0.004 C 
ENDBRANCH  12  13
ENDBRANCH  11  12
ENDBRANCH  10  11
ENDBRANCH   9  10
ENDBRANCH   1   9
TORSDOF 10
ENDMDL
MODEL 3
REMARK VINA RESULT:    -4.893      1.918      3.254
REMARK INTER + INTRA:          -8.263
REMARK INTER:                  -7.259
REMARK INTRA:                  -1.003
REMARK UNBOUND:                -0.509
REMARK SMILES CCCCCCCCCCCC(=O)[O-]
REMARK SMILES IDX 7 1 8 2 9 3 10 4 11 5 12 6 13 7 14 8 6 9 5 10 4 11 3 12 2 13
REMARK SMILES IDX 1 14
REMARK H PARENT
REMARK Flexibility Score: inf
ROOT
ATOM      1  C   UNL     1      79.622  55.866  11.318  1.00  0.00     0.000 C 
ENDROOT
BRANCH   1   2
ATOM      2  C   UNL     1      78.911  57.193  11.015  1.00  0.00     0.000 C 
BRANCH   2   3
ATOM      3  C   UNL     1      79.694  58.075  10.030  1.00  0.00     0.000 C 
BRANCH   3   4
ATOM      4  C   UNL     1      80.333  59.298  10.710  1.00  0.00     0.006 C 
BRANCH   4   5
ATOM      5  C   UNL     1      81.857  59.162  10.835  1.00  0.00     0.053 C 
BRANCH   5   6
ATOM      6  C   UNL     1      82.557  60.460  10.573  1.00  0.00     0.041 C 
ATOM      7  O   UNL     1      81.955  61.396   9.984  1.00  0.00    -0.550 OA
ATOM      8  O   UNL     1      83.884  60.626  10.952  1.00  0.00    -0.550 OA
ENDBRANCH   5   6
ENDBRANCH   4   5
ENDBRANCH   3   4
ENDBRANCH   2   3
ENDBRANCH   1   2
BRANCH   1   9
ATOM      9  C   UNL     1      80.536  55.455  10.154  1.00  0.00     0.000 C 
BRANCH   9  10
ATOM     10  C   UNL     1      79.918  54.356   9.275  1.00  0.00    -0.000 C 
BRANCH  10  11
ATOM     11  C   UNL     1      79.483  54.874   7.896  1.00  0.00    -0.000 C 
BRANCH  11  12
ATOM     12  C   UNL     1      77.961  55.043   7.828  1.00  0.00    -0.000 C 
BRANCH  12  13
ATOM     13  C   UNL     1      77.573  56.525   7.782  1.00  0.00    -0.003 C 
ATOM     14  C   UNL     1      77.762  57.102   6.383  1.00  0.00     0.004 C 
ENDBRANCH  12  13
ENDBRANCH  11  12
ENDBRANCH  10  11
ENDBRANCH   9  10
ENDBRANCH   1   9
TORSDOF 10
ENDMDL
MODEL 4
REMARK VINA RESULT:    -4.861      4.293      7.548
REMARK INTER + INTRA:          -8.212
REMARK INTER:                  -7.808
REMARK INTRA:                  -0.404
REMARK UNBOUND:                -0.509
REMARK SMILES CCCCCCCCCCCC(=O)[O-]
REMARK SMILES IDX 7 1 8 2 9 3 10 4 11 5 12 6 13 7 14 8 6 9 5 10 4 11 3 12 2 13
REMARK SMILES IDX 1 14
REMARK H PARENT
REMARK Flexibility Score: inf
ROOT
ATOM      1  C   UNL     1      79.914  59.074  10.279  1.00  0.00     0.000 C 
ENDROOT
BRANCH   1   2
ATOM      2  C   UNL     1      80.158  57.593  10.608  1.00  0.00     0.000 C 
BRANCH   2   3
ATOM      3  C   UNL     1      78.869  56.848  10.986  1.00  0.00     0.000 C 
BRANCH   3   4
ATOM      4  C   UNL     1      78.343  55.959   9.847  1.00  0.00     0.006 C 
BRANCH   4   5
ATOM      5  C   UNL     1      77.614  56.770   8.767  1.00  0.00     0.053 C 
BRANCH   5   6
ATOM      6  C   UNL     1      77.736  56.135   7.415  1.00  0.00     0.041 C 
ATOM      7  O   UNL     1      77.802  56.852   6.383  1.00  0.00    -0.550 OA
ATOM      8  O   UNL     1      77.745  54.751   7.293  1.00  0.00    -0.550 OA
ENDBRANCH   5   6
ENDBRANCH   4   5
ENDBRANCH   3   4
ENDBRANCH   2   3
ENDBRANCH   1   2
BRANCH   1   9
ATOM      9  C   UNL     1      81.080  59.945  10.770  1.00  0.00     0.000 C 
BRANCH   9  10
ATOM     10  C   UNL     1      82.437  59.232  10.664  1.00  0.00    -0.000 C 
BRANCH  10  11
ATOM     11  C   UNL     1      83.617  60.145  11.028  1.00  0.00    -0.000 C 
BRANCH  11  12
ATOM     12  C   UNL     1      84.170  60.851   9.784  1.00  0.00    -0.000 C 
BRANCH  12  13
ATOM     13  C   UNL     1      83.681  62.301   9.710  1.00  0.00    -0.003 C 
ATOM     14  C   UNL     1      84.450  63.089   8.654  1.00  0.00     0.004 C 
ENDBRANCH  12  13
ENDBRANCH  11  12
ENDBRANCH  10  11
ENDBRANCH   9  10
ENDBRANCH   1   9
TORSDOF 10
ENDMDL
MODEL 5
REMARK VINA RESULT:    -4.793      1.877      3.168
REMARK INTER + INTRA:          -8.104
REMARK INTER:                  -7.471
REMARK INTRA:                  -0.633
REMARK UNBOUND:                -0.509
REMARK SMILES CCCCCCCCCCCC(=O)[O-]
REMARK SMILES IDX 7 1 8 2 9 3 10 4 11 5 12 6 13 7 14 8 6 9 5 10 4 11 3 12 2 13
REMARK SMILES IDX 1 14
REMARK H PARENT
REMARK Flexibility Score: inf
ROOT
ATOM      1  C   UNL     1      78.479  56.678  10.480  1.00  0.00     0.000 C 
ENDROOT
BRANCH   1   2
ATOM      2  C   UNL     1      79.784  57.485  10.389  1.00  0.00     0.000 C 
BRANCH   2   3
ATOM      3  C   UNL     1      79.540  58.986  10.174  1.00  0.00     0.000 C 
BRANCH   3   4
ATOM      4  C   UNL     1      80.762  59.844  10.545  1.00  0.00     0.006 C 
BRANCH   4   5
ATOM      5  C   UNL     1      82.022  58.995  10.762  1.00  0.00     0.053 C 
BRANCH   5   6
ATOM      6  C   UNL     1      83.215  59.841  11.090  1.00  0.00     0.041 C 
ATOM      7  O   UNL     1      83.513  60.077  12.289  1.00  0.00    -0.550 OA
ATOM      8  O   UNL     1      83.980  60.393  10.069  1.00  0.00    -0.550 OA
ENDBRANCH   5   6
ENDBRANCH   4   5
ENDBRANCH   3   4
ENDBRANCH   2   3
ENDBRANCH   1   2
BRANCH   1   9
ATOM      9  C   UNL     1      77.562  56.981   9.285  1.00  0.00     0.000 C 
BRANCH   9  10
ATOM     10  C   UNL     1      77.881  56.114   8.058  1.00  0.00    -0.000 C 
BRANCH  10  11
ATOM     11  C   UNL     1      78.231  54.665   8.431  1.00  0.00    -0.000 C 
BRANCH  11  12
ATOM     12  C   UNL     1      79.628  54.289   7.924  1.00  0.00    -0.000 C 
BRANCH  12  13
ATOM     13  C   UNL     1      80.149  53.030   8.627  1.00  0.00    -0.003 C 
ATOM     14  C   UNL     1      79.360  51.796   8.202  1.00  0.00     0.004 C 
ENDBRANCH  12  13
ENDBRANCH  11  12
ENDBRANCH  10  11
ENDBRANCH   9  10
ENDBRANCH   1   9
TORSDOF 10
ENDMDL
MODEL 6
REMARK VINA RESULT:    -4.745      5.149      7.525
REMARK INTER + INTRA:          -8.027
REMARK INTER:                  -6.755
REMARK INTRA:                  -1.273
REMARK UNBOUND:                -0.509
REMARK SMILES CCCCCCCCCCCC(=O)[O-]
REMARK SMILES IDX 7 1 8 2 9 3 10 4 11 5 12 6 13 7 14 8 6 9 5 10 4 11 3 12 2 13
REMARK SMILES IDX 1 14
REMARK H PARENT
REMARK Flexibility Score: inf
ROOT
ATOM      1  C   UNL     1      77.769  55.810   7.508  1.00  0.00     0.000 C 
ENDROOT
BRANCH   1   2
ATOM      2  C   UNL     1      78.406  54.524   8.057  1.00  0.00     0.000 C 
BRANCH   2   3
ATOM      3  C   UNL     1      79.858  54.336   7.594  1.00  0.00     0.000 C 
BRANCH   3   4
ATOM      4  C   UNL     1      80.228  52.856   7.392  1.00  0.00     0.006 C 
BRANCH   4   5
ATOM      5  C   UNL     1      79.525  51.939   8.402  1.00  0.00     0.053 C 
BRANCH   5   6
ATOM      6  C   UNL     1      80.339  50.719   8.708  1.00  0.00     0.041 C 
ATOM      7  O   UNL     1      81.486  50.834   9.214  1.00  0.00    -0.550 OA
ATOM      8  O   UNL     1      79.843  49.456   8.408  1.00  0.00    -0.550 OA
ENDBRANCH   5   6
ENDBRANCH   4   5
ENDBRANCH   3   4
ENDBRANCH   2   3
ENDBRANCH   1   2
BRANCH   1   9
ATOM      9  C   UNL     1      77.734  56.907   8.582  1.00  0.00     0.000 C 
BRANCH   9  10
ATOM     10  C   UNL     1      78.100  56.380   9.979  1.00  0.00    -0.000 C 
BRANCH  10  11
ATOM     11  C   UNL     1      79.242  57.174  10.631  1.00  0.00    -0.000 C 
BRANCH  11  12
ATOM     12  C   UNL     1      80.554  56.381  10.593  1.00  0.00    -0.000 C 
BRANCH  12  13
ATOM     13  C   UNL     1      80.390  55.013  11.264  1.00  0.00    -0.003 C 
ATOM     14  C   UNL     1      81.555  54.089  10.922  1.00  0.00     0.004 C 
ENDBRANCH  12  13
ENDBRANCH  11  12
ENDBRANCH  10  11
ENDBRANCH   9  10
ENDBRANCH   1   9
TORSDOF 10
ENDMDL
MODEL 7
REMARK VINA RESULT:    -4.723      4.407      6.250
REMARK INTER + INTRA:          -7.993
REMARK INTER:                  -6.684
REMARK INTRA:                  -1.309
REMARK UNBOUND:                -0.509
REMARK SMILES CCCCCCCCCCCC(=O)[O-]
REMARK SMILES IDX 7 1 8 2 9 3 10 4 11 5 12 6 13 7 14 8 6 9 5 10 4 11 3 12 2 13
REMARK SMILES IDX 1 14
REMARK H PARENT
REMARK Flexibility Score: inf
ROOT
ATOM      1  C   UNL     1      78.868  54.144   8.342  1.00  0.00     0.000 C 
ENDROOT
BRANCH   1   2
ATOM      2  C   UNL     1      80.261  54.518   7.810  1.00  0.00     0.000 C 
BRANCH   2   3
ATOM      3  C   UNL     1      81.394  53.796   8.554  1.00  0.00     0.000 C 
BRANCH   3   4
ATOM      4  C   UNL     1      80.875  52.868   9.666  1.00  0.00     0.006 C 
BRANCH   4   5
ATOM      5  C   UNL     1      81.446  53.236  11.042  1.00  0.00     0.053 C 
BRANCH   5   6
ATOM      6  C   UNL     1      82.333  52.158  11.586  1.00  0.00     0.041 C 
ATOM      7  O   UNL     1      83.552  52.388  11.797  1.00  0.00    -0.550 OA
ATOM      8  O   UNL     1      81.818  50.890  11.831  1.00  0.00    -0.550 OA
ENDBRANCH   5   6
ENDBRANCH   4   5
ENDBRANCH   3   4
ENDBRANCH   2   3
ENDBRANCH   1   2
BRANCH   1   9
ATOM      9  C   UNL     1      77.769  54.892   7.573  1.00  0.00     0.000 C 
BRANCH   9  10
ATOM     10  C   UNL     1      77.776  56.404   7.850  1.00  0.00    -0.000 C 
BRANCH  10  11
ATOM     11  C   UNL     1      77.683  56.733   9.347  1.00  0.00    -0.000 C 
BRANCH  11  12
ATOM     12  C   UNL     1      78.859  57.611   9.791  1.00  0.00    -0.000 C 
BRANCH  12  13
ATOM     13  C   UNL     1      79.729  56.886  10.824  1.00  0.00    -0.003 C 
ATOM     14  C   UNL     1      78.909  55.883  11.629  1.00  0.00     0.004 C 
ENDBRANCH  12  13
ENDBRANCH  11  12
ENDBRANCH  10  11
ENDBRANCH   9  10
ENDBRANCH   1   9
TORSDOF 10
ENDMDL
MODEL 8
REMARK VINA RESULT:    -4.709      4.216      7.668
REMARK INTER + INTRA:          -7.971
REMARK INTER:                  -7.529
REMARK INTRA:                  -0.442
REMARK UNBOUND:                -0.509
REMARK SMILES CCCCCCCCCCCC(=O)[O-]
REMARK SMILES IDX 7 1 8 2 9 3 10 4 11 5 12 6 13 7 14 8 6 9 5 10 4 11 3 12 2 13
REMARK SMILES IDX 1 14
REMARK H PARENT
REMARK Flexibility Score: inf
ROOT
ATOM      1  C   UNL     1      81.114  58.691  10.552  1.00  0.00     0.000 C 
ENDROOT
BRANCH   1   2
ATOM      2  C   UNL     1      79.607  58.470  10.344  1.00  0.00     0.000 C 
BRANCH   2   3
ATOM      3  C   UNL     1      79.120  57.129  10.912  1.00  0.00     0.000 C 
BRANCH   3   4
ATOM      4  C   UNL     1      78.702  56.136   9.814  1.00  0.00     0.006 C 
BRANCH   4   5
ATOM      5  C   UNL     1      77.648  56.728   8.868  1.00  0.00     0.053 C 
BRANCH   5   6
ATOM      6  C   UNL     1      77.736  56.138   7.494  1.00  0.00     0.041 C 
ATOM      7  O   UNL     1      77.786  56.888   6.485  1.00  0.00    -0.550 OA
ATOM      8  O   UNL     1      77.733  54.758   7.326  1.00  0.00    -0.550 OA
ENDBRANCH   5   6
ENDBRANCH   4   5
ENDBRANCH   3   4
ENDBRANCH   2   3
ENDBRANCH   1   2
BRANCH   1   9
ATOM      9  C   UNL     1      81.467  60.183  10.460  1.00  0.00     0.000 C 
BRANCH   9  10
ATOM     10  C   UNL     1      82.910  60.479  10.900  1.00  0.00    -0.000 C 
BRANCH  10  11
ATOM     11  C   UNL     1      83.948  60.052   9.851  1.00  0.00    -0.000 C 
BRANCH  11  12
ATOM     12  C   UNL     1      85.349  59.968  10.468  1.00  0.00    -0.000 C 
BRANCH  12  13
ATOM     13  C   UNL     1      85.367  59.013  11.667  1.00  0.00    -0.003 C 
ATOM     14  C   UNL     1      85.876  59.714  12.923  1.00  0.00     0.004 C 
ENDBRANCH  12  13
ENDBRANCH  11  12
ENDBRANCH  10  11
ENDBRANCH   9  10
ENDBRANCH   1   9
TORSDOF 10
ENDMDL
MODEL 9
REMARK VINA RESULT:    -4.667      2.458      4.540
REMARK INTER + INTRA:          -7.904
REMARK INTER:                  -6.680
REMARK INTRA:                  -1.224
REMARK UNBOUND:                -0.509
REMARK SMILES CCCCCCCCCCCC(=O)[O-]
REMARK SMILES IDX 7 1 8 2 9 3 10 4 11 5 12 6 13 7 14 8 6 9 5 10 4 11 3 12 2 13
REMARK SMILES IDX 1 14
REMARK H PARENT
REMARK Flexibility Score: inf
ROOT
ATOM      1  C   UNL     1      78.039  56.608   8.181  1.00  0.00     0.000 C 
ENDROOT
BRANCH   1   2
ATOM      2  C   UNL     1      77.524  56.717   9.625  1.00  0.00     0.000 C 
BRANCH   2   3
ATOM      3  C   UNL     1      78.642  57.024  10.632  1.00  0.00     0.000 C 
BRANCH   3   4
ATOM      4  C   UNL     1      79.550  58.179  10.176  1.00  0.00     0.006 C 
BRANCH   4   5
ATOM      5  C   UNL     1      80.942  58.112  10.820  1.00  0.00     0.053 C 
BRANCH   5   6
ATOM      6  C   UNL     1      81.699  59.394  10.649  1.00  0.00     0.041 C 
ATOM      7  O   UNL     1      81.099  60.438  10.282  1.00  0.00    -0.550 OA
ATOM      8  O   UNL     1      83.071  59.428  10.868  1.00  0.00    -0.550 OA
ENDBRANCH   5   6
ENDBRANCH   4   5
ENDBRANCH   3   4
ENDBRANCH   2   3
ENDBRANCH   1   2
BRANCH   1   9
ATOM      9  C   UNL     1      77.789  55.202   7.615  1.00  0.00     0.000 C 
BRANCH   9  10
ATOM     10  C   UNL     1      78.714  54.141   8.232  1.00  0.00    -0.000 C 
BRANCH  10  11
ATOM     11  C   UNL     1      80.170  54.279   7.762  1.00  0.00    -0.000 C 
BRANCH  11  12
ATOM     12  C   UNL     1      81.086  54.683   8.923  1.00  0.00    -0.000 C 
BRANCH  12  13
ATOM     13  C   UNL     1      80.696  53.952  10.213  1.00  0.00    -0.003 C 
ATOM     14  C   UNL     1      81.421  52.615  10.329  1.00  0.00     0.004 C 
ENDBRANCH  12  13
ENDBRANCH  11  12
ENDBRANCH  10  11
ENDBRANCH   9  10
ENDBRANCH   1   9
TORSDOF 10
ENDMDL
