MODEL 1
REMARK VINA RESULT:     0.000      0.000      0.000
REMARK INTER + INTRA:          -6.928
REMARK INTER:                   0.000
REMARK INTRA:                  -6.928
REMARK UNBOUND:                -6.928
REMARK SMILES CCCCCCCCCCCCCCCCCCCCCCCCCCCC(=O)[O-]
REMARK SMILES IDX 15 1 16 2 17 3 18 4 19 5 20 6 21 7 22 8 23 9 24 10 25 11
REMARK SMILES IDX 26 12 27 13 28 14 29 15 30 16 14 17 13 18 12 19 11 20 10 21
REMARK SMILES IDX 9 22 8 23 7 24 6 25 5 26 4 27 3 28 2 29 1 30
REMARK H PARENT
REMARK Flexibility Score: inf
ROOT
ATOM      1  C   UNL     1     186.183 183.501 184.827  1.00  0.00     0.000 C 
ENDROOT
BRANCH   1   2
ATOM      2  C   UNL     1     186.409 183.418 183.302  1.00  0.00     0.000 C 
BRANCH   2   3
ATOM      3  C   UNL     1     187.402 184.465 182.770  1.00  0.00     0.000 C 
BRANCH   3   4
ATOM      4  C   UNL     1     188.726 183.845 182.291  1.00  0.00     0.000 C 
BRANCH   4   5
ATOM      5  C   UNL     1     189.938 184.447 183.022  1.00  0.00     0.000 C 
BRANCH   5   6
ATOM      6  C   UNL     1     189.518 185.406 184.150  1.00  0.00     0.000 C 
BRANCH   6   7
ATOM      7  C   UNL     1     190.168 185.063 185.504  1.00  0.00     0.000 C 
BRANCH   7   8
ATOM      8  C   UNL     1     189.307 184.194 186.437  1.00  0.00     0.000 C 
BRANCH   8   9
ATOM      9  C   UNL     1     189.941 182.830 186.748  1.00  0.00     0.000 C 
BRANCH   9  10
ATOM     10  C   UNL     1     189.091 181.691 186.164  1.00  0.00     0.000 C 
BRANCH  10  11
ATOM     11  C   UNL     1     189.591 181.208 184.792  1.00  0.00     0.000 C 
BRANCH  11  12
ATOM     12  C   UNL     1     188.542 180.474 183.938  1.00  0.00     0.006 C 
BRANCH  12  13
ATOM     13  C   UNL     1     187.322 180.018 184.749  1.00  0.00     0.053 C 
BRANCH  13  14
ATOM     14  C   UNL     1     186.282 179.421 183.853  1.00  0.00     0.041 C 
ATOM     15  O   UNL     1     185.234 180.065 183.583  1.00  0.00    -0.550 OA
ATOM     16  O   UNL     1     186.464 178.148 183.329  1.00  0.00    -0.550 OA
ENDBRANCH  13  14
ENDBRANCH  12  13
ENDBRANCH  11  12
ENDBRANCH  10  11
ENDBRANCH   9  10
ENDBRANCH   8   9
ENDBRANCH   7   8
ENDBRANCH   6   7
ENDBRANCH   5   6
ENDBRANCH   4   5
ENDBRANCH   3   4
ENDBRANCH   2   3
ENDBRANCH   1   2
BRANCH   1  17
ATOM     17  C   UNL     1     184.736 183.148 185.214  1.00  0.00     0.000 C 
BRANCH  17  18
ATOM     18  C   UNL     1     183.717 183.558 184.129  1.00  0.00     0.000 C 
BRANCH  18  19
ATOM     19  C   UNL     1     183.212 185.005 184.262  1.00  0.00     0.000 C 
BRANCH  19  20
ATOM     20  C   UNL     1     183.544 185.869 183.034  1.00  0.00     0.000 C 
BRANCH  20  21
ATOM     21  C   UNL     1     184.620 186.927 183.323  1.00  0.00     0.000 C 
BRANCH  21  22
ATOM     22  C   UNL     1     184.950 187.052 184.819  1.00  0.00    -0.000 C 
BRANCH  22  23
ATOM     23  C   UNL     1     186.457 187.271 185.032  1.00  0.00    -0.000 C 
BRANCH  23  24
ATOM     24  C   UNL     1     186.904 186.939 186.472  1.00  0.00    -0.000 C 
BRANCH  24  25
ATOM     25  C   UNL     1     185.855 186.155 187.287  1.00  0.00    -0.000 C 
BRANCH  25  26
ATOM     26  C   UNL     1     186.406 185.422 188.521  1.00  0.00    -0.000 C 
BRANCH  26  27
ATOM     27  C   UNL     1     186.158 183.901 188.540  1.00  0.00    -0.000 C 
BRANCH  27  28
ATOM     28  C   UNL     1     187.223 183.106 189.328  1.00  0.00    -0.000 C 
BRANCH  28  29
ATOM     29  C   UNL     1     186.993 181.589 189.256  1.00  0.00    -0.003 C 
ATOM     30  C   UNL     1     186.006 181.234 188.147  1.00  0.00     0.004 C 
ENDBRANCH  28  29
ENDBRANCH  27  28
ENDBRANCH  26  27
ENDBRANCH  25  26
ENDBRANCH  24  25
ENDBRANCH  23  24
ENDBRANCH  22  23
ENDBRANCH  21  22
ENDBRANCH  20  21
ENDBRANCH  19  20
ENDBRANCH  18  19
ENDBRANCH  17  18
ENDBRANCH   1  17
TORSDOF 26
ENDMDL
MODEL 2
REMARK VINA RESULT:     0.020      8.925     12.745
REMARK INTER + INTRA:          -6.877
REMARK INTER:                   0.000
REMARK INTRA:                  -6.877
REMARK UNBOUND:                -6.928
REMARK SMILES CCCCCCCCCCCCCCCCCCCCCCCCCCCC(=O)[O-]
REMARK SMILES IDX 15 1 16 2 17 3 18 4 19 5 20 6 21 7 22 8 23 9 24 10 25 11
REMARK SMILES IDX 26 12 27 13 28 14 29 15 30 16 14 17 13 18 12 19 11 20 10 21
REMARK SMILES IDX 9 22 8 23 7 24 6 25 5 26 4 27 3 28 2 29 1 30
REMARK H PARENT
REMARK Flexibility Score: inf
ROOT
ATOM      1  C   UNL     1     185.489 173.047 177.478  1.00  0.00     0.000 C 
ENDROOT
BRANCH   1   2
ATOM      2  C   UNL     1     186.437 172.834 176.278  1.00  0.00     0.000 C 
BRANCH   2   3
ATOM      3  C   UNL     1     187.270 174.078 175.925  1.00  0.00     0.000 C 
BRANCH   3   4
ATOM      4  C   UNL     1     188.692 173.732 175.449  1.00  0.00     0.000 C 
BRANCH   4   5
ATOM      5  C   UNL     1     189.280 172.540 176.223  1.00  0.00     0.000 C 
BRANCH   5   6
ATOM      6  C   UNL     1     190.333 172.981 177.255  1.00  0.00     0.000 C 
BRANCH   6   7
ATOM      7  C   UNL     1     189.733 173.263 178.645  1.00  0.00     0.000 C 
BRANCH   7   8
ATOM      8  C   UNL     1     189.702 174.747 179.050  1.00  0.00     0.000 C 
BRANCH   8   9
ATOM      9  C   UNL     1     190.578 175.637 178.155  1.00  0.00     0.000 C 
BRANCH   9  10
ATOM     10  C   UNL     1     189.725 176.700 177.446  1.00  0.00     0.000 C 
BRANCH  10  11
ATOM     11  C   UNL     1     188.331 176.872 178.075  1.00  0.00     0.000 C 
BRANCH  11  12
ATOM     12  C   UNL     1     188.141 178.161 178.893  1.00  0.00     0.006 C 
BRANCH  12  13
ATOM     13  C   UNL     1     187.523 179.304 178.077  1.00  0.00     0.053 C 
BRANCH  13  14
ATOM     14  C   UNL     1     186.133 179.600 178.548  1.00  0.00     0.041 C 
ATOM     15  O   UNL     1     185.671 179.017 179.564  1.00  0.00    -0.550 OA
ATOM     16  O   UNL     1     185.343 180.506 177.854  1.00  0.00    -0.550 OA
ENDBRANCH  13  14
ENDBRANCH  12  13
ENDBRANCH  11  12
ENDBRANCH  10  11
ENDBRANCH   9  10
ENDBRANCH   8   9
ENDBRANCH   7   8
ENDBRANCH   6   7
ENDBRANCH   5   6
ENDBRANCH   4   5
ENDBRANCH   3   4
ENDBRANCH   2   3
ENDBRANCH   1   2
BRANCH   1  17
ATOM     17  C   UNL     1     186.077 174.025 178.509  1.00  0.00     0.000 C 
BRANCH  17  18
ATOM     18  C   UNL     1     185.111 175.181 178.846  1.00  0.00     0.000 C 
BRANCH  18  19
ATOM     19  C   UNL     1     184.048 175.441 177.766  1.00  0.00     0.000 C 
BRANCH  19  20
ATOM     20  C   UNL     1     184.140 176.852 177.163  1.00  0.00     0.000 C 
BRANCH  20  21
ATOM     21  C   UNL     1     185.186 176.956 176.043  1.00  0.00     0.000 C 
BRANCH  21  22
ATOM     22  C   UNL     1     185.002 178.204 175.166  1.00  0.00    -0.000 C 
BRANCH  22  23
ATOM     23  C   UNL     1     186.349 178.680 174.598  1.00  0.00    -0.000 C 
BRANCH  23  24
ATOM     24  C   UNL     1     187.411 177.559 174.580  1.00  0.00    -0.000 C 
BRANCH  24  25
ATOM     25  C   UNL     1     187.897 177.182 173.166  1.00  0.00    -0.000 C 
BRANCH  25  26
ATOM     26  C   UNL     1     187.370 175.839 172.635  1.00  0.00    -0.000 C 
BRANCH  26  27
ATOM     27  C   UNL     1     185.852 175.793 172.373  1.00  0.00    -0.000 C 
BRANCH  27  28
ATOM     28  C   UNL     1     185.153 174.555 172.976  1.00  0.00    -0.000 C 
BRANCH  28  29
ATOM     29  C   UNL     1     183.716 174.857 173.427  1.00  0.00    -0.003 C 
ATOM     30  C   UNL     1     183.274 173.903 174.534  1.00  0.00     0.004 C 
ENDBRANCH  28  29
ENDBRANCH  27  28
ENDBRANCH  26  27
ENDBRANCH  25  26
ENDBRANCH  24  25
ENDBRANCH  23  24
ENDBRANCH  22  23
ENDBRANCH  21  22
ENDBRANCH  20  21
ENDBRANCH  19  20
ENDBRANCH  18  19
ENDBRANCH  17  18
ENDBRANCH   1  17
TORSDOF 26
ENDMDL
MODEL 3
REMARK VINA RESULT:     0.026      7.415     10.666
REMARK INTER + INTRA:          -6.863
REMARK INTER:                   0.000
REMARK INTRA:                  -6.863
REMARK UNBOUND:                -6.928
REMARK SMILES CCCCCCCCCCCCCCCCCCCCCCCCCCCC(=O)[O-]
REMARK SMILES IDX 15 1 16 2 17 3 18 4 19 5 20 6 21 7 22 8 23 9 24 10 25 11
REMARK SMILES IDX 26 12 27 13 28 14 29 15 30 16 14 17 13 18 12 19 11 20 10 21
REMARK SMILES IDX 9 22 8 23 7 24 6 25 5 26 4 27 3 28 2 29 1 30
REMARK H PARENT
REMARK Flexibility Score: inf
ROOT
ATOM      1  C   UNL     1     180.498 179.532 179.130  1.00  0.00     0.000 C 
ENDROOT
BRANCH   1   2
ATOM      2  C   UNL     1     181.156 178.946 180.398  1.00  0.00     0.000 C 
BRANCH   2   3
ATOM      3  C   UNL     1     181.402 179.989 181.501  1.00  0.00     0.000 C 
BRANCH   3   4
ATOM      4  C   UNL     1     180.235 180.979 181.662  1.00  0.00     0.000 C 
BRANCH   4   5
ATOM      5  C   UNL     1     180.695 182.437 181.496  1.00  0.00     0.000 C 
BRANCH   5   6
ATOM      6  C   UNL     1     182.183 182.538 181.118  1.00  0.00     0.000 C 
BRANCH   6   7
ATOM      7  C   UNL     1     182.418 183.282 179.790  1.00  0.00     0.000 C 
BRANCH   7   8
ATOM      8  C   UNL     1     181.328 183.070 178.724  1.00  0.00     0.000 C 
BRANCH   8   9
ATOM      9  C   UNL     1     180.604 184.366 178.333  1.00  0.00     0.000 C 
BRANCH   9  10
ATOM     10  C   UNL     1     179.082 184.151 178.305  1.00  0.00     0.000 C 
BRANCH  10  11
ATOM     11  C   UNL     1     178.685 182.665 178.279  1.00  0.00     0.000 C 
BRANCH  11  12
ATOM     12  C   UNL     1     177.624 182.257 179.318  1.00  0.00     0.006 C 
BRANCH  12  13
ATOM     13  C   UNL     1     177.052 180.856 179.072  1.00  0.00     0.053 C 
BRANCH  13  14
ATOM     14  C   UNL     1     176.840 180.135 180.366  1.00  0.00     0.041 C 
ATOM     15  O   UNL     1     176.414 180.757 181.375  1.00  0.00    -0.550 OA
ATOM     16  O   UNL     1     177.127 178.780 180.462  1.00  0.00    -0.550 OA
ENDBRANCH  13  14
ENDBRANCH  12  13
ENDBRANCH  11  12
ENDBRANCH  10  11
ENDBRANCH   9  10
ENDBRANCH   8   9
ENDBRANCH   7   8
ENDBRANCH   6   7
ENDBRANCH   5   6
ENDBRANCH   4   5
ENDBRANCH   3   4
ENDBRANCH   2   3
ENDBRANCH   1   2
BRANCH   1  17
ATOM     17  C   UNL     1     179.842 178.440 178.266  1.00  0.00     0.000 C 
BRANCH  17  18
ATOM     18  C   UNL     1     179.504 178.935 176.844  1.00  0.00     0.000 C 
BRANCH  18  19
ATOM     19  C   UNL     1     180.376 180.109 176.367  1.00  0.00     0.000 C 
BRANCH  19  20
ATOM     20  C   UNL     1     180.861 179.944 174.918  1.00  0.00     0.000 C 
BRANCH  20  21
ATOM     21  C   UNL     1     181.160 181.286 174.232  1.00  0.00     0.000 C 
BRANCH  21  22
ATOM     22  C   UNL     1     180.671 182.496 175.045  1.00  0.00    -0.000 C 
BRANCH  22  23
ATOM     23  C   UNL     1     181.663 183.665 174.939  1.00  0.00    -0.000 C 
BRANCH  23  24
ATOM     24  C   UNL     1     183.132 183.192 174.901  1.00  0.00    -0.000 C 
BRANCH  24  25
ATOM     25  C   UNL     1     183.948 183.586 176.149  1.00  0.00    -0.000 C 
BRANCH  25  26
ATOM     26  C   UNL     1     184.636 182.416 176.872  1.00  0.00    -0.000 C 
BRANCH  26  27
ATOM     27  C   UNL     1     183.893 181.068 176.780  1.00  0.00    -0.000 C 
BRANCH  27  28
ATOM     28  C   UNL     1     183.907 180.259 178.096  1.00  0.00    -0.000 C 
BRANCH  28  29
ATOM     29  C   UNL     1     185.019 180.717 179.052  1.00  0.00    -0.003 C 
ATOM     30  C   UNL     1     184.891 180.036 180.412  1.00  0.00     0.004 C 
ENDBRANCH  28  29
ENDBRANCH  27  28
ENDBRANCH  26  27
ENDBRANCH  25  26
ENDBRANCH  24  25
ENDBRANCH  23  24
ENDBRANCH  22  23
ENDBRANCH  21  22
ENDBRANCH  20  21
ENDBRANCH  19  20
ENDBRANCH  18  19
ENDBRANCH  17  18
ENDBRANCH   1  17
TORSDOF 26
ENDMDL
MODEL 4
REMARK VINA RESULT:     0.035     10.473     13.590
REMARK INTER + INTRA:          -6.841
REMARK INTER:                   0.000
REMARK INTRA:                  -6.841
REMARK UNBOUND:                -6.928
REMARK SMILES CCCCCCCCCCCCCCCCCCCCCCCCCCCC(=O)[O-]
REMARK SMILES IDX 15 1 16 2 17 3 18 4 19 5 20 6 21 7 22 8 23 9 24 10 25 11
REMARK SMILES IDX 26 12 27 13 28 14 29 15 30 16 14 17 13 18 12 19 11 20 10 21
REMARK SMILES IDX 9 22 8 23 7 24 6 25 5 26 4 27 3 28 2 29 1 30
REMARK H PARENT
REMARK Flexibility Score: inf
ROOT
ATOM      1  C   UNL     1     178.828 178.446 173.441  1.00  0.00     0.000 C 
ENDROOT
BRANCH   1   2
ATOM      2  C   UNL     1     177.620 178.334 174.395  1.00  0.00     0.000 C 
BRANCH   2   3
ATOM      3  C   UNL     1     178.010 178.330 175.883  1.00  0.00     0.000 C 
BRANCH   3   4
ATOM      4  C   UNL     1     177.131 177.394 176.730  1.00  0.00     0.000 C 
BRANCH   4   5
ATOM      5  C   UNL     1     176.069 176.679 175.878  1.00  0.00     0.000 C 
BRANCH   5   6
ATOM      6  C   UNL     1     176.333 175.168 175.767  1.00  0.00     0.000 C 
BRANCH   6   7
ATOM      7  C   UNL     1     177.515 174.698 176.636  1.00  0.00     0.000 C 
BRANCH   7   8
ATOM      8  C   UNL     1     178.670 174.039 175.860  1.00  0.00     0.000 C 
BRANCH   8   9
ATOM      9  C   UNL     1     179.419 175.018 174.944  1.00  0.00     0.000 C 
BRANCH   9  10
ATOM     10  C   UNL     1     180.873 175.193 175.410  1.00  0.00     0.000 C 
BRANCH  10  11
ATOM     11  C   UNL     1     181.114 176.524 176.144  1.00  0.00     0.000 C 
BRANCH  11  12
ATOM     12  C   UNL     1     181.454 176.390 177.639  1.00  0.00     0.006 C 
BRANCH  12  13
ATOM     13  C   UNL     1     180.223 176.507 178.546  1.00  0.00     0.053 C 
BRANCH  13  14
ATOM     14  C   UNL     1     180.001 175.237 179.307  1.00  0.00     0.041 C 
ATOM     15  O   UNL     1     180.529 174.163 178.914  1.00  0.00    -0.550 OA
ATOM     16  O   UNL     1     179.199 175.237 180.440  1.00  0.00    -0.550 OA
ENDBRANCH  13  14
ENDBRANCH  12  13
ENDBRANCH  11  12
ENDBRANCH  10  11
ENDBRANCH   9  10
ENDBRANCH   8   9
ENDBRANCH   7   8
ENDBRANCH   6   7
ENDBRANCH   5   6
ENDBRANCH   4   5
ENDBRANCH   3   4
ENDBRANCH   2   3
ENDBRANCH   1   2
BRANCH   1  17
ATOM     17  C   UNL     1     179.975 179.265 174.059  1.00  0.00     0.000 C 
BRANCH  17  18
ATOM     18  C   UNL     1     180.021 180.714 173.528  1.00  0.00     0.000 C 
BRANCH  18  19
ATOM     19  C   UNL     1     179.577 181.769 174.556  1.00  0.00     0.000 C 
BRANCH  19  20
ATOM     20  C   UNL     1     178.073 182.076 174.484  1.00  0.00     0.000 C 
BRANCH  20  21
ATOM     21  C   UNL     1     177.368 181.929 175.842  1.00  0.00     0.000 C 
BRANCH  21  22
ATOM     22  C   UNL     1     175.926 181.414 175.714  1.00  0.00    -0.000 C 
BRANCH  22  23
ATOM     23  C   UNL     1     175.455 180.768 177.028  1.00  0.00    -0.000 C 
BRANCH  23  24
ATOM     24  C   UNL     1     176.255 181.268 178.251  1.00  0.00    -0.000 C 
BRANCH  24  25
ATOM     25  C   UNL     1     176.817 180.136 179.134  1.00  0.00    -0.000 C 
BRANCH  25  26
ATOM     26  C   UNL     1     178.352 180.068 179.204  1.00  0.00    -0.000 C 
BRANCH  26  27
ATOM     27  C   UNL     1     179.067 181.433 179.171  1.00  0.00    -0.000 C 
BRANCH  27  28
ATOM     28  C   UNL     1     180.264 181.485 178.197  1.00  0.00    -0.000 C 
BRANCH  28  29
ATOM     29  C   UNL     1     180.655 180.094 177.675  1.00  0.00    -0.003 C 
ATOM     30  C   UNL     1     182.038 180.116 177.032  1.00  0.00     0.004 C 
ENDBRANCH  28  29
ENDBRANCH  27  28
ENDBRANCH  26  27
ENDBRANCH  25  26
ENDBRANCH  24  25
ENDBRANCH  23  24
ENDBRANCH  22  23
ENDBRANCH  21  22
ENDBRANCH  20  21
ENDBRANCH  19  20
ENDBRANCH  18  19
ENDBRANCH  17  18
ENDBRANCH   1  17
TORSDOF 26
ENDMDL
MODEL 5
REMARK VINA RESULT:     0.035      7.841     10.612
REMARK INTER + INTRA:          -6.841
REMARK INTER:                   0.000
REMARK INTRA:                  -6.841
REMARK UNBOUND:                -6.928
REMARK SMILES CCCCCCCCCCCCCCCCCCCCCCCCCCCC(=O)[O-]
REMARK SMILES IDX 15 1 16 2 17 3 18 4 19 5 20 6 21 7 22 8 23 9 24 10 25 11
REMARK SMILES IDX 26 12 27 13 28 14 29 15 30 16 14 17 13 18 12 19 11 20 10 21
REMARK SMILES IDX 9 22 8 23 7 24 6 25 5 26 4 27 3 28 2 29 1 30
REMARK H PARENT
REMARK Flexibility Score: inf
ROOT
ATOM      1  C   UNL     1     178.714 179.173 182.566  1.00  0.00     0.000 C 
ENDROOT
BRANCH   1   2
ATOM      2  C   UNL     1     179.607 177.969 182.934  1.00  0.00     0.000 C 
BRANCH   2   3
ATOM      3  C   UNL     1     180.901 178.365 183.667  1.00  0.00     0.000 C 
BRANCH   3   4
ATOM      4  C   UNL     1     181.370 177.299 184.672  1.00  0.00     0.000 C 
BRANCH   4   5
ATOM      5  C   UNL     1     180.461 176.059 184.657  1.00  0.00     0.000 C 
BRANCH   5   6
ATOM      6  C   UNL     1     181.246 174.760 184.907  1.00  0.00     0.000 C 
BRANCH   6   7
ATOM      7  C   UNL     1     180.456 173.728 185.733  1.00  0.00     0.000 C 
BRANCH   7   8
ATOM      8  C   UNL     1     179.430 174.327 186.711  1.00  0.00     0.000 C 
BRANCH   8   9
ATOM      9  C   UNL     1     178.022 173.734 186.549  1.00  0.00     0.000 C 
BRANCH   9  10
ATOM     10  C   UNL     1     177.869 173.070 185.172  1.00  0.00     0.000 C 
BRANCH  10  11
ATOM     11  C   UNL     1     177.145 173.962 184.149  1.00  0.00     0.000 C 
BRANCH  11  12
ATOM     12  C   UNL     1     177.412 173.610 182.675  1.00  0.00     0.006 C 
BRANCH  12  13
ATOM     13  C   UNL     1     178.482 174.500 182.031  1.00  0.00     0.053 C 
BRANCH  13  14
ATOM     14  C   UNL     1     179.718 173.711 181.732  1.00  0.00     0.041 C 
ATOM     15  O   UNL     1     180.589 174.171 180.946  1.00  0.00    -0.550 OA
ATOM     16  O   UNL     1     179.902 172.462 182.309  1.00  0.00    -0.550 OA
ENDBRANCH  13  14
ENDBRANCH  12  13
ENDBRANCH  11  12
ENDBRANCH  10  11
ENDBRANCH   9  10
ENDBRANCH   8   9
ENDBRANCH   7   8
ENDBRANCH   6   7
ENDBRANCH   5   6
ENDBRANCH   4   5
ENDBRANCH   3   4
ENDBRANCH   2   3
ENDBRANCH   1   2
BRANCH   1  17
ATOM     17  C   UNL     1     177.221 178.801 182.562  1.00  0.00     0.000 C 
BRANCH  17  18
ATOM     18  C   UNL     1     176.920 177.551 183.417  1.00  0.00     0.000 C 
BRANCH  18  19
ATOM     19  C   UNL     1     176.383 177.871 184.822  1.00  0.00     0.000 C 
BRANCH  19  20
ATOM     20  C   UNL     1     177.252 177.280 185.944  1.00  0.00     0.000 C 
BRANCH  20  21
ATOM     21  C   UNL     1     178.224 178.304 186.549  1.00  0.00     0.000 C 
BRANCH  21  22
ATOM     22  C   UNL     1     177.822 179.758 186.252  1.00  0.00    -0.000 C 
BRANCH  22  23
ATOM     23  C   UNL     1     179.061 180.625 185.977  1.00  0.00    -0.000 C 
BRANCH  23  24
ATOM     24  C   UNL     1     180.035 180.660 187.174  1.00  0.00    -0.000 C 
BRANCH  24  25
ATOM     25  C   UNL     1     181.502 180.373 186.794  1.00  0.00    -0.000 C 
BRANCH  25  26
ATOM     26  C   UNL     1     182.204 179.317 187.664  1.00  0.00    -0.000 C 
BRANCH  26  27
ATOM     27  C   UNL     1     181.285 178.573 188.653  1.00  0.00    -0.000 C 
BRANCH  27  28
ATOM     28  C   UNL     1     181.220 177.049 188.416  1.00  0.00    -0.000 C 
BRANCH  28  29
ATOM     29  C   UNL     1     182.581 176.460 188.015  1.00  0.00    -0.003 C 
ATOM     30  C   UNL     1     182.712 175.011 188.475  1.00  0.00     0.004 C 
ENDBRANCH  28  29
ENDBRANCH  27  28
ENDBRANCH  26  27
ENDBRANCH  25  26
ENDBRANCH  24  25
ENDBRANCH  23  24
ENDBRANCH  22  23
ENDBRANCH  21  22
ENDBRANCH  20  21
ENDBRANCH  19  20
ENDBRANCH  18  19
ENDBRANCH  17  18
ENDBRANCH   1  17
TORSDOF 26
ENDMDL
MODEL 6
REMARK VINA RESULT:     0.035      8.995     13.305
REMARK INTER + INTRA:          -6.839
REMARK INTER:                   0.000
REMARK INTRA:                  -6.839
REMARK UNBOUND:                -6.928
REMARK SMILES CCCCCCCCCCCCCCCCCCCCCCCCCCCC(=O)[O-]
REMARK SMILES IDX 15 1 16 2 17 3 18 4 19 5 20 6 21 7 22 8 23 9 24 10 25 11
REMARK SMILES IDX 26 12 27 13 28 14 29 15 30 16 14 17 13 18 12 19 11 20 10 21
REMARK SMILES IDX 9 22 8 23 7 24 6 25 5 26 4 27 3 28 2 29 1 30
REMARK H PARENT
REMARK Flexibility Score: inf
ROOT
ATOM      1  C   UNL     1     172.823 184.138 180.239  1.00  0.00     0.000 C 
ENDROOT
BRANCH   1   2
ATOM      2  C   UNL     1     172.014 184.772 179.088  1.00  0.00     0.000 C 
BRANCH   2   3
ATOM      3  C   UNL     1     172.752 184.765 177.740  1.00  0.00     0.000 C 
BRANCH   3   4
ATOM      4  C   UNL     1     172.942 186.174 177.152  1.00  0.00     0.000 C 
BRANCH   4   5
ATOM      5  C   UNL     1     174.354 186.720 177.417  1.00  0.00     0.000 C 
BRANCH   5   6
ATOM      6  C   UNL     1     174.367 187.781 178.532  1.00  0.00     0.000 C 
BRANCH   6   7
ATOM      7  C   UNL     1     175.741 187.921 179.214  1.00  0.00     0.000 C 
BRANCH   7   8
ATOM      8  C   UNL     1     176.938 187.454 178.367  1.00  0.00     0.000 C 
BRANCH   8   9
ATOM      9  C   UNL     1     178.105 186.920 179.211  1.00  0.00     0.000 C 
BRANCH   9  10
ATOM     10  C   UNL     1     177.958 187.356 180.677  1.00  0.00     0.000 C 
BRANCH  10  11
ATOM     11  C   UNL     1     178.533 186.333 181.671  1.00  0.00     0.000 C 
BRANCH  11  12
ATOM     12  C   UNL     1     179.143 185.075 181.028  1.00  0.00     0.006 C 
BRANCH  12  13
ATOM     13  C   UNL     1     180.634 184.903 181.343  1.00  0.00     0.053 C 
BRANCH  13  14
ATOM     14  C   UNL     1     181.455 185.895 180.580  1.00  0.00     0.041 C 
ATOM     15  O   UNL     1     182.065 186.814 181.187  1.00  0.00    -0.550 OA
ATOM     16  O   UNL     1     181.533 185.814 179.196  1.00  0.00    -0.550 OA
ENDBRANCH  13  14
ENDBRANCH  12  13
ENDBRANCH  11  12
ENDBRANCH  10  11
ENDBRANCH   9  10
ENDBRANCH   8   9
ENDBRANCH   7   8
ENDBRANCH   6   7
ENDBRANCH   5   6
ENDBRANCH   4   5
ENDBRANCH   3   4
ENDBRANCH   2   3
ENDBRANCH   1   2
BRANCH   1  17
ATOM     17  C   UNL     1     173.665 185.182 180.994  1.00  0.00     0.000 C 
BRANCH  17  18
ATOM     18  C   UNL     1     175.152 184.781 181.097  1.00  0.00     0.000 C 
BRANCH  18  19
ATOM     19  C   UNL     1     175.726 184.176 179.804  1.00  0.00     0.000 C 
BRANCH  19  20
ATOM     20  C   UNL     1     176.425 182.827 180.035  1.00  0.00     0.000 C 
BRANCH  20  21
ATOM     21  C   UNL     1     175.558 181.627 179.624  1.00  0.00     0.000 C 
BRANCH  21  22
ATOM     22  C   UNL     1     174.968 181.771 178.212  1.00  0.00    -0.000 C 
BRANCH  22  23
ATOM     23  C   UNL     1     175.815 181.005 177.183  1.00  0.00    -0.000 C 
BRANCH  23  24
ATOM     24  C   UNL     1     176.261 181.896 176.004  1.00  0.00    -0.000 C 
BRANCH  24  25
ATOM     25  C   UNL     1     175.817 183.368 176.131  1.00  0.00    -0.000 C 
BRANCH  25  26
ATOM     26  C   UNL     1     176.961 184.379 176.312  1.00  0.00    -0.000 C 
BRANCH  26  27
ATOM     27  C   UNL     1     178.378 183.772 176.278  1.00  0.00    -0.000 C 
BRANCH  27  28
ATOM     28  C   UNL     1     179.075 183.739 177.655  1.00  0.00    -0.000 C 
BRANCH  28  29
ATOM     29  C   UNL     1     180.041 182.554 177.795  1.00  0.00    -0.003 C 
ATOM     30  C   UNL     1     179.336 181.335 178.384  1.00  0.00     0.004 C 
ENDBRANCH  28  29
ENDBRANCH  27  28
ENDBRANCH  26  27
ENDBRANCH  25  26
ENDBRANCH  24  25
ENDBRANCH  23  24
ENDBRANCH  22  23
ENDBRANCH  21  22
ENDBRANCH  20  21
ENDBRANCH  19  20
ENDBRANCH  18  19
ENDBRANCH  17  18
ENDBRANCH   1  17
TORSDOF 26
ENDMDL
MODEL 7
REMARK VINA RESULT:     0.037      3.498      6.633
REMARK INTER + INTRA:          -6.836
REMARK INTER:                   0.000
REMARK INTRA:                  -6.836
REMARK UNBOUND:                -6.928
REMARK SMILES CCCCCCCCCCCCCCCCCCCCCCCCCCCC(=O)[O-]
REMARK SMILES IDX 15 1 16 2 17 3 18 4 19 5 20 6 21 7 22 8 23 9 24 10 25 11
REMARK SMILES IDX 26 12 27 13 28 14 29 15 30 16 14 17 13 18 12 19 11 20 10 21
REMARK SMILES IDX 9 22 8 23 7 24 6 25 5 26 4 27 3 28 2 29 1 30
REMARK H PARENT
REMARK Flexibility Score: inf
ROOT
ATOM      1  C   UNL     1     179.952 184.697 186.963  1.00  0.00     0.000 C 
ENDROOT
BRANCH   1   2
ATOM      2  C   UNL     1     179.824 183.471 186.035  1.00  0.00     0.000 C 
BRANCH   2   3
ATOM      3  C   UNL     1     180.599 183.615 184.714  1.00  0.00     0.000 C 
BRANCH   3   4
ATOM      4  C   UNL     1     181.901 182.796 184.691  1.00  0.00     0.000 C 
BRANCH   4   5
ATOM      5  C   UNL     1     182.928 183.381 183.708  1.00  0.00     0.000 C 
BRANCH   5   6
ATOM      6  C   UNL     1     182.583 184.823 183.297  1.00  0.00     0.000 C 
BRANCH   6   7
ATOM      7  C   UNL     1     183.677 185.481 182.435  1.00  0.00     0.000 C 
BRANCH   7   8
ATOM      8  C   UNL     1     184.250 186.792 183.001  1.00  0.00     0.000 C 
BRANCH   8   9
ATOM      9  C   UNL     1     183.182 187.692 183.641  1.00  0.00     0.000 C 
BRANCH   9  10
ATOM     10  C   UNL     1     183.814 188.620 184.691  1.00  0.00     0.000 C 
BRANCH  10  11
ATOM     11  C   UNL     1     185.322 188.382 184.877  1.00  0.00     0.000 C 
BRANCH  11  12
ATOM     12  C   UNL     1     185.916 188.956 186.175  1.00  0.00     0.006 C 
BRANCH  12  13
ATOM     13  C   UNL     1     187.423 188.701 186.310  1.00  0.00     0.053 C 
BRANCH  13  14
ATOM     14  C   UNL     1     187.760 188.234 187.691  1.00  0.00     0.041 C 
ATOM     15  O   UNL     1     188.785 187.528 187.889  1.00  0.00    -0.550 OA
ATOM     16  O   UNL     1     186.935 188.566 188.758  1.00  0.00    -0.550 OA
ENDBRANCH  13  14
ENDBRANCH  12  13
ENDBRANCH  11  12
ENDBRANCH  10  11
ENDBRANCH   9  10
ENDBRANCH   8   9
ENDBRANCH   7   8
ENDBRANCH   6   7
ENDBRANCH   5   6
ENDBRANCH   4   5
ENDBRANCH   3   4
ENDBRANCH   2   3
ENDBRANCH   1   2
BRANCH   1  17
ATOM     17  C   UNL     1     180.408 185.952 186.199  1.00  0.00     0.000 C 
BRANCH  17  18
ATOM     18  C   UNL     1     181.664 186.600 186.820  1.00  0.00     0.000 C 
BRANCH  18  19
ATOM     19  C   UNL     1     182.628 185.593 187.472  1.00  0.00     0.000 C 
BRANCH  19  20
ATOM     20  C   UNL     1     183.904 185.366 186.646  1.00  0.00     0.000 C 
BRANCH  20  21
ATOM     21  C   UNL     1     185.188 185.554 187.468  1.00  0.00     0.000 C 
BRANCH  21  22
ATOM     22  C   UNL     1     186.414 184.886 186.824  1.00  0.00    -0.000 C 
BRANCH  22  23
ATOM     23  C   UNL     1     186.283 184.858 185.293  1.00  0.00    -0.000 C 
BRANCH  23  24
ATOM     24  C   UNL     1     186.474 183.441 184.709  1.00  0.00    -0.000 C 
BRANCH  24  25
ATOM     25  C   UNL     1     186.449 182.321 185.769  1.00  0.00    -0.000 C 
BRANCH  25  26
ATOM     26  C   UNL     1     185.343 181.270 185.577  1.00  0.00    -0.000 C 
BRANCH  26  27
ATOM     27  C   UNL     1     184.417 181.070 186.793  1.00  0.00    -0.000 C 
BRANCH  27  28
ATOM     28  C   UNL     1     184.919 181.764 188.078  1.00  0.00    -0.000 C 
BRANCH  28  29
ATOM     29  C   UNL     1     183.773 182.367 188.904  1.00  0.00    -0.003 C 
ATOM     30  C   UNL     1     182.415 181.991 188.317  1.00  0.00     0.004 C 
ENDBRANCH  28  29
ENDBRANCH  27  28
ENDBRANCH  26  27
ENDBRANCH  25  26
ENDBRANCH  24  25
ENDBRANCH  23  24
ENDBRANCH  22  23
ENDBRANCH  21  22
ENDBRANCH  20  21
ENDBRANCH  19  20
ENDBRANCH  18  19
ENDBRANCH  17  18
ENDBRANCH   1  17
TORSDOF 26
ENDMDL
MODEL 8
REMARK VINA RESULT:     0.040      9.499     12.515
REMARK INTER + INTRA:          -6.827
REMARK INTER:                   0.000
REMARK INTRA:                  -6.827
REMARK UNBOUND:                -6.928
REMARK SMILES CCCCCCCCCCCCCCCCCCCCCCCCCCCC(=O)[O-]
REMARK SMILES IDX 15 1 16 2 17 3 18 4 19 5 20 6 21 7 22 8 23 9 24 10 25 11
REMARK SMILES IDX 26 12 27 13 28 14 29 15 30 16 14 17 13 18 12 19 11 20 10 21
REMARK SMILES IDX 9 22 8 23 7 24 6 25 5 26 4 27 3 28 2 29 1 30
REMARK H PARENT
REMARK Flexibility Score: inf
ROOT
ATOM      1  C   UNL     1     178.878 178.230 174.876  1.00  0.00     0.000 C 
ENDROOT
BRANCH   1   2
ATOM      2  C   UNL     1     177.710 178.366 175.876  1.00  0.00     0.000 C 
BRANCH   2   3
ATOM      3  C   UNL     1     178.113 179.021 177.208  1.00  0.00     0.000 C 
BRANCH   3   4
ATOM      4  C   UNL     1     177.330 178.466 178.410  1.00  0.00     0.000 C 
BRANCH   4   5
ATOM      5  C   UNL     1     176.341 177.366 177.991  1.00  0.00     0.000 C 
BRANCH   5   6
ATOM      6  C   UNL     1     176.734 175.988 178.549  1.00  0.00     0.000 C 
BRANCH   6   7
ATOM      7  C   UNL     1     177.990 176.034 179.440  1.00  0.00     0.000 C 
BRANCH   7   8
ATOM      8  C   UNL     1     179.178 175.199 178.932  1.00  0.00     0.000 C 
BRANCH   8   9
ATOM      9  C   UNL     1     179.827 175.778 177.665  1.00  0.00     0.000 C 
BRANCH   9  10
ATOM     10  C   UNL     1     181.259 176.251 177.958  1.00  0.00     0.000 C 
BRANCH  10  11
ATOM     11  C   UNL     1     181.378 177.781 178.069  1.00  0.00     0.000 C 
BRANCH  11  12
ATOM     12  C   UNL     1     181.732 178.305 179.472  1.00  0.00     0.006 C 
BRANCH  12  13
ATOM     13  C   UNL     1     180.499 178.695 180.296  1.00  0.00     0.053 C 
BRANCH  13  14
ATOM     14  C   UNL     1     180.398 177.856 181.531  1.00  0.00     0.041 C 
ATOM     15  O   UNL     1     181.010 176.757 181.602  1.00  0.00    -0.550 OA
ATOM     16  O   UNL     1     179.615 178.279 182.597  1.00  0.00    -0.550 OA
ENDBRANCH  13  14
ENDBRANCH  12  13
ENDBRANCH  11  12
ENDBRANCH  10  11
ENDBRANCH   9  10
ENDBRANCH   8   9
ENDBRANCH   7   8
ENDBRANCH   6   7
ENDBRANCH   5   6
ENDBRANCH   4   5
ENDBRANCH   3   4
ENDBRANCH   2   3
ENDBRANCH   1   2
BRANCH   1  17
ATOM     17  C   UNL     1     179.951 179.311 175.094  1.00  0.00     0.000 C 
BRANCH  17  18
ATOM     18  C   UNL     1     179.929 180.396 173.997  1.00  0.00     0.000 C 
BRANCH  18  19
ATOM     19  C   UNL     1     179.415 181.763 174.481  1.00  0.00     0.000 C 
BRANCH  19  20
ATOM     20  C   UNL     1     177.890 181.909 174.349  1.00  0.00     0.000 C 
BRANCH  20  21
ATOM     21  C   UNL     1     177.203 182.221 175.687  1.00  0.00     0.000 C 
BRANCH  21  22
ATOM     22  C   UNL     1     175.815 181.572 175.813  1.00  0.00    -0.000 C 
BRANCH  22  23
ATOM     23  C   UNL     1     175.376 181.495 177.284  1.00  0.00    -0.000 C 
BRANCH  23  24
ATOM     24  C   UNL     1     176.094 182.537 178.170  1.00  0.00    -0.000 C 
BRANCH  24  25
ATOM     25  C   UNL     1     176.751 181.939 179.429  1.00  0.00    -0.000 C 
BRANCH  25  26
ATOM     26  C   UNL     1     178.287 182.020 179.462  1.00  0.00    -0.000 C 
BRANCH  26  27
ATOM     27  C   UNL     1     178.884 183.308 178.861  1.00  0.00    -0.000 C 
BRANCH  27  28
ATOM     28  C   UNL     1     180.096 183.061 177.938  1.00  0.00    -0.000 C 
BRANCH  28  29
ATOM     29  C   UNL     1     180.587 181.606 177.993  1.00  0.00    -0.003 C 
ATOM     30  C   UNL     1     181.962 181.464 177.348  1.00  0.00     0.004 C 
ENDBRANCH  28  29
ENDBRANCH  27  28
ENDBRANCH  26  27
ENDBRANCH  25  26
ENDBRANCH  24  25
ENDBRANCH  23  24
ENDBRANCH  22  23
ENDBRANCH  21  22
ENDBRANCH  20  21
ENDBRANCH  19  20
ENDBRANCH  18  19
ENDBRANCH  17  18
ENDBRANCH   1  17
TORSDOF 26
ENDMDL
MODEL 9
REMARK VINA RESULT:     0.041      8.897     12.094
REMARK INTER + INTRA:          -6.824
REMARK INTER:                   0.000
REMARK INTRA:                  -6.824
REMARK UNBOUND:                -6.928
REMARK SMILES CCCCCCCCCCCCCCCCCCCCCCCCCCCC(=O)[O-]
REMARK SMILES IDX 15 1 16 2 17 3 18 4 19 5 20 6 21 7 22 8 23 9 24 10 25 11
REMARK SMILES IDX 26 12 27 13 28 14 29 15 30 16 14 17 13 18 12 19 11 20 10 21
REMARK SMILES IDX 9 22 8 23 7 24 6 25 5 26 4 27 3 28 2 29 1 30
REMARK H PARENT
REMARK Flexibility Score: inf
ROOT
ATOM      1  C   UNL     1     184.232 180.836 176.456  1.00  0.00     0.000 C 
ENDROOT
BRANCH   1   2
ATOM      2  C   UNL     1     183.573 180.302 175.166  1.00  0.00     0.000 C 
BRANCH   2   3
ATOM      3  C   UNL     1     183.095 181.413 174.215  1.00  0.00     0.000 C 
BRANCH   3   4
ATOM      4  C   UNL     1     181.656 181.196 173.715  1.00  0.00     0.000 C 
BRANCH   4   5
ATOM      5  C   UNL     1     180.616 181.694 174.733  1.00  0.00     0.000 C 
BRANCH   5   6
ATOM      6  C   UNL     1     179.673 180.570 175.197  1.00  0.00     0.000 C 
BRANCH   6   7
ATOM      7  C   UNL     1     180.064 179.984 176.567  1.00  0.00     0.000 C 
BRANCH   7   8
ATOM      8  C   UNL     1     180.698 178.583 176.517  1.00  0.00     0.000 C 
BRANCH   8   9
ATOM      9  C   UNL     1     180.237 177.753 175.308  1.00  0.00     0.000 C 
BRANCH   9  10
ATOM     10  C   UNL     1     181.446 177.199 174.539  1.00  0.00     0.000 C 
BRANCH  10  11
ATOM     11  C   UNL     1     181.426 177.560 173.043  1.00  0.00     0.000 C 
BRANCH  11  12
ATOM     12  C   UNL     1     182.801 177.888 172.435  1.00  0.00     0.006 C 
BRANCH  12  13
ATOM     13  C   UNL     1     183.954 177.151 173.127  1.00  0.00     0.053 C 
BRANCH  13  14
ATOM     14  C   UNL     1     185.258 177.833 172.856  1.00  0.00     0.041 C 
ATOM     15  O   UNL     1     185.278 178.970 172.316  1.00  0.00    -0.550 OA
ATOM     16  O   UNL     1     186.453 177.205 173.185  1.00  0.00    -0.550 OA
ENDBRANCH  13  14
ENDBRANCH  12  13
ENDBRANCH  11  12
ENDBRANCH  10  11
ENDBRANCH   9  10
ENDBRANCH   8   9
ENDBRANCH   7   8
ENDBRANCH   6   7
ENDBRANCH   5   6
ENDBRANCH   4   5
ENDBRANCH   3   4
ENDBRANCH   2   3
ENDBRANCH   1   2
BRANCH   1  17
ATOM     17  C   UNL     1     183.360 181.898 177.149  1.00  0.00     0.000 C 
BRANCH  17  18
ATOM     18  C   UNL     1     182.910 181.464 178.561  1.00  0.00     0.000 C 
BRANCH  18  19
ATOM     19  C   UNL     1     183.076 179.959 178.834  1.00  0.00     0.000 C 
BRANCH  19  20
ATOM     20  C   UNL     1     183.956 179.669 180.061  1.00  0.00     0.000 C 
BRANCH  20  21
ATOM     21  C   UNL     1     185.434 179.454 179.698  1.00  0.00     0.000 C 
BRANCH  21  22
ATOM     22  C   UNL     1     185.709 178.061 179.109  1.00  0.00    -0.000 C 
BRANCH  22  23
ATOM     23  C   UNL     1     186.429 178.171 177.755  1.00  0.00    -0.000 C 
BRANCH  23  24
ATOM     24  C   UNL     1     185.721 177.366 176.644  1.00  0.00    -0.000 C 
BRANCH  24  25
ATOM     25  C   UNL     1     184.227 177.103 176.918  1.00  0.00    -0.000 C 
BRANCH  25  26
ATOM     26  C   UNL     1     183.805 175.625 176.853  1.00  0.00    -0.000 C 
BRANCH  26  27
ATOM     27  C   UNL     1     182.960 175.137 178.046  1.00  0.00    -0.000 C 
BRANCH  27  28
ATOM     28  C   UNL     1     182.494 176.271 178.985  1.00  0.00    -0.000 C 
BRANCH  28  29
ATOM     29  C   UNL     1     180.983 176.221 179.258  1.00  0.00    -0.003 C 
ATOM     30  C   UNL     1     180.276 175.292 178.275  1.00  0.00     0.004 C 
ENDBRANCH  28  29
ENDBRANCH  27  28
ENDBRANCH  26  27
ENDBRANCH  25  26
ENDBRANCH  24  25
ENDBRANCH  23  24
ENDBRANCH  22  23
ENDBRANCH  21  22
ENDBRANCH  20  21
ENDBRANCH  19  20
ENDBRANCH  18  19
ENDBRANCH  17  18
ENDBRANCH   1  17
TORSDOF 26
ENDMDL
