MODEL 1
REMARK VINA RESULT:    -4.457      0.000      0.000
REMARK INTER + INTRA:         -12.067
REMARK INTER:                  -9.669
REMARK INTRA:                  -2.398
REMARK UNBOUND:                -2.398
REMARK SMILES CCCCCCCCCCCCCCCCCCCCCC(=O)[O-]
REMARK SMILES IDX 12 1 11 2 10 3 9 4 8 5 7 6 6 7 5 8 4 9 3 10 2 11 1 12 13 13
REMARK SMILES IDX 14 14 15 15 16 16 17 17 18 18 19 19 20 20 21 21 22 22 23 23
REMARK SMILES IDX 24 24
REMARK H PARENT
REMARK Flexibility Score: inf
ROOT
ATOM      1  C   UNL     1      -0.160  48.577   8.192  1.00  0.00     0.000 C 
ENDROOT
BRANCH   1   2
ATOM      2  C   UNL     1      -0.502  47.433   7.231  1.00  0.00     0.000 C 
BRANCH   2   3
ATOM      3  C   UNL     1      -0.975  46.190   8.000  1.00  0.00     0.000 C 
BRANCH   3   4
ATOM      4  C   UNL     1      -0.621  46.241   9.497  1.00  0.00    -0.000 C 
BRANCH   4   5
ATOM      5  C   UNL     1       0.745  45.632   9.860  1.00  0.00    -0.000 C 
BRANCH   5   6
ATOM      6  C   UNL     1       1.363  44.821   8.707  1.00  0.00    -0.000 C 
BRANCH   6   7
ATOM      7  C   UNL     1       1.795  43.408   9.148  1.00  0.00    -0.000 C 
BRANCH   7   8
ATOM      8  C   UNL     1       3.316  43.165   9.083  1.00  0.00    -0.000 C 
BRANCH   8   9
ATOM      9  C   UNL     1       3.999  43.065  10.462  1.00  0.00    -0.000 C 
BRANCH   9  10
ATOM     10  C   UNL     1       3.945  44.386  11.243  1.00  0.00    -0.000 C 
BRANCH  10  11
ATOM     11  C   UNL     1       3.105  44.239  12.516  1.00  0.00    -0.003 C 
ATOM     12  C   UNL     1       2.100  43.098  12.386  1.00  0.00     0.004 C 
ENDBRANCH  10  11
ENDBRANCH   9  10
ENDBRANCH   8   9
ENDBRANCH   7   8
ENDBRANCH   6   7
ENDBRANCH   5   6
ENDBRANCH   4   5
ENDBRANCH   3   4
ENDBRANCH   2   3
ENDBRANCH   1   2
BRANCH   1  13
ATOM     13  C   UNL     1      -0.434  49.941   7.544  1.00  0.00     0.000 C 
BRANCH  13  14
ATOM     14  C   UNL     1       0.823  50.825   7.455  1.00  0.00     0.000 C 
BRANCH  14  15
ATOM     15  C   UNL     1       1.996  50.378   8.351  1.00  0.00     0.000 C 
BRANCH  15  16
ATOM     16  C   UNL     1       3.236  49.859   7.594  1.00  0.00     0.000 C 
BRANCH  16  17
ATOM     17  C   UNL     1       3.392  48.328   7.577  1.00  0.00     0.000 C 
BRANCH  17  18
ATOM     18  C   UNL     1       3.490  47.722   8.985  1.00  0.00     0.000 C 
BRANCH  18  19
ATOM     19  C   UNL     1       4.757  46.866   9.127  1.00  0.00     0.000 C 
BRANCH  19  20
ATOM     20  C   UNL     1       5.932  47.638   9.756  1.00  0.00     0.006 C 
BRANCH  20  21
ATOM     21  C   UNL     1       6.949  48.180   8.738  1.00  0.00     0.053 C 
BRANCH  21  22
ATOM     22  C   UNL     1       7.838  49.226   9.334  1.00  0.00     0.041 C 
ATOM     23  O   UNL     1       8.625  48.931  10.272  1.00  0.00    -0.550 OA
ATOM     24  O   UNL     1       7.823  50.521   8.832  1.00  0.00    -0.550 OA
ENDBRANCH  21  22
ENDBRANCH  20  21
ENDBRANCH  19  20
ENDBRANCH  18  19
ENDBRANCH  17  18
ENDBRANCH  16  17
ENDBRANCH  15  16
ENDBRANCH  14  15
ENDBRANCH  13  14
ENDBRANCH   1  13
TORSDOF 20
ENDMDL
MODEL 2
REMARK VINA RESULT:    -4.455      2.242      4.183
REMARK INTER + INTRA:         -12.062
REMARK INTER:                 -10.127
REMARK INTRA:                  -1.935
REMARK UNBOUND:                -2.398
REMARK SMILES CCCCCCCCCCCCCCCCCCCCCC(=O)[O-]
REMARK SMILES IDX 12 1 11 2 10 3 9 4 8 5 7 6 6 7 5 8 4 9 3 10 2 11 1 12 13 13
REMARK SMILES IDX 14 14 15 15 16 16 17 17 18 18 19 19 20 20 21 21 22 22 23 23
REMARK SMILES IDX 24 24
REMARK H PARENT
REMARK Flexibility Score: inf
ROOT
ATOM      1  C   UNL     1       1.339  45.389   9.353  1.00  0.00     0.000 C 
ENDROOT
BRANCH   1   2
ATOM      2  C   UNL     1       1.377  43.995   8.719  1.00  0.00     0.000 C 
BRANCH   2   3
ATOM      3  C   UNL     1       2.778  43.375   8.834  1.00  0.00     0.000 C 
BRANCH   3   4
ATOM      4  C   UNL     1       2.955  42.526  10.105  1.00  0.00    -0.000 C 
BRANCH   4   5
ATOM      5  C   UNL     1       3.755  43.205  11.231  1.00  0.00    -0.000 C 
BRANCH   5   6
ATOM      6  C   UNL     1       2.855  43.806  12.324  1.00  0.00    -0.000 C 
BRANCH   6   7
ATOM      7  C   UNL     1       1.432  43.211  12.306  1.00  0.00    -0.000 C 
BRANCH   7   8
ATOM      8  C   UNL     1       1.293  41.887  13.086  1.00  0.00    -0.000 C 
BRANCH   8   9
ATOM      9  C   UNL     1      -0.013  41.766  13.896  1.00  0.00    -0.000 C 
BRANCH   9  10
ATOM     10  C   UNL     1      -0.144  40.409  14.602  1.00  0.00    -0.000 C 
BRANCH  10  11
ATOM     11  C   UNL     1      -0.744  40.573  16.002  1.00  0.00    -0.003 C 
ATOM     12  C   UNL     1      -0.835  42.044  16.396  1.00  0.00     0.004 C 
ENDBRANCH  10  11
ENDBRANCH   9  10
ENDBRANCH   8   9
ENDBRANCH   7   8
ENDBRANCH   6   7
ENDBRANCH   5   6
ENDBRANCH   4   5
ENDBRANCH   3   4
ENDBRANCH   2   3
ENDBRANCH   1   2
BRANCH   1  13
ATOM     13  C   UNL     1       0.066  46.145   8.947  1.00  0.00     0.000 C 
BRANCH  13  14
ATOM     14  C   UNL     1       0.213  46.889   7.607  1.00  0.00     0.000 C 
BRANCH  14  15
ATOM     15  C   UNL     1      -0.170  48.382   7.648  1.00  0.00     0.000 C 
BRANCH  15  16
ATOM     16  C   UNL     1       0.784  49.280   8.462  1.00  0.00     0.000 C 
BRANCH  16  17
ATOM     17  C   UNL     1       1.328  50.505   7.705  1.00  0.00     0.000 C 
BRANCH  17  18
ATOM     18  C   UNL     1       2.853  50.465   7.524  1.00  0.00     0.000 C 
BRANCH  18  19
ATOM     19  C   UNL     1       3.332  49.039   7.217  1.00  0.00     0.000 C 
BRANCH  19  20
ATOM     20  C   UNL     1       4.534  48.614   8.081  1.00  0.00     0.006 C 
BRANCH  20  21
ATOM     21  C   UNL     1       4.369  47.248   8.765  1.00  0.00     0.053 C 
BRANCH  21  22
ATOM     22  C   UNL     1       5.299  47.085   9.927  1.00  0.00     0.041 C 
ATOM     23  O   UNL     1       4.922  46.469  10.959  1.00  0.00    -0.550 OA
ATOM     24  O   UNL     1       6.594  47.582   9.858  1.00  0.00    -0.550 OA
ENDBRANCH  21  22
ENDBRANCH  20  21
ENDBRANCH  19  20
ENDBRANCH  18  19
ENDBRANCH  17  18
ENDBRANCH  16  17
ENDBRANCH  15  16
ENDBRANCH  14  15
ENDBRANCH  13  14
ENDBRANCH   1  13
TORSDOF 20
ENDMDL
MODEL 3
REMARK VINA RESULT:    -4.406      4.032      7.486
REMARK INTER + INTRA:         -11.954
REMARK INTER:                  -9.546
REMARK INTRA:                  -2.408
REMARK UNBOUND:                -2.398
REMARK SMILES CCCCCCCCCCCCCCCCCCCCCC(=O)[O-]
REMARK SMILES IDX 12 1 11 2 10 3 9 4 8 5 7 6 6 7 5 8 4 9 3 10 2 11 1 12 13 13
REMARK SMILES IDX 14 14 15 15 16 16 17 17 18 18 19 19 20 20 21 21 22 22 23 23
REMARK SMILES IDX 24 24
REMARK H PARENT
REMARK Flexibility Score: inf
ROOT
ATOM      1  C   UNL     1       1.083  45.207   9.597  1.00  0.00     0.000 C 
ENDROOT
BRANCH   1   2
ATOM      2  C   UNL     1      -0.007  46.192   9.163  1.00  0.00     0.000 C 
BRANCH   2   3
ATOM      3  C   UNL     1       0.004  46.392   7.639  1.00  0.00     0.000 C 
BRANCH   3   4
ATOM      4  C   UNL     1      -0.639  47.721   7.205  1.00  0.00    -0.000 C 
BRANCH   4   5
ATOM      5  C   UNL     1      -0.459  48.882   8.199  1.00  0.00    -0.000 C 
BRANCH   5   6
ATOM      6  C   UNL     1       0.482  49.979   7.672  1.00  0.00    -0.000 C 
BRANCH   6   7
ATOM      7  C   UNL     1       1.855  49.961   8.374  1.00  0.00    -0.000 C 
BRANCH   7   8
ATOM      8  C   UNL     1       3.056  49.896   7.408  1.00  0.00    -0.000 C 
BRANCH   8   9
ATOM      9  C   UNL     1       3.960  48.664   7.608  1.00  0.00    -0.000 C 
BRANCH   9  10
ATOM     10  C   UNL     1       3.476  47.757   8.749  1.00  0.00    -0.000 C 
BRANCH  10  11
ATOM     11  C   UNL     1       4.560  46.752   9.151  1.00  0.00    -0.003 C 
ATOM     12  C   UNL     1       5.798  47.462   9.692  1.00  0.00     0.004 C 
ENDBRANCH  10  11
ENDBRANCH   9  10
ENDBRANCH   8   9
ENDBRANCH   7   8
ENDBRANCH   6   7
ENDBRANCH   5   6
ENDBRANCH   4   5
ENDBRANCH   3   4
ENDBRANCH   2   3
ENDBRANCH   1   2
BRANCH   1  13
ATOM     13  C   UNL     1       1.291  44.114   8.538  1.00  0.00     0.000 C 
BRANCH  13  14
ATOM     14  C   UNL     1       2.293  43.034   8.982  1.00  0.00     0.000 C 
BRANCH  14  15
ATOM     15  C   UNL     1       3.647  43.571   9.489  1.00  0.00     0.000 C 
BRANCH  15  16
ATOM     16  C   UNL     1       4.161  42.927  10.793  1.00  0.00     0.000 C 
BRANCH  16  17
ATOM     17  C   UNL     1       3.956  43.775  12.061  1.00  0.00     0.000 C 
BRANCH  17  18
ATOM     18  C   UNL     1       2.480  43.897  12.465  1.00  0.00     0.000 C 
BRANCH  18  19
ATOM     19  C   UNL     1       1.795  42.523  12.463  1.00  0.00     0.000 C 
BRANCH  19  20
ATOM     20  C   UNL     1       0.571  42.464  13.396  1.00  0.00     0.006 C 
BRANCH  20  21
ATOM     21  C   UNL     1       0.266  41.063  13.950  1.00  0.00     0.053 C 
BRANCH  21  22
ATOM     22  C   UNL     1      -0.077  41.097  15.407  1.00  0.00     0.041 C 
ATOM     23  O   UNL     1       0.008  42.174  16.053  1.00  0.00    -0.550 OA
ATOM     24  O   UNL     1      -0.525  39.947  16.044  1.00  0.00    -0.550 OA
ENDBRANCH  21  22
ENDBRANCH  20  21
ENDBRANCH  19  20
ENDBRANCH  18  19
ENDBRANCH  17  18
ENDBRANCH  16  17
ENDBRANCH  15  16
ENDBRANCH  14  15
ENDBRANCH  13  14
ENDBRANCH   1  13
TORSDOF 20
ENDMDL
MODEL 4
REMARK VINA RESULT:    -4.340      1.721      6.057
REMARK INTER + INTRA:         -11.812
REMARK INTER:                  -9.290
REMARK INTRA:                  -2.521
REMARK UNBOUND:                -2.398
REMARK SMILES CCCCCCCCCCCCCCCCCCCCCC(=O)[O-]
REMARK SMILES IDX 12 1 11 2 10 3 9 4 8 5 7 6 6 7 5 8 4 9 3 10 2 11 1 12 13 13
REMARK SMILES IDX 14 14 15 15 16 16 17 17 18 18 19 19 20 20 21 21 22 22 23 23
REMARK SMILES IDX 24 24
REMARK H PARENT
REMARK Flexibility Score: inf
ROOT
ATOM      1  C   UNL     1       4.160  42.923  10.255  1.00  0.00     0.000 C 
ENDROOT
BRANCH   1   2
ATOM      2  C   UNL     1       3.354  43.146  11.540  1.00  0.00     0.000 C 
BRANCH   2   3
ATOM      3  C   UNL     1       4.011  44.217  12.424  1.00  0.00     0.000 C 
BRANCH   3   4
ATOM      4  C   UNL     1       4.256  45.541  11.678  1.00  0.00    -0.000 C 
BRANCH   4   5
ATOM      5  C   UNL     1       2.980  46.267  11.213  1.00  0.00    -0.000 C 
BRANCH   5   6
ATOM      6  C   UNL     1       3.125  46.891   9.814  1.00  0.00    -0.000 C 
BRANCH   6   7
ATOM      7  C   UNL     1       4.422  46.450   9.106  1.00  0.00    -0.000 C 
BRANCH   7   8
ATOM      8  C   UNL     1       5.406  47.602   8.820  1.00  0.00    -0.000 C 
BRANCH   8   9
ATOM      9  C   UNL     1       6.577  47.694   9.818  1.00  0.00    -0.000 C 
BRANCH   9  10
ATOM     10  C   UNL     1       7.854  48.259   9.178  1.00  0.00    -0.000 C 
BRANCH  10  11
ATOM     11  C   UNL     1       8.158  49.665   9.706  1.00  0.00    -0.003 C 
ATOM     12  C   UNL     1       7.856  50.727   8.654  1.00  0.00     0.004 C 
ENDBRANCH  10  11
ENDBRANCH   9  10
ENDBRANCH   8   9
ENDBRANCH   7   8
ENDBRANCH   6   7
ENDBRANCH   5   6
ENDBRANCH   4   5
ENDBRANCH   3   4
ENDBRANCH   2   3
ENDBRANCH   1   2
BRANCH   1  13
ATOM     13  C   UNL     1       3.267  43.064   9.014  1.00  0.00     0.000 C 
BRANCH  13  14
ATOM     14  C   UNL     1       1.831  43.500   9.356  1.00  0.00     0.000 C 
BRANCH  14  15
ATOM     15  C   UNL     1       1.064  44.174   8.201  1.00  0.00     0.000 C 
BRANCH  15  16
ATOM     16  C   UNL     1       0.242  45.418   8.598  1.00  0.00     0.000 C 
BRANCH  16  17
ATOM     17  C   UNL     1      -0.779  45.884   7.545  1.00  0.00     0.000 C 
BRANCH  17  18
ATOM     18  C   UNL     1      -0.771  47.407   7.341  1.00  0.00     0.000 C 
BRANCH  18  19
ATOM     19  C   UNL     1       0.563  48.014   7.798  1.00  0.00     0.000 C 
BRANCH  19  20
ATOM     20  C   UNL     1       0.619  49.542   7.608  1.00  0.00     0.006 C 
BRANCH  20  21
ATOM     21  C   UNL     1       1.729  50.238   8.412  1.00  0.00     0.053 C 
BRANCH  21  22
ATOM     22  C   UNL     1       3.040  50.227   7.688  1.00  0.00     0.041 C 
ATOM     23  O   UNL     1       3.894  51.125   7.910  1.00  0.00    -0.550 OA
ATOM     24  O   UNL     1       3.332  49.205   6.794  1.00  0.00    -0.550 OA
ENDBRANCH  21  22
ENDBRANCH  20  21
ENDBRANCH  19  20
ENDBRANCH  18  19
ENDBRANCH  17  18
ENDBRANCH  16  17
ENDBRANCH  15  16
ENDBRANCH  14  15
ENDBRANCH  13  14
ENDBRANCH   1  13
TORSDOF 20
ENDMDL
MODEL 5
REMARK VINA RESULT:    -4.277      0.969      5.438
REMARK INTER + INTRA:         -11.676
REMARK INTER:                  -9.190
REMARK INTRA:                  -2.486
REMARK UNBOUND:                -2.398
REMARK SMILES CCCCCCCCCCCCCCCCCCCCCC(=O)[O-]
REMARK SMILES IDX 12 1 11 2 10 3 9 4 8 5 7 6 6 7 5 8 4 9 3 10 2 11 1 12 13 13
REMARK SMILES IDX 14 14 15 15 16 16 17 17 18 18 19 19 20 20 21 21 22 22 23 23
REMARK SMILES IDX 24 24
REMARK H PARENT
REMARK Flexibility Score: inf
ROOT
ATOM      1  C   UNL     1       3.497  42.767  10.265  1.00  0.00     0.000 C 
ENDROOT
BRANCH   1   2
ATOM      2  C   UNL     1       3.048  43.289   8.896  1.00  0.00     0.000 C 
BRANCH   2   3
ATOM      3  C   UNL     1       1.517  43.246   8.765  1.00  0.00     0.000 C 
BRANCH   3   4
ATOM      4  C   UNL     1       0.962  44.366   7.868  1.00  0.00    -0.000 C 
BRANCH   4   5
ATOM      5  C   UNL     1       0.383  45.576   8.625  1.00  0.00    -0.000 C 
BRANCH   5   6
ATOM      6  C   UNL     1      -0.563  46.425   7.759  1.00  0.00    -0.000 C 
BRANCH   6   7
ATOM      7  C   UNL     1      -1.117  47.647   8.520  1.00  0.00    -0.000 C 
BRANCH   7   8
ATOM      8  C   UNL     1      -0.702  49.005   7.920  1.00  0.00    -0.000 C 
BRANCH   8   9
ATOM      9  C   UNL     1       0.780  49.365   8.138  1.00  0.00    -0.000 C 
BRANCH   9  10
ATOM     10  C   UNL     1       1.141  50.746   7.569  1.00  0.00    -0.000 C 
BRANCH  10  11
ATOM     11  C   UNL     1       2.659  50.953   7.549  1.00  0.00    -0.003 C 
ATOM     12  C   UNL     1       3.389  49.658   7.204  1.00  0.00     0.004 C 
ENDBRANCH  10  11
ENDBRANCH   9  10
ENDBRANCH   8   9
ENDBRANCH   7   8
ENDBRANCH   6   7
ENDBRANCH   5   6
ENDBRANCH   4   5
ENDBRANCH   3   4
ENDBRANCH   2   3
ENDBRANCH   1   2
BRANCH   1  13
ATOM     13  C   UNL     1       2.342  42.807  11.276  1.00  0.00     0.000 C 
BRANCH  13  14
ATOM     14  C   UNL     1       2.493  43.935  12.313  1.00  0.00     0.000 C 
BRANCH  14  15
ATOM     15  C   UNL     1       3.926  44.479  12.478  1.00  0.00     0.000 C 
BRANCH  15  16
ATOM     16  C   UNL     1       4.287  45.665  11.560  1.00  0.00     0.000 C 
BRANCH  16  17
ATOM     17  C   UNL     1       3.083  46.411  10.960  1.00  0.00     0.000 C 
BRANCH  17  18
ATOM     18  C   UNL     1       3.371  46.983   9.564  1.00  0.00     0.000 C 
BRANCH  18  19
ATOM     19  C   UNL     1       4.792  46.624   9.107  1.00  0.00     0.000 C 
BRANCH  19  20
ATOM     20  C   UNL     1       5.702  47.858   8.959  1.00  0.00     0.006 C 
BRANCH  20  21
ATOM     21  C   UNL     1       7.007  47.781   9.767  1.00  0.00     0.053 C 
BRANCH  21  22
ATOM     22  C   UNL     1       7.917  48.934   9.477  1.00  0.00     0.041 C 
ATOM     23  O   UNL     1       9.119  48.903   9.851  1.00  0.00    -0.550 OA
ATOM     24  O   UNL     1       7.448  50.028   8.762  1.00  0.00    -0.550 OA
ENDBRANCH  21  22
ENDBRANCH  20  21
ENDBRANCH  19  20
ENDBRANCH  18  19
ENDBRANCH  17  18
ENDBRANCH  16  17
ENDBRANCH  15  16
ENDBRANCH  14  15
ENDBRANCH  13  14
ENDBRANCH   1  13
TORSDOF 20
ENDMDL
MODEL 6
REMARK VINA RESULT:    -4.035      2.698      5.047
REMARK INTER + INTRA:         -11.150
REMARK INTER:                  -8.816
REMARK INTRA:                  -2.333
REMARK UNBOUND:                -2.398
REMARK SMILES CCCCCCCCCCCCCCCCCCCCCC(=O)[O-]
REMARK SMILES IDX 12 1 11 2 10 3 9 4 8 5 7 6 6 7 5 8 4 9 3 10 2 11 1 12 13 13
REMARK SMILES IDX 14 14 15 15 16 16 17 17 18 18 19 19 20 20 21 21 22 22 23 23
REMARK SMILES IDX 24 24
REMARK H PARENT
REMARK Flexibility Score: inf
ROOT
ATOM      1  C   UNL     1       3.794  48.456   7.373  1.00  0.00     0.000 C 
ENDROOT
BRANCH   1   2
ATOM      2  C   UNL     1       3.773  47.647   8.674  1.00  0.00     0.000 C 
BRANCH   2   3
ATOM      3  C   UNL     1       5.197  47.275   9.115  1.00  0.00     0.000 C 
BRANCH   3   4
ATOM      4  C   UNL     1       5.283  46.900  10.605  1.00  0.00    -0.000 C 
BRANCH   4   5
ATOM      5  C   UNL     1       4.074  46.115  11.146  1.00  0.00    -0.000 C 
BRANCH   5   6
ATOM      6  C   UNL     1       4.483  44.892  11.986  1.00  0.00    -0.000 C 
BRANCH   6   7
ATOM      7  C   UNL     1       3.265  44.126  12.539  1.00  0.00    -0.000 C 
BRANCH   7   8
ATOM      8  C   UNL     1       1.908  44.636  12.014  1.00  0.00    -0.000 C 
BRANCH   8   9
ATOM      9  C   UNL     1       0.732  43.670  12.260  1.00  0.00    -0.000 C 
BRANCH   9  10
ATOM     10  C   UNL     1       1.173  42.369  12.948  1.00  0.00    -0.000 C 
BRANCH  10  11
ATOM     11  C   UNL     1       0.068  41.827  13.860  1.00  0.00    -0.003 C 
ATOM     12  C   UNL     1       0.293  40.353  14.185  1.00  0.00     0.004 C 
ENDBRANCH  10  11
ENDBRANCH   9  10
ENDBRANCH   8   9
ENDBRANCH   7   8
ENDBRANCH   6   7
ENDBRANCH   5   6
ENDBRANCH   4   5
ENDBRANCH   3   4
ENDBRANCH   2   3
ENDBRANCH   1   2
BRANCH   1  13
ATOM     13  C   UNL     1       3.382  49.914   7.623  1.00  0.00     0.000 C 
BRANCH  13  14
ATOM     14  C   UNL     1       1.881  50.160   7.386  1.00  0.00     0.000 C 
BRANCH  14  15
ATOM     15  C   UNL     1       0.947  49.575   8.465  1.00  0.00     0.000 C 
BRANCH  15  16
ATOM     16  C   UNL     1      -0.277  48.807   7.926  1.00  0.00     0.000 C 
BRANCH  16  17
ATOM     17  C   UNL     1       0.025  47.397   7.391  1.00  0.00     0.000 C 
BRANCH  17  18
ATOM     18  C   UNL     1      -0.773  46.301   8.113  1.00  0.00     0.000 C 
BRANCH  18  19
ATOM     19  C   UNL     1       0.055  45.674   9.244  1.00  0.00     0.000 C 
BRANCH  19  20
ATOM     20  C   UNL     1       1.409  45.123   8.757  1.00  0.00     0.006 C 
BRANCH  20  21
ATOM     21  C   UNL     1       1.454  43.593   8.616  1.00  0.00     0.053 C 
BRANCH  21  22
ATOM     22  C   UNL     1       2.745  43.020   9.114  1.00  0.00     0.041 C 
ATOM     23  O   UNL     1       2.748  41.952   9.781  1.00  0.00    -0.550 OA
ATOM     24  O   UNL     1       3.947  43.647   8.814  1.00  0.00    -0.550 OA
ENDBRANCH  21  22
ENDBRANCH  20  21
ENDBRANCH  19  20
ENDBRANCH  18  19
ENDBRANCH  17  18
ENDBRANCH  16  17
ENDBRANCH  15  16
ENDBRANCH  14  15
ENDBRANCH  13  14
ENDBRANCH   1  13
TORSDOF 20
ENDMDL
MODEL 7
REMARK VINA RESULT:    -4.012      3.312      5.719
REMARK INTER + INTRA:         -11.100
REMARK INTER:                  -9.082
REMARK INTRA:                  -2.019
REMARK UNBOUND:                -2.398
REMARK SMILES CCCCCCCCCCCCCCCCCCCCCC(=O)[O-]
REMARK SMILES IDX 12 1 11 2 10 3 9 4 8 5 7 6 6 7 5 8 4 9 3 10 2 11 1 12 13 13
REMARK SMILES IDX 14 14 15 15 16 16 17 17 18 18 19 19 20 20 21 21 22 22 23 23
REMARK SMILES IDX 24 24
REMARK H PARENT
REMARK Flexibility Score: inf
ROOT
ATOM      1  C   UNL     1       5.251  47.365   9.422  1.00  0.00     0.000 C 
ENDROOT
BRANCH   1   2
ATOM      2  C   UNL     1       3.929  46.636   9.689  1.00  0.00     0.000 C 
BRANCH   2   3
ATOM      3  C   UNL     1       4.179  45.205  10.187  1.00  0.00     0.000 C 
BRANCH   3   4
ATOM      4  C   UNL     1       4.445  45.136  11.702  1.00  0.00    -0.000 C 
BRANCH   4   5
ATOM      5  C   UNL     1       3.479  44.231  12.488  1.00  0.00    -0.000 C 
BRANCH   5   6
ATOM      6  C   UNL     1       2.687  43.273  11.581  1.00  0.00    -0.000 C 
BRANCH   6   7
ATOM      7  C   UNL     1       1.245  43.050  12.080  1.00  0.00    -0.000 C 
BRANCH   7   8
ATOM      8  C   UNL     1       1.144  42.173  13.345  1.00  0.00    -0.000 C 
BRANCH   8   9
ATOM      9  C   UNL     1      -0.296  41.958  13.850  1.00  0.00    -0.000 C 
BRANCH   9  10
ATOM     10  C   UNL     1      -0.542  40.520  14.332  1.00  0.00    -0.000 C 
BRANCH  10  11
ATOM     11  C   UNL     1      -0.496  40.437  15.861  1.00  0.00    -0.003 C 
ATOM     12  C   UNL     1      -0.787  41.793  16.497  1.00  0.00     0.004 C 
ENDBRANCH  10  11
ENDBRANCH   9  10
ENDBRANCH   8   9
ENDBRANCH   7   8
ENDBRANCH   6   7
ENDBRANCH   5   6
ENDBRANCH   4   5
ENDBRANCH   3   4
ENDBRANCH   2   3
ENDBRANCH   1   2
BRANCH   1  13
ATOM     13  C   UNL     1       5.065  48.480   8.384  1.00  0.00     0.000 C 
BRANCH  13  14
ATOM     14  C   UNL     1       3.821  48.275   7.501  1.00  0.00     0.000 C 
BRANCH  14  15
ATOM     15  C   UNL     1       2.864  49.482   7.435  1.00  0.00     0.000 C 
BRANCH  15  16
ATOM     16  C   UNL     1       1.718  49.467   8.468  1.00  0.00     0.000 C 
BRANCH  16  17
ATOM     17  C   UNL     1       0.328  49.802   7.900  1.00  0.00     0.000 C 
BRANCH  17  18
ATOM     18  C   UNL     1      -0.729  48.743   8.247  1.00  0.00     0.000 C 
BRANCH  18  19
ATOM     19  C   UNL     1      -1.107  47.919   7.007  1.00  0.00     0.000 C 
BRANCH  19  20
ATOM     20  C   UNL     1      -0.783  46.422   7.163  1.00  0.00     0.006 C 
BRANCH  20  21
ATOM     21  C   UNL     1       0.664  46.130   7.592  1.00  0.00     0.053 C 
BRANCH  21  22
ATOM     22  C   UNL     1       0.728  45.181   8.748  1.00  0.00     0.041 C 
ATOM     23  O   UNL     1       0.410  45.568   9.904  1.00  0.00    -0.550 OA
ATOM     24  O   UNL     1       1.106  43.860   8.545  1.00  0.00    -0.550 OA
ENDBRANCH  21  22
ENDBRANCH  20  21
ENDBRANCH  19  20
ENDBRANCH  18  19
ENDBRANCH  17  18
ENDBRANCH  16  17
ENDBRANCH  15  16
ENDBRANCH  14  15
ENDBRANCH  13  14
ENDBRANCH   1  13
TORSDOF 20
ENDMDL
MODEL 8
REMARK VINA RESULT:    -3.997      4.158      7.988
REMARK INTER + INTRA:         -11.069
REMARK INTER:                  -9.062
REMARK INTRA:                  -2.007
REMARK UNBOUND:                -2.398
REMARK SMILES CCCCCCCCCCCCCCCCCCCCCC(=O)[O-]
REMARK SMILES IDX 12 1 11 2 10 3 9 4 8 5 7 6 6 7 5 8 4 9 3 10 2 11 1 12 13 13
REMARK SMILES IDX 14 14 15 15 16 16 17 17 18 18 19 19 20 20 21 21 22 22 23 23
REMARK SMILES IDX 24 24
REMARK H PARENT
REMARK Flexibility Score: inf
ROOT
ATOM      1  C   UNL     1       5.159  47.014  10.253  1.00  0.00     0.000 C 
ENDROOT
BRANCH   1   2
ATOM      2  C   UNL     1       4.898  47.316   8.774  1.00  0.00     0.000 C 
BRANCH   2   3
ATOM      3  C   UNL     1       3.626  48.161   8.600  1.00  0.00     0.000 C 
BRANCH   3   4
ATOM      4  C   UNL     1       3.561  48.871   7.236  1.00  0.00    -0.000 C 
BRANCH   4   5
ATOM      5  C   UNL     1       3.088  50.335   7.290  1.00  0.00    -0.000 C 
BRANCH   5   6
ATOM      6  C   UNL     1       1.916  50.548   8.263  1.00  0.00    -0.000 C 
BRANCH   6   7
ATOM      7  C   UNL     1       0.556  50.617   7.538  1.00  0.00    -0.000 C 
BRANCH   7   8
ATOM      8  C   UNL     1      -0.184  49.267   7.458  1.00  0.00    -0.000 C 
BRANCH   8   9
ATOM      9  C   UNL     1       0.028  48.357   8.684  1.00  0.00    -0.000 C 
BRANCH   9  10
ATOM     10  C   UNL     1      -0.553  46.950   8.479  1.00  0.00    -0.000 C 
BRANCH  10  11
ATOM     11  C   UNL     1       0.533  45.966   8.032  1.00  0.00    -0.003 C 
ATOM     12  C   UNL     1      -0.065  44.801   7.250  1.00  0.00     0.004 C 
ENDBRANCH  10  11
ENDBRANCH   9  10
ENDBRANCH   8   9
ENDBRANCH   7   8
ENDBRANCH   6   7
ENDBRANCH   5   6
ENDBRANCH   4   5
ENDBRANCH   3   4
ENDBRANCH   2   3
ENDBRANCH   1   2
BRANCH   1  13
ATOM     13  C   UNL     1       4.460  45.716  10.682  1.00  0.00     0.000 C 
BRANCH  13  14
ATOM     14  C   UNL     1       4.060  44.829   9.488  1.00  0.00     0.000 C 
BRANCH  14  15
ATOM     15  C   UNL     1       4.088  43.313   9.766  1.00  0.00     0.000 C 
BRANCH  15  16
ATOM     16  C   UNL     1       2.718  42.680  10.086  1.00  0.00     0.000 C 
BRANCH  16  17
ATOM     17  C   UNL     1       1.652  43.665  10.599  1.00  0.00     0.000 C 
BRANCH  17  18
ATOM     18  C   UNL     1       1.642  43.789  12.130  1.00  0.00     0.000 C 
BRANCH  18  19
ATOM     19  C   UNL     1       1.447  42.416  12.790  1.00  0.00     0.000 C 
BRANCH  19  20
ATOM     20  C   UNL     1       0.053  42.251  13.422  1.00  0.00     0.006 C 
BRANCH  20  21
ATOM     21  C   UNL     1      -0.183  40.882  14.082  1.00  0.00     0.053 C 
BRANCH  21  22
ATOM     22  C   UNL     1      -0.229  40.977  15.575  1.00  0.00     0.041 C 
ATOM     23  O   UNL     1      -0.510  39.963  16.266  1.00  0.00    -0.550 OA
ATOM     24  O   UNL     1       0.073  42.177  16.206  1.00  0.00    -0.550 OA
ENDBRANCH  21  22
ENDBRANCH  20  21
ENDBRANCH  19  20
ENDBRANCH  18  19
ENDBRANCH  17  18
ENDBRANCH  16  17
ENDBRANCH  15  16
ENDBRANCH  14  15
ENDBRANCH  13  14
ENDBRANCH   1  13
TORSDOF 20
ENDMDL
MODEL 9
REMARK VINA RESULT:    -3.965      2.122      3.297
REMARK INTER + INTRA:         -10.998
REMARK INTER:                  -8.491
REMARK INTRA:                  -2.507
REMARK UNBOUND:                -2.398
REMARK SMILES CCCCCCCCCCCCCCCCCCCCCC(=O)[O-]
REMARK SMILES IDX 12 1 11 2 10 3 9 4 8 5 7 6 6 7 5 8 4 9 3 10 2 11 1 12 13 13
REMARK SMILES IDX 14 14 15 15 16 16 17 17 18 18 19 19 20 20 21 21 22 22 23 23
REMARK SMILES IDX 24 24
REMARK H PARENT
REMARK Flexibility Score: inf
ROOT
ATOM      1  C   UNL     1       0.290  46.606   7.600  1.00  0.00     0.000 C 
ENDROOT
BRANCH   1   2
ATOM      2  C   UNL     1       0.527  46.670   9.112  1.00  0.00     0.000 C 
BRANCH   2   3
ATOM      3  C   UNL     1       0.576  45.260   9.722  1.00  0.00     0.000 C 
BRANCH   3   4
ATOM      4  C   UNL     1       1.110  44.201   8.741  1.00  0.00    -0.000 C 
BRANCH   4   5
ATOM      5  C   UNL     1       2.545  43.722   9.024  1.00  0.00    -0.000 C 
BRANCH   5   6
ATOM      6  C   UNL     1       2.592  42.485   9.938  1.00  0.00    -0.000 C 
BRANCH   6   7
ATOM      7  C   UNL     1       3.336  42.760  11.261  1.00  0.00    -0.000 C 
BRANCH   7   8
ATOM      8  C   UNL     1       2.522  43.580  12.282  1.00  0.00    -0.000 C 
BRANCH   8   9
ATOM      9  C   UNL     1       1.092  43.055  12.517  1.00  0.00    -0.000 C 
BRANCH   9  10
ATOM     10  C   UNL     1       1.070  41.740  13.309  1.00  0.00    -0.000 C 
BRANCH  10  11
ATOM     11  C   UNL     1      -0.275  41.545  14.017  1.00  0.00    -0.003 C 
ATOM     12  C   UNL     1      -0.108  41.552  15.533  1.00  0.00     0.004 C 
ENDBRANCH  10  11
ENDBRANCH   9  10
ENDBRANCH   8   9
ENDBRANCH   7   8
ENDBRANCH   6   7
ENDBRANCH   5   6
ENDBRANCH   4   5
ENDBRANCH   3   4
ENDBRANCH   2   3
ENDBRANCH   1   2
BRANCH   1  13
ATOM     13  C   UNL     1      -0.628  47.746   7.137  1.00  0.00     0.000 C 
BRANCH  13  14
ATOM     14  C   UNL     1      -0.633  48.941   8.108  1.00  0.00     0.000 C 
BRANCH  14  15
ATOM     15  C   UNL     1       0.259  50.126   7.686  1.00  0.00     0.000 C 
BRANCH  15  16
ATOM     16  C   UNL     1       1.674  50.132   8.299  1.00  0.00     0.000 C 
BRANCH  16  17
ATOM     17  C   UNL     1       2.812  49.827   7.309  1.00  0.00     0.000 C 
BRANCH  17  18
ATOM     18  C   UNL     1       3.555  48.523   7.636  1.00  0.00     0.000 C 
BRANCH  18  19
ATOM     19  C   UNL     1       4.994  48.810   8.086  1.00  0.00     0.000 C 
BRANCH  19  20
ATOM     20  C   UNL     1       5.556  47.722   9.020  1.00  0.00     0.006 C 
BRANCH  20  21
ATOM     21  C   UNL     1       4.609  46.533   9.247  1.00  0.00     0.053 C 
BRANCH  21  22
ATOM     22  C   UNL     1       4.273  46.349  10.694  1.00  0.00     0.041 C 
ATOM     23  O   UNL     1       3.170  46.754  11.146  1.00  0.00    -0.550 OA
ATOM     24  O   UNL     1       5.165  45.699  11.538  1.00  0.00    -0.550 OA
ENDBRANCH  21  22
ENDBRANCH  20  21
ENDBRANCH  19  20
ENDBRANCH  18  19
ENDBRANCH  17  18
ENDBRANCH  16  17
ENDBRANCH  15  16
ENDBRANCH  14  15
ENDBRANCH  13  14
ENDBRANCH   1  13
TORSDOF 20
ENDMDL
