MODEL 1
REMARK VINA RESULT:    14.268      0.000      0.000
REMARK INTER + INTRA:          36.308
REMARK INTER:                  37.624
REMARK INTRA:                  -1.316
REMARK UNBOUND:                -1.316
REMARK SMILES CCCCCCCCCCCCCCCCCCCCCCCCCCCCCC(=O)[O-]
REMARK SMILES IDX 16 1 17 2 18 3 19 4 20 5 21 6 22 7 23 8 24 9 25 10 26 11
REMARK SMILES IDX 27 12 28 13 29 14 30 15 31 16 32 17 15 18 14 19 13 20 12 21
REMARK SMILES IDX 11 22 10 23 9 24 8 25 7 26 6 27 5 28 4 29 3 30 2 31 1 32
REMARK H PARENT
REMARK Flexibility Score: inf
ROOT
ATOM      1  C   UNL     1      14.419  30.295  50.826  1.00  0.00     0.000 C 
ENDROOT
BRANCH   1   2
ATOM      2  C   UNL     1      15.558  31.179  50.283  1.00  0.00     0.000 C 
BRANCH   2   3
ATOM      3  C   UNL     1      15.564  32.586  50.899  1.00  0.00     0.000 C 
BRANCH   3   4
ATOM      4  C   UNL     1      14.874  33.631  50.004  1.00  0.00     0.000 C 
BRANCH   4   5
ATOM      5  C   UNL     1      15.617  34.978  50.012  1.00  0.00     0.000 C 
BRANCH   5   6
ATOM      6  C   UNL     1      15.151  35.910  48.881  1.00  0.00     0.000 C 
BRANCH   6   7
ATOM      7  C   UNL     1      13.962  35.338  48.088  1.00  0.00     0.000 C 
BRANCH   7   8
ATOM      8  C   UNL     1      13.115  36.387  47.339  1.00  0.00     0.000 C 
BRANCH   8   9
ATOM      9  C   UNL     1      13.361  37.849  47.762  1.00  0.00     0.000 C 
BRANCH   9  10
ATOM     10  C   UNL     1      13.660  38.825  46.605  1.00  0.00     0.000 C 
BRANCH  10  11
ATOM     11  C   UNL     1      15.075  39.433  46.610  1.00  0.00     0.000 C 
BRANCH  11  12
ATOM     12  C   UNL     1      16.157  38.433  46.169  1.00  0.00     0.000 C 
BRANCH  12  13
ATOM     13  C   UNL     1      17.388  38.449  47.089  1.00  0.00     0.006 C 
BRANCH  13  14
ATOM     14  C   UNL     1      18.527  37.550  46.583  1.00  0.00     0.053 C 
BRANCH  14  15
ATOM     15  C   UNL     1      19.863  38.165  46.870  1.00  0.00     0.041 C 
ATOM     16  O   UNL     1      20.046  39.401  46.701  1.00  0.00    -0.550 OA
ATOM     17  O   UNL     1      20.899  37.376  47.360  1.00  0.00    -0.550 OA
ENDBRANCH  14  15
ENDBRANCH  13  14
ENDBRANCH  12  13
ENDBRANCH  11  12
ENDBRANCH  10  11
ENDBRANCH   9  10
ENDBRANCH   8   9
ENDBRANCH   7   8
ENDBRANCH   6   7
ENDBRANCH   5   6
ENDBRANCH   4   5
ENDBRANCH   3   4
ENDBRANCH   2   3
ENDBRANCH   1   2
BRANCH   1  18
ATOM     18  C   UNL     1      13.719  29.484  49.716  1.00  0.00     0.000 C 
BRANCH  18  19
ATOM     19  C   UNL     1      13.331  28.055  50.135  1.00  0.00     0.000 C 
BRANCH  19  20
ATOM     20  C   UNL     1      14.437  27.338  50.924  1.00  0.00     0.000 C 
BRANCH  20  21
ATOM     21  C   UNL     1      13.905  26.054  51.574  1.00  0.00     0.000 C 
BRANCH  21  22
ATOM     22  C   UNL     1      15.014  25.003  51.710  1.00  0.00     0.000 C 
BRANCH  22  23
ATOM     23  C   UNL     1      14.806  23.794  50.781  1.00  0.00     0.000 C 
BRANCH  23  24
ATOM     24  C   UNL     1      15.807  22.644  51.030  1.00  0.00    -0.000 C 
BRANCH  24  25
ATOM     25  C   UNL     1      15.132  21.417  51.671  1.00  0.00    -0.000 C 
BRANCH  25  26
ATOM     26  C   UNL     1      16.095  20.220  51.816  1.00  0.00    -0.000 C 
BRANCH  26  27
ATOM     27  C   UNL     1      17.485  20.457  51.196  1.00  0.00    -0.000 C 
BRANCH  27  28
ATOM     28  C   UNL     1      17.514  20.477  49.657  1.00  0.00    -0.000 C 
BRANCH  28  29
ATOM     29  C   UNL     1      18.942  20.463  49.087  1.00  0.00    -0.000 C 
BRANCH  29  30
ATOM     30  C   UNL     1      19.932  19.875  50.104  1.00  0.00    -0.000 C 
BRANCH  30  31
ATOM     31  C   UNL     1      20.744  20.959  50.830  1.00  0.00    -0.003 C 
ATOM     32  C   UNL     1      21.382  20.452  52.124  1.00  0.00     0.004 C 
ENDBRANCH  30  31
ENDBRANCH  29  30
ENDBRANCH  28  29
ENDBRANCH  27  28
ENDBRANCH  26  27
ENDBRANCH  25  26
ENDBRANCH  24  25
ENDBRANCH  23  24
ENDBRANCH  22  23
ENDBRANCH  21  22
ENDBRANCH  20  21
ENDBRANCH  19  20
ENDBRANCH  18  19
ENDBRANCH   1  18
TORSDOF 28
ENDMDL
MODEL 2
REMARK VINA RESULT:    14.630      1.505      2.517
REMARK INTER + INTRA:          37.262
REMARK INTER:                  38.560
REMARK INTRA:                  -1.298
REMARK UNBOUND:                -1.316
REMARK SMILES CCCCCCCCCCCCCCCCCCCCCCCCCCCCCC(=O)[O-]
REMARK SMILES IDX 16 1 17 2 18 3 19 4 20 5 21 6 22 7 23 8 24 9 25 10 26 11
REMARK SMILES IDX 27 12 28 13 29 14 30 15 31 16 32 17 15 18 14 19 13 20 12 21
REMARK SMILES IDX 11 22 10 23 9 24 8 25 7 26 6 27 5 28 4 29 3 30 2 31 1 32
REMARK H PARENT
REMARK Flexibility Score: inf
ROOT
ATOM      1  C   UNL     1      15.729  32.070  51.085  1.00  0.00     0.000 C 
ENDROOT
BRANCH   1   2
ATOM      2  C   UNL     1      15.945  33.505  50.571  1.00  0.00     0.000 C 
BRANCH   2   3
ATOM      3  C   UNL     1      15.028  33.859  49.391  1.00  0.00     0.000 C 
BRANCH   3   4
ATOM      4  C   UNL     1      15.006  35.366  49.083  1.00  0.00     0.000 C 
BRANCH   4   5
ATOM      5  C   UNL     1      13.857  35.745  48.133  1.00  0.00     0.000 C 
BRANCH   5   6
ATOM      6  C   UNL     1      13.493  37.236  48.220  1.00  0.00     0.000 C 
BRANCH   6   7
ATOM      7  C   UNL     1      13.226  37.867  46.842  1.00  0.00     0.000 C 
BRANCH   7   8
ATOM      8  C   UNL     1      13.832  39.271  46.641  1.00  0.00     0.000 C 
BRANCH   8   9
ATOM      9  C   UNL     1      15.331  39.390  46.983  1.00  0.00     0.000 C 
BRANCH   9  10
ATOM     10  C   UNL     1      16.227  38.277  46.400  1.00  0.00     0.000 C 
BRANCH  10  11
ATOM     11  C   UNL     1      17.720  38.633  46.282  1.00  0.00     0.000 C 
BRANCH  11  12
ATOM     12  C   UNL     1      18.643  37.525  46.819  1.00  0.00     0.000 C 
BRANCH  12  13
ATOM     13  C   UNL     1      19.714  37.101  45.801  1.00  0.00     0.006 C 
BRANCH  13  14
ATOM     14  C   UNL     1      20.363  35.750  46.140  1.00  0.00     0.053 C 
BRANCH  14  15
ATOM     15  C   UNL     1      20.740  35.009  44.894  1.00  0.00     0.041 C 
ATOM     16  O   UNL     1      20.877  35.624  43.802  1.00  0.00    -0.550 OA
ATOM     17  O   UNL     1      20.977  33.638  44.948  1.00  0.00    -0.550 OA
ENDBRANCH  14  15
ENDBRANCH  13  14
ENDBRANCH  12  13
ENDBRANCH  11  12
ENDBRANCH  10  11
ENDBRANCH   9  10
ENDBRANCH   8   9
ENDBRANCH   7   8
ENDBRANCH   6   7
ENDBRANCH   5   6
ENDBRANCH   4   5
ENDBRANCH   3   4
ENDBRANCH   2   3
ENDBRANCH   1   2
BRANCH   1  18
ATOM     18  C   UNL     1      14.651  31.310  50.285  1.00  0.00     0.000 C 
BRANCH  18  19
ATOM     19  C   UNL     1      14.018  30.133  51.048  1.00  0.00     0.000 C 
BRANCH  19  20
ATOM     20  C   UNL     1      13.679  28.941  50.142  1.00  0.00     0.000 C 
BRANCH  20  21
ATOM     21  C   UNL     1      12.989  27.824  50.937  1.00  0.00     0.000 C 
BRANCH  21  22
ATOM     22  C   UNL     1      14.019  26.908  51.611  1.00  0.00     0.000 C 
BRANCH  22  23
ATOM     23  C   UNL     1      14.098  25.518  50.956  1.00  0.00     0.000 C 
BRANCH  23  24
ATOM     24  C   UNL     1      15.485  24.850  51.090  1.00  0.00    -0.000 C 
BRANCH  24  25
ATOM     25  C   UNL     1      15.478  23.395  50.587  1.00  0.00    -0.000 C 
BRANCH  25  26
ATOM     26  C   UNL     1      15.968  22.396  51.657  1.00  0.00    -0.000 C 
BRANCH  26  27
ATOM     27  C   UNL     1      15.862  20.920  51.229  1.00  0.00    -0.000 C 
BRANCH  27  28
ATOM     28  C   UNL     1      17.207  20.187  51.084  1.00  0.00    -0.000 C 
BRANCH  28  29
ATOM     29  C   UNL     1      17.758  20.230  49.650  1.00  0.00    -0.000 C 
BRANCH  29  30
ATOM     30  C   UNL     1      19.294  20.241  49.653  1.00  0.00    -0.000 C 
BRANCH  30  31
ATOM     31  C   UNL     1      19.884  19.878  51.024  1.00  0.00    -0.003 C 
ATOM     32  C   UNL     1      21.208  20.588  51.304  1.00  0.00     0.004 C 
ENDBRANCH  30  31
ENDBRANCH  29  30
ENDBRANCH  28  29
ENDBRANCH  27  28
ENDBRANCH  26  27
ENDBRANCH  25  26
ENDBRANCH  24  25
ENDBRANCH  23  24
ENDBRANCH  22  23
ENDBRANCH  21  22
ENDBRANCH  20  21
ENDBRANCH  19  20
ENDBRANCH  18  19
ENDBRANCH   1  18
TORSDOF 28
ENDMDL
MODEL 3
REMARK VINA RESULT:    15.111      4.631     14.791
REMARK INTER + INTRA:          38.530
REMARK INTER:                  40.421
REMARK INTRA:                  -1.890
REMARK UNBOUND:                -1.316
REMARK SMILES CCCCCCCCCCCCCCCCCCCCCCCCCCCCCC(=O)[O-]
REMARK SMILES IDX 16 1 17 2 18 3 19 4 20 5 21 6 22 7 23 8 24 9 25 10 26 11
REMARK SMILES IDX 27 12 28 13 29 14 30 15 31 16 32 17 15 18 14 19 13 20 12 21
REMARK SMILES IDX 11 22 10 23 9 24 8 25 7 26 6 27 5 28 4 29 3 30 2 31 1 32
REMARK H PARENT
REMARK Flexibility Score: inf
ROOT
ATOM      1  C   UNL     1      15.380  32.517  51.086  1.00  0.00     0.000 C 
ENDROOT
BRANCH   1   2
ATOM      2  C   UNL     1      15.454  31.009  50.782  1.00  0.00     0.000 C 
BRANCH   2   3
ATOM      3  C   UNL     1      14.097  30.418  50.372  1.00  0.00     0.000 C 
BRANCH   3   4
ATOM      4  C   UNL     1      14.047  28.887  50.513  1.00  0.00     0.000 C 
BRANCH   4   5
ATOM      5  C   UNL     1      13.468  28.449  51.869  1.00  0.00     0.000 C 
BRANCH   5   6
ATOM      6  C   UNL     1      13.545  26.927  52.075  1.00  0.00     0.000 C 
BRANCH   6   7
ATOM      7  C   UNL     1      14.628  26.262  51.208  1.00  0.00     0.000 C 
BRANCH   7   8
ATOM      8  C   UNL     1      14.588  24.719  51.188  1.00  0.00     0.000 C 
BRANCH   8   9
ATOM      9  C   UNL     1      15.963  24.032  51.072  1.00  0.00     0.000 C 
BRANCH   9  10
ATOM     10  C   UNL     1      15.929  22.585  50.538  1.00  0.00     0.000 C 
BRANCH  10  11
ATOM     11  C   UNL     1      15.252  21.560  51.466  1.00  0.00     0.000 C 
BRANCH  11  12
ATOM     12  C   UNL     1      16.176  20.389  51.841  1.00  0.00     0.000 C 
BRANCH  12  13
ATOM     13  C   UNL     1      17.028  19.905  50.656  1.00  0.00     0.006 C 
BRANCH  13  14
ATOM     14  C   UNL     1      18.534  19.904  50.961  1.00  0.00     0.053 C 
BRANCH  14  15
ATOM     15  C   UNL     1      19.331  20.187  49.725  1.00  0.00     0.041 C 
ATOM     16  O   UNL     1      20.586  20.061  49.732  1.00  0.00    -0.550 OA
ATOM     17  O   UNL     1      18.682  20.555  48.550  1.00  0.00    -0.550 OA
ENDBRANCH  14  15
ENDBRANCH  13  14
ENDBRANCH  12  13
ENDBRANCH  11  12
ENDBRANCH  10  11
ENDBRANCH   9  10
ENDBRANCH   8   9
ENDBRANCH   7   8
ENDBRANCH   6   7
ENDBRANCH   5   6
ENDBRANCH   4   5
ENDBRANCH   3   4
ENDBRANCH   2   3
ENDBRANCH   1   2
BRANCH   1  18
ATOM     18  C   UNL     1      15.794  33.386  49.881  1.00  0.00     0.000 C 
BRANCH  18  19
ATOM     19  C   UNL     1      14.742  34.433  49.473  1.00  0.00     0.000 C 
BRANCH  19  20
ATOM     20  C   UNL     1      13.655  33.866  48.548  1.00  0.00     0.000 C 
BRANCH  20  21
ATOM     21  C   UNL     1      13.156  34.934  47.567  1.00  0.00     0.000 C 
BRANCH  21  22
ATOM     22  C   UNL     1      13.740  36.312  47.905  1.00  0.00     0.000 C 
BRANCH  22  23
ATOM     23  C   UNL     1      12.762  37.463  47.611  1.00  0.00     0.000 C 
BRANCH  23  24
ATOM     24  C   UNL     1      13.082  38.228  46.307  1.00  0.00    -0.000 C 
BRANCH  24  25
ATOM     25  C   UNL     1      13.470  39.693  46.576  1.00  0.00    -0.000 C 
BRANCH  25  26
ATOM     26  C   UNL     1      14.996  39.921  46.528  1.00  0.00    -0.000 C 
BRANCH  26  27
ATOM     27  C   UNL     1      15.749  39.366  47.753  1.00  0.00    -0.000 C 
BRANCH  27  28
ATOM     28  C   UNL     1      16.818  38.307  47.432  1.00  0.00    -0.000 C 
BRANCH  28  29
ATOM     29  C   UNL     1      17.166  38.244  45.936  1.00  0.00    -0.000 C 
BRANCH  29  30
ATOM     30  C   UNL     1      18.498  38.956  45.653  1.00  0.00    -0.000 C 
BRANCH  30  31
ATOM     31  C   UNL     1      19.712  38.155  46.149  1.00  0.00    -0.003 C 
ATOM     32  C   UNL     1      20.251  38.667  47.484  1.00  0.00     0.004 C 
ENDBRANCH  30  31
ENDBRANCH  29  30
ENDBRANCH  28  29
ENDBRANCH  27  28
ENDBRANCH  26  27
ENDBRANCH  25  26
ENDBRANCH  24  25
ENDBRANCH  23  24
ENDBRANCH  22  23
ENDBRANCH  21  22
ENDBRANCH  20  21
ENDBRANCH  19  20
ENDBRANCH  18  19
ENDBRANCH   1  18
TORSDOF 28
ENDMDL
MODEL 4
REMARK VINA RESULT:    15.961      1.475      2.852
REMARK INTER + INTRA:          40.771
REMARK INTER:                  40.480
REMARK INTRA:                   0.292
REMARK UNBOUND:                -1.316
REMARK SMILES CCCCCCCCCCCCCCCCCCCCCCCCCCCCCC(=O)[O-]
REMARK SMILES IDX 16 1 17 2 18 3 19 4 20 5 21 6 22 7 23 8 24 9 25 10 26 11
REMARK SMILES IDX 27 12 28 13 29 14 30 15 31 16 32 17 15 18 14 19 13 20 12 21
REMARK SMILES IDX 11 22 10 23 9 24 8 25 7 26 6 27 5 28 4 29 3 30 2 31 1 32
REMARK H PARENT
REMARK Flexibility Score: inf
ROOT
ATOM      1  C   UNL     1      15.636  32.013  50.685  1.00  0.00     0.000 C 
ENDROOT
BRANCH   1   2
ATOM      2  C   UNL     1      15.839  33.498  50.334  1.00  0.00     0.000 C 
BRANCH   2   3
ATOM      3  C   UNL     1      14.760  34.038  49.383  1.00  0.00     0.000 C 
BRANCH   3   4
ATOM      4  C   UNL     1      14.971  35.517  49.018  1.00  0.00     0.000 C 
BRANCH   4   5
ATOM      5  C   UNL     1      13.890  36.034  48.053  1.00  0.00     0.000 C 
BRANCH   5   6
ATOM      6  C   UNL     1      13.911  37.566  47.918  1.00  0.00     0.000 C 
BRANCH   6   7
ATOM      7  C   UNL     1      13.084  38.070  46.722  1.00  0.00     0.000 C 
BRANCH   7   8
ATOM      8  C   UNL     1      13.215  39.580  46.432  1.00  0.00     0.000 C 
BRANCH   8   9
ATOM      9  C   UNL     1      14.657  40.125  46.445  1.00  0.00     0.000 C 
BRANCH   9  10
ATOM     10  C   UNL     1      15.748  39.103  46.064  1.00  0.00     0.000 C 
BRANCH  10  11
ATOM     11  C   UNL     1      16.430  38.398  47.251  1.00  0.00     0.000 C 
BRANCH  11  12
ATOM     12  C   UNL     1      17.911  38.783  47.405  1.00  0.00     0.000 C 
BRANCH  12  13
ATOM     13  C   UNL     1      18.721  38.543  46.120  1.00  0.00     0.006 C 
BRANCH  13  14
ATOM     14  C   UNL     1      18.686  37.080  45.653  1.00  0.00     0.053 C 
BRANCH  14  15
ATOM     15  C   UNL     1      19.901  36.339  46.121  1.00  0.00     0.041 C 
ATOM     16  O   UNL     1      20.477  36.670  47.193  1.00  0.00    -0.550 OA
ATOM     17  O   UNL     1      20.377  35.255  45.389  1.00  0.00    -0.550 OA
ENDBRANCH  14  15
ENDBRANCH  13  14
ENDBRANCH  12  13
ENDBRANCH  11  12
ENDBRANCH  10  11
ENDBRANCH   9  10
ENDBRANCH   8   9
ENDBRANCH   7   8
ENDBRANCH   6   7
ENDBRANCH   5   6
ENDBRANCH   4   5
ENDBRANCH   3   4
ENDBRANCH   2   3
ENDBRANCH   1   2
BRANCH   1  18
ATOM     18  C   UNL     1      14.432  31.389  49.950  1.00  0.00     0.000 C 
BRANCH  18  19
ATOM     19  C   UNL     1      13.929  30.075  50.573  1.00  0.00     0.000 C 
BRANCH  19  20
ATOM     20  C   UNL     1      13.505  29.036  49.526  1.00  0.00     0.000 C 
BRANCH  20  21
ATOM     21  C   UNL     1      13.344  27.648  50.161  1.00  0.00     0.000 C 
BRANCH  21  22
ATOM     22  C   UNL     1      13.739  27.670  51.644  1.00  0.00     0.000 C 
BRANCH  22  23
ATOM     23  C   UNL     1      13.760  26.268  52.276  1.00  0.00     0.000 C 
BRANCH  23  24
ATOM     24  C   UNL     1      14.946  25.397  51.808  1.00  0.00    -0.000 C 
BRANCH  24  25
ATOM     25  C   UNL     1      14.554  24.452  50.658  1.00  0.00    -0.000 C 
BRANCH  25  26
ATOM     26  C   UNL     1      15.307  23.106  50.713  1.00  0.00    -0.000 C 
BRANCH  26  27
ATOM     27  C   UNL     1      16.501  23.017  49.744  1.00  0.00    -0.000 C 
BRANCH  27  28
ATOM     28  C   UNL     1      17.624  22.060  50.183  1.00  0.00    -0.000 C 
BRANCH  28  29
ATOM     29  C   UNL     1      17.278  20.582  49.937  1.00  0.00    -0.000 C 
BRANCH  29  30
ATOM     30  C   UNL     1      16.925  19.876  51.255  1.00  0.00    -0.000 C 
BRANCH  30  31
ATOM     31  C   UNL     1      15.495  20.186  51.725  1.00  0.00    -0.003 C 
ATOM     32  C   UNL     1      15.303  19.953  53.224  1.00  0.00     0.004 C 
ENDBRANCH  30  31
ENDBRANCH  29  30
ENDBRANCH  28  29
ENDBRANCH  27  28
ENDBRANCH  26  27
ENDBRANCH  25  26
ENDBRANCH  24  25
ENDBRANCH  23  24
ENDBRANCH  22  23
ENDBRANCH  21  22
ENDBRANCH  20  21
ENDBRANCH  19  20
ENDBRANCH  18  19
ENDBRANCH   1  18
TORSDOF 28
ENDMDL
MODEL 5
REMARK VINA RESULT:    16.221      4.753     13.867
REMARK INTER + INTRA:          41.456
REMARK INTER:                  42.664
REMARK INTRA:                  -1.208
REMARK UNBOUND:                -1.316
REMARK SMILES CCCCCCCCCCCCCCCCCCCCCCCCCCCCCC(=O)[O-]
REMARK SMILES IDX 16 1 17 2 18 3 19 4 20 5 21 6 22 7 23 8 24 9 25 10 26 11
REMARK SMILES IDX 27 12 28 13 29 14 30 15 31 16 32 17 15 18 14 19 13 20 12 21
REMARK SMILES IDX 11 22 10 23 9 24 8 25 7 26 6 27 5 28 4 29 3 30 2 31 1 32
REMARK H PARENT
REMARK Flexibility Score: inf
ROOT
ATOM      1  C   UNL     1      15.189  35.352  48.661  1.00  0.00     0.000 C 
ENDROOT
BRANCH   1   2
ATOM      2  C   UNL     1      15.459  34.547  49.946  1.00  0.00     0.000 C 
BRANCH   2   3
ATOM      3  C   UNL     1      14.912  33.113  49.876  1.00  0.00     0.000 C 
BRANCH   3   4
ATOM      4  C   UNL     1      15.841  32.087  50.547  1.00  0.00     0.000 C 
BRANCH   4   5
ATOM      5  C   UNL     1      15.072  30.851  51.046  1.00  0.00     0.000 C 
BRANCH   5   6
ATOM      6  C   UNL     1      13.819  30.561  50.202  1.00  0.00     0.000 C 
BRANCH   6   7
ATOM      7  C   UNL     1      13.468  29.064  50.151  1.00  0.00     0.000 C 
BRANCH   7   8
ATOM      8  C   UNL     1      13.809  28.272  51.430  1.00  0.00     0.000 C 
BRANCH   8   9
ATOM      9  C   UNL     1      13.640  26.744  51.317  1.00  0.00     0.000 C 
BRANCH   9  10
ATOM     10  C   UNL     1      14.934  25.963  51.003  1.00  0.00     0.000 C 
BRANCH  10  11
ATOM     11  C   UNL     1      14.773  24.433  50.927  1.00  0.00     0.000 C 
BRANCH  11  12
ATOM     12  C   UNL     1      16.062  23.677  51.291  1.00  0.00     0.000 C 
BRANCH  12  13
ATOM     13  C   UNL     1      16.134  22.284  50.645  1.00  0.00     0.006 C 
BRANCH  13  14
ATOM     14  C   UNL     1      17.192  22.192  49.534  1.00  0.00     0.053 C 
BRANCH  14  15
ATOM     15  C   UNL     1      17.762  20.809  49.451  1.00  0.00     0.041 C 
ATOM     16  O   UNL     1      18.443  20.459  48.448  1.00  0.00    -0.550 OA
ATOM     17  O   UNL     1      17.572  19.916  50.501  1.00  0.00    -0.550 OA
ENDBRANCH  14  15
ENDBRANCH  13  14
ENDBRANCH  12  13
ENDBRANCH  11  12
ENDBRANCH  10  11
ENDBRANCH   9  10
ENDBRANCH   8   9
ENDBRANCH   7   8
ENDBRANCH   6   7
ENDBRANCH   5   6
ENDBRANCH   4   5
ENDBRANCH   3   4
ENDBRANCH   2   3
ENDBRANCH   1   2
BRANCH   1  18
ATOM     18  C   UNL     1      13.907  36.204  48.754  1.00  0.00     0.000 C 
BRANCH  18  19
ATOM     19  C   UNL     1      13.336  36.627  47.390  1.00  0.00     0.000 C 
BRANCH  19  20
ATOM     20  C   UNL     1      12.774  38.056  47.390  1.00  0.00     0.000 C 
BRANCH  20  21
ATOM     21  C   UNL     1      13.405  38.896  46.271  1.00  0.00     0.000 C 
BRANCH  21  22
ATOM     22  C   UNL     1      14.266  40.027  46.847  1.00  0.00     0.000 C 
BRANCH  22  23
ATOM     23  C   UNL     1      15.627  39.533  47.369  1.00  0.00     0.000 C 
BRANCH  23  24
ATOM     24  C   UNL     1      16.142  38.267  46.650  1.00  0.00    -0.000 C 
BRANCH  24  25
ATOM     25  C   UNL     1      17.571  38.451  46.105  1.00  0.00    -0.000 C 
BRANCH  25  26
ATOM     26  C   UNL     1      18.573  38.871  47.200  1.00  0.00    -0.000 C 
BRANCH  26  27
ATOM     27  C   UNL     1      19.917  38.119  47.139  1.00  0.00    -0.000 C 
BRANCH  27  28
ATOM     28  C   UNL     1      20.209  37.420  45.800  1.00  0.00    -0.000 C 
BRANCH  28  29
ATOM     29  C   UNL     1      19.654  35.988  45.741  1.00  0.00    -0.000 C 
BRANCH  29  30
ATOM     30  C   UNL     1      20.715  35.009  45.216  1.00  0.00    -0.000 C 
BRANCH  30  31
ATOM     31  C   UNL     1      20.730  34.923  43.682  1.00  0.00    -0.003 C 
ATOM     32  C   UNL     1      21.998  34.264  43.139  1.00  0.00     0.004 C 
ENDBRANCH  30  31
ENDBRANCH  29  30
ENDBRANCH  28  29
ENDBRANCH  27  28
ENDBRANCH  26  27
ENDBRANCH  25  26
ENDBRANCH  24  25
ENDBRANCH  23  24
ENDBRANCH  22  23
ENDBRANCH  21  22
ENDBRANCH  20  21
ENDBRANCH  19  20
ENDBRANCH  18  19
ENDBRANCH   1  18
TORSDOF 28
ENDMDL
MODEL 6
REMARK VINA RESULT:    16.531      1.755      3.807
REMARK INTER + INTRA:          42.273
REMARK INTER:                  43.104
REMARK INTRA:                  -0.831
REMARK UNBOUND:                -1.316
REMARK SMILES CCCCCCCCCCCCCCCCCCCCCCCCCCCCCC(=O)[O-]
REMARK SMILES IDX 16 1 17 2 18 3 19 4 20 5 21 6 22 7 23 8 24 9 25 10 26 11
REMARK SMILES IDX 27 12 28 13 29 14 30 15 31 16 32 17 15 18 14 19 13 20 12 21
REMARK SMILES IDX 11 22 10 23 9 24 8 25 7 26 6 27 5 28 4 29 3 30 2 31 1 32
REMARK H PARENT
REMARK Flexibility Score: inf
ROOT
ATOM      1  C   UNL     1      14.802  32.961  49.609  1.00  0.00     0.000 C 
ENDROOT
BRANCH   1   2
ATOM      2  C   UNL     1      15.118  34.425  49.250  1.00  0.00     0.000 C 
BRANCH   2   3
ATOM      3  C   UNL     1      14.029  35.073  48.381  1.00  0.00     0.000 C 
BRANCH   3   4
ATOM      4  C   UNL     1      14.199  36.596  48.250  1.00  0.00     0.000 C 
BRANCH   4   5
ATOM      5  C   UNL     1      13.000  37.251  47.543  1.00  0.00     0.000 C 
BRANCH   5   6
ATOM      6  C   UNL     1      13.428  38.113  46.343  1.00  0.00     0.000 C 
BRANCH   6   7
ATOM      7  C   UNL     1      13.825  39.544  46.748  1.00  0.00     0.000 C 
BRANCH   7   8
ATOM      8  C   UNL     1      15.214  39.671  47.407  1.00  0.00     0.000 C 
BRANCH   8   9
ATOM      9  C   UNL     1      16.229  38.583  47.005  1.00  0.00     0.000 C 
BRANCH   9  10
ATOM     10  C   UNL     1      17.710  38.952  47.232  1.00  0.00     0.000 C 
BRANCH  10  11
ATOM     11  C   UNL     1      18.687  38.426  46.165  1.00  0.00     0.000 C 
BRANCH  11  12
ATOM     12  C   UNL     1      19.802  37.547  46.756  1.00  0.00     0.000 C 
BRANCH  12  13
ATOM     13  C   UNL     1      19.867  36.155  46.105  1.00  0.00     0.006 C 
BRANCH  13  14
ATOM     14  C   UNL     1      20.517  36.174  44.712  1.00  0.00     0.053 C 
BRANCH  14  15
ATOM     15  C   UNL     1      20.946  34.798  44.303  1.00  0.00     0.041 C 
ATOM     16  O   UNL     1      20.921  33.849  45.132  1.00  0.00    -0.550 OA
ATOM     17  O   UNL     1      21.341  34.557  42.991  1.00  0.00    -0.550 OA
ENDBRANCH  14  15
ENDBRANCH  13  14
ENDBRANCH  12  13
ENDBRANCH  11  12
ENDBRANCH  10  11
ENDBRANCH   9  10
ENDBRANCH   8   9
ENDBRANCH   7   8
ENDBRANCH   6   7
ENDBRANCH   5   6
ENDBRANCH   4   5
ENDBRANCH   3   4
ENDBRANCH   2   3
ENDBRANCH   1   2
BRANCH   1  18
ATOM     18  C   UNL     1      15.775  32.386  50.659  1.00  0.00     0.000 C 
BRANCH  18  19
ATOM     19  C   UNL     1      15.480  30.928  51.053  1.00  0.00     0.000 C 
BRANCH  19  20
ATOM     20  C   UNL     1      14.114  30.434  50.556  1.00  0.00     0.000 C 
BRANCH  20  21
ATOM     21  C   UNL     1      13.391  29.628  51.643  1.00  0.00     0.000 C 
BRANCH  21  22
ATOM     22  C   UNL     1      13.475  28.122  51.362  1.00  0.00     0.000 C 
BRANCH  22  23
ATOM     23  C   UNL     1      13.556  27.800  49.860  1.00  0.00     0.000 C 
BRANCH  23  24
ATOM     24  C   UNL     1      13.657  26.288  49.556  1.00  0.00    -0.000 C 
BRANCH  24  25
ATOM     25  C   UNL     1      14.526  25.546  50.588  1.00  0.00    -0.000 C 
BRANCH  25  26
ATOM     26  C   UNL     1      14.402  24.013  50.473  1.00  0.00    -0.000 C 
BRANCH  26  27
ATOM     27  C   UNL     1      15.733  23.262  50.674  1.00  0.00    -0.000 C 
BRANCH  27  28
ATOM     28  C   UNL     1      15.612  21.911  51.402  1.00  0.00    -0.000 C 
BRANCH  28  29
ATOM     29  C   UNL     1      16.703  20.910  50.987  1.00  0.00    -0.000 C 
BRANCH  29  30
ATOM     30  C   UNL     1      17.515  21.446  49.798  1.00  0.00    -0.000 C 
BRANCH  30  31
ATOM     31  C   UNL     1      18.421  20.375  49.172  1.00  0.00    -0.003 C 
ATOM     32  C   UNL     1      19.821  20.352  49.787  1.00  0.00     0.004 C 
ENDBRANCH  30  31
ENDBRANCH  29  30
ENDBRANCH  28  29
ENDBRANCH  27  28
ENDBRANCH  26  27
ENDBRANCH  25  26
ENDBRANCH  24  25
ENDBRANCH  23  24
ENDBRANCH  22  23
ENDBRANCH  21  22
ENDBRANCH  20  21
ENDBRANCH  19  20
ENDBRANCH  18  19
ENDBRANCH   1  18
TORSDOF 28
ENDMDL
