MODEL 1
REMARK VINA RESULT:    -4.801      0.000      0.000
REMARK INTER + INTRA:         -13.732
REMARK INTER:                 -10.976
REMARK INTRA:                  -2.757
REMARK UNBOUND:                -2.757
REMARK SMILES CCCCCCCCCCCCCCCCCCCCCCCC(=O)[O-]
REMARK SMILES IDX 13 1 14 2 15 3 16 4 17 5 18 6 19 7 20 8 21 9 22 10 23 11
REMARK SMILES IDX 24 12 25 13 26 14 12 15 11 16 10 17 9 18 8 19 7 20 6 21 5 22
REMARK SMILES IDX 4 23 3 24 2 25 1 26
REMARK H PARENT
REMARK Flexibility Score: inf
ROOT
ATOM      1  C   UNL     1     -11.999 -13.083  15.307  1.00  0.00     0.000 C 
ENDROOT
BRANCH   1   2
ATOM      2  C   UNL     1     -11.416 -13.886  14.134  1.00  0.00     0.000 C 
BRANCH   2   3
ATOM      3  C   UNL     1     -10.075 -13.318  13.638  1.00  0.00     0.000 C 
BRANCH   3   4
ATOM      4  C   UNL     1      -9.708 -13.801  12.227  1.00  0.00     0.000 C 
BRANCH   4   5
ATOM      5  C   UNL     1      -8.218 -14.155  12.091  1.00  0.00     0.000 C 
BRANCH   5   6
ATOM      6  C   UNL     1      -7.902 -14.872  10.768  1.00  0.00     0.000 C 
BRANCH   6   7
ATOM      7  C   UNL     1      -9.155 -15.465  10.107  1.00  0.00     0.000 C 
BRANCH   7   8
ATOM      8  C   UNL     1      -8.870 -16.863   9.545  1.00  0.00     0.000 C 
BRANCH   8   9
ATOM      9  C   UNL     1      -9.551 -17.058   8.184  1.00  0.00     0.000 C 
BRANCH   9  10
ATOM     10  C   UNL     1     -10.917 -16.366   8.147  1.00  0.00     0.006 C 
BRANCH  10  11
ATOM     11  C   UNL     1     -12.019 -17.349   7.737  1.00  0.00     0.053 C 
BRANCH  11  12
ATOM     12  C   UNL     1     -13.368 -16.721   7.884  1.00  0.00     0.041 C 
ATOM     13  O   UNL     1     -13.612 -15.614   7.338  1.00  0.00    -0.550 OA
ATOM     14  O   UNL     1     -14.368 -17.377   8.591  1.00  0.00    -0.550 OA
ENDBRANCH  11  12
ENDBRANCH  10  11
ENDBRANCH   9  10
ENDBRANCH   8   9
ENDBRANCH   7   8
ENDBRANCH   6   7
ENDBRANCH   5   6
ENDBRANCH   4   5
ENDBRANCH   3   4
ENDBRANCH   2   3
ENDBRANCH   1   2
BRANCH   1  15
ATOM     15  C   UNL     1     -11.544 -13.620  16.675  1.00  0.00     0.000 C 
BRANCH  15  16
ATOM     16  C   UNL     1     -11.067 -12.506  17.620  1.00  0.00     0.000 C 
BRANCH  16  17
ATOM     17  C   UNL     1      -9.699 -12.812  18.249  1.00  0.00     0.000 C 
BRANCH  17  18
ATOM     18  C   UNL     1      -9.093 -14.095  17.662  1.00  0.00    -0.000 C 
BRANCH  18  19
ATOM     19  C   UNL     1      -7.611 -13.937  17.275  1.00  0.00    -0.000 C 
BRANCH  19  20
ATOM     20  C   UNL     1      -7.334 -13.915  15.761  1.00  0.00    -0.000 C 
BRANCH  20  21
ATOM     21  C   UNL     1      -6.797 -12.560  15.270  1.00  0.00    -0.000 C 
BRANCH  21  22
ATOM     22  C   UNL     1      -7.172 -11.400  16.217  1.00  0.00    -0.000 C 
BRANCH  22  23
ATOM     23  C   UNL     1      -7.829 -10.202  15.506  1.00  0.00    -0.000 C 
BRANCH  23  24
ATOM     24  C   UNL     1      -9.197  -9.779  16.070  1.00  0.00    -0.000 C 
BRANCH  24  25
ATOM     25  C   UNL     1      -9.144  -8.645  17.110  1.00  0.00    -0.003 C 
ATOM     26  C   UNL     1      -9.584  -9.092  18.503  1.00  0.00     0.004 C 
ENDBRANCH  24  25
ENDBRANCH  23  24
ENDBRANCH  22  23
ENDBRANCH  21  22
ENDBRANCH  20  21
ENDBRANCH  19  20
ENDBRANCH  18  19
ENDBRANCH  17  18
ENDBRANCH  16  17
ENDBRANCH  15  16
ENDBRANCH   1  15
TORSDOF 22
ENDMDL
MODEL 2
REMARK VINA RESULT:    -4.546      4.130      7.312
REMARK INTER + INTRA:         -13.149
REMARK INTER:                  -8.724
REMARK INTRA:                  -4.426
REMARK UNBOUND:                -2.757
REMARK SMILES CCCCCCCCCCCCCCCCCCCCCCCC(=O)[O-]
REMARK SMILES IDX 13 1 14 2 15 3 16 4 17 5 18 6 19 7 20 8 21 9 22 10 23 11
REMARK SMILES IDX 24 12 25 13 26 14 12 15 11 16 10 17 9 18 8 19 7 20 6 21 5 22
REMARK SMILES IDX 4 23 3 24 2 25 1 26
REMARK H PARENT
REMARK Flexibility Score: inf
ROOT
ATOM      1  C   UNL     1      -9.000  -9.144  16.305  1.00  0.00     0.000 C 
ENDROOT
BRANCH   1   2
ATOM      2  C   UNL     1      -7.854  -9.517  15.351  1.00  0.00     0.000 C 
BRANCH   2   3
ATOM      3  C   UNL     1      -6.780 -10.385  16.028  1.00  0.00     0.000 C 
BRANCH   3   4
ATOM      4  C   UNL     1      -6.722 -11.811  15.463  1.00  0.00     0.000 C 
BRANCH   4   5
ATOM      5  C   UNL     1      -7.001 -12.883  16.529  1.00  0.00     0.000 C 
BRANCH   5   6
ATOM      6  C   UNL     1      -6.926 -12.324  17.960  1.00  0.00     0.000 C 
BRANCH   6   7
ATOM      7  C   UNL     1      -8.214 -12.578  18.758  1.00  0.00     0.000 C 
BRANCH   7   8
ATOM      8  C   UNL     1      -9.317 -13.141  17.855  1.00  0.00     0.000 C 
BRANCH   8   9
ATOM      9  C   UNL     1     -10.510 -12.178  17.778  1.00  0.00     0.000 C 
BRANCH   9  10
ATOM     10  C   UNL     1     -11.320 -12.405  16.498  1.00  0.00     0.006 C 
BRANCH  10  11
ATOM     11  C   UNL     1     -10.440 -12.242  15.255  1.00  0.00     0.053 C 
BRANCH  11  12
ATOM     12  C   UNL     1     -10.602 -13.411  14.336  1.00  0.00     0.041 C 
ATOM     13  O   UNL     1     -10.125 -13.371  13.172  1.00  0.00    -0.550 OA
ATOM     14  O   UNL     1     -11.247 -14.560  14.779  1.00  0.00    -0.550 OA
ENDBRANCH  11  12
ENDBRANCH  10  11
ENDBRANCH   9  10
ENDBRANCH   8   9
ENDBRANCH   7   8
ENDBRANCH   6   7
ENDBRANCH   5   6
ENDBRANCH   4   5
ENDBRANCH   3   4
ENDBRANCH   2   3
ENDBRANCH   1   2
BRANCH   1  15
ATOM     15  C   UNL     1      -8.526  -8.975  17.759  1.00  0.00     0.000 C 
BRANCH  15  16
ATOM     16  C   UNL     1      -9.489  -8.123  18.600  1.00  0.00     0.000 C 
BRANCH  16  17
ATOM     17  C   UNL     1      -8.975  -6.691  18.814  1.00  0.00     0.000 C 
BRANCH  17  18
ATOM     18  C   UNL     1      -7.476  -6.587  18.499  1.00  0.00    -0.000 C 
BRANCH  18  19
ATOM     19  C   UNL     1      -6.622  -6.259  19.738  1.00  0.00    -0.000 C 
BRANCH  19  20
ATOM     20  C   UNL     1      -7.424  -5.947  21.015  1.00  0.00    -0.000 C 
BRANCH  20  21
ATOM     21  C   UNL     1      -7.263  -7.024  22.102  1.00  0.00    -0.000 C 
BRANCH  21  22
ATOM     22  C   UNL     1      -8.497  -7.945  22.203  1.00  0.00    -0.000 C 
BRANCH  22  23
ATOM     23  C   UNL     1      -8.203  -9.420  21.866  1.00  0.00    -0.000 C 
BRANCH  23  24
ATOM     24  C   UNL     1      -6.976  -9.650  20.965  1.00  0.00    -0.000 C 
BRANCH  24  25
ATOM     25  C   UNL     1      -5.822 -10.421  21.630  1.00  0.00    -0.003 C 
ATOM     26  C   UNL     1      -5.758 -10.215  23.142  1.00  0.00     0.004 C 
ENDBRANCH  24  25
ENDBRANCH  23  24
ENDBRANCH  22  23
ENDBRANCH  21  22
ENDBRANCH  20  21
ENDBRANCH  19  20
ENDBRANCH  18  19
ENDBRANCH  17  18
ENDBRANCH  16  17
ENDBRANCH  15  16
ENDBRANCH   1  15
TORSDOF 22
ENDMDL
MODEL 3
REMARK VINA RESULT:    -4.508      4.169      8.943
REMARK INTER + INTRA:         -13.062
REMARK INTER:                 -10.330
REMARK INTRA:                  -2.732
REMARK UNBOUND:                -2.757
REMARK SMILES CCCCCCCCCCCCCCCCCCCCCCCC(=O)[O-]
REMARK SMILES IDX 13 1 14 2 15 3 16 4 17 5 18 6 19 7 20 8 21 9 22 10 23 11
REMARK SMILES IDX 24 12 25 13 26 14 12 15 11 16 10 17 9 18 8 19 7 20 6 21 5 22
REMARK SMILES IDX 4 23 3 24 2 25 1 26
REMARK H PARENT
REMARK Flexibility Score: inf
ROOT
ATOM      1  C   UNL     1     -11.612 -13.880  16.985  1.00  0.00     0.000 C 
ENDROOT
BRANCH   1   2
ATOM      2  C   UNL     1     -10.536 -12.943  17.555  1.00  0.00     0.000 C 
BRANCH   2   3
ATOM      3  C   UNL     1      -9.391 -13.708  18.242  1.00  0.00     0.000 C 
BRANCH   3   4
ATOM      4  C   UNL     1      -8.003 -13.184  17.847  1.00  0.00     0.000 C 
BRANCH   4   5
ATOM      5  C   UNL     1      -7.494 -13.790  16.528  1.00  0.00     0.000 C 
BRANCH   5   6
ATOM      6  C   UNL     1      -6.895 -12.732  15.587  1.00  0.00     0.000 C 
BRANCH   6   7
ATOM      7  C   UNL     1      -6.396 -11.490  16.341  1.00  0.00     0.000 C 
BRANCH   7   8
ATOM      8  C   UNL     1      -6.973 -10.208  15.729  1.00  0.00     0.000 C 
BRANCH   8   9
ATOM      9  C   UNL     1      -8.483 -10.344  15.490  1.00  0.00     0.000 C 
BRANCH   9  10
ATOM     10  C   UNL     1      -9.262  -9.276  16.266  1.00  0.00     0.006 C 
BRANCH  10  11
ATOM     11  C   UNL     1      -9.497  -9.714  17.715  1.00  0.00     0.053 C 
BRANCH  11  12
ATOM     12  C   UNL     1      -8.882  -8.739  18.667  1.00  0.00     0.041 C 
ATOM     13  O   UNL     1      -8.354  -9.144  19.735  1.00  0.00    -0.550 OA
ATOM     14  O   UNL     1      -8.857  -7.384  18.357  1.00  0.00    -0.550 OA
ENDBRANCH  11  12
ENDBRANCH  10  11
ENDBRANCH   9  10
ENDBRANCH   8   9
ENDBRANCH   7   8
ENDBRANCH   6   7
ENDBRANCH   5   6
ENDBRANCH   4   5
ENDBRANCH   3   4
ENDBRANCH   2   3
ENDBRANCH   1   2
BRANCH   1  15
ATOM     15  C   UNL     1     -11.148 -14.605  15.709  1.00  0.00     0.000 C 
BRANCH  15  16
ATOM     16  C   UNL     1     -11.492 -13.829  14.428  1.00  0.00     0.000 C 
BRANCH  16  17
ATOM     17  C   UNL     1     -10.284 -13.074  13.854  1.00  0.00     0.000 C 
BRANCH  17  18
ATOM     18  C   UNL     1      -9.277 -14.042  13.216  1.00  0.00    -0.000 C 
BRANCH  18  19
ATOM     19  C   UNL     1      -9.372 -14.082  11.680  1.00  0.00    -0.000 C 
BRANCH  19  20
ATOM     20  C   UNL     1      -8.066 -14.461  10.958  1.00  0.00    -0.000 C 
BRANCH  20  21
ATOM     21  C   UNL     1      -8.157 -15.810  10.224  1.00  0.00    -0.000 C 
BRANCH  21  22
ATOM     22  C   UNL     1      -9.601 -16.150   9.795  1.00  0.00    -0.000 C 
BRANCH  22  23
ATOM     23  C   UNL     1      -9.686 -16.970   8.494  1.00  0.00    -0.000 C 
BRANCH  23  24
ATOM     24  C   UNL     1     -10.914 -16.672   7.615  1.00  0.00    -0.000 C 
BRANCH  24  25
ATOM     25  C   UNL     1     -12.227 -16.457   8.389  1.00  0.00    -0.003 C 
ATOM     26  C   UNL     1     -13.453 -16.398   7.480  1.00  0.00     0.004 C 
ENDBRANCH  24  25
ENDBRANCH  23  24
ENDBRANCH  22  23
ENDBRANCH  21  22
ENDBRANCH  20  21
ENDBRANCH  19  20
ENDBRANCH  18  19
ENDBRANCH  17  18
ENDBRANCH  16  17
ENDBRANCH  15  16
ENDBRANCH   1  15
TORSDOF 22
ENDMDL
MODEL 4
REMARK VINA RESULT:    -4.497      5.857      9.512
REMARK INTER + INTRA:         -13.038
REMARK INTER:                  -8.601
REMARK INTRA:                  -4.437
REMARK UNBOUND:                -2.757
REMARK SMILES CCCCCCCCCCCCCCCCCCCCCCCC(=O)[O-]
REMARK SMILES IDX 13 1 14 2 15 3 16 4 17 5 18 6 19 7 20 8 21 9 22 10 23 11
REMARK SMILES IDX 24 12 25 13 26 14 12 15 11 16 10 17 9 18 8 19 7 20 6 21 5 22
REMARK SMILES IDX 4 23 3 24 2 25 1 26
REMARK H PARENT
REMARK Flexibility Score: inf
ROOT
ATOM      1  C   UNL     1      -9.861 -10.716  17.225  1.00  0.00     0.000 C 
ENDROOT
BRANCH   1   2
ATOM      2  C   UNL     1      -9.448 -10.213  15.833  1.00  0.00     0.000 C 
BRANCH   2   3
ATOM      3  C   UNL     1      -8.643  -8.903  15.892  1.00  0.00     0.000 C 
BRANCH   3   4
ATOM      4  C   UNL     1      -7.300  -8.996  15.154  1.00  0.00     0.000 C 
BRANCH   4   5
ATOM      5  C   UNL     1      -7.045  -7.791  14.233  1.00  0.00     0.000 C 
BRANCH   5   6
ATOM      6  C   UNL     1      -7.239  -6.447  14.956  1.00  0.00     0.000 C 
BRANCH   6   7
ATOM      7  C   UNL     1      -5.925  -5.887  15.519  1.00  0.00     0.000 C 
BRANCH   7   8
ATOM      8  C   UNL     1      -6.166  -5.143  16.838  1.00  0.00     0.000 C 
BRANCH   8   9
ATOM      9  C   UNL     1      -5.634  -5.950  18.030  1.00  0.00     0.000 C 
BRANCH   9  10
ATOM     10  C   UNL     1      -6.564  -7.122  18.362  1.00  0.00     0.006 C 
BRANCH  10  11
ATOM     11  C   UNL     1      -7.726  -6.665  19.250  1.00  0.00     0.053 C 
BRANCH  11  12
ATOM     12  C   UNL     1      -7.704  -7.386  20.560  1.00  0.00     0.041 C 
ATOM     13  O   UNL     1      -8.757  -7.494  21.240  1.00  0.00    -0.550 OA
ATOM     14  O   UNL     1      -6.528  -7.973  21.012  1.00  0.00    -0.550 OA
ENDBRANCH  11  12
ENDBRANCH  10  11
ENDBRANCH   9  10
ENDBRANCH   8   9
ENDBRANCH   7   8
ENDBRANCH   6   7
ENDBRANCH   5   6
ENDBRANCH   4   5
ENDBRANCH   3   4
ENDBRANCH   2   3
ENDBRANCH   1   2
BRANCH   1  15
ATOM     15  C   UNL     1      -9.145  -9.963  18.360  1.00  0.00     0.000 C 
BRANCH  15  16
ATOM     16  C   UNL     1      -8.133 -10.844  19.109  1.00  0.00     0.000 C 
BRANCH  16  17
ATOM     17  C   UNL     1      -6.709 -10.713  18.549  1.00  0.00     0.000 C 
BRANCH  17  18
ATOM     18  C   UNL     1      -6.178 -12.069  18.059  1.00  0.00    -0.000 C 
BRANCH  18  19
ATOM     19  C   UNL     1      -6.482 -12.332  16.573  1.00  0.00    -0.000 C 
BRANCH  19  20
ATOM     20  C   UNL     1      -7.482 -13.471  16.305  1.00  0.00    -0.000 C 
BRANCH  20  21
ATOM     21  C   UNL     1      -7.855 -14.253  17.577  1.00  0.00    -0.000 C 
BRANCH  21  22
ATOM     22  C   UNL     1      -9.379 -14.281  17.823  1.00  0.00    -0.000 C 
BRANCH  22  23
ATOM     23  C   UNL     1     -10.204 -14.655  16.576  1.00  0.00    -0.000 C 
BRANCH  23  24
ATOM     24  C   UNL     1     -11.573 -13.960  16.468  1.00  0.00    -0.000 C 
BRANCH  24  25
ATOM     25  C   UNL     1     -11.821 -13.226  15.137  1.00  0.00    -0.003 C 
ATOM     26  C   UNL     1     -10.706 -13.447  14.117  1.00  0.00     0.004 C 
ENDBRANCH  24  25
ENDBRANCH  23  24
ENDBRANCH  22  23
ENDBRANCH  21  22
ENDBRANCH  20  21
ENDBRANCH  19  20
ENDBRANCH  18  19
ENDBRANCH  17  18
ENDBRANCH  16  17
ENDBRANCH  15  16
ENDBRANCH   1  15
TORSDOF 22
ENDMDL
MODEL 5
REMARK VINA RESULT:    -4.462      4.287      7.079
REMARK INTER + INTRA:         -12.957
REMARK INTER:                  -9.442
REMARK INTRA:                  -3.515
REMARK UNBOUND:                -2.757
REMARK SMILES CCCCCCCCCCCCCCCCCCCCCCCC(=O)[O-]
REMARK SMILES IDX 13 1 14 2 15 3 16 4 17 5 18 6 19 7 20 8 21 9 22 10 23 11
REMARK SMILES IDX 24 12 25 13 26 14 12 15 11 16 10 17 9 18 8 19 7 20 6 21 5 22
REMARK SMILES IDX 4 23 3 24 2 25 1 26
REMARK H PARENT
REMARK Flexibility Score: inf
ROOT
ATOM      1  C   UNL     1      -7.005  -9.253  21.905  1.00  0.00     0.000 C 
ENDROOT
BRANCH   1   2
ATOM      2  C   UNL     1      -6.451 -10.489  21.179  1.00  0.00     0.000 C 
BRANCH   2   3
ATOM      3  C   UNL     1      -5.890 -10.154  19.786  1.00  0.00     0.000 C 
BRANCH   3   4
ATOM      4  C   UNL     1      -6.598 -10.918  18.658  1.00  0.00     0.000 C 
BRANCH   4   5
ATOM      5  C   UNL     1      -7.939 -11.525  19.105  1.00  0.00     0.000 C 
BRANCH   5   6
ATOM      6  C   UNL     1      -8.763 -12.064  17.924  1.00  0.00     0.000 C 
BRANCH   6   7
ATOM      7  C   UNL     1      -8.249 -13.420  17.419  1.00  0.00     0.000 C 
BRANCH   7   8
ATOM      8  C   UNL     1      -9.272 -14.530  17.687  1.00  0.00     0.000 C 
BRANCH   8   9
ATOM      9  C   UNL     1     -10.040 -14.891  16.409  1.00  0.00     0.000 C 
BRANCH   9  10
ATOM     10  C   UNL     1     -11.402 -14.190  16.368  1.00  0.00     0.006 C 
BRANCH  10  11
ATOM     11  C   UNL     1     -11.779 -13.808  14.933  1.00  0.00     0.053 C 
BRANCH  11  12
ATOM     12  C   UNL     1     -10.699 -12.986  14.305  1.00  0.00     0.041 C 
ATOM     13  O   UNL     1     -10.363 -11.887  14.817  1.00  0.00    -0.550 OA
ATOM     14  O   UNL     1     -10.037 -13.451  13.175  1.00  0.00    -0.550 OA
ENDBRANCH  11  12
ENDBRANCH  10  11
ENDBRANCH   9  10
ENDBRANCH   8   9
ENDBRANCH   7   8
ENDBRANCH   6   7
ENDBRANCH   5   6
ENDBRANCH   4   5
ENDBRANCH   3   4
ENDBRANCH   2   3
ENDBRANCH   1   2
BRANCH   1  15
ATOM     15  C   UNL     1      -8.459  -8.938  21.510  1.00  0.00     0.000 C 
BRANCH  15  16
ATOM     16  C   UNL     1      -8.657  -7.470  21.100  1.00  0.00     0.000 C 
BRANCH  16  17
ATOM     17  C   UNL     1      -8.109  -7.172  19.696  1.00  0.00     0.000 C 
BRANCH  17  18
ATOM     18  C   UNL     1      -8.895  -7.935  18.620  1.00  0.00    -0.000 C 
BRANCH  18  19
ATOM     19  C   UNL     1      -8.294  -7.778  17.212  1.00  0.00    -0.000 C 
BRANCH  19  20
ATOM     20  C   UNL     1      -8.760  -8.826  16.185  1.00  0.00    -0.000 C 
BRANCH  20  21
ATOM     21  C   UNL     1      -7.675  -9.182  15.156  1.00  0.00    -0.000 C 
BRANCH  21  22
ATOM     22  C   UNL     1      -6.249  -8.932  15.694  1.00  0.00    -0.000 C 
BRANCH  22  23
ATOM     23  C   UNL     1      -5.376  -8.065  14.767  1.00  0.00    -0.000 C 
BRANCH  23  24
ATOM     24  C   UNL     1      -6.097  -7.510  13.525  1.00  0.00    -0.000 C 
BRANCH  24  25
ATOM     25  C   UNL     1      -6.493  -6.026  13.617  1.00  0.00    -0.003 C 
ATOM     26  C   UNL     1      -8.003  -5.806  13.550  1.00  0.00     0.004 C 
ENDBRANCH  24  25
ENDBRANCH  23  24
ENDBRANCH  22  23
ENDBRANCH  21  22
ENDBRANCH  20  21
ENDBRANCH  19  20
ENDBRANCH  18  19
ENDBRANCH  17  18
ENDBRANCH  16  17
ENDBRANCH  15  16
ENDBRANCH   1  15
TORSDOF 22
ENDMDL
MODEL 6
REMARK VINA RESULT:    -4.461      4.177      6.349
REMARK INTER + INTRA:         -12.955
REMARK INTER:                  -8.329
REMARK INTRA:                  -4.626
REMARK UNBOUND:                -2.757
REMARK SMILES CCCCCCCCCCCCCCCCCCCCCCCC(=O)[O-]
REMARK SMILES IDX 13 1 14 2 15 3 16 4 17 5 18 6 19 7 20 8 21 9 22 10 23 11
REMARK SMILES IDX 24 12 25 13 26 14 12 15 11 16 10 17 9 18 8 19 7 20 6 21 5 22
REMARK SMILES IDX 4 23 3 24 2 25 1 26
REMARK H PARENT
REMARK Flexibility Score: inf
ROOT
ATOM      1  C   UNL     1      -8.906 -10.935  18.310  1.00  0.00     0.000 C 
ENDROOT
BRANCH   1   2
ATOM      2  C   UNL     1      -7.795 -11.027  19.367  1.00  0.00     0.000 C 
BRANCH   2   3
ATOM      3  C   UNL     1      -6.426 -11.375  18.757  1.00  0.00     0.000 C 
BRANCH   3   4
ATOM      4  C   UNL     1      -6.499 -12.537  17.755  1.00  0.00     0.000 C 
BRANCH   4   5
ATOM      5  C   UNL     1      -5.661 -12.284  16.491  1.00  0.00     0.000 C 
BRANCH   5   6
ATOM      6  C   UNL     1      -6.473 -12.471  15.199  1.00  0.00     0.000 C 
BRANCH   6   7
ATOM      7  C   UNL     1      -7.905 -12.956  15.469  1.00  0.00     0.000 C 
BRANCH   7   8
ATOM      8  C   UNL     1      -8.389 -13.888  14.353  1.00  0.00     0.000 C 
BRANCH   8   9
ATOM      9  C   UNL     1      -9.718 -13.397  13.764  1.00  0.00     0.000 C 
BRANCH   9  10
ATOM     10  C   UNL     1     -10.395 -12.387  14.696  1.00  0.00     0.006 C 
BRANCH  10  11
ATOM     11  C   UNL     1     -11.783 -12.876  15.119  1.00  0.00     0.053 C 
BRANCH  11  12
ATOM     12  C   UNL     1     -11.689 -13.745  16.333  1.00  0.00     0.041 C 
ATOM     13  O   UNL     1     -11.708 -13.231  17.482  1.00  0.00    -0.550 OA
ATOM     14  O   UNL     1     -11.619 -15.126  16.196  1.00  0.00    -0.550 OA
ENDBRANCH  11  12
ENDBRANCH  10  11
ENDBRANCH   9  10
ENDBRANCH   8   9
ENDBRANCH   7   8
ENDBRANCH   6   7
ENDBRANCH   5   6
ENDBRANCH   4   5
ENDBRANCH   3   4
ENDBRANCH   2   3
ENDBRANCH   1   2
BRANCH   1  15
ATOM     15  C   UNL     1      -9.593  -9.558  18.294  1.00  0.00     0.000 C 
BRANCH  15  16
ATOM     16  C   UNL     1      -9.038  -8.632  17.200  1.00  0.00     0.000 C 
BRANCH  16  17
ATOM     17  C   UNL     1      -8.815  -9.362  15.867  1.00  0.00     0.000 C 
BRANCH  17  18
ATOM     18  C   UNL     1      -7.471  -8.967  15.237  1.00  0.00    -0.000 C 
BRANCH  18  19
ATOM     19  C   UNL     1      -6.650  -8.013  16.122  1.00  0.00    -0.000 C 
BRANCH  19  20
ATOM     20  C   UNL     1      -5.304  -8.578  16.613  1.00  0.00    -0.000 C 
BRANCH  20  21
ATOM     21  C   UNL     1      -4.912  -8.066  18.009  1.00  0.00    -0.000 C 
BRANCH  21  22
ATOM     22  C   UNL     1      -6.133  -7.586  18.824  1.00  0.00    -0.000 C 
BRANCH  22  23
ATOM     23  C   UNL     1      -5.848  -7.412  20.328  1.00  0.00    -0.000 C 
BRANCH  23  24
ATOM     24  C   UNL     1      -6.790  -8.191  21.264  1.00  0.00    -0.000 C 
BRANCH  24  25
ATOM     25  C   UNL     1      -8.263  -7.747  21.214  1.00  0.00    -0.003 C 
ATOM     26  C   UNL     1      -9.194  -8.679  21.988  1.00  0.00     0.004 C 
ENDBRANCH  24  25
ENDBRANCH  23  24
ENDBRANCH  22  23
ENDBRANCH  21  22
ENDBRANCH  20  21
ENDBRANCH  19  20
ENDBRANCH  18  19
ENDBRANCH  17  18
ENDBRANCH  16  17
ENDBRANCH  15  16
ENDBRANCH   1  15
TORSDOF 22
ENDMDL
MODEL 7
REMARK VINA RESULT:    -4.422      4.670      6.820
REMARK INTER + INTRA:         -12.866
REMARK INTER:                  -8.485
REMARK INTRA:                  -4.381
REMARK UNBOUND:                -2.757
REMARK SMILES CCCCCCCCCCCCCCCCCCCCCCCC(=O)[O-]
REMARK SMILES IDX 13 1 14 2 15 3 16 4 17 5 18 6 19 7 20 8 21 9 22 10 23 11
REMARK SMILES IDX 24 12 25 13 26 14 12 15 11 16 10 17 9 18 8 19 7 20 6 21 5 22
REMARK SMILES IDX 4 23 3 24 2 25 1 26
REMARK H PARENT
REMARK Flexibility Score: inf
ROOT
ATOM      1  C   UNL     1      -6.882 -10.295  20.622  1.00  0.00     0.000 C 
ENDROOT
BRANCH   1   2
ATOM      2  C   UNL     1      -5.640 -10.671  19.800  1.00  0.00     0.000 C 
BRANCH   2   3
ATOM      3  C   UNL     1      -5.739 -10.211  18.336  1.00  0.00     0.000 C 
BRANCH   3   4
ATOM      4  C   UNL     1      -5.705 -11.379  17.340  1.00  0.00     0.000 C 
BRANCH   4   5
ATOM      5  C   UNL     1      -5.135 -12.667  17.956  1.00  0.00     0.000 C 
BRANCH   5   6
ATOM      6  C   UNL     1      -6.071 -13.873  17.771  1.00  0.00     0.000 C 
BRANCH   6   7
ATOM      7  C   UNL     1      -7.554 -13.472  17.773  1.00  0.00     0.000 C 
BRANCH   7   8
ATOM      8  C   UNL     1      -8.295 -14.101  16.588  1.00  0.00     0.000 C 
BRANCH   8   9
ATOM      9  C   UNL     1      -8.670 -13.039  15.547  1.00  0.00     0.000 C 
BRANCH   9  10
ATOM     10  C   UNL     1     -10.006 -13.371  14.875  1.00  0.00     0.006 C 
BRANCH  10  11
ATOM     11  C   UNL     1     -11.145 -12.546  15.480  1.00  0.00     0.053 C 
BRANCH  11  12
ATOM     12  C   UNL     1     -11.645 -13.181  16.739  1.00  0.00     0.041 C 
ATOM     13  O   UNL     1     -12.011 -14.385  16.738  1.00  0.00    -0.550 OA
ATOM     14  O   UNL     1     -11.670 -12.454  17.923  1.00  0.00    -0.550 OA
ENDBRANCH  11  12
ENDBRANCH  10  11
ENDBRANCH   9  10
ENDBRANCH   8   9
ENDBRANCH   7   8
ENDBRANCH   6   7
ENDBRANCH   5   6
ENDBRANCH   4   5
ENDBRANCH   3   4
ENDBRANCH   2   3
ENDBRANCH   1   2
BRANCH   1  15
ATOM     15  C   UNL     1      -8.187 -10.439  19.820  1.00  0.00     0.000 C 
BRANCH  15  16
ATOM     16  C   UNL     1      -9.057  -9.172  19.871  1.00  0.00     0.000 C 
BRANCH  16  17
ATOM     17  C   UNL     1      -9.773  -8.895  18.541  1.00  0.00     0.000 C 
BRANCH  17  18
ATOM     18  C   UNL     1      -9.339  -9.894  17.458  1.00  0.00    -0.000 C 
BRANCH  18  19
ATOM     19  C   UNL     1      -9.205  -9.251  16.066  1.00  0.00    -0.000 C 
BRANCH  19  20
ATOM     20  C   UNL     1      -7.959  -9.679  15.270  1.00  0.00    -0.000 C 
BRANCH  20  21
ATOM     21  C   UNL     1      -6.931  -8.546  15.108  1.00  0.00    -0.000 C 
BRANCH  21  22
ATOM     22  C   UNL     1      -7.560  -7.150  15.305  1.00  0.00    -0.000 C 
BRANCH  22  23
ATOM     23  C   UNL     1      -6.870  -6.303  16.391  1.00  0.00    -0.000 C 
BRANCH  23  24
ATOM     24  C   UNL     1      -7.506  -6.393  17.790  1.00  0.00    -0.000 C 
BRANCH  24  25
ATOM     25  C   UNL     1      -6.668  -5.772  18.922  1.00  0.00    -0.003 C 
ATOM     26  C   UNL     1      -6.157  -6.807  19.923  1.00  0.00     0.004 C 
ENDBRANCH  24  25
ENDBRANCH  23  24
ENDBRANCH  22  23
ENDBRANCH  21  22
ENDBRANCH  20  21
ENDBRANCH  19  20
ENDBRANCH  18  19
ENDBRANCH  17  18
ENDBRANCH  16  17
ENDBRANCH  15  16
ENDBRANCH   1  15
TORSDOF 22
ENDMDL
MODEL 8
REMARK VINA RESULT:    -4.391     10.965     14.233
REMARK INTER + INTRA:         -12.794
REMARK INTER:                  -8.230
REMARK INTRA:                  -4.564
REMARK UNBOUND:                -2.757
REMARK SMILES CCCCCCCCCCCCCCCCCCCCCCCC(=O)[O-]
REMARK SMILES IDX 13 1 14 2 15 3 16 4 17 5 18 6 19 7 20 8 21 9 22 10 23 11
REMARK SMILES IDX 24 12 25 13 26 14 12 15 11 16 10 17 9 18 8 19 7 20 6 21 5 22
REMARK SMILES IDX 4 23 3 24 2 25 1 26
REMARK H PARENT
REMARK Flexibility Score: inf
ROOT
ATOM      1  C   UNL     1     -22.209 -18.422  16.399  1.00  0.00     0.000 C 
ENDROOT
BRANCH   1   2
ATOM      2  C   UNL     1     -20.694 -18.590  16.591  1.00  0.00     0.000 C 
BRANCH   2   3
ATOM      3  C   UNL     1     -20.271 -20.066  16.696  1.00  0.00     0.000 C 
BRANCH   3   4
ATOM      4  C   UNL     1     -19.747 -20.438  18.090  1.00  0.00     0.000 C 
BRANCH   4   5
ATOM      5  C   UNL     1     -19.309 -19.210  18.906  1.00  0.00     0.000 C 
BRANCH   5   6
ATOM      6  C   UNL     1     -17.806 -19.224  19.229  1.00  0.00     0.000 C 
BRANCH   6   7
ATOM      7  C   UNL     1     -17.086 -17.964  18.727  1.00  0.00     0.000 C 
BRANCH   7   8
ATOM      8  C   UNL     1     -17.106 -17.892  17.196  1.00  0.00     0.000 C 
BRANCH   8   9
ATOM      9  C   UNL     1     -16.146 -18.920  16.584  1.00  0.00     0.000 C 
BRANCH   9  10
ATOM     10  C   UNL     1     -16.794 -19.641  15.397  1.00  0.00     0.006 C 
BRANCH  10  11
ATOM     11  C   UNL     1     -16.862 -21.152  15.644  1.00  0.00     0.053 C 
BRANCH  11  12
ATOM     12  C   UNL     1     -15.565 -21.804  15.285  1.00  0.00     0.041 C 
ATOM     13  O   UNL     1     -15.233 -22.891  15.825  1.00  0.00    -0.550 OA
ATOM     14  O   UNL     1     -14.740 -21.230  14.325  1.00  0.00    -0.550 OA
ENDBRANCH  11  12
ENDBRANCH  10  11
ENDBRANCH   9  10
ENDBRANCH   8   9
ENDBRANCH   7   8
ENDBRANCH   6   7
ENDBRANCH   5   6
ENDBRANCH   4   5
ENDBRANCH   3   4
ENDBRANCH   2   3
ENDBRANCH   1   2
BRANCH   1  15
ATOM     15  C   UNL     1     -22.797 -17.309  17.284  1.00  0.00     0.000 C 
BRANCH  15  16
ATOM     16  C   UNL     1     -23.607 -17.859  18.468  1.00  0.00     0.000 C 
BRANCH  16  17
ATOM     17  C   UNL     1     -22.721 -18.226  19.668  1.00  0.00     0.000 C 
BRANCH  17  18
ATOM     18  C   UNL     1     -22.829 -19.722  20.000  1.00  0.00    -0.000 C 
BRANCH  18  19
ATOM     19  C   UNL     1     -23.909 -20.445  19.174  1.00  0.00    -0.000 C 
BRANCH  19  20
ATOM     20  C   UNL     1     -23.379 -21.530  18.220  1.00  0.00    -0.000 C 
BRANCH  20  21
ATOM     21  C   UNL     1     -24.056 -21.498  16.839  1.00  0.00    -0.000 C 
BRANCH  21  22
ATOM     22  C   UNL     1     -23.172 -22.121  15.736  1.00  0.00    -0.000 C 
BRANCH  22  23
ATOM     23  C   UNL     1     -23.485 -21.602  14.320  1.00  0.00    -0.000 C 
BRANCH  23  24
ATOM     24  C   UNL     1     -22.370 -20.761  13.673  1.00  0.00    -0.000 C 
BRANCH  24  25
ATOM     25  C   UNL     1     -21.407 -21.552  12.768  1.00  0.00    -0.003 C 
ATOM     26  C   UNL     1     -20.077 -21.871  13.448  1.00  0.00     0.004 C 
ENDBRANCH  24  25
ENDBRANCH  23  24
ENDBRANCH  22  23
ENDBRANCH  21  22
ENDBRANCH  20  21
ENDBRANCH  19  20
ENDBRANCH  18  19
ENDBRANCH  17  18
ENDBRANCH  16  17
ENDBRANCH  15  16
ENDBRANCH   1  15
TORSDOF 22
ENDMDL
MODEL 9
REMARK VINA RESULT:    -4.365      4.991      7.110
REMARK INTER + INTRA:         -12.735
REMARK INTER:                  -8.055
REMARK INTRA:                  -4.680
REMARK UNBOUND:                -2.757
REMARK SMILES CCCCCCCCCCCCCCCCCCCCCCCC(=O)[O-]
REMARK SMILES IDX 13 1 14 2 15 3 16 4 17 5 18 6 19 7 20 8 21 9 22 10 23 11
REMARK SMILES IDX 24 12 25 13 26 14 12 15 11 16 10 17 9 18 8 19 7 20 6 21 5 22
REMARK SMILES IDX 4 23 3 24 2 25 1 26
REMARK H PARENT
REMARK Flexibility Score: inf
ROOT
ATOM      1  C   UNL     1      -9.255  -8.217  17.796  1.00  0.00     0.000 C 
ENDROOT
BRANCH   1   2
ATOM      2  C   UNL     1      -8.629  -8.546  16.432  1.00  0.00     0.000 C 
BRANCH   2   3
ATOM      3  C   UNL     1      -8.045  -9.969  16.377  1.00  0.00     0.000 C 
BRANCH   3   4
ATOM      4  C   UNL     1      -6.533 -10.003  16.644  1.00  0.00     0.000 C 
BRANCH   4   5
ATOM      5  C   UNL     1      -6.013 -11.423  16.922  1.00  0.00     0.000 C 
BRANCH   5   6
ATOM      6  C   UNL     1      -6.225 -11.852  18.384  1.00  0.00     0.000 C 
BRANCH   6   7
ATOM      7  C   UNL     1      -7.428 -12.791  18.552  1.00  0.00     0.000 C 
BRANCH   7   8
ATOM      8  C   UNL     1      -7.405 -13.907  17.501  1.00  0.00     0.000 C 
BRANCH   8   9
ATOM      9  C   UNL     1      -8.773 -14.050  16.821  1.00  0.00     0.000 C 
BRANCH   9  10
ATOM     10  C   UNL     1      -9.807 -13.118  17.460  1.00  0.00     0.006 C 
BRANCH  10  11
ATOM     11  C   UNL     1     -10.714 -12.492  16.396  1.00  0.00     0.053 C 
BRANCH  11  12
ATOM     12  C   UNL     1     -11.792 -13.447  15.993  1.00  0.00     0.041 C 
ATOM     13  O   UNL     1     -12.164 -14.351  16.785  1.00  0.00    -0.550 OA
ATOM     14  O   UNL     1     -12.411 -13.315  14.756  1.00  0.00    -0.550 OA
ENDBRANCH  11  12
ENDBRANCH  10  11
ENDBRANCH   9  10
ENDBRANCH   8   9
ENDBRANCH   7   8
ENDBRANCH   6   7
ENDBRANCH   5   6
ENDBRANCH   4   5
ENDBRANCH   3   4
ENDBRANCH   2   3
ENDBRANCH   1   2
BRANCH   1  15
ATOM     15  C   UNL     1      -9.647  -9.478  18.585  1.00  0.00     0.000 C 
BRANCH  15  16
ATOM     16  C   UNL     1      -9.260  -9.392  20.070  1.00  0.00     0.000 C 
BRANCH  16  17
ATOM     17  C   UNL     1      -8.126  -8.387  20.326  1.00  0.00     0.000 C 
BRANCH  17  18
ATOM     18  C   UNL     1      -6.771  -9.100  20.449  1.00  0.00    -0.000 C 
BRANCH  18  19
ATOM     19  C   UNL     1      -5.609  -8.289  19.846  1.00  0.00    -0.000 C 
BRANCH  19  20
ATOM     20  C   UNL     1      -6.004  -6.917  19.270  1.00  0.00    -0.000 C 
BRANCH  20  21
ATOM     21  C   UNL     1      -5.513  -6.708  17.828  1.00  0.00    -0.000 C 
BRANCH  21  22
ATOM     22  C   UNL     1      -6.352  -5.657  17.068  1.00  0.00    -0.000 C 
BRANCH  22  23
ATOM     23  C   UNL     1      -5.973  -5.515  15.581  1.00  0.00    -0.000 C 
BRANCH  23  24
ATOM     24  C   UNL     1      -5.713  -6.841  14.845  1.00  0.00    -0.000 C 
BRANCH  24  25
ATOM     25  C   UNL     1      -6.671  -7.130  13.675  1.00  0.00    -0.003 C 
ATOM     26  C   UNL     1      -7.830  -6.138  13.595  1.00  0.00     0.004 C 
ENDBRANCH  24  25
ENDBRANCH  23  24
ENDBRANCH  22  23
ENDBRANCH  21  22
ENDBRANCH  20  21
ENDBRANCH  19  20
ENDBRANCH  18  19
ENDBRANCH  17  18
ENDBRANCH  16  17
ENDBRANCH  15  16
ENDBRANCH   1  15
TORSDOF 22
ENDMDL
