MODEL 1
REMARK VINA RESULT:    -0.938      0.000      0.000
REMARK INTER + INTRA:          -2.860
REMARK INTER:                  -1.706
REMARK INTRA:                  -1.153
REMARK UNBOUND:                -1.153
REMARK SMILES CCCCCCCCCCCCCCCC(=O)[O-]
REMARK SMILES IDX 9 1 10 2 11 3 12 4 13 5 14 6 15 7 16 8 17 9 18 10 8 11 7 12
REMARK SMILES IDX 6 13 5 14 4 15 3 16 2 17 1 18
REMARK H PARENT
REMARK Flexibility Score: inf
ROOT
ATOM      1  C   UNL     1      32.038  22.816  29.089  1.00  0.00     0.000 C 
ENDROOT
BRANCH   1   2
ATOM      2  C   UNL     1      30.757  23.145  29.872  1.00  0.00     0.000 C 
BRANCH   2   3
ATOM      3  C   UNL     1      30.035  24.388  29.333  1.00  0.00     0.000 C 
BRANCH   3   4
ATOM      4  C   UNL     1      29.289  25.123  30.456  1.00  0.00     0.000 C 
BRANCH   4   5
ATOM      5  C   UNL     1      29.290  24.322  31.774  1.00  0.00     0.000 C 
BRANCH   5   6
ATOM      6  C   UNL     1      29.932  25.068  32.958  1.00  0.00     0.006 C 
BRANCH   6   7
ATOM      7  C   UNL     1      31.473  25.069  32.943  1.00  0.00     0.053 C 
BRANCH   7   8
ATOM      8  C   UNL     1      32.070  24.865  34.304  1.00  0.00     0.041 C 
ATOM      9  O   UNL     1      31.377  25.065  35.336  1.00  0.00    -0.550 OA
ATOM     10  O   UNL     1      33.368  24.384  34.435  1.00  0.00    -0.550 OA
ENDBRANCH   7   8
ENDBRANCH   6   7
ENDBRANCH   5   6
ENDBRANCH   4   5
ENDBRANCH   3   4
ENDBRANCH   2   3
ENDBRANCH   1   2
BRANCH   1  11
ATOM     11  C   UNL     1      31.887  23.071  27.579  1.00  0.00     0.000 C 
BRANCH  11  12
ATOM     12  C   UNL     1      33.240  23.260  26.875  1.00  0.00    -0.000 C 
BRANCH  12  13
ATOM     13  C   UNL     1      33.748  24.709  26.946  1.00  0.00    -0.000 C 
BRANCH  13  14
ATOM     14  C   UNL     1      34.239  25.050  28.358  1.00  0.00    -0.000 C 
BRANCH  14  15
ATOM     15  C   UNL     1      35.502  24.251  28.709  1.00  0.00    -0.000 C 
BRANCH  15  16
ATOM     16  C   UNL     1      36.596  24.354  27.631  1.00  0.00    -0.000 C 
BRANCH  16  17
ATOM     17  C   UNL     1      37.041  23.008  27.030  1.00  0.00    -0.003 C 
ATOM     18  C   UNL     1      36.757  21.820  27.949  1.00  0.00     0.004 C 
ENDBRANCH  16  17
ENDBRANCH  15  16
ENDBRANCH  14  15
ENDBRANCH  13  14
ENDBRANCH  12  13
ENDBRANCH  11  12
ENDBRANCH   1  11
TORSDOF 14
ENDMDL
MODEL 2
REMARK VINA RESULT:    -0.702      2.067      3.017
REMARK INTER + INTRA:          -2.430
REMARK INTER:                  -1.977
REMARK INTRA:                  -0.452
REMARK UNBOUND:                -1.153
REMARK SMILES CCCCCCCCCCCCCCCC(=O)[O-]
REMARK SMILES IDX 9 1 10 2 11 3 12 4 13 5 14 6 15 7 16 8 17 9 18 10 8 11 7 12
REMARK SMILES IDX 6 13 5 14 4 15 3 16 2 17 1 18
REMARK H PARENT
REMARK Flexibility Score: inf
ROOT
ATOM      1  C   UNL     1      32.099  22.734  28.642  1.00  0.00     0.000 C 
ENDROOT
BRANCH   1   2
ATOM      2  C   UNL     1      30.578  22.798  28.430  1.00  0.00     0.000 C 
BRANCH   2   3
ATOM      3  C   UNL     1      30.179  23.724  27.273  1.00  0.00     0.000 C 
BRANCH   3   4
ATOM      4  C   UNL     1      29.536  25.016  27.797  1.00  0.00     0.000 C 
BRANCH   4   5
ATOM      5  C   UNL     1      28.401  24.732  28.802  1.00  0.00     0.000 C 
BRANCH   5   6
ATOM      6  C   UNL     1      28.740  25.123  30.253  1.00  0.00     0.006 C 
BRANCH   6   7
ATOM      7  C   UNL     1      30.228  24.968  30.618  1.00  0.00     0.053 C 
BRANCH   7   8
ATOM      8  C   UNL     1      30.449  24.737  32.084  1.00  0.00     0.041 C 
ATOM      9  O   UNL     1      29.551  24.199  32.782  1.00  0.00    -0.550 OA
ATOM     10  O   UNL     1      31.672  25.048  32.666  1.00  0.00    -0.550 OA
ENDBRANCH   7   8
ENDBRANCH   6   7
ENDBRANCH   5   6
ENDBRANCH   4   5
ENDBRANCH   3   4
ENDBRANCH   2   3
ENDBRANCH   1   2
BRANCH   1  11
ATOM     11  C   UNL     1      32.874  23.565  27.604  1.00  0.00     0.000 C 
BRANCH  11  12
ATOM     12  C   UNL     1      34.389  23.311  27.658  1.00  0.00    -0.000 C 
BRANCH  12  13
ATOM     13  C   UNL     1      35.106  24.214  28.673  1.00  0.00    -0.000 C 
BRANCH  13  14
ATOM     14  C   UNL     1      34.099  24.912  29.595  1.00  0.00    -0.000 C 
BRANCH  14  15
ATOM     15  C   UNL     1      34.693  25.125  30.996  1.00  0.00    -0.000 C 
BRANCH  15  16
ATOM     16  C   UNL     1      36.157  24.662  31.103  1.00  0.00    -0.000 C 
BRANCH  16  17
ATOM     17  C   UNL     1      36.545  24.054  32.464  1.00  0.00    -0.003 C 
ATOM     18  C   UNL     1      35.557  24.401  33.577  1.00  0.00     0.004 C 
ENDBRANCH  16  17
ENDBRANCH  15  16
ENDBRANCH  14  15
ENDBRANCH  13  14
ENDBRANCH  12  13
ENDBRANCH  11  12
ENDBRANCH   1  11
TORSDOF 14
ENDMDL
MODEL 3
REMARK VINA RESULT:    -0.014      1.866      5.503
REMARK INTER + INTRA:          -1.179
REMARK INTER:                  -2.152
REMARK INTRA:                   0.973
REMARK UNBOUND:                -1.153
REMARK SMILES CCCCCCCCCCCCCCCC(=O)[O-]
REMARK SMILES IDX 9 1 10 2 11 3 12 4 13 5 14 6 15 7 16 8 17 9 18 10 8 11 7 12
REMARK SMILES IDX 6 13 5 14 4 15 3 16 2 17 1 18
REMARK H PARENT
REMARK Flexibility Score: inf
ROOT
ATOM      1  C   UNL     1      32.234  23.313  28.414  1.00  0.00     0.000 C 
ENDROOT
BRANCH   1   2
ATOM      2  C   UNL     1      32.978  22.290  27.543  1.00  0.00     0.000 C 
BRANCH   2   3
ATOM      3  C   UNL     1      34.301  22.835  26.986  1.00  0.00     0.000 C 
BRANCH   3   4
ATOM      4  C   UNL     1      35.251  23.243  28.121  1.00  0.00     0.000 C 
BRANCH   4   5
ATOM      5  C   UNL     1      35.062  24.717  28.533  1.00  0.00     0.000 C 
BRANCH   5   6
ATOM      6  C   UNL     1      35.788  25.099  29.836  1.00  0.00     0.006 C 
BRANCH   6   7
ATOM      7  C   UNL     1      34.884  25.111  31.083  1.00  0.00     0.053 C 
BRANCH   7   8
ATOM      8  C   UNL     1      35.587  24.633  32.319  1.00  0.00     0.041 C 
ATOM      9  O   UNL     1      36.840  24.721  32.410  1.00  0.00    -0.550 OA
ATOM     10  O   UNL     1      34.857  24.157  33.402  1.00  0.00    -0.550 OA
ENDBRANCH   7   8
ENDBRANCH   6   7
ENDBRANCH   5   6
ENDBRANCH   4   5
ENDBRANCH   3   4
ENDBRANCH   2   3
ENDBRANCH   1   2
BRANCH   1  11
ATOM     11  C   UNL     1      31.025  22.699  29.142  1.00  0.00     0.000 C 
BRANCH  11  12
ATOM     12  C   UNL     1      29.773  22.632  28.253  1.00  0.00    -0.000 C 
BRANCH  12  13
ATOM     13  C   UNL     1      29.765  23.709  27.157  1.00  0.00    -0.000 C 
BRANCH  13  14
ATOM     14  C   UNL     1      29.695  25.114  27.768  1.00  0.00    -0.000 C 
BRANCH  14  15
ATOM     15  C   UNL     1      29.057  25.075  29.164  1.00  0.00    -0.000 C 
BRANCH  15  16
ATOM     16  C   UNL     1      30.096  25.125  30.300  1.00  0.00    -0.000 C 
BRANCH  16  17
ATOM     17  C   UNL     1      29.540  24.807  31.700  1.00  0.00    -0.003 C 
ATOM     18  C   UNL     1      30.570  25.005  32.811  1.00  0.00     0.004 C 
ENDBRANCH  16  17
ENDBRANCH  15  16
ENDBRANCH  14  15
ENDBRANCH  13  14
ENDBRANCH  12  13
ENDBRANCH  11  12
ENDBRANCH   1  11
TORSDOF 14
ENDMDL
MODEL 4
REMARK VINA RESULT:     0.765      2.892      5.898
REMARK INTER + INTRA:           0.238
REMARK INTER:                   0.127
REMARK INTRA:                   0.111
REMARK UNBOUND:                -1.153
REMARK SMILES CCCCCCCCCCCCCCCC(=O)[O-]
REMARK SMILES IDX 9 1 10 2 11 3 12 4 13 5 14 6 15 7 16 8 17 9 18 10 8 11 7 12
REMARK SMILES IDX 6 13 5 14 4 15 3 16 2 17 1 18
REMARK H PARENT
REMARK Flexibility Score: inf
ROOT
ATOM      1  C   UNL     1      30.562  24.305  30.894  1.00  0.00     0.000 C 
ENDROOT
BRANCH   1   2
ATOM      2  C   UNL     1      31.162  23.631  29.651  1.00  0.00     0.000 C 
BRANCH   2   3
ATOM      3  C   UNL     1      30.813  24.367  28.350  1.00  0.00     0.000 C 
BRANCH   3   4
ATOM      4  C   UNL     1      32.082  24.794  27.600  1.00  0.00     0.000 C 
BRANCH   4   5
ATOM      5  C   UNL     1      33.365  24.356  28.336  1.00  0.00     0.000 C 
BRANCH   5   6
ATOM      6  C   UNL     1      34.637  25.086  27.863  1.00  0.00     0.006 C 
BRANCH   6   7
ATOM      7  C   UNL     1      35.759  24.149  27.378  1.00  0.00     0.053 C 
BRANCH   7   8
ATOM      8  C   UNL     1      36.448  23.433  28.503  1.00  0.00     0.041 C 
ATOM      9  O   UNL     1      37.085  22.370  28.281  1.00  0.00    -0.550 OA
ATOM     10  O   UNL     1      36.451  23.977  29.782  1.00  0.00    -0.550 OA
ENDBRANCH   7   8
ENDBRANCH   6   7
ENDBRANCH   5   6
ENDBRANCH   4   5
ENDBRANCH   3   4
ENDBRANCH   2   3
ENDBRANCH   1   2
BRANCH   1  11
ATOM     11  C   UNL     1      29.919  23.294  31.861  1.00  0.00     0.000 C 
BRANCH  11  12
ATOM     12  C   UNL     1      30.119  23.679  33.335  1.00  0.00    -0.000 C 
BRANCH  12  13
ATOM     13  C   UNL     1      30.762  25.064  33.506  1.00  0.00    -0.000 C 
BRANCH  13  14
ATOM     14  C   UNL     1      32.128  25.125  32.812  1.00  0.00    -0.000 C 
BRANCH  14  15
ATOM     15  C   UNL     1      33.245  24.654  33.755  1.00  0.00    -0.000 C 
BRANCH  15  16
ATOM     16  C   UNL     1      34.569  24.368  33.022  1.00  0.00    -0.000 C 
BRANCH  16  17
ATOM     17  C   UNL     1      35.804  25.063  33.623  1.00  0.00    -0.003 C 
ATOM     18  C   UNL     1      37.120  24.406  33.206  1.00  0.00     0.004 C 
ENDBRANCH  16  17
ENDBRANCH  15  16
ENDBRANCH  14  15
ENDBRANCH  13  14
ENDBRANCH  12  13
ENDBRANCH  11  12
ENDBRANCH   1  11
TORSDOF 14
ENDMDL
