MODEL 1
REMARK VINA RESULT:    -5.010      0.000      0.000
REMARK INTER + INTRA:          -7.340
REMARK INTER:                  -6.768
REMARK INTRA:                  -0.573
REMARK UNBOUND:                -0.573
REMARK SMILES C=C[C@](C)(CCC=C(C)C)OC(C)=O
REMARK SMILES IDX 3 1 4 2 5 3 6 4 7 5 9 6 8 7 10 8 2 9 1 10 11 11 12 12 14 13
REMARK SMILES IDX 13 14
REMARK H PARENT
REMARK Flexibility Score: inf
ROOT
ATOM      1  C   UNL     1      94.155 -61.012 102.756  1.00  0.00     0.127 C 
ATOM      2  C   UNL     1      95.137 -62.115 102.304  1.00  0.00     0.061 C 
ENDROOT
BRANCH   1   3
ATOM      3  C   UNL     1      94.748 -60.223 103.954  1.00  0.00     0.057 C 
BRANCH   3   4
ATOM      4  C   UNL     1      95.577 -61.089 104.918  1.00  0.00     0.032 C 
BRANCH   4   5
ATOM      5  C   UNL     1      96.907 -60.437 105.207  1.00  0.00    -0.028 C 
ATOM      6  C   UNL     1      99.284 -60.318 105.821  1.00  0.00     0.039 C 
ATOM      7  C   UNL     1      98.038 -61.110 105.519  1.00  0.00    -0.080 C 
ATOM      8  C   UNL     1      98.088 -62.620 105.554  1.00  0.00     0.039 C 
ENDBRANCH   4   5
ENDBRANCH   3   4
ENDBRANCH   1   3
BRANCH   1   9
ATOM      9  C   UNL     1      92.848 -61.651 103.202  1.00  0.00     0.013 C 
ATOM     10  C   UNL     1      92.535 -62.917 102.906  1.00  0.00     0.008 C 
ENDBRANCH   1   9
BRANCH   1  11
ATOM     11  O   UNL     1      93.920 -60.093 101.677  1.00  0.00    -0.455 OA
BRANCH  11  12
ATOM     12  C   UNL     1      92.675 -59.550 101.329  1.00  0.00     0.303 C 
ATOM     13  O   UNL     1      92.151 -58.629 102.011  1.00  0.00    -0.253 OA
ATOM     14  C   UNL     1      91.947 -60.093 100.147  1.00  0.00     0.139 C 
ENDBRANCH  11  12
ENDBRANCH   1  11
TORSDOF 6
ENDMDL
MODEL 2
REMARK VINA RESULT:    -4.995      1.371      3.095
REMARK INTER + INTRA:          -7.319
REMARK INTER:                  -6.716
REMARK INTRA:                  -0.603
REMARK UNBOUND:                -0.573
REMARK SMILES C=C[C@](C)(CCC=C(C)C)OC(C)=O
REMARK SMILES IDX 3 1 4 2 5 3 6 4 7 5 9 6 8 7 10 8 2 9 1 10 11 11 12 12 14 13
REMARK SMILES IDX 13 14
REMARK H PARENT
REMARK Flexibility Score: inf
ROOT
ATOM      1  C   UNL     1      92.941 -60.287 102.225  1.00  0.00     0.127 C 
ATOM      2  C   UNL     1      92.435 -59.151 103.141  1.00  0.00     0.061 C 
ENDROOT
BRANCH   1   3
ATOM      3  C   UNL     1      94.425 -60.610 102.540  1.00  0.00     0.057 C 
BRANCH   3   4
ATOM      4  C   UNL     1      94.860 -60.210 103.961  1.00  0.00     0.032 C 
BRANCH   4   5
ATOM      5  C   UNL     1      95.854 -61.202 104.512  1.00  0.00    -0.028 C 
ATOM      6  C   UNL     1      97.920 -61.972 105.598  1.00  0.00     0.039 C 
ATOM      7  C   UNL     1      97.005 -60.866 105.136  1.00  0.00    -0.080 C 
ATOM      8  C   UNL     1      97.385 -59.427 105.396  1.00  0.00     0.039 C 
ENDBRANCH   4   5
ENDBRANCH   3   4
ENDBRANCH   1   3
BRANCH   1   9
ATOM      9  C   UNL     1      92.844 -59.845 100.772  1.00  0.00     0.013 C 
ATOM     10  C   UNL     1      91.766 -60.095 100.020  1.00  0.00     0.008 C 
ENDBRANCH   1   9
BRANCH   1  11
ATOM     11  O   UNL     1      92.160 -61.474 102.439  1.00  0.00    -0.455 OA
BRANCH  11  12
ATOM     12  C   UNL     1      92.653 -62.786 102.415  1.00  0.00     0.303 C 
ATOM     13  O   UNL     1      92.983 -63.339 101.332  1.00  0.00    -0.253 OA
ATOM     14  C   UNL     1      92.759 -63.550 103.691  1.00  0.00     0.139 C 
ENDBRANCH  11  12
ENDBRANCH   1  11
TORSDOF 6
ENDMDL
MODEL 3
REMARK VINA RESULT:    -4.980      1.508      2.173
REMARK INTER + INTRA:          -7.299
REMARK INTER:                  -6.600
REMARK INTRA:                  -0.699
REMARK UNBOUND:                -0.573
REMARK SMILES C=C[C@](C)(CCC=C(C)C)OC(C)=O
REMARK SMILES IDX 3 1 4 2 5 3 6 4 7 5 9 6 8 7 10 8 2 9 1 10 11 11 12 12 14 13
REMARK SMILES IDX 13 14
REMARK H PARENT
REMARK Flexibility Score: inf
ROOT
ATOM      1  C   UNL     1      94.940 -62.664 102.774  1.00  0.00     0.127 C 
ATOM      2  C   UNL     1      94.875 -63.793 101.723  1.00  0.00     0.061 C 
ENDROOT
BRANCH   1   3
ATOM      3  C   UNL     1      96.384 -62.524 103.324  1.00  0.00     0.057 C 
BRANCH   3   4
ATOM      4  C   UNL     1      96.452 -62.350 104.851  1.00  0.00     0.032 C 
BRANCH   4   5
ATOM      5  C   UNL     1      97.860 -62.026 105.286  1.00  0.00    -0.028 C 
ATOM      6  C   UNL     1      99.766 -60.606 105.911  1.00  0.00     0.039 C 
ATOM      7  C   UNL     1      98.321 -60.776 105.520  1.00  0.00    -0.080 C 
ATOM      8  C   UNL     1      97.428 -59.561 105.418  1.00  0.00     0.039 C 
ENDBRANCH   4   5
ENDBRANCH   3   4
ENDBRANCH   1   3
BRANCH   1   9
ATOM      9  C   UNL     1      94.014 -62.999 103.934  1.00  0.00     0.013 C 
ATOM     10  C   UNL     1      93.293 -64.125 103.970  1.00  0.00     0.008 C 
ENDBRANCH   1   9
BRANCH   1  11
ATOM     11  O   UNL     1      94.558 -61.415 102.175  1.00  0.00    -0.455 OA
BRANCH  11  12
ATOM     12  C   UNL     1      93.701 -60.465 102.750  1.00  0.00     0.303 C 
ATOM     13  O   UNL     1      92.472 -60.444 102.474  1.00  0.00    -0.253 OA
ATOM     14  C   UNL     1      94.262 -59.445 103.681  1.00  0.00     0.139 C 
ENDBRANCH  11  12
ENDBRANCH   1  11
TORSDOF 6
ENDMDL
MODEL 4
REMARK VINA RESULT:    -4.977      1.190      1.668
REMARK INTER + INTRA:          -7.295
REMARK INTER:                  -6.868
REMARK INTRA:                  -0.427
REMARK UNBOUND:                -0.573
REMARK SMILES C=C[C@](C)(CCC=C(C)C)OC(C)=O
REMARK SMILES IDX 3 1 4 2 5 3 6 4 7 5 9 6 8 7 10 8 2 9 1 10 11 11 12 12 14 13
REMARK SMILES IDX 13 14
REMARK H PARENT
REMARK Flexibility Score: inf
ROOT
ATOM      1  C   UNL     1      94.118 -62.552 102.793  1.00  0.00     0.127 C 
ATOM      2  C   UNL     1      94.612 -63.578 101.750  1.00  0.00     0.061 C 
ENDROOT
BRANCH   1   3
ATOM      3  C   UNL     1      95.011 -62.602 104.061  1.00  0.00     0.057 C 
BRANCH   3   4
ATOM      4  C   UNL     1      95.405 -61.215 104.598  1.00  0.00     0.032 C 
BRANCH   4   5
ATOM      5  C   UNL     1      96.840 -61.215 105.065  1.00  0.00    -0.028 C 
ATOM      6  C   UNL     1      98.989 -60.258 105.779  1.00  0.00     0.039 C 
ATOM      7  C   UNL     1      97.548 -60.102 105.362  1.00  0.00    -0.080 C 
ATOM      8  C   UNL     1      96.934 -58.723 105.306  1.00  0.00     0.039 C 
ENDBRANCH   4   5
ENDBRANCH   3   4
ENDBRANCH   1   3
BRANCH   1   9
ATOM      9  C   UNL     1      92.690 -62.889 103.197  1.00  0.00     0.013 C 
ATOM     10  C   UNL     1      92.399 -63.926 103.990  1.00  0.00     0.008 C 
ENDBRANCH   1   9
BRANCH   1  11
ATOM     11  O   UNL     1      94.181 -61.226 102.244  1.00  0.00    -0.455 OA
BRANCH  11  12
ATOM     12  C   UNL     1      93.081 -60.389 102.010  1.00  0.00     0.303 C 
ATOM     13  O   UNL     1      92.661 -59.599 102.897  1.00  0.00    -0.253 OA
ATOM     14  C   UNL     1      92.378 -60.458 100.697  1.00  0.00     0.139 C 
ENDBRANCH  11  12
ENDBRANCH   1  11
TORSDOF 6
ENDMDL
MODEL 5
REMARK VINA RESULT:    -4.958      2.532      5.908
REMARK INTER + INTRA:          -7.269
REMARK INTER:                  -6.587
REMARK INTRA:                  -0.682
REMARK UNBOUND:                -0.573
REMARK SMILES C=C[C@](C)(CCC=C(C)C)OC(C)=O
REMARK SMILES IDX 3 1 4 2 5 3 6 4 7 5 9 6 8 7 10 8 2 9 1 10 11 11 12 12 14 13
REMARK SMILES IDX 13 14
REMARK H PARENT
REMARK Flexibility Score: inf
ROOT
ATOM      1  C   UNL     1      95.983 -61.811 104.658  1.00  0.00     0.127 C 
ATOM      2  C   UNL     1      97.510 -62.038 104.676  1.00  0.00     0.061 C 
ENDROOT
BRANCH   1   3
ATOM      3  C   UNL     1      95.414 -62.089 103.242  1.00  0.00     0.057 C 
BRANCH   3   4
ATOM      4  C   UNL     1      93.877 -62.062 103.173  1.00  0.00     0.032 C 
BRANCH   4   5
ATOM      5  C   UNL     1      93.414 -61.403 101.897  1.00  0.00    -0.028 C 
ATOM      6  C   UNL     1      92.406 -59.663 100.484  1.00  0.00     0.039 C 
ATOM      7  C   UNL     1      92.857 -60.173 101.829  1.00  0.00    -0.080 C 
ATOM      8  C   UNL     1      92.693 -59.299 103.050  1.00  0.00     0.039 C 
ENDBRANCH   4   5
ENDBRANCH   3   4
ENDBRANCH   1   3
BRANCH   1   9
ATOM      9  C   UNL     1      95.683 -60.364 105.020  1.00  0.00     0.013 C 
ATOM     10  C   UNL     1      96.650 -59.458 105.201  1.00  0.00     0.008 C 
ENDBRANCH   1   9
BRANCH   1  11
ATOM     11  O   UNL     1      95.344 -62.701 105.588  1.00  0.00    -0.455 OA
BRANCH  11  12
ATOM     12  C   UNL     1      95.778 -63.997 105.903  1.00  0.00     0.303 C 
ATOM     13  O   UNL     1      95.661 -64.942 105.078  1.00  0.00    -0.253 OA
ATOM     14  C   UNL     1      96.360 -64.265 107.249  1.00  0.00     0.139 C 
ENDBRANCH  11  12
ENDBRANCH   1  11
TORSDOF 6
ENDMDL
MODEL 6
REMARK VINA RESULT:    -4.617      1.360      2.367
REMARK INTER + INTRA:          -6.809
REMARK INTER:                  -6.019
REMARK INTRA:                  -0.790
REMARK UNBOUND:                -0.573
REMARK SMILES C=C[C@](C)(CCC=C(C)C)OC(C)=O
REMARK SMILES IDX 3 1 4 2 5 3 6 4 7 5 9 6 8 7 10 8 2 9 1 10 11 11 12 12 14 13
REMARK SMILES IDX 13 14
REMARK H PARENT
REMARK Flexibility Score: inf
ROOT
ATOM      1  C   UNL     1      94.658 -61.672 103.135  1.00  0.00     0.127 C 
ATOM      2  C   UNL     1      93.409 -62.572 103.264  1.00  0.00     0.061 C 
ENDROOT
BRANCH   1   3
ATOM      3  C   UNL     1      95.824 -62.462 102.484  1.00  0.00     0.057 C 
BRANCH   3   4
ATOM      4  C   UNL     1      96.559 -63.399 103.457  1.00  0.00     0.032 C 
BRANCH   4   5
ATOM      5  C   UNL     1      98.044 -63.135 103.430  1.00  0.00    -0.028 C 
ATOM      6  C   UNL     1     100.252 -62.523 104.320  1.00  0.00     0.039 C 
ATOM      7  C   UNL     1      98.782 -62.796 104.511  1.00  0.00    -0.080 C 
ATOM      8  C   UNL     1      98.180 -62.702 105.893  1.00  0.00     0.039 C 
ENDBRANCH   4   5
ENDBRANCH   3   4
ENDBRANCH   1   3
BRANCH   1   9
ATOM      9  C   UNL     1      95.099 -61.218 104.519  1.00  0.00     0.013 C 
ATOM     10  C   UNL     1      95.621 -60.007 104.740  1.00  0.00     0.008 C 
ENDBRANCH   1   9
BRANCH   1  11
ATOM     11  O   UNL     1      94.359 -60.535 102.308  1.00  0.00    -0.455 OA
BRANCH  11  12
ATOM     12  C   UNL     1      93.084 -59.990 102.105  1.00  0.00     0.303 C 
ATOM     13  O   UNL     1      92.478 -59.385 103.029  1.00  0.00    -0.253 OA
ATOM     14  C   UNL     1      92.421 -60.157 100.779  1.00  0.00     0.139 C 
ENDBRANCH  11  12
ENDBRANCH   1  11
TORSDOF 6
ENDMDL
MODEL 7
REMARK VINA RESULT:    -4.613      2.044      3.090
REMARK INTER + INTRA:          -6.804
REMARK INTER:                  -5.752
REMARK INTRA:                  -1.052
REMARK UNBOUND:                -0.573
REMARK SMILES C=C[C@](C)(CCC=C(C)C)OC(C)=O
REMARK SMILES IDX 3 1 4 2 5 3 6 4 7 5 9 6 8 7 10 8 2 9 1 10 11 11 12 12 14 13
REMARK SMILES IDX 13 14
REMARK H PARENT
REMARK Flexibility Score: inf
ROOT
ATOM      1  C   UNL     1      93.266 -62.292 102.003  1.00  0.00     0.127 C 
ATOM      2  C   UNL     1      92.154 -62.412 100.939  1.00  0.00     0.061 C 
ENDROOT
BRANCH   1   3
ATOM      3  C   UNL     1      94.402 -63.309 101.711  1.00  0.00     0.057 C 
BRANCH   3   4
ATOM      4  C   UNL     1      95.727 -62.980 102.422  1.00  0.00     0.032 C 
BRANCH   4   5
ATOM      5  C   UNL     1      96.101 -64.083 103.382  1.00  0.00    -0.028 C 
ATOM      6  C   UNL     1      96.539 -65.139 105.558  1.00  0.00     0.039 C 
ATOM      7  C   UNL     1      96.100 -63.959 104.728  1.00  0.00    -0.080 C 
ATOM      8  C   UNL     1      95.659 -62.688 105.415  1.00  0.00     0.039 C 
ENDBRANCH   4   5
ENDBRANCH   3   4
ENDBRANCH   1   3
BRANCH   1   9
ATOM      9  C   UNL     1      92.687 -62.602 103.376  1.00  0.00     0.013 C 
ATOM     10  C   UNL     1      92.263 -63.824 103.713  1.00  0.00     0.008 C 
ENDBRANCH   1   9
BRANCH   1  11
ATOM     11  O   UNL     1      93.824 -60.968 101.983  1.00  0.00    -0.455 OA
BRANCH  11  12
ATOM     12  C   UNL     1      93.504 -59.938 102.878  1.00  0.00     0.303 C 
ATOM     13  O   UNL     1      92.385 -59.361 102.836  1.00  0.00    -0.253 OA
ATOM     14  C   UNL     1      94.520 -59.497 103.876  1.00  0.00     0.139 C 
ENDBRANCH  11  12
ENDBRANCH   1  11
TORSDOF 6
ENDMDL
MODEL 8
REMARK VINA RESULT:    -4.604      1.866      3.156
REMARK INTER + INTRA:          -6.791
REMARK INTER:                  -6.041
REMARK INTRA:                  -0.750
REMARK UNBOUND:                -0.573
REMARK SMILES C=C[C@](C)(CCC=C(C)C)OC(C)=O
REMARK SMILES IDX 3 1 4 2 5 3 6 4 7 5 9 6 8 7 10 8 2 9 1 10 11 11 12 12 14 13
REMARK SMILES IDX 13 14
REMARK H PARENT
REMARK Flexibility Score: inf
ROOT
ATOM      1  C   UNL     1      94.330 -61.318 102.849  1.00  0.00     0.127 C 
ATOM      2  C   UNL     1      93.006 -62.057 103.140  1.00  0.00     0.061 C 
ENDROOT
BRANCH   1   3
ATOM      3  C   UNL     1      95.355 -62.286 102.202  1.00  0.00     0.057 C 
BRANCH   3   4
ATOM      4  C   UNL     1      96.365 -62.879 103.200  1.00  0.00     0.032 C 
BRANCH   4   5
ATOM      5  C   UNL     1      95.955 -64.274 103.605  1.00  0.00    -0.028 C 
ATOM      6  C   UNL     1      95.362 -66.106 105.132  1.00  0.00     0.039 C 
ATOM      7  C   UNL     1      95.728 -64.666 104.878  1.00  0.00    -0.080 C 
ATOM      8  C   UNL     1      95.812 -63.703 106.040  1.00  0.00     0.039 C 
ENDBRANCH   4   5
ENDBRANCH   3   4
ENDBRANCH   1   3
BRANCH   1   9
ATOM      9  C   UNL     1      94.917 -60.799 104.154  1.00  0.00     0.013 C 
ATOM     10  C   UNL     1      95.135 -59.498 104.371  1.00  0.00     0.008 C 
ENDBRANCH   1   9
BRANCH   1  11
ATOM     11  O   UNL     1      94.094 -60.230 101.940  1.00  0.00    -0.455 OA
BRANCH  11  12
ATOM     12  C   UNL     1      92.838 -59.700 101.615  1.00  0.00     0.303 C 
ATOM     13  O   UNL     1      92.231 -58.928 102.404  1.00  0.00    -0.253 OA
ATOM     14  C   UNL     1      92.197 -60.083 100.324  1.00  0.00     0.139 C 
ENDBRANCH  11  12
ENDBRANCH   1  11
TORSDOF 6
ENDMDL
MODEL 9
REMARK VINA RESULT:    -4.602      3.255      6.261
REMARK INTER + INTRA:          -6.788
REMARK INTER:                  -6.148
REMARK INTRA:                  -0.641
REMARK UNBOUND:                -0.573
REMARK SMILES C=C[C@](C)(CCC=C(C)C)OC(C)=O
REMARK SMILES IDX 3 1 4 2 5 3 6 4 7 5 9 6 8 7 10 8 2 9 1 10 11 11 12 12 14 13
REMARK SMILES IDX 13 14
REMARK H PARENT
REMARK Flexibility Score: inf
ROOT
ATOM      1  C   UNL     1      97.895 -62.402 105.251  1.00  0.00     0.127 C 
ATOM      2  C   UNL     1      99.102 -62.765 104.358  1.00  0.00     0.061 C 
ENDROOT
BRANCH   1   3
ATOM      3  C   UNL     1      96.571 -62.830 104.564  1.00  0.00     0.057 C 
BRANCH   3   4
ATOM      4  C   UNL     1      95.377 -61.917 104.895  1.00  0.00     0.032 C 
BRANCH   4   5
ATOM      5  C   UNL     1      94.684 -61.471 103.630  1.00  0.00    -0.028 C 
ATOM      6  C   UNL     1      93.633 -59.902 102.058  1.00  0.00     0.039 C 
ATOM      7  C   UNL     1      94.362 -60.189 103.346  1.00  0.00    -0.080 C 
ATOM      8  C   UNL     1      94.726 -59.048 104.266  1.00  0.00     0.039 C 
ENDBRANCH   4   5
ENDBRANCH   3   4
ENDBRANCH   1   3
BRANCH   1   9
ATOM      9  C   UNL     1      97.860 -60.896 105.464  1.00  0.00     0.013 C 
ATOM     10  C   UNL     1      98.944 -60.200 105.823  1.00  0.00     0.008 C 
ENDBRANCH   1   9
BRANCH   1  11
ATOM     11  O   UNL     1      97.995 -63.083 106.512  1.00  0.00    -0.455 OA
BRANCH  11  12
ATOM     12  C   UNL     1      97.336 -64.275 106.847  1.00  0.00     0.303 C 
ATOM     13  O   UNL     1      96.271 -64.264 107.521  1.00  0.00    -0.253 OA
ATOM     14  C   UNL     1      97.923 -65.578 106.423  1.00  0.00     0.139 C 
ENDBRANCH  11  12
ENDBRANCH   1  11
TORSDOF 6
ENDMDL
