MODEL 1
REMARK VINA RESULT:    -3.928      0.000      0.000
REMARK INTER + INTRA:         -11.463
REMARK INTER:                  -8.520
REMARK INTRA:                  -2.944
REMARK UNBOUND:                -2.944
REMARK SMILES CCCCCCCCCCCCCCCCCCCCCC(=O)[O-]
REMARK SMILES IDX 12 1 11 2 10 3 9 4 8 5 7 6 6 7 5 8 4 9 3 10 2 11 1 12 13 13
REMARK SMILES IDX 14 14 15 15 16 16 17 17 18 18 19 19 20 20 21 21 22 22 23 23
REMARK SMILES IDX 24 24
REMARK H PARENT
REMARK Flexibility Score: inf
ROOT
ATOM      1  C   UNL     1      14.240 -12.154  17.413  1.00  0.00     0.000 C 
ENDROOT
BRANCH   1   2
ATOM      2  C   UNL     1      13.917 -13.100  18.584  1.00  0.00     0.000 C 
BRANCH   2   3
ATOM      3  C   UNL     1      12.718 -14.042  18.354  1.00  0.00     0.000 C 
BRANCH   3   4
ATOM      4  C   UNL     1      11.492 -13.777  19.253  1.00  0.00    -0.000 C 
BRANCH   4   5
ATOM      5  C   UNL     1      11.474 -14.563  20.577  1.00  0.00    -0.000 C 
BRANCH   5   6
ATOM      6  C   UNL     1      10.772 -13.805  21.714  1.00  0.00    -0.000 C 
BRANCH   6   7
ATOM      7  C   UNL     1      10.086 -12.537  21.184  1.00  0.00    -0.000 C 
BRANCH   7   8
ATOM      8  C   UNL     1       8.594 -12.475  21.548  1.00  0.00    -0.000 C 
BRANCH   8   9
ATOM      9  C   UNL     1       7.948 -11.133  21.165  1.00  0.00    -0.000 C 
BRANCH   9  10
ATOM     10  C   UNL     1       8.899 -10.226  20.369  1.00  0.00    -0.000 C 
BRANCH  10  11
ATOM     11  C   UNL     1       8.213  -8.947  19.866  1.00  0.00    -0.003 C 
ATOM     12  C   UNL     1       9.154  -7.749  19.947  1.00  0.00     0.004 C 
ENDBRANCH  10  11
ENDBRANCH   9  10
ENDBRANCH   8   9
ENDBRANCH   7   8
ENDBRANCH   6   7
ENDBRANCH   5   6
ENDBRANCH   4   5
ENDBRANCH   3   4
ENDBRANCH   2   3
ENDBRANCH   1   2
BRANCH   1  13
ATOM     13  C   UNL     1      14.324 -10.680  17.843  1.00  0.00     0.000 C 
BRANCH  13  14
ATOM     14  C   UNL     1      13.442 -10.359  19.065  1.00  0.00     0.000 C 
BRANCH  14  15
ATOM     15  C   UNL     1      12.214  -9.475  18.774  1.00  0.00     0.000 C 
BRANCH  15  16
ATOM     16  C   UNL     1      11.637  -9.602  17.351  1.00  0.00     0.000 C 
BRANCH  16  17
ATOM     17  C   UNL     1      10.759 -10.855  17.144  1.00  0.00     0.000 C 
BRANCH  17  18
ATOM     18  C   UNL     1      11.033 -11.551  15.800  1.00  0.00     0.000 C 
BRANCH  18  19
ATOM     19  C   UNL     1      11.453 -10.563  14.700  1.00  0.00     0.000 C 
BRANCH  19  20
ATOM     20  C   UNL     1      10.571 -10.663  13.443  1.00  0.00     0.006 C 
BRANCH  20  21
ATOM     21  C   UNL     1      10.707  -9.429  12.542  1.00  0.00     0.053 C 
BRANCH  21  22
ATOM     22  C   UNL     1       9.620  -9.373  11.511  1.00  0.00     0.041 C 
ATOM     23  O   UNL     1       8.544 -10.002  11.691  1.00  0.00    -0.550 OA
ATOM     24  O   UNL     1       9.812  -8.657  10.337  1.00  0.00    -0.550 OA
ENDBRANCH  21  22
ENDBRANCH  20  21
ENDBRANCH  19  20
ENDBRANCH  18  19
ENDBRANCH  17  18
ENDBRANCH  16  17
ENDBRANCH  15  16
ENDBRANCH  14  15
ENDBRANCH  13  14
ENDBRANCH   1  13
TORSDOF 20
ENDMDL
MODEL 2
REMARK VINA RESULT:    -3.865      3.848      6.563
REMARK INTER + INTRA:         -11.327
REMARK INTER:                  -7.181
REMARK INTRA:                  -4.146
REMARK UNBOUND:                -2.944
REMARK SMILES CCCCCCCCCCCCCCCCCCCCCC(=O)[O-]
REMARK SMILES IDX 12 1 11 2 10 3 9 4 8 5 7 6 6 7 5 8 4 9 3 10 2 11 1 12 13 13
REMARK SMILES IDX 14 14 15 15 16 16 17 17 18 18 19 19 20 20 21 21 22 22 23 23
REMARK SMILES IDX 24 24
REMARK H PARENT
REMARK Flexibility Score: inf
ROOT
ATOM      1  C   UNL     1      11.458 -13.991  23.532  1.00  0.00     0.000 C 
ENDROOT
BRANCH   1   2
ATOM      2  C   UNL     1      10.764 -13.406  22.289  1.00  0.00     0.000 C 
BRANCH   2   3
ATOM      3  C   UNL     1      10.521 -14.408  21.141  1.00  0.00     0.000 C 
BRANCH   3   4
ATOM      4  C   UNL     1      11.025 -13.954  19.755  1.00  0.00    -0.000 C 
BRANCH   4   5
ATOM      5  C   UNL     1      11.173 -12.432  19.582  1.00  0.00    -0.000 C 
BRANCH   5   6
ATOM      6  C   UNL     1      10.773 -11.946  18.181  1.00  0.00    -0.000 C 
BRANCH   6   7
ATOM      7  C   UNL     1      11.668 -12.581  17.106  1.00  0.00    -0.000 C 
BRANCH   7   8
ATOM      8  C   UNL     1      13.137 -12.146  17.226  1.00  0.00    -0.000 C 
BRANCH   8   9
ATOM      9  C   UNL     1      13.310 -10.619  17.144  1.00  0.00    -0.000 C 
BRANCH   9  10
ATOM     10  C   UNL     1      14.343 -10.088  18.150  1.00  0.00    -0.000 C 
BRANCH  10  11
ATOM     11  C   UNL     1      13.690  -9.471  19.396  1.00  0.00    -0.003 C 
ATOM     12  C   UNL     1      12.376  -8.780  19.044  1.00  0.00     0.004 C 
ENDBRANCH  10  11
ENDBRANCH   9  10
ENDBRANCH   8   9
ENDBRANCH   7   8
ENDBRANCH   6   7
ENDBRANCH   5   6
ENDBRANCH   4   5
ENDBRANCH   3   4
ENDBRANCH   2   3
ENDBRANCH   1   2
BRANCH   1  13
ATOM     13  C   UNL     1      12.792 -13.296  23.852  1.00  0.00     0.000 C 
BRANCH  13  14
ATOM     14  C   UNL     1      13.256 -12.342  22.735  1.00  0.00     0.000 C 
BRANCH  14  15
ATOM     15  C   UNL     1      14.596 -12.712  22.070  1.00  0.00     0.000 C 
BRANCH  15  16
ATOM     16  C   UNL     1      14.530 -12.942  20.547  1.00  0.00     0.000 C 
BRANCH  16  17
ATOM     17  C   UNL     1      14.885 -14.382  20.118  1.00  0.00     0.000 C 
BRANCH  17  18
ATOM     18  C   UNL     1      14.533 -15.421  21.196  1.00  0.00     0.000 C 
BRANCH  18  19
ATOM     19  C   UNL     1      13.490 -16.441  20.714  1.00  0.00     0.000 C 
BRANCH  19  20
ATOM     20  C   UNL     1      13.844 -17.052  19.347  1.00  0.00     0.006 C 
BRANCH  20  21
ATOM     21  C   UNL     1      12.698 -16.912  18.337  1.00  0.00     0.053 C 
BRANCH  21  22
ATOM     22  C   UNL     1      13.138 -16.202  17.093  1.00  0.00     0.041 C 
ATOM     23  O   UNL     1      12.342 -16.063  16.127  1.00  0.00    -0.550 OA
ATOM     24  O   UNL     1      14.439 -15.728  16.986  1.00  0.00    -0.550 OA
ENDBRANCH  21  22
ENDBRANCH  20  21
ENDBRANCH  19  20
ENDBRANCH  18  19
ENDBRANCH  17  18
ENDBRANCH  16  17
ENDBRANCH  15  16
ENDBRANCH  14  15
ENDBRANCH  13  14
ENDBRANCH   1  13
TORSDOF 20
ENDMDL
MODEL 3
REMARK VINA RESULT:    -3.851      3.312      5.504
REMARK INTER + INTRA:         -11.297
REMARK INTER:                  -7.786
REMARK INTRA:                  -3.512
REMARK UNBOUND:                -2.944
REMARK SMILES CCCCCCCCCCCCCCCCCCCCCC(=O)[O-]
REMARK SMILES IDX 12 1 11 2 10 3 9 4 8 5 7 6 6 7 5 8 4 9 3 10 2 11 1 12 13 13
REMARK SMILES IDX 14 14 15 15 16 16 17 17 18 18 19 19 20 20 21 21 22 22 23 23
REMARK SMILES IDX 24 24
REMARK H PARENT
REMARK Flexibility Score: inf
ROOT
ATOM      1  C   UNL     1      14.158 -10.635  20.620  1.00  0.00     0.000 C 
ENDROOT
BRANCH   1   2
ATOM      2  C   UNL     1      13.612  -9.844  19.418  1.00  0.00     0.000 C 
BRANCH   2   3
ATOM      3  C   UNL     1      14.076 -10.346  18.036  1.00  0.00     0.000 C 
BRANCH   3   4
ATOM      4  C   UNL     1      13.036 -10.213  16.904  1.00  0.00    -0.000 C 
BRANCH   4   5
ATOM      5  C   UNL     1      12.412 -11.539  16.433  1.00  0.00    -0.000 C 
BRANCH   5   6
ATOM      6  C   UNL     1      10.903 -11.620  16.703  1.00  0.00    -0.000 C 
BRANCH   6   7
ATOM      7  C   UNL     1      10.629 -11.989  18.169  1.00  0.00    -0.000 C 
BRANCH   7   8
ATOM      8  C   UNL     1      10.017 -10.827  18.967  1.00  0.00    -0.000 C 
BRANCH   8   9
ATOM      9  C   UNL     1       8.523 -11.040  19.269  1.00  0.00    -0.000 C 
BRANCH   9  10
ATOM     10  C   UNL     1       8.185 -10.824  20.752  1.00  0.00    -0.000 C 
BRANCH  10  11
ATOM     11  C   UNL     1       7.898 -12.140  21.490  1.00  0.00    -0.003 C 
ATOM     12  C   UNL     1       7.475 -11.882  22.933  1.00  0.00     0.004 C 
ENDBRANCH  10  11
ENDBRANCH   9  10
ENDBRANCH   8   9
ENDBRANCH   7   8
ENDBRANCH   6   7
ENDBRANCH   5   6
ENDBRANCH   4   5
ENDBRANCH   3   4
ENDBRANCH   2   3
ENDBRANCH   1   2
BRANCH   1  13
ATOM     13  C   UNL     1      13.721 -12.108  20.613  1.00  0.00     0.000 C 
BRANCH  13  14
ATOM     14  C   UNL     1      13.004 -12.529  21.910  1.00  0.00     0.000 C 
BRANCH  14  15
ATOM     15  C   UNL     1      11.473 -12.670  21.798  1.00  0.00     0.000 C 
BRANCH  15  16
ATOM     16  C   UNL     1      10.944 -14.116  21.846  1.00  0.00     0.000 C 
BRANCH  16  17
ATOM     17  C   UNL     1      10.952 -14.828  20.476  1.00  0.00     0.000 C 
BRANCH  17  18
ATOM     18  C   UNL     1      12.132 -15.803  20.326  1.00  0.00     0.000 C 
BRANCH  18  19
ATOM     19  C   UNL     1      12.589 -15.955  18.867  1.00  0.00     0.000 C 
BRANCH  19  20
ATOM     20  C   UNL     1      12.901 -14.605  18.198  1.00  0.00     0.006 C 
BRANCH  20  21
ATOM     21  C   UNL     1      14.339 -14.543  17.665  1.00  0.00     0.053 C 
BRANCH  21  22
ATOM     22  C   UNL     1      14.381 -14.657  16.172  1.00  0.00     0.041 C 
ATOM     23  O   UNL     1      15.088 -13.863  15.496  1.00  0.00    -0.550 OA
ATOM     24  O   UNL     1      13.612 -15.615  15.525  1.00  0.00    -0.550 OA
ENDBRANCH  21  22
ENDBRANCH  20  21
ENDBRANCH  19  20
ENDBRANCH  18  19
ENDBRANCH  17  18
ENDBRANCH  16  17
ENDBRANCH  15  16
ENDBRANCH  14  15
ENDBRANCH  13  14
ENDBRANCH   1  13
TORSDOF 20
ENDMDL
MODEL 4
REMARK VINA RESULT:    -3.815      4.085      5.533
REMARK INTER + INTRA:         -11.218
REMARK INTER:                  -6.942
REMARK INTRA:                  -4.277
REMARK UNBOUND:                -2.944
REMARK SMILES CCCCCCCCCCCCCCCCCCCCCC(=O)[O-]
REMARK SMILES IDX 12 1 11 2 10 3 9 4 8 5 7 6 6 7 5 8 4 9 3 10 2 11 1 12 13 13
REMARK SMILES IDX 14 14 15 15 16 16 17 17 18 18 19 19 20 20 21 21 22 22 23 23
REMARK SMILES IDX 24 24
REMARK H PARENT
REMARK Flexibility Score: inf
ROOT
ATOM      1  C   UNL     1      14.260 -10.450  20.255  1.00  0.00     0.000 C 
ENDROOT
BRANCH   1   2
ATOM      2  C   UNL     1      13.176 -10.633  21.332  1.00  0.00     0.000 C 
BRANCH   2   3
ATOM      3  C   UNL     1      13.290 -11.926  22.165  1.00  0.00     0.000 C 
BRANCH   3   4
ATOM      4  C   UNL     1      12.207 -12.107  23.250  1.00  0.00    -0.000 C 
BRANCH   4   5
ATOM      5  C   UNL     1      11.358 -13.384  23.116  1.00  0.00    -0.000 C 
BRANCH   5   6
ATOM      6  C   UNL     1      11.664 -14.175  21.836  1.00  0.00    -0.000 C 
BRANCH   6   7
ATOM      7  C   UNL     1      10.477 -14.120  20.863  1.00  0.00    -0.000 C 
BRANCH   7   8
ATOM      8  C   UNL     1      10.554 -12.922  19.903  1.00  0.00    -0.000 C 
BRANCH   8   9
ATOM      9  C   UNL     1       9.328 -11.999  20.010  1.00  0.00    -0.000 C 
BRANCH   9  10
ATOM     10  C   UNL     1       9.557 -10.825  20.974  1.00  0.00    -0.000 C 
BRANCH  10  11
ATOM     11  C   UNL     1       8.707 -10.934  22.250  1.00  0.00    -0.003 C 
ATOM     12  C   UNL     1       7.640 -12.016  22.109  1.00  0.00     0.004 C 
ENDBRANCH  10  11
ENDBRANCH   9  10
ENDBRANCH   8   9
ENDBRANCH   7   8
ENDBRANCH   6   7
ENDBRANCH   5   6
ENDBRANCH   4   5
ENDBRANCH   3   4
ENDBRANCH   2   3
ENDBRANCH   1   2
BRANCH   1  13
ATOM     13  C   UNL     1      13.811  -9.532  19.107  1.00  0.00     0.000 C 
BRANCH  13  14
ATOM     14  C   UNL     1      12.292  -9.275  19.101  1.00  0.00     0.000 C 
BRANCH  14  15
ATOM     15  C   UNL     1      11.627  -9.300  17.711  1.00  0.00     0.000 C 
BRANCH  15  16
ATOM     16  C   UNL     1      11.453 -10.701  17.093  1.00  0.00     0.000 C 
BRANCH  16  17
ATOM     17  C   UNL     1      12.389 -10.975  15.897  1.00  0.00     0.000 C 
BRANCH  17  18
ATOM     18  C   UNL     1      13.488 -11.997  16.232  1.00  0.00     0.000 C 
BRANCH  18  19
ATOM     19  C   UNL     1      13.190 -12.784  17.519  1.00  0.00     0.000 C 
BRANCH  19  20
ATOM     20  C   UNL     1      14.277 -13.823  17.844  1.00  0.00     0.006 C 
BRANCH  20  21
ATOM     21  C   UNL     1      14.482 -13.990  19.356  1.00  0.00     0.053 C 
BRANCH  21  22
ATOM     22  C   UNL     1      15.181 -15.274  19.682  1.00  0.00     0.041 C 
ATOM     23  O   UNL     1      14.993 -15.832  20.796  1.00  0.00    -0.550 OA
ATOM     24  O   UNL     1      16.068 -15.835  18.772  1.00  0.00    -0.550 OA
ENDBRANCH  21  22
ENDBRANCH  20  21
ENDBRANCH  19  20
ENDBRANCH  18  19
ENDBRANCH  17  18
ENDBRANCH  16  17
ENDBRANCH  15  16
ENDBRANCH  14  15
ENDBRANCH  13  14
ENDBRANCH   1  13
TORSDOF 20
ENDMDL
MODEL 5
REMARK VINA RESULT:    -3.786      3.294      4.495
REMARK INTER + INTRA:         -11.157
REMARK INTER:                  -7.069
REMARK INTRA:                  -4.088
REMARK UNBOUND:                -2.944
REMARK SMILES CCCCCCCCCCCCCCCCCCCCCC(=O)[O-]
REMARK SMILES IDX 12 1 11 2 10 3 9 4 8 5 7 6 6 7 5 8 4 9 3 10 2 11 1 12 13 13
REMARK SMILES IDX 14 14 15 15 16 16 17 17 18 18 19 19 20 20 21 21 22 22 23 23
REMARK SMILES IDX 24 24
REMARK H PARENT
REMARK Flexibility Score: inf
ROOT
ATOM      1  C   UNL     1      12.880 -10.626  22.103  1.00  0.00     0.000 C 
ENDROOT
BRANCH   1   2
ATOM      2  C   UNL     1      13.828 -11.554  21.322  1.00  0.00     0.000 C 
BRANCH   2   3
ATOM      3  C   UNL     1      14.322 -12.792  22.097  1.00  0.00     0.000 C 
BRANCH   3   4
ATOM      4  C   UNL     1      14.081 -14.145  21.396  1.00  0.00    -0.000 C 
BRANCH   4   5
ATOM      5  C   UNL     1      12.700 -14.775  21.653  1.00  0.00    -0.000 C 
BRANCH   5   6
ATOM      6  C   UNL     1      11.764 -14.680  20.440  1.00  0.00    -0.000 C 
BRANCH   6   7
ATOM      7  C   UNL     1      10.516 -13.850  20.776  1.00  0.00    -0.000 C 
BRANCH   7   8
ATOM      8  C   UNL     1      10.466 -13.427  22.253  1.00  0.00    -0.000 C 
BRANCH   8   9
ATOM      9  C   UNL     1       9.420 -12.332  22.519  1.00  0.00    -0.000 C 
BRANCH   9  10
ATOM     10  C   UNL     1       8.334 -12.278  21.434  1.00  0.00    -0.000 C 
BRANCH  10  11
ATOM     11  C   UNL     1       8.261 -10.910  20.739  1.00  0.00    -0.003 C 
ATOM     12  C   UNL     1       8.272 -11.062  19.221  1.00  0.00     0.004 C 
ENDBRANCH  10  11
ENDBRANCH   9  10
ENDBRANCH   8   9
ENDBRANCH   7   8
ENDBRANCH   6   7
ENDBRANCH   5   6
ENDBRANCH   4   5
ENDBRANCH   3   4
ENDBRANCH   2   3
ENDBRANCH   1   2
BRANCH   1  13
ATOM     13  C   UNL     1      11.941  -9.825  21.188  1.00  0.00     0.000 C 
BRANCH  13  14
ATOM     14  C   UNL     1      11.864 -10.394  19.759  1.00  0.00     0.000 C 
BRANCH  14  15
ATOM     15  C   UNL     1      12.328  -9.437  18.644  1.00  0.00     0.000 C 
BRANCH  15  16
ATOM     16  C   UNL     1      11.654  -9.649  17.275  1.00  0.00     0.000 C 
BRANCH  16  17
ATOM     17  C   UNL     1      12.415 -10.623  16.349  1.00  0.00     0.000 C 
BRANCH  17  18
ATOM     18  C   UNL     1      11.703 -11.979  16.209  1.00  0.00     0.000 C 
BRANCH  18  19
ATOM     19  C   UNL     1      12.201 -13.015  17.230  1.00  0.00     0.000 C 
BRANCH  19  20
ATOM     20  C   UNL     1      13.667 -12.789  17.638  1.00  0.00     0.006 C 
BRANCH  20  21
ATOM     21  C   UNL     1      14.456 -14.103  17.705  1.00  0.00     0.053 C 
BRANCH  21  22
ATOM     22  C   UNL     1      14.544 -14.766  16.364  1.00  0.00     0.041 C 
ATOM     23  O   UNL     1      14.082 -15.926  16.199  1.00  0.00    -0.550 OA
ATOM     24  O   UNL     1      15.171 -14.118  15.307  1.00  0.00    -0.550 OA
ENDBRANCH  21  22
ENDBRANCH  20  21
ENDBRANCH  19  20
ENDBRANCH  18  19
ENDBRANCH  17  18
ENDBRANCH  16  17
ENDBRANCH  15  16
ENDBRANCH  14  15
ENDBRANCH  13  14
ENDBRANCH   1  13
TORSDOF 20
ENDMDL
MODEL 6
REMARK VINA RESULT:    -3.775      4.026      5.897
REMARK INTER + INTRA:         -11.132
REMARK INTER:                  -7.304
REMARK INTRA:                  -3.828
REMARK UNBOUND:                -2.944
REMARK SMILES CCCCCCCCCCCCCCCCCCCCCC(=O)[O-]
REMARK SMILES IDX 12 1 11 2 10 3 9 4 8 5 7 6 6 7 5 8 4 9 3 10 2 11 1 12 13 13
REMARK SMILES IDX 14 14 15 15 16 16 17 17 18 18 19 19 20 20 21 21 22 22 23 23
REMARK SMILES IDX 24 24
REMARK H PARENT
REMARK Flexibility Score: inf
ROOT
ATOM      1  C   UNL     1      14.027 -10.178  18.854  1.00  0.00     0.000 C 
ENDROOT
BRANCH   1   2
ATOM      2  C   UNL     1      13.822 -10.922  20.186  1.00  0.00     0.000 C 
BRANCH   2   3
ATOM      3  C   UNL     1      12.465 -11.639  20.335  1.00  0.00     0.000 C 
BRANCH   3   4
ATOM      4  C   UNL     1      12.492 -12.928  21.184  1.00  0.00    -0.000 C 
BRANCH   4   5
ATOM      5  C   UNL     1      11.498 -14.018  20.745  1.00  0.00    -0.000 C 
BRANCH   5   6
ATOM      6  C   UNL     1      10.152 -13.932  21.480  1.00  0.00    -0.000 C 
BRANCH   6   7
ATOM      7  C   UNL     1      10.258 -13.018  22.710  1.00  0.00    -0.000 C 
BRANCH   7   8
ATOM      8  C   UNL     1       9.098 -12.015  22.803  1.00  0.00    -0.000 C 
BRANCH   8   9
ATOM      9  C   UNL     1       8.091 -12.167  21.650  1.00  0.00    -0.000 C 
BRANCH   9  10
ATOM     10  C   UNL     1       7.901 -10.865  20.857  1.00  0.00    -0.000 C 
BRANCH  10  11
ATOM     11  C   UNL     1       9.123 -10.516  19.994  1.00  0.00    -0.003 C 
ATOM     12  C   UNL     1       9.219 -11.435  18.779  1.00  0.00     0.004 C 
ENDBRANCH  10  11
ENDBRANCH   9  10
ENDBRANCH   8   9
ENDBRANCH   7   8
ENDBRANCH   6   7
ENDBRANCH   5   6
ENDBRANCH   4   5
ENDBRANCH   3   4
ENDBRANCH   2   3
ENDBRANCH   1   2
BRANCH   1  13
ATOM     13  C   UNL     1      12.712  -9.650  18.258  1.00  0.00     0.000 C 
BRANCH  13  14
ATOM     14  C   UNL     1      12.407 -10.232  16.864  1.00  0.00     0.000 C 
BRANCH  14  15
ATOM     15  C   UNL     1      13.038 -11.608  16.574  1.00  0.00     0.000 C 
BRANCH  15  16
ATOM     16  C   UNL     1      12.067 -12.802  16.640  1.00  0.00     0.000 C 
BRANCH  16  17
ATOM     17  C   UNL     1      12.675 -14.065  17.285  1.00  0.00     0.000 C 
BRANCH  17  18
ATOM     18  C   UNL     1      14.102 -13.830  17.810  1.00  0.00     0.000 C 
BRANCH  18  19
ATOM     19  C   UNL     1      14.837 -15.141  18.130  1.00  0.00     0.000 C 
BRANCH  19  20
ATOM     20  C   UNL     1      14.471 -15.705  19.514  1.00  0.00     0.006 C 
BRANCH  20  21
ATOM     21  C   UNL     1      14.528 -17.237  19.548  1.00  0.00     0.053 C 
BRANCH  21  22
ATOM     22  C   UNL     1      13.173 -17.847  19.355  1.00  0.00     0.041 C 
ATOM     23  O   UNL     1      12.157 -17.111  19.246  1.00  0.00    -0.550 OA
ATOM     24  O   UNL     1      13.028 -19.228  19.335  1.00  0.00    -0.550 OA
ENDBRANCH  21  22
ENDBRANCH  20  21
ENDBRANCH  19  20
ENDBRANCH  18  19
ENDBRANCH  17  18
ENDBRANCH  16  17
ENDBRANCH  15  16
ENDBRANCH  14  15
ENDBRANCH  13  14
ENDBRANCH   1  13
TORSDOF 20
ENDMDL
MODEL 7
REMARK VINA RESULT:    -3.761      3.789      6.462
REMARK INTER + INTRA:         -11.101
REMARK INTER:                  -6.859
REMARK INTRA:                  -4.243
REMARK UNBOUND:                -2.944
REMARK SMILES CCCCCCCCCCCCCCCCCCCCCC(=O)[O-]
REMARK SMILES IDX 12 1 11 2 10 3 9 4 8 5 7 6 6 7 5 8 4 9 3 10 2 11 1 12 13 13
REMARK SMILES IDX 14 14 15 15 16 16 17 17 18 18 19 19 20 20 21 21 22 22 23 23
REMARK SMILES IDX 24 24
REMARK H PARENT
REMARK Flexibility Score: inf
ROOT
ATOM      1  C   UNL     1       9.638 -11.715  18.863  1.00  0.00     0.000 C 
ENDROOT
BRANCH   1   2
ATOM      2  C   UNL     1      10.510 -11.132  17.736  1.00  0.00     0.000 C 
BRANCH   2   3
ATOM      3  C   UNL     1      11.263 -12.174  16.884  1.00  0.00     0.000 C 
BRANCH   3   4
ATOM      4  C   UNL     1      12.778 -11.924  16.728  1.00  0.00    -0.000 C 
BRANCH   4   5
ATOM      5  C   UNL     1      13.238 -10.491  17.047  1.00  0.00    -0.000 C 
BRANCH   5   6
ATOM      6  C   UNL     1      14.231 -10.427  18.217  1.00  0.00    -0.000 C 
BRANCH   6   7
ATOM      7  C   UNL     1      13.831 -11.409  19.328  1.00  0.00    -0.000 C 
BRANCH   7   8
ATOM      8  C   UNL     1      14.487 -11.075  20.677  1.00  0.00    -0.000 C 
BRANCH   8   9
ATOM      9  C   UNL     1      13.469 -10.599  21.728  1.00  0.00    -0.000 C 
BRANCH   9  10
ATOM     10  C   UNL     1      12.096 -10.280  21.116  1.00  0.00    -0.000 C 
BRANCH  10  11
ATOM     11  C   UNL     1      11.763  -8.781  21.164  1.00  0.00    -0.003 C 
ATOM     12  C   UNL     1      11.756  -8.173  19.764  1.00  0.00     0.004 C 
ENDBRANCH  10  11
ENDBRANCH   9  10
ENDBRANCH   8   9
ENDBRANCH   7   8
ENDBRANCH   6   7
ENDBRANCH   5   6
ENDBRANCH   4   5
ENDBRANCH   3   4
ENDBRANCH   2   3
ENDBRANCH   1   2
BRANCH   1  13
ATOM     13  C   UNL     1       8.879 -10.634  19.649  1.00  0.00     0.000 C 
BRANCH  13  14
ATOM     14  C   UNL     1       7.887 -11.219  20.672  1.00  0.00     0.000 C 
BRANCH  14  15
ATOM     15  C   UNL     1       8.414 -12.416  21.488  1.00  0.00     0.000 C 
BRANCH  15  16
ATOM     16  C   UNL     1       9.230 -12.045  22.742  1.00  0.00     0.000 C 
BRANCH  16  17
ATOM     17  C   UNL     1      10.495 -12.908  22.940  1.00  0.00     0.000 C 
BRANCH  17  18
ATOM     18  C   UNL     1      10.579 -14.069  21.934  1.00  0.00     0.000 C 
BRANCH  18  19
ATOM     19  C   UNL     1      11.902 -14.077  21.151  1.00  0.00     0.000 C 
BRANCH  19  20
ATOM     20  C   UNL     1      11.722 -14.503  19.684  1.00  0.00     0.006 C 
BRANCH  20  21
ATOM     21  C   UNL     1      13.024 -15.035  19.073  1.00  0.00     0.053 C 
BRANCH  21  22
ATOM     22  C   UNL     1      12.819 -16.351  18.387  1.00  0.00     0.041 C 
ATOM     23  O   UNL     1      12.067 -17.222  18.900  1.00  0.00    -0.550 OA
ATOM     24  O   UNL     1      13.488 -16.631  17.203  1.00  0.00    -0.550 OA
ENDBRANCH  21  22
ENDBRANCH  20  21
ENDBRANCH  19  20
ENDBRANCH  18  19
ENDBRANCH  17  18
ENDBRANCH  16  17
ENDBRANCH  15  16
ENDBRANCH  14  15
ENDBRANCH  13  14
ENDBRANCH   1  13
TORSDOF 20
ENDMDL
MODEL 8
REMARK VINA RESULT:    -3.745      2.995      6.094
REMARK INTER + INTRA:         -11.068
REMARK INTER:                  -6.989
REMARK INTRA:                  -4.079
REMARK UNBOUND:                -2.944
REMARK SMILES CCCCCCCCCCCCCCCCCCCCCC(=O)[O-]
REMARK SMILES IDX 12 1 11 2 10 3 9 4 8 5 7 6 6 7 5 8 4 9 3 10 2 11 1 12 13 13
REMARK SMILES IDX 14 14 15 15 16 16 17 17 18 18 19 19 20 20 21 21 22 22 23 23
REMARK SMILES IDX 24 24
REMARK H PARENT
REMARK Flexibility Score: inf
ROOT
ATOM      1  C   UNL     1      11.053 -13.943  22.433  1.00  0.00     0.000 C 
ENDROOT
BRANCH   1   2
ATOM      2  C   UNL     1      10.589 -14.412  21.043  1.00  0.00     0.000 C 
BRANCH   2   3
ATOM      3  C   UNL     1      10.868 -13.427  19.890  1.00  0.00     0.000 C 
BRANCH   3   4
ATOM      4  C   UNL     1      12.178 -13.675  19.114  1.00  0.00    -0.000 C 
BRANCH   4   5
ATOM      5  C   UNL     1      13.418 -12.963  19.685  1.00  0.00    -0.000 C 
BRANCH   5   6
ATOM      6  C   UNL     1      14.582 -13.922  19.971  1.00  0.00    -0.000 C 
BRANCH   6   7
ATOM      7  C   UNL     1      14.581 -14.359  21.443  1.00  0.00    -0.000 C 
BRANCH   7   8
ATOM      8  C   UNL     1      14.121 -15.814  21.628  1.00  0.00    -0.000 C 
BRANCH   8   9
ATOM      9  C   UNL     1      14.207 -16.631  20.328  1.00  0.00    -0.000 C 
BRANCH   9  10
ATOM     10  C   UNL     1      12.936 -17.452  20.061  1.00  0.00    -0.000 C 
BRANCH  10  11
ATOM     11  C   UNL     1      12.343 -17.187  18.670  1.00  0.00    -0.003 C 
ATOM     12  C   UNL     1      13.435 -16.832  17.665  1.00  0.00     0.004 C 
ENDBRANCH  10  11
ENDBRANCH   9  10
ENDBRANCH   8   9
ENDBRANCH   7   8
ENDBRANCH   6   7
ENDBRANCH   5   6
ENDBRANCH   4   5
ENDBRANCH   3   4
ENDBRANCH   2   3
ENDBRANCH   1   2
BRANCH   1  13
ATOM     13  C   UNL     1      10.738 -12.462  22.698  1.00  0.00     0.000 C 
BRANCH  13  14
ATOM     14  C   UNL     1       9.249 -12.209  23.000  1.00  0.00     0.000 C 
BRANCH  14  15
ATOM     15  C   UNL     1       8.634 -10.984  22.294  1.00  0.00     0.000 C 
BRANCH  15  16
ATOM     16  C   UNL     1       8.198 -11.220  20.835  1.00  0.00     0.000 C 
BRANCH  16  17
ATOM     17  C   UNL     1       8.931 -10.325  19.813  1.00  0.00     0.000 C 
BRANCH  17  18
ATOM     18  C   UNL     1      10.058  -9.498  20.456  1.00  0.00     0.000 C 
BRANCH  18  19
ATOM     19  C   UNL     1      11.434  -9.798  19.841  1.00  0.00     0.000 C 
BRANCH  19  20
ATOM     20  C   UNL     1      11.635  -9.120  18.475  1.00  0.00     0.006 C 
BRANCH  20  21
ATOM     21  C   UNL     1      11.616 -10.130  17.321  1.00  0.00     0.053 C 
BRANCH  21  22
ATOM     22  C   UNL     1      12.996 -10.594  16.967  1.00  0.00     0.041 C 
ATOM     23  O   UNL     1      14.001 -10.068  17.515  1.00  0.00    -0.550 OA
ATOM     24  O   UNL     1      13.174 -11.580  16.006  1.00  0.00    -0.550 OA
ENDBRANCH  21  22
ENDBRANCH  20  21
ENDBRANCH  19  20
ENDBRANCH  18  19
ENDBRANCH  17  18
ENDBRANCH  16  17
ENDBRANCH  15  16
ENDBRANCH  14  15
ENDBRANCH  13  14
ENDBRANCH   1  13
TORSDOF 20
ENDMDL
MODEL 9
REMARK VINA RESULT:    -3.722      3.163      5.762
REMARK INTER + INTRA:         -11.018
REMARK INTER:                  -6.494
REMARK INTRA:                  -4.524
REMARK UNBOUND:                -2.944
REMARK SMILES CCCCCCCCCCCCCCCCCCCCCC(=O)[O-]
REMARK SMILES IDX 12 1 11 2 10 3 9 4 8 5 7 6 6 7 5 8 4 9 3 10 2 11 1 12 13 13
REMARK SMILES IDX 14 14 15 15 16 16 17 17 18 18 19 19 20 20 21 21 22 22 23 23
REMARK SMILES IDX 24 24
REMARK H PARENT
REMARK Flexibility Score: inf
ROOT
ATOM      1  C   UNL     1       9.485 -11.812  19.703  1.00  0.00     0.000 C 
ENDROOT
BRANCH   1   2
ATOM      2  C   UNL     1      10.579 -12.878  19.893  1.00  0.00     0.000 C 
BRANCH   2   3
ATOM      3  C   UNL     1      10.177 -14.084  20.766  1.00  0.00     0.000 C 
BRANCH   3   4
ATOM      4  C   UNL     1      11.130 -14.394  21.939  1.00  0.00    -0.000 C 
BRANCH   4   5
ATOM      5  C   UNL     1      11.341 -13.235  22.930  1.00  0.00    -0.000 C 
BRANCH   5   6
ATOM      6  C   UNL     1      12.808 -13.064  23.349  1.00  0.00    -0.000 C 
BRANCH   6   7
ATOM      7  C   UNL     1      13.732 -13.911  22.462  1.00  0.00    -0.000 C 
BRANCH   7   8
ATOM      8  C   UNL     1      14.644 -13.055  21.569  1.00  0.00    -0.000 C 
BRANCH   8   9
ATOM      9  C   UNL     1      14.281 -13.163  20.078  1.00  0.00    -0.000 C 
BRANCH   9  10
ATOM     10  C   UNL     1      14.525 -14.571  19.513  1.00  0.00    -0.000 C 
BRANCH  10  11
ATOM     11  C   UNL     1      13.270 -15.170  18.860  1.00  0.00    -0.003 C 
ATOM     12  C   UNL     1      12.910 -16.512  19.491  1.00  0.00     0.004 C 
ENDBRANCH  10  11
ENDBRANCH   9  10
ENDBRANCH   8   9
ENDBRANCH   7   8
ENDBRANCH   6   7
ENDBRANCH   5   6
ENDBRANCH   4   5
ENDBRANCH   3   4
ENDBRANCH   2   3
ENDBRANCH   1   2
BRANCH   1  13
ATOM     13  C   UNL     1       8.519 -11.731  20.896  1.00  0.00     0.000 C 
BRANCH  13  14
ATOM     14  C   UNL     1       8.873 -10.601  21.881  1.00  0.00     0.000 C 
BRANCH  14  15
ATOM     15  C   UNL     1       9.909  -9.582  21.368  1.00  0.00     0.000 C 
BRANCH  15  16
ATOM     16  C   UNL     1      11.255  -9.582  22.118  1.00  0.00     0.000 C 
BRANCH  16  17
ATOM     17  C   UNL     1      12.438 -10.103  21.274  1.00  0.00     0.000 C 
BRANCH  17  18
ATOM     18  C   UNL     1      13.357  -8.969  20.785  1.00  0.00     0.000 C 
BRANCH  18  19
ATOM     19  C   UNL     1      13.477  -8.928  19.253  1.00  0.00     0.000 C 
BRANCH  19  20
ATOM     20  C   UNL     1      12.837 -10.151  18.574  1.00  0.00     0.006 C 
BRANCH  20  21
ATOM     21  C   UNL     1      13.623 -10.603  17.337  1.00  0.00     0.053 C 
BRANCH  21  22
ATOM     22  C   UNL     1      13.060 -11.861  16.750  1.00  0.00     0.041 C 
ATOM     23  O   UNL     1      13.830 -12.761  16.323  1.00  0.00    -0.550 OA
ATOM     24  O   UNL     1      11.685 -12.023  16.640  1.00  0.00    -0.550 OA
ENDBRANCH  21  22
ENDBRANCH  20  21
ENDBRANCH  19  20
ENDBRANCH  18  19
ENDBRANCH  17  18
ENDBRANCH  16  17
ENDBRANCH  15  16
ENDBRANCH  14  15
ENDBRANCH  13  14
ENDBRANCH   1  13
TORSDOF 20
ENDMDL
