MODEL 1
REMARK VINA RESULT:    -4.233      0.000      0.000
REMARK INTER + INTRA:          -5.378
REMARK INTER:                  -5.223
REMARK INTRA:                  -0.156
REMARK UNBOUND:                -0.156
REMARK SMILES C=CC(=C)CCC=C(C)C
REMARK SMILES IDX 5 1 6 2 7 3 9 4 8 5 10 6 3 7 4 8 2 9 1 10
REMARK H PARENT
REMARK Flexibility Score: inf
ROOT
ATOM      1  C   UNL     1     153.382 136.482 161.343  1.00  0.00     0.039 C 
ENDROOT
BRANCH   1   2
ATOM      2  C   UNL     1     153.861 136.063 162.736  1.00  0.00     0.032 C 
BRANCH   2   3
ATOM      3  C   UNL     1     153.450 137.071 163.784  1.00  0.00    -0.028 C 
ATOM      4  C   UNL     1     153.531 139.218 164.978  1.00  0.00     0.039 C 
ATOM      5  C   UNL     1     154.019 138.289 163.898  1.00  0.00    -0.080 C 
ATOM      6  C   UNL     1     155.124 138.735 162.969  1.00  0.00     0.039 C 
ENDBRANCH   2   3
ENDBRANCH   1   2
BRANCH   1   7
ATOM      7  C   UNL     1     151.929 136.111 161.139  1.00  0.00    -0.055 C 
ATOM      8  C   UNL     1     151.497 134.918 161.563  1.00  0.00     0.012 C 
BRANCH   7   9
ATOM      9  C   UNL     1     150.971 137.009 160.443  1.00  0.00    -0.005 C 
ATOM     10  C   UNL     1     150.639 136.891 159.156  1.00  0.00     0.009 C 
ENDBRANCH   7   9
ENDBRANCH   1   7
TORSDOF 4
ENDMDL
MODEL 2
REMARK VINA RESULT:    -4.117      0.960      1.479
REMARK INTER + INTRA:          -5.235
REMARK INTER:                  -4.737
REMARK INTRA:                  -0.499
REMARK UNBOUND:                -0.156
REMARK SMILES C=CC(=C)CCC=C(C)C
REMARK SMILES IDX 5 1 6 2 7 3 9 4 8 5 10 6 3 7 4 8 2 9 1 10
REMARK H PARENT
REMARK Flexibility Score: inf
ROOT
ATOM      1  C   UNL     1     153.485 134.973 161.892  1.00  0.00     0.039 C 
ENDROOT
BRANCH   1   2
ATOM      2  C   UNL     1     154.010 135.639 163.168  1.00  0.00     0.032 C 
BRANCH   2   3
ATOM      3  C   UNL     1     154.717 136.937 162.858  1.00  0.00    -0.028 C 
ATOM      4  C   UNL     1     155.125 139.357 163.015  1.00  0.00     0.039 C 
ATOM      5  C   UNL     1     154.350 138.121 163.392  1.00  0.00    -0.080 C 
ATOM      6  C   UNL     1     153.188 138.230 164.351  1.00  0.00     0.039 C 
ENDBRANCH   2   3
ENDBRANCH   1   2
BRANCH   1   7
ATOM      7  C   UNL     1     152.151 135.561 161.487  1.00  0.00    -0.055 C 
ATOM      8  C   UNL     1     151.032 134.875 161.746  1.00  0.00     0.012 C 
BRANCH   7   9
ATOM      9  C   UNL     1     152.042 136.858 160.768  1.00  0.00    -0.005 C 
ATOM     10  C   UNL     1     150.892 137.375 160.335  1.00  0.00     0.009 C 
ENDBRANCH   7   9
ENDBRANCH   1   7
TORSDOF 4
ENDMDL
MODEL 3
REMARK VINA RESULT:    -4.098     21.444     22.750
REMARK INTER + INTRA:          -5.212
REMARK INTER:                  -4.718
REMARK INTRA:                  -0.493
REMARK UNBOUND:                -0.156
REMARK SMILES C=CC(=C)CCC=C(C)C
REMARK SMILES IDX 5 1 6 2 7 3 9 4 8 5 10 6 3 7 4 8 2 9 1 10
REMARK H PARENT
REMARK Flexibility Score: inf
ROOT
ATOM      1  C   UNL     1     137.056 155.111 162.314  1.00  0.00     0.039 C 
ENDROOT
BRANCH   1   2
ATOM      2  C   UNL     1     138.585 155.081 162.405  1.00  0.00     0.032 C 
BRANCH   2   3
ATOM      3  C   UNL     1     139.216 155.079 161.034  1.00  0.00    -0.028 C 
ATOM      4  C   UNL     1     140.068 154.065 158.962  1.00  0.00     0.039 C 
ATOM      5  C   UNL     1     139.431 153.953 160.322  1.00  0.00    -0.080 C 
ATOM      6  C   UNL     1     139.047 152.594 160.860  1.00  0.00     0.039 C 
ENDBRANCH   2   3
ENDBRANCH   1   2
BRANCH   1   7
ATOM      7  C   UNL     1     136.454 153.877 162.949  1.00  0.00    -0.055 C 
ATOM      8  C   UNL     1     135.186 153.553 162.668  1.00  0.00     0.012 C 
BRANCH   7   9
ATOM      9  C   UNL     1     137.208 153.032 163.912  1.00  0.00    -0.005 C 
ATOM     10  C   UNL     1     136.878 151.778 164.222  1.00  0.00     0.009 C 
ENDBRANCH   7   9
ENDBRANCH   1   7
TORSDOF 4
ENDMDL
MODEL 4
REMARK VINA RESULT:    -4.040      1.016      4.492
REMARK INTER + INTRA:          -5.140
REMARK INTER:                  -4.533
REMARK INTRA:                  -0.607
REMARK UNBOUND:                -0.156
REMARK SMILES C=CC(=C)CCC=C(C)C
REMARK SMILES IDX 5 1 6 2 7 3 9 4 8 5 10 6 3 7 4 8 2 9 1 10
REMARK H PARENT
REMARK Flexibility Score: inf
ROOT
ATOM      1  C   UNL     1     153.286 135.214 162.503  1.00  0.00     0.039 C 
ENDROOT
BRANCH   1   2
ATOM      2  C   UNL     1     151.784 135.357 162.232  1.00  0.00     0.032 C 
BRANCH   2   3
ATOM      3  C   UNL     1     151.501 135.470 160.753  1.00  0.00    -0.028 C 
ATOM      4  C   UNL     1     150.938 136.639 158.665  1.00  0.00     0.039 C 
ATOM      5  C   UNL     1     151.203 136.639 160.147  1.00  0.00    -0.080 C 
ATOM      6  C   UNL     1     151.130 137.934 160.921  1.00  0.00     0.039 C 
ENDBRANCH   2   3
ENDBRANCH   1   2
BRANCH   1   7
ATOM      7  C   UNL     1     153.887 136.539 162.917  1.00  0.00    -0.055 C 
ATOM      8  C   UNL     1     155.124 136.848 162.511  1.00  0.00     0.012 C 
BRANCH   7   9
ATOM      9  C   UNL     1     153.168 137.495 163.800  1.00  0.00    -0.005 C 
ATOM     10  C   UNL     1     153.690 138.641 164.240  1.00  0.00     0.009 C 
ENDBRANCH   7   9
ENDBRANCH   1   7
TORSDOF 4
ENDMDL
MODEL 5
REMARK VINA RESULT:    -3.727     14.114     16.426
REMARK INTER + INTRA:          -4.755
REMARK INTER:                  -4.434
REMARK INTRA:                  -0.320
REMARK UNBOUND:                -0.156
REMARK SMILES C=CC(=C)CCC=C(C)C
REMARK SMILES IDX 5 1 6 2 7 3 9 4 8 5 10 6 3 7 4 8 2 9 1 10
REMARK H PARENT
REMARK Flexibility Score: inf
ROOT
ATOM      1  C   UNL     1     137.461 137.651 162.683  1.00  0.00     0.039 C 
ENDROOT
BRANCH   1   2
ATOM      2  C   UNL     1     136.108 137.057 163.087  1.00  0.00     0.032 C 
BRANCH   2   3
ATOM      3  C   UNL     1     135.719 135.913 162.181  1.00  0.00    -0.028 C 
ATOM      4  C   UNL     1     134.876 134.880 160.116  1.00  0.00     0.039 C 
ATOM      5  C   UNL     1     135.232 136.092 160.936  1.00  0.00    -0.080 C 
ATOM      6  C   UNL     1     135.039 137.473 160.354  1.00  0.00     0.039 C 
ENDBRANCH   2   3
ENDBRANCH   1   2
BRANCH   1   7
ATOM      7  C   UNL     1     138.597 136.752 163.120  1.00  0.00    -0.055 C 
ATOM      8  C   UNL     1     138.954 136.736 164.409  1.00  0.00     0.012 C 
BRANCH   7   9
ATOM      9  C   UNL     1     139.362 135.916 162.158  1.00  0.00    -0.005 C 
ATOM     10  C   UNL     1     138.812 134.988 161.374  1.00  0.00     0.009 C 
ENDBRANCH   7   9
ENDBRANCH   1   7
TORSDOF 4
ENDMDL
MODEL 6
REMARK VINA RESULT:    -3.608      1.177      4.634
REMARK INTER + INTRA:          -4.608
REMARK INTER:                  -4.838
REMARK INTRA:                   0.231
REMARK UNBOUND:                -0.156
REMARK SMILES C=CC(=C)CCC=C(C)C
REMARK SMILES IDX 5 1 6 2 7 3 9 4 8 5 10 6 3 7 4 8 2 9 1 10
REMARK H PARENT
REMARK Flexibility Score: inf
ROOT
ATOM      1  C   UNL     1     153.858 139.014 162.214  1.00  0.00     0.039 C 
ENDROOT
BRANCH   1   2
ATOM      2  C   UNL     1     152.556 138.566 161.541  1.00  0.00     0.032 C 
BRANCH   2   3
ATOM      3  C   UNL     1     152.375 137.070 161.641  1.00  0.00    -0.028 C 
ATOM      4  C   UNL     1     151.434 134.883 161.026  1.00  0.00     0.039 C 
ATOM      5  C   UNL     1     151.538 136.374 160.842  1.00  0.00    -0.080 C 
ATOM      6  C   UNL     1     150.714 137.057 159.776  1.00  0.00     0.039 C 
ENDBRANCH   2   3
ENDBRANCH   1   2
BRANCH   1   7
ATOM      7  C   UNL     1     154.129 138.198 163.459  1.00  0.00    -0.055 C 
ATOM      8  C   UNL     1     153.643 138.619 164.632  1.00  0.00     0.012 C 
BRANCH   7   9
ATOM      9  C   UNL     1     154.959 136.965 163.433  1.00  0.00    -0.005 C 
ATOM     10  C   UNL     1     154.460 135.729 163.483  1.00  0.00     0.009 C 
ENDBRANCH   7   9
ENDBRANCH   1   7
TORSDOF 4
ENDMDL
MODEL 7
REMARK VINA RESULT:    -3.508     21.395     22.344
REMARK INTER + INTRA:          -4.484
REMARK INTER:                  -4.608
REMARK INTRA:                   0.124
REMARK UNBOUND:                -0.156
REMARK SMILES C=CC(=C)CCC=C(C)C
REMARK SMILES IDX 5 1 6 2 7 3 9 4 8 5 10 6 3 7 4 8 2 9 1 10
REMARK H PARENT
REMARK Flexibility Score: inf
ROOT
ATOM      1  C   UNL     1     139.022 154.895 161.619  1.00  0.00     0.039 C 
ENDROOT
BRANCH   1   2
ATOM      2  C   UNL     1     137.681 154.758 162.348  1.00  0.00     0.032 C 
BRANCH   2   3
ATOM      3  C   UNL     1     137.758 153.731 163.452  1.00  0.00    -0.028 C 
ATOM      4  C   UNL     1     136.945 151.873 164.842  1.00  0.00     0.039 C 
ATOM      5  C   UNL     1     136.764 152.858 163.717  1.00  0.00    -0.080 C 
ATOM      6  C   UNL     1     135.484 152.850 162.914  1.00  0.00     0.039 C 
ENDBRANCH   2   3
ENDBRANCH   1   2
BRANCH   1   7
ATOM      7  C   UNL     1     139.175 153.818 160.567  1.00  0.00    -0.055 C 
ATOM      8  C   UNL     1     138.479 152.683 160.692  1.00  0.00     0.012 C 
BRANCH   7   9
ATOM      9  C   UNL     1     140.109 153.959 159.419  1.00  0.00    -0.005 C 
ATOM     10  C   UNL     1     139.720 154.005 158.144  1.00  0.00     0.009 C 
ENDBRANCH   7   9
ENDBRANCH   1   7
TORSDOF 4
ENDMDL
MODEL 8
REMARK VINA RESULT:    -3.408     14.223     16.073
REMARK INTER + INTRA:          -4.360
REMARK INTER:                  -3.678
REMARK INTRA:                  -0.682
REMARK UNBOUND:                -0.156
REMARK SMILES C=CC(=C)CCC=C(C)C
REMARK SMILES IDX 5 1 6 2 7 3 9 4 8 5 10 6 3 7 4 8 2 9 1 10
REMARK H PARENT
REMARK Flexibility Score: inf
ROOT
ATOM      1  C   UNL     1     136.717 134.875 161.165  1.00  0.00     0.039 C 
ENDROOT
BRANCH   1   2
ATOM      2  C   UNL     1     138.065 135.602 161.135  1.00  0.00     0.032 C 
BRANCH   2   3
ATOM      3  C   UNL     1     138.592 135.838 162.531  1.00  0.00    -0.028 C 
ATOM      4  C   UNL     1     139.012 137.138 164.575  1.00  0.00     0.039 C 
ATOM      5  C   UNL     1     138.449 137.011 163.184  1.00  0.00    -0.080 C 
ATOM      6  C   UNL     1     137.742 138.186 162.551  1.00  0.00     0.039 C 
ENDBRANCH   2   3
ENDBRANCH   1   2
BRANCH   1   7
ATOM      7  C   UNL     1     135.572 135.864 161.187  1.00  0.00    -0.055 C 
ATOM      8  C   UNL     1     135.192 136.446 160.044  1.00  0.00     0.012 C 
BRANCH   7   9
ATOM      9  C   UNL     1     134.881 136.249 162.446  1.00  0.00    -0.005 C 
ATOM     10  C   UNL     1     135.095 135.661 163.623  1.00  0.00     0.009 C 
ENDBRANCH   7   9
ENDBRANCH   1   7
TORSDOF 4
ENDMDL
MODEL 9
REMARK VINA RESULT:    -3.395      0.918      4.487
REMARK INTER + INTRA:          -4.344
REMARK INTER:                  -3.948
REMARK INTRA:                  -0.396
REMARK UNBOUND:                -0.156
REMARK SMILES C=CC(=C)CCC=C(C)C
REMARK SMILES IDX 5 1 6 2 7 3 9 4 8 5 10 6 3 7 4 8 2 9 1 10
REMARK H PARENT
REMARK Flexibility Score: inf
ROOT
ATOM      1  C   UNL     1     153.813 136.409 161.377  1.00  0.00     0.039 C 
ENDROOT
BRANCH   1   2
ATOM      2  C   UNL     1     152.429 135.752 161.363  1.00  0.00     0.032 C 
BRANCH   2   3
ATOM      3  C   UNL     1     151.335 136.780 161.191  1.00  0.00    -0.028 C 
ATOM      4  C   UNL     1     149.755 138.177 159.929  1.00  0.00     0.039 C 
ATOM      5  C   UNL     1     150.846 137.142 159.986  1.00  0.00    -0.080 C 
ATOM      6  C   UNL     1     151.369 136.532 158.706  1.00  0.00     0.039 C 
ENDBRANCH   2   3
ENDBRANCH   1   2
BRANCH   1   7
ATOM      7  C   UNL     1     154.228 136.759 162.789  1.00  0.00    -0.055 C 
ATOM      8  C   UNL     1     154.339 135.781 163.695  1.00  0.00     0.012 C 
BRANCH   7   9
ATOM      9  C   UNL     1     154.475 138.160 163.220  1.00  0.00    -0.005 C 
ATOM     10  C   UNL     1     153.744 138.798 164.134  1.00  0.00     0.009 C 
ENDBRANCH   7   9
ENDBRANCH   1   7
TORSDOF 4
ENDMDL
