MODEL 1
REMARK VINA RESULT:    43.674      0.000      0.000
REMARK INTER + INTRA:          54.255
REMARK INTER:                  53.887
REMARK INTRA:                   0.368
REMARK UNBOUND:                 0.368
REMARK SMILES Oc1cc(O)c2cc(O)c(-c3cc(O)c(O)c(O)c3)[o+]c2c1
REMARK SMILES IDX 10 1 20 2 21 3 22 4 2 5 3 6 4 7 6 8 7 9 8 10 11 11 12 12
REMARK SMILES IDX 13 13 19 14 15 15 17 16 14 17 16 19 18 21 9 23 1 25 5 27
REMARK H PARENT 14 18 16 20 18 22 9 24 1 26 5 28
REMARK Flexibility Score: inf
ROOT
ATOM      1  C   UNL     1      11.560   1.739  26.921  1.00  0.00     0.402 A 
ATOM      2  O   UNL     1      12.024   2.938  27.274  1.00  0.00    -0.202 OA
ATOM      3  C   UNL     1      11.771   4.046  26.586  1.00  0.00     0.368 A 
ATOM      4  C   UNL     1      12.300   5.266  27.022  1.00  0.00     0.162 A 
ATOM      5  C   UNL     1      12.044   6.441  26.304  1.00  0.00     0.128 A 
ATOM      6  C   UNL     1      11.257   6.395  25.148  1.00  0.00     0.093 A 
ATOM      7  C   UNL     1      10.719   5.180  24.700  1.00  0.00     0.136 A 
ATOM      8  C   UNL     1      10.977   3.998  25.421  1.00  0.00     0.125 A 
ATOM      9  C   UNL     1      10.460   2.759  25.026  1.00  0.00     0.078 A 
ATOM     10  C   UNL     1      10.740   1.617  25.782  1.00  0.00     0.223 A 
ENDROOT
BRANCH   1  11
ATOM     11  C   UNL     1      11.918   0.574  27.763  1.00  0.00     0.091 A 
ATOM     12  C   UNL     1      12.364   0.735  29.085  1.00  0.00     0.068 A 
ATOM     13  C   UNL     1      12.677  -0.378  29.873  1.00  0.00     0.162 A 
ATOM     14  C   UNL     1      11.756  -0.721  27.250  1.00  0.00     0.068 A 
ATOM     15  C   UNL     1      12.533  -1.672  29.347  1.00  0.00     0.200 A 
ATOM     16  C   UNL     1      12.067  -1.843  28.032  1.00  0.00     0.162 A 
BRANCH  13  17
ATOM     17  O   UNL     1      13.123  -0.176  31.178  1.00  0.00    -0.504 OA
ATOM     18  H   UNL     1      13.818  -0.774  31.609  1.00  0.00     0.293 HD
ENDBRANCH  13  17
BRANCH  15  19
ATOM     19  O   UNL     1      12.851  -2.777  30.138  1.00  0.00    -0.502 OA
ATOM     20  H   UNL     1      13.802  -2.988  30.415  1.00  0.00     0.293 HD
ENDBRANCH  15  19
BRANCH  16  21
ATOM     21  O   UNL     1      11.915  -3.125  27.506  1.00  0.00    -0.504 OA
ATOM     22  H   UNL     1      11.137  -3.718  27.769  1.00  0.00     0.293 HD
ENDBRANCH  16  21
ENDBRANCH   1  11
BRANCH  10  23
ATOM     23  O   UNL     1      10.186   0.388  25.422  1.00  0.00    -0.500 OA
ATOM     24  H   UNL     1      10.483  -0.105  24.588  1.00  0.00     0.294 HD
ENDBRANCH  10  23
BRANCH   5  25
ATOM     25  O   UNL     1      12.567   7.660  26.730  1.00  0.00    -0.507 OA
ATOM     26  H   UNL     1      12.451   7.982  27.684  1.00  0.00     0.293 HD
ENDBRANCH   5  25
BRANCH   7  27
ATOM     27  O   UNL     1       9.935   5.148  23.547  1.00  0.00    -0.507 OA
ATOM     28  H   UNL     1       9.672   5.997  23.059  1.00  0.00     0.293 HD
ENDBRANCH   7  27
TORSDOF 7
ENDMDL
MODEL 2
REMARK VINA RESULT:    43.830      0.155      1.799
REMARK INTER + INTRA:          54.448
REMARK INTER:                  54.230
REMARK INTRA:                   0.218
REMARK UNBOUND:                 0.368
REMARK SMILES Oc1cc(O)c2cc(O)c(-c3cc(O)c(O)c(O)c3)[o+]c2c1
REMARK SMILES IDX 10 1 20 2 21 3 22 4 2 5 3 6 4 7 6 8 7 9 8 10 11 11 12 12
REMARK SMILES IDX 13 13 19 14 15 15 17 16 14 17 16 19 18 21 9 23 1 25 5 27
REMARK H PARENT 14 18 16 20 18 22 9 24 1 26 5 28
REMARK Flexibility Score: inf
ROOT
ATOM      1  C   UNL     1      11.582   1.718  27.020  1.00  0.00     0.402 A 
ATOM      2  O   UNL     1      12.070   2.911  27.359  1.00  0.00    -0.202 OA
ATOM      3  C   UNL     1      11.820   4.020  26.672  1.00  0.00     0.368 A 
ATOM      4  C   UNL     1      12.375   5.234  27.092  1.00  0.00     0.162 A 
ATOM      5  C   UNL     1      12.122   6.410  26.374  1.00  0.00     0.128 A 
ATOM      6  C   UNL     1      11.312   6.371  25.234  1.00  0.00     0.093 A 
ATOM      7  C   UNL     1      10.747   5.162  24.802  1.00  0.00     0.136 A 
ATOM      8  C   UNL     1      11.001   3.980  25.523  1.00  0.00     0.125 A 
ATOM      9  C   UNL     1      10.459   2.747  25.143  1.00  0.00     0.078 A 
ATOM     10  C   UNL     1      10.737   1.604  25.898  1.00  0.00     0.223 A 
ENDROOT
BRANCH   1  11
ATOM     11  C   UNL     1      11.939   0.551  27.860  1.00  0.00     0.091 A 
ATOM     12  C   UNL     1      11.922  -0.755  27.343  1.00  0.00     0.068 A 
ATOM     13  C   UNL     1      12.283  -1.844  28.143  1.00  0.00     0.162 A 
ATOM     14  C   UNL     1      12.356   0.756  29.183  1.00  0.00     0.068 A 
ATOM     15  C   UNL     1      12.679  -1.634  29.475  1.00  0.00     0.200 A 
ATOM     16  C   UNL     1      12.719  -0.329  29.993  1.00  0.00     0.162 A 
BRANCH  13  17
ATOM     17  O   UNL     1      12.247  -3.125  27.595  1.00  0.00    -0.504 OA
ATOM     18  H   UNL     1      12.222  -3.283  26.594  1.00  0.00     0.293 HD
ENDBRANCH  13  17
BRANCH  15  19
ATOM     19  O   UNL     1      13.035  -2.726  30.268  1.00  0.00    -0.502 OA
ATOM     20  H   UNL     1      12.511  -3.593  30.260  1.00  0.00     0.293 HD
ENDBRANCH  15  19
BRANCH  16  21
ATOM     21  O   UNL     1      13.119  -0.113  31.311  1.00  0.00    -0.504 OA
ATOM     22  H   UNL     1      14.095  -0.011  31.561  1.00  0.00     0.293 HD
ENDBRANCH  16  21
ENDBRANCH   1  11
BRANCH  10  23
ATOM     23  O   UNL     1      10.158   0.382  25.554  1.00  0.00    -0.500 OA
ATOM     24  H   UNL     1       9.375   0.001  26.072  1.00  0.00     0.294 HD
ENDBRANCH  10  23
BRANCH   5  25
ATOM     25  O   UNL     1      12.672   7.622  26.785  1.00  0.00    -0.507 OA
ATOM     26  H   UNL     1      13.271   8.166  26.175  1.00  0.00     0.293 HD
ENDBRANCH   5  25
BRANCH   7  27
ATOM     27  O   UNL     1       9.939   5.137  23.665  1.00  0.00    -0.507 OA
ATOM     28  H   UNL     1      10.091   5.775  22.891  1.00  0.00     0.293 HD
ENDBRANCH   7  27
TORSDOF 7
ENDMDL
MODEL 3
REMARK VINA RESULT:    46.244      1.028      3.097
REMARK INTER + INTRA:          57.426
REMARK INTER:                  57.022
REMARK INTRA:                   0.404
REMARK UNBOUND:                 0.368
REMARK SMILES Oc1cc(O)c2cc(O)c(-c3cc(O)c(O)c(O)c3)[o+]c2c1
REMARK SMILES IDX 10 1 20 2 21 3 22 4 2 5 3 6 4 7 6 8 7 9 8 10 11 11 12 12
REMARK SMILES IDX 13 13 19 14 15 15 17 16 14 17 16 19 18 21 9 23 1 25 5 27
REMARK H PARENT 14 18 16 20 18 22 9 24 1 26 5 28
REMARK Flexibility Score: inf
ROOT
ATOM      1  C   UNL     1      12.107   2.148  27.707  1.00  0.00     0.402 A 
ATOM      2  O   UNL     1      11.564   2.263  26.496  1.00  0.00    -0.202 OA
ATOM      3  C   UNL     1      11.343   3.434  25.907  1.00  0.00     0.368 A 
ATOM      4  C   UNL     1      10.765   3.470  24.634  1.00  0.00     0.162 A 
ATOM      5  C   UNL     1      10.522   4.697  24.004  1.00  0.00     0.128 A 
ATOM      6  C   UNL     1      10.859   5.891  24.650  1.00  0.00     0.093 A 
ATOM      7  C   UNL     1      11.441   5.871  25.926  1.00  0.00     0.136 A 
ATOM      8  C   UNL     1      11.685   4.638  26.560  1.00  0.00     0.125 A 
ATOM      9  C   UNL     1      12.269   4.557  27.828  1.00  0.00     0.078 A 
ATOM     10  C   UNL     1      12.496   3.306  28.410  1.00  0.00     0.223 A 
ENDROOT
BRANCH   1  11
ATOM     11  C   UNL     1      12.296   0.788  28.263  1.00  0.00     0.091 A 
ATOM     12  C   UNL     1      12.218  -0.354  27.449  1.00  0.00     0.068 A 
ATOM     13  C   UNL     1      12.422  -1.629  27.987  1.00  0.00     0.162 A 
ATOM     14  C   UNL     1      12.615   0.638  29.621  1.00  0.00     0.068 A 
ATOM     15  C   UNL     1      12.719  -1.775  29.352  1.00  0.00     0.200 A 
ATOM     16  C   UNL     1      12.819  -0.637  30.170  1.00  0.00     0.162 A 
BRANCH  13  17
ATOM     17  O   UNL     1      12.329  -2.738  27.147  1.00  0.00    -0.504 OA
ATOM     18  H   UNL     1      11.770  -3.549  27.384  1.00  0.00     0.293 HD
ENDBRANCH  13  17
BRANCH  15  19
ATOM     19  O   UNL     1      12.916  -3.051  29.882  1.00  0.00    -0.502 OA
ATOM     20  H   UNL     1      13.021  -3.870  29.295  1.00  0.00     0.293 HD
ENDBRANCH  15  19
BRANCH  16  21
ATOM     21  O   UNL     1      13.121  -0.773  31.524  1.00  0.00    -0.504 OA
ATOM     22  H   UNL     1      14.027  -1.104  31.835  1.00  0.00     0.293 HD
ENDBRANCH  16  21
ENDBRANCH   1  11
BRANCH  10  23
ATOM     23  O   UNL     1      13.125   3.216  29.653  1.00  0.00    -0.500 OA
ATOM     24  H   UNL     1      13.997   2.714  29.771  1.00  0.00     0.294 HD
ENDBRANCH  10  23
BRANCH   5  25
ATOM     25  O   UNL     1       9.946   4.741  22.737  1.00  0.00    -0.507 OA
ATOM     26  H   UNL     1       8.958   4.930  22.610  1.00  0.00     0.293 HD
ENDBRANCH   5  25
BRANCH   7  27
ATOM     27  O   UNL     1      11.775   7.069  26.559  1.00  0.00    -0.507 OA
ATOM     28  H   UNL     1      11.098   7.815  26.674  1.00  0.00     0.293 HD
ENDBRANCH   7  27
TORSDOF 7
ENDMDL
