MODEL 1
REMARK VINA RESULT:    -1.478      0.000      0.000
REMARK INTER + INTRA:          -3.234
REMARK INTER:                  -2.514
REMARK INTRA:                  -0.719
REMARK UNBOUND:                -0.719
REMARK SMILES CCCCCCCCCCCCCC(=O)[O-]
REMARK SMILES IDX 8 1 9 2 10 3 11 4 12 5 13 6 14 7 15 8 16 9 7 10 6 11 5 12
REMARK SMILES IDX 4 13 3 14 2 15 1 16
REMARK H PARENT
REMARK Flexibility Score: inf
ROOT
ATOM      1  C   UNL     1      -7.458  51.608  -5.205  1.00  0.00     0.000 C 
ENDROOT
BRANCH   1   2
ATOM      2  C   UNL     1      -8.462  50.518  -4.810  1.00  0.00     0.000 C 
BRANCH   2   3
ATOM      3  C   UNL     1      -8.561  50.388  -3.282  1.00  0.00     0.000 C 
BRANCH   3   4
ATOM      4  C   UNL     1      -8.591  51.751  -2.573  1.00  0.00     0.000 C 
BRANCH   4   5
ATOM      5  C   UNL     1      -8.055  51.681  -1.133  1.00  0.00     0.006 C 
BRANCH   5   6
ATOM      6  C   UNL     1      -6.586  52.116  -1.041  1.00  0.00     0.053 C 
BRANCH   6   7
ATOM      7  C   UNL     1      -5.994  51.795   0.297  1.00  0.00     0.041 C 
ATOM      8  O   UNL     1      -6.603  52.114   1.352  1.00  0.00    -0.550 OA
ATOM      9  O   UNL     1      -4.754  51.174   0.379  1.00  0.00    -0.550 OA
ENDBRANCH   6   7
ENDBRANCH   5   6
ENDBRANCH   4   5
ENDBRANCH   3   4
ENDBRANCH   2   3
ENDBRANCH   1   2
BRANCH   1  10
ATOM     10  C   UNL     1      -7.738  52.125  -6.624  1.00  0.00     0.000 C 
BRANCH  10  11
ATOM     11  C   UNL     1      -7.442  51.073  -7.706  1.00  0.00    -0.000 C 
BRANCH  11  12
ATOM     12  C   UNL     1      -6.739  51.670  -8.934  1.00  0.00    -0.000 C 
BRANCH  12  13
ATOM     13  C   UNL     1      -5.373  51.011  -9.159  1.00  0.00    -0.000 C 
BRANCH  13  14
ATOM     14  C   UNL     1      -4.233  52.023  -8.968  1.00  0.00    -0.000 C 
BRANCH  14  15
ATOM     15  C   UNL     1      -3.681  52.027  -7.535  1.00  0.00    -0.003 C 
ATOM     16  C   UNL     1      -2.261  51.469  -7.445  1.00  0.00     0.004 C 
ENDBRANCH  14  15
ENDBRANCH  13  14
ENDBRANCH  12  13
ENDBRANCH  11  12
ENDBRANCH  10  11
ENDBRANCH   1  10
TORSDOF 12
ENDMDL
MODEL 2
REMARK VINA RESULT:    -1.454      4.010      7.263
REMARK INTER + INTRA:          -3.194
REMARK INTER:                  -2.696
REMARK INTRA:                  -0.498
REMARK UNBOUND:                -0.719
REMARK SMILES CCCCCCCCCCCCCC(=O)[O-]
REMARK SMILES IDX 8 1 9 2 10 3 11 4 12 5 13 6 14 7 15 8 16 9 7 10 6 11 5 12
REMARK SMILES IDX 4 13 3 14 2 15 1 16
REMARK H PARENT
REMARK Flexibility Score: inf
ROOT
ATOM      1  C   UNL     1      -7.865  49.790  -3.224  1.00  0.00     0.000 C 
ENDROOT
BRANCH   1   2
ATOM      2  C   UNL     1      -8.612  50.145  -4.515  1.00  0.00     0.000 C 
BRANCH   2   3
ATOM      3  C   UNL     1      -8.736  51.668  -4.678  1.00  0.00     0.000 C 
BRANCH   3   4
ATOM      4  C   UNL     1      -8.610  52.119  -6.141  1.00  0.00     0.000 C 
BRANCH   4   5
ATOM      5  C   UNL     1      -7.239  51.776  -6.750  1.00  0.00     0.006 C 
BRANCH   5   6
ATOM      6  C   UNL     1      -7.227  51.934  -8.276  1.00  0.00     0.053 C 
BRANCH   6   7
ATOM      7  C   UNL     1      -7.230  50.608  -8.973  1.00  0.00     0.041 C 
ATOM      8  O   UNL     1      -6.549  50.441 -10.018  1.00  0.00    -0.550 OA
ATOM      9  O   UNL     1      -8.013  49.569  -8.487  1.00  0.00    -0.550 OA
ENDBRANCH   6   7
ENDBRANCH   5   6
ENDBRANCH   4   5
ENDBRANCH   3   4
ENDBRANCH   2   3
ENDBRANCH   1   2
BRANCH   1  10
ATOM     10  C   UNL     1      -8.774  49.966  -1.998  1.00  0.00     0.000 C 
BRANCH  10  11
ATOM     11  C   UNL     1      -8.732  51.395  -1.430  1.00  0.00    -0.000 C 
BRANCH  11  12
ATOM     12  C   UNL     1      -7.305  51.959  -1.355  1.00  0.00    -0.000 C 
BRANCH  12  13
ATOM     13  C   UNL     1      -6.810  52.006   0.096  1.00  0.00    -0.000 C 
BRANCH  13  14
ATOM     14  C   UNL     1      -5.502  51.216   0.258  1.00  0.00    -0.000 C 
BRANCH  14  15
ATOM     15  C   UNL     1      -4.264  52.124   0.281  1.00  0.00    -0.003 C 
ATOM     16  C   UNL     1      -2.955  51.343   0.175  1.00  0.00     0.004 C 
ENDBRANCH  14  15
ENDBRANCH  13  14
ENDBRANCH  12  13
ENDBRANCH  11  12
ENDBRANCH  10  11
ENDBRANCH   1  10
TORSDOF 12
ENDMDL
MODEL 3
REMARK VINA RESULT:    -1.145      3.809      7.277
REMARK INTER + INTRA:          -2.667
REMARK INTER:                  -2.011
REMARK INTRA:                  -0.657
REMARK UNBOUND:                -0.719
REMARK SMILES CCCCCCCCCCCCCC(=O)[O-]
REMARK SMILES IDX 8 1 9 2 10 3 11 4 12 5 13 6 14 7 15 8 16 9 7 10 6 11 5 12
REMARK SMILES IDX 4 13 3 14 2 15 1 16
REMARK H PARENT
REMARK Flexibility Score: inf
ROOT
ATOM      1  C   UNL     1      -7.791  50.046  -3.288  1.00  0.00     0.000 C 
ENDROOT
BRANCH   1   2
ATOM      2  C   UNL     1      -8.559  50.499  -4.536  1.00  0.00     0.000 C 
BRANCH   2   3
ATOM      3  C   UNL     1      -8.149  51.922  -4.948  1.00  0.00     0.000 C 
BRANCH   3   4
ATOM      4  C   UNL     1      -8.153  52.121  -6.472  1.00  0.00     0.000 C 
BRANCH   4   5
ATOM      5  C   UNL     1      -7.119  51.233  -7.187  1.00  0.00     0.006 C 
BRANCH   5   6
ATOM      6  C   UNL     1      -6.290  52.020  -8.210  1.00  0.00     0.053 C 
BRANCH   6   7
ATOM      7  C   UNL     1      -5.380  51.126  -8.995  1.00  0.00     0.041 C 
ATOM      8  O   UNL     1      -5.837  50.098  -9.560  1.00  0.00    -0.550 OA
ATOM      9  O   UNL     1      -4.022  51.408  -9.072  1.00  0.00    -0.550 OA
ENDBRANCH   6   7
ENDBRANCH   5   6
ENDBRANCH   4   5
ENDBRANCH   3   4
ENDBRANCH   2   3
ENDBRANCH   1   2
BRANCH   1  10
ATOM     10  C   UNL     1      -8.713  50.010  -2.060  1.00  0.00     0.000 C 
BRANCH  10  11
ATOM     11  C   UNL     1      -8.886  51.392  -1.409  1.00  0.00    -0.000 C 
BRANCH  11  12
ATOM     12  C   UNL     1      -7.545  52.091  -1.141  1.00  0.00    -0.000 C 
BRANCH  12  13
ATOM     13  C   UNL     1      -6.944  51.632   0.193  1.00  0.00    -0.000 C 
BRANCH  13  14
ATOM     14  C   UNL     1      -5.491  52.111   0.337  1.00  0.00    -0.000 C 
BRANCH  14  15
ATOM     15  C   UNL     1      -4.496  50.948   0.459  1.00  0.00    -0.003 C 
ATOM     16  C   UNL     1      -3.085  51.326   0.006  1.00  0.00     0.004 C 
ENDBRANCH  14  15
ENDBRANCH  13  14
ENDBRANCH  12  13
ENDBRANCH  11  12
ENDBRANCH  10  11
ENDBRANCH   1  10
TORSDOF 12
ENDMDL
MODEL 4
REMARK VINA RESULT:    -0.755      1.234      1.972
REMARK INTER + INTRA:          -2.005
REMARK INTER:                  -1.380
REMARK INTRA:                  -0.625
REMARK UNBOUND:                -0.719
REMARK SMILES CCCCCCCCCCCCCC(=O)[O-]
REMARK SMILES IDX 8 1 9 2 10 3 11 4 12 5 13 6 14 7 15 8 16 9 7 10 6 11 5 12
REMARK SMILES IDX 4 13 3 14 2 15 1 16
REMARK H PARENT
REMARK Flexibility Score: inf
ROOT
ATOM      1  C   UNL     1      -8.338  49.975  -3.984  1.00  0.00     0.000 C 
ENDROOT
BRANCH   1   2
ATOM      2  C   UNL     1      -9.094  50.969  -3.095  1.00  0.00     0.000 C 
BRANCH   2   3
ATOM      3  C   UNL     1      -8.873  50.655  -1.607  1.00  0.00     0.000 C 
BRANCH   3   4
ATOM      4  C   UNL     1      -8.433  51.888  -0.801  1.00  0.00     0.000 C 
BRANCH   4   5
ATOM      5  C   UNL     1      -6.914  52.125  -0.865  1.00  0.00     0.006 C 
BRANCH   5   6
ATOM      6  C   UNL     1      -6.266  52.101   0.526  1.00  0.00     0.053 C 
BRANCH   6   7
ATOM      7  C   UNL     1      -4.923  51.439   0.502  1.00  0.00     0.041 C 
ATOM      8  O   UNL     1      -3.882  52.125   0.328  1.00  0.00    -0.550 OA
ATOM      9  O   UNL     1      -4.824  50.060   0.636  1.00  0.00    -0.550 OA
ENDBRANCH   6   7
ENDBRANCH   5   6
ENDBRANCH   4   5
ENDBRANCH   3   4
ENDBRANCH   2   3
ENDBRANCH   1   2
BRANCH   1  10
ATOM     10  C   UNL     1      -8.222  50.503  -5.422  1.00  0.00     0.000 C 
BRANCH  10  11
ATOM     11  C   UNL     1      -7.639  51.924  -5.486  1.00  0.00    -0.000 C 
BRANCH  11  12
ATOM     12  C   UNL     1      -6.535  52.064  -6.544  1.00  0.00    -0.000 C 
BRANCH  12  13
ATOM     13  C   UNL     1      -7.097  51.850  -7.955  1.00  0.00    -0.000 C 
BRANCH  13  14
ATOM     14  C   UNL     1      -5.968  51.610  -8.968  1.00  0.00    -0.000 C 
BRANCH  14  15
ATOM     15  C   UNL     1      -4.609  52.125  -8.470  1.00  0.00    -0.003 C 
ATOM     16  C   UNL     1      -3.530  52.091  -9.552  1.00  0.00     0.004 C 
ENDBRANCH  14  15
ENDBRANCH  13  14
ENDBRANCH  12  13
ENDBRANCH  11  12
ENDBRANCH  10  11
ENDBRANCH   1  10
TORSDOF 12
ENDMDL
MODEL 5
REMARK VINA RESULT:     0.238      1.585      2.648
REMARK INTER + INTRA:          -0.315
REMARK INTER:                   0.420
REMARK INTRA:                  -0.735
REMARK UNBOUND:                -0.719
REMARK SMILES CCCCCCCCCCCCCC(=O)[O-]
REMARK SMILES IDX 8 1 9 2 10 3 11 4 12 5 13 6 14 7 15 8 16 9 7 10 6 11 5 12
REMARK SMILES IDX 4 13 3 14 2 15 1 16
REMARK H PARENT
REMARK Flexibility Score: inf
ROOT
ATOM      1  C   UNL     1      -7.789  50.663  -4.216  1.00  0.00     0.000 C 
ENDROOT
BRANCH   1   2
ATOM      2  C   UNL     1      -9.100  50.883  -3.450  1.00  0.00     0.000 C 
BRANCH   2   3
ATOM      3  C   UNL     1      -8.889  51.833  -2.260  1.00  0.00     0.000 C 
BRANCH   3   4
ATOM      4  C   UNL     1      -9.021  51.121  -0.905  1.00  0.00     0.000 C 
BRANCH   4   5
ATOM      5  C   UNL     1      -7.657  50.759  -0.292  1.00  0.00     0.006 C 
BRANCH   5   6
ATOM      6  C   UNL     1      -6.615  51.866  -0.504  1.00  0.00     0.053 C 
BRANCH   6   7
ATOM      7  C   UNL     1      -5.389  51.641   0.327  1.00  0.00     0.041 C 
ATOM      8  O   UNL     1      -4.284  52.125  -0.033  1.00  0.00    -0.550 OA
ATOM      9  O   UNL     1      -5.460  50.868   1.478  1.00  0.00    -0.550 OA
ENDBRANCH   6   7
ENDBRANCH   5   6
ENDBRANCH   4   5
ENDBRANCH   3   4
ENDBRANCH   2   3
ENDBRANCH   1   2
BRANCH   1  10
ATOM     10  C   UNL     1      -8.009  50.795  -5.730  1.00  0.00     0.000 C 
BRANCH  10  11
ATOM     11  C   UNL     1      -7.475  52.123  -6.293  1.00  0.00    -0.000 C 
BRANCH  11  12
ATOM     12  C   UNL     1      -7.394  52.125  -7.826  1.00  0.00    -0.000 C 
BRANCH  12  13
ATOM     13  C   UNL     1      -6.155  51.362  -8.312  1.00  0.00    -0.000 C 
BRANCH  13  14
ATOM     14  C   UNL     1      -6.391  50.757  -9.704  1.00  0.00    -0.000 C 
BRANCH  14  15
ATOM     15  C   UNL     1      -7.883  50.606 -10.037  1.00  0.00    -0.003 C 
ATOM     16  C   UNL     1      -8.460  49.266  -9.580  1.00  0.00     0.004 C 
ENDBRANCH  14  15
ENDBRANCH  13  14
ENDBRANCH  12  13
ENDBRANCH  11  12
ENDBRANCH  10  11
ENDBRANCH   1  10
TORSDOF 12
ENDMDL
MODEL 6
REMARK VINA RESULT:     0.564      1.720      2.047
REMARK INTER + INTRA:           0.240
REMARK INTER:                   0.442
REMARK INTRA:                  -0.201
REMARK UNBOUND:                -0.719
REMARK SMILES CCCCCCCCCCCCCC(=O)[O-]
REMARK SMILES IDX 8 1 9 2 10 3 11 4 12 5 13 6 14 7 15 8 16 9 7 10 6 11 5 12
REMARK SMILES IDX 4 13 3 14 2 15 1 16
REMARK H PARENT
REMARK Flexibility Score: inf
ROOT
ATOM      1  C   UNL     1      -7.952  51.190  -5.668  1.00  0.00     0.000 C 
ENDROOT
BRANCH   1   2
ATOM      2  C   UNL     1      -7.543  52.021  -4.445  1.00  0.00     0.000 C 
BRANCH   2   3
ATOM      3  C   UNL     1      -8.590  51.906  -3.326  1.00  0.00     0.000 C 
BRANCH   3   4
ATOM      4  C   UNL     1      -7.986  52.105  -1.928  1.00  0.00     0.000 C 
BRANCH   4   5
ATOM      5  C   UNL     1      -8.951  51.695  -0.802  1.00  0.00     0.006 C 
BRANCH   5   6
ATOM      6  C   UNL     1      -9.125  50.173  -0.714  1.00  0.00     0.053 C 
BRANCH   6   7
ATOM      7  C   UNL     1      -7.885  49.447  -1.137  1.00  0.00     0.041 C 
ATOM      8  O   UNL     1      -6.877  49.424  -0.383  1.00  0.00    -0.550 OA
ATOM      9  O   UNL     1      -7.831  48.826  -2.378  1.00  0.00    -0.550 OA
ENDBRANCH   6   7
ENDBRANCH   5   6
ENDBRANCH   4   5
ENDBRANCH   3   4
ENDBRANCH   2   3
ENDBRANCH   1   2
BRANCH   1  10
ATOM     10  C   UNL     1      -8.194  52.092  -6.888  1.00  0.00     0.000 C 
BRANCH  10  11
ATOM     11  C   UNL     1      -8.264  51.301  -8.204  1.00  0.00    -0.000 C 
BRANCH  11  12
ATOM     12  C   UNL     1      -6.880  50.865  -8.706  1.00  0.00    -0.000 C 
BRANCH  12  13
ATOM     13  C   UNL     1      -5.802  51.872  -8.286  1.00  0.00    -0.000 C 
BRANCH  13  14
ATOM     14  C   UNL     1      -4.404  51.388  -8.702  1.00  0.00    -0.000 C 
BRANCH  14  15
ATOM     15  C   UNL     1      -3.279  52.125  -7.960  1.00  0.00    -0.003 C 
ATOM     16  C   UNL     1      -2.330  51.175  -7.230  1.00  0.00     0.004 C 
ENDBRANCH  14  15
ENDBRANCH  13  14
ENDBRANCH  12  13
ENDBRANCH  11  12
ENDBRANCH  10  11
ENDBRANCH   1  10
TORSDOF 12
ENDMDL
MODEL 7
REMARK VINA RESULT:     0.568      3.956      5.038
REMARK INTER + INTRA:           0.247
REMARK INTER:                   0.788
REMARK INTRA:                  -0.541
REMARK UNBOUND:                -0.719
REMARK SMILES CCCCCCCCCCCCCC(=O)[O-]
REMARK SMILES IDX 8 1 9 2 10 3 11 4 12 5 13 6 14 7 15 8 16 9 7 10 6 11 5 12
REMARK SMILES IDX 4 13 3 14 2 15 1 16
REMARK H PARENT
REMARK Flexibility Score: inf
ROOT
ATOM      1  C   UNL     1      -8.211  49.730  -3.418  1.00  0.00     0.000 C 
ENDROOT
BRANCH   1   2
ATOM      2  C   UNL     1      -8.150  50.104  -1.932  1.00  0.00     0.000 C 
BRANCH   2   3
ATOM      3  C   UNL     1      -7.346  49.064  -1.135  1.00  0.00     0.000 C 
BRANCH   3   4
ATOM      4  C   UNL     1      -7.661  47.621  -1.560  1.00  0.00     0.000 C 
BRANCH   4   5
ATOM      5  C   UNL     1      -6.565  46.627  -1.137  1.00  0.00     0.006 C 
BRANCH   5   6
ATOM      6  C   UNL     1      -7.036  45.170  -1.238  1.00  0.00     0.053 C 
BRANCH   6   7
ATOM      7  C   UNL     1      -6.455  44.480  -2.434  1.00  0.00     0.041 C 
ATOM      8  O   UNL     1      -6.742  44.876  -3.594  1.00  0.00    -0.550 OA
ATOM      9  O   UNL     1      -5.626  43.378  -2.268  1.00  0.00    -0.550 OA
ENDBRANCH   6   7
ENDBRANCH   5   6
ENDBRANCH   4   5
ENDBRANCH   3   4
ENDBRANCH   2   3
ENDBRANCH   1   2
BRANCH   1  10
ATOM     10  C   UNL     1      -8.866  50.851  -4.239  1.00  0.00     0.000 C 
BRANCH  10  11
ATOM     11  C   UNL     1      -8.007  52.125  -4.293  1.00  0.00    -0.000 C 
BRANCH  11  12
ATOM     12  C   UNL     1      -6.978  52.097  -5.433  1.00  0.00    -0.000 C 
BRANCH  12  13
ATOM     13  C   UNL     1      -7.660  51.838  -6.782  1.00  0.00    -0.000 C 
BRANCH  13  14
ATOM     14  C   UNL     1      -6.698  52.113  -7.947  1.00  0.00    -0.000 C 
BRANCH  14  15
ATOM     15  C   UNL     1      -6.764  51.029  -9.034  1.00  0.00    -0.003 C 
ATOM     16  C   UNL     1      -5.387  50.652  -9.578  1.00  0.00     0.004 C 
ENDBRANCH  14  15
ENDBRANCH  13  14
ENDBRANCH  12  13
ENDBRANCH  11  12
ENDBRANCH  10  11
ENDBRANCH   1  10
TORSDOF 12
ENDMDL
MODEL 8
REMARK VINA RESULT:     0.620      2.400      4.412
REMARK INTER + INTRA:           0.336
REMARK INTER:                   0.929
REMARK INTRA:                  -0.593
REMARK UNBOUND:                -0.719
REMARK SMILES CCCCCCCCCCCCCC(=O)[O-]
REMARK SMILES IDX 8 1 9 2 10 3 11 4 12 5 13 6 14 7 15 8 16 9 7 10 6 11 5 12
REMARK SMILES IDX 4 13 3 14 2 15 1 16
REMARK H PARENT
REMARK Flexibility Score: inf
ROOT
ATOM      1  C   UNL     1      -8.269  50.888  -0.774  1.00  0.00     0.000 C 
ENDROOT
BRANCH   1   2
ATOM      2  C   UNL     1      -6.910  50.259  -1.104  1.00  0.00     0.000 C 
BRANCH   2   3
ATOM      3  C   UNL     1      -5.958  50.343   0.100  1.00  0.00     0.000 C 
BRANCH   3   4
ATOM      4  C   UNL     1      -5.773  51.781   0.608  1.00  0.00     0.000 C 
BRANCH   4   5
ATOM      5  C   UNL     1      -4.299  52.125   0.885  1.00  0.00     0.006 C 
BRANCH   5   6
ATOM      6  C   UNL     1      -3.449  52.101  -0.393  1.00  0.00     0.053 C 
BRANCH   6   7
ATOM      7  C   UNL     1      -2.010  51.811  -0.098  1.00  0.00     0.041 C 
ATOM      8  O   UNL     1      -1.256  51.363  -1.001  1.00  0.00    -0.550 OA
ATOM      9  O   UNL     1      -1.510  52.002   1.184  1.00  0.00    -0.550 OA
ENDBRANCH   6   7
ENDBRANCH   5   6
ENDBRANCH   4   5
ENDBRANCH   3   4
ENDBRANCH   2   3
ENDBRANCH   1   2
BRANCH   1  10
ATOM     10  C   UNL     1      -9.028  51.260  -2.057  1.00  0.00     0.000 C 
BRANCH  10  11
ATOM     11  C   UNL     1      -8.188  52.122  -3.013  1.00  0.00    -0.000 C 
BRANCH  11  12
ATOM     12  C   UNL     1      -8.686  52.054  -4.464  1.00  0.00    -0.000 C 
BRANCH  12  13
ATOM     13  C   UNL     1      -7.527  51.785  -5.431  1.00  0.00    -0.000 C 
BRANCH  13  14
ATOM     14  C   UNL     1      -7.944  52.064  -6.883  1.00  0.00    -0.000 C 
BRANCH  14  15
ATOM     15  C   UNL     1      -6.807  51.810  -7.883  1.00  0.00    -0.003 C 
ATOM     16  C   UNL     1      -7.312  51.351  -9.251  1.00  0.00     0.004 C 
ENDBRANCH  14  15
ENDBRANCH  13  14
ENDBRANCH  12  13
ENDBRANCH  11  12
ENDBRANCH  10  11
ENDBRANCH   1  10
TORSDOF 12
ENDMDL
