MODEL 1
REMARK VINA RESULT:    -3.601      0.000      0.000
REMARK INTER + INTRA:          -9.060
REMARK INTER:                  -6.549
REMARK INTRA:                  -2.512
REMARK UNBOUND:                -2.512
REMARK SMILES CCCCCCCCCCCCCCCC(=O)[O-]
REMARK SMILES IDX 9 1 10 2 11 3 12 4 13 5 14 6 15 7 16 8 17 9 18 10 8 11 7 12
REMARK SMILES IDX 6 13 5 14 4 15 3 16 2 17 1 18
REMARK H PARENT
REMARK Flexibility Score: inf
ROOT
ATOM      1  C   UNL     1      15.467   1.637  60.609  1.00  0.00     0.000 C 
ENDROOT
BRANCH   1   2
ATOM      2  C   UNL     1      16.036   2.508  59.482  1.00  0.00     0.000 C 
BRANCH   2   3
ATOM      3  C   UNL     1      15.346   2.200  58.147  1.00  0.00     0.000 C 
BRANCH   3   4
ATOM      4  C   UNL     1      14.763   0.781  58.144  1.00  0.00     0.000 C 
BRANCH   4   5
ATOM      5  C   UNL     1      15.673  -0.187  57.374  1.00  0.00     0.000 C 
BRANCH   5   6
ATOM      6  C   UNL     1      16.751   0.530  56.543  1.00  0.00     0.006 C 
BRANCH   6   7
ATOM      7  C   UNL     1      17.987  -0.337  56.240  1.00  0.00     0.053 C 
BRANCH   7   8
ATOM      8  C   UNL     1      19.225   0.164  56.919  1.00  0.00     0.041 C 
ATOM      9  O   UNL     1      20.172  -0.625  57.177  1.00  0.00    -0.550 OA
ATOM     10  O   UNL     1      19.319   1.497  57.299  1.00  0.00    -0.550 OA
ENDBRANCH   7   8
ENDBRANCH   6   7
ENDBRANCH   5   6
ENDBRANCH   4   5
ENDBRANCH   3   4
ENDBRANCH   2   3
ENDBRANCH   1   2
BRANCH   1  11
ATOM     11  C   UNL     1      16.595   1.018  61.448  1.00  0.00     0.000 C 
BRANCH  11  12
ATOM     12  C   UNL     1      17.890   0.821  60.645  1.00  0.00    -0.000 C 
BRANCH  12  13
ATOM     13  C   UNL     1      18.138  -0.652  60.276  1.00  0.00    -0.000 C 
BRANCH  13  14
ATOM     14  C   UNL     1      17.219  -1.623  61.039  1.00  0.00    -0.000 C 
BRANCH  14  15
ATOM     15  C   UNL     1      16.239  -2.419  60.155  1.00  0.00    -0.000 C 
BRANCH  15  16
ATOM     16  C   UNL     1      14.908  -2.797  60.833  1.00  0.00    -0.000 C 
BRANCH  16  17
ATOM     17  C   UNL     1      14.583  -1.951  62.082  1.00  0.00    -0.003 C 
ATOM     18  C   UNL     1      13.301  -1.133  61.924  1.00  0.00     0.004 C 
ENDBRANCH  16  17
ENDBRANCH  15  16
ENDBRANCH  14  15
ENDBRANCH  13  14
ENDBRANCH  12  13
ENDBRANCH  11  12
ENDBRANCH   1  11
TORSDOF 14
ENDMDL
MODEL 2
REMARK VINA RESULT:    -3.573      1.630      3.194
REMARK INTER + INTRA:          -9.009
REMARK INTER:                  -6.612
REMARK INTRA:                  -2.397
REMARK UNBOUND:                -2.512
REMARK SMILES CCCCCCCCCCCCCCCC(=O)[O-]
REMARK SMILES IDX 9 1 10 2 11 3 12 4 13 5 14 6 15 7 16 8 17 9 18 10 8 11 7 12
REMARK SMILES IDX 6 13 5 14 4 15 3 16 2 17 1 18
REMARK H PARENT
REMARK Flexibility Score: inf
ROOT
ATOM      1  C   UNL     1      18.093   2.217  61.487  1.00  0.00     0.000 C 
ENDROOT
BRANCH   1   2
ATOM      2  C   UNL     1      18.804   1.068  60.761  1.00  0.00     0.000 C 
BRANCH   2   3
ATOM      3  C   UNL     1      18.436  -0.286  61.381  1.00  0.00     0.000 C 
BRANCH   3   4
ATOM      4  C   UNL     1      18.005  -1.286  60.302  1.00  0.00     0.000 C 
BRANCH   4   5
ATOM      5  C   UNL     1      17.796  -0.585  58.952  1.00  0.00     0.000 C 
BRANCH   5   6
ATOM      6  C   UNL     1      16.637  -1.182  58.135  1.00  0.00     0.006 C 
BRANCH   6   7
ATOM      7  C   UNL     1      15.904  -0.157  57.249  1.00  0.00     0.053 C 
BRANCH   7   8
ATOM      8  C   UNL     1      16.794   0.449  56.208  1.00  0.00     0.041 C 
ATOM      9  O   UNL     1      17.127   1.661  56.282  1.00  0.00    -0.550 OA
ATOM     10  O   UNL     1      17.230  -0.318  55.134  1.00  0.00    -0.550 OA
ENDBRANCH   7   8
ENDBRANCH   6   7
ENDBRANCH   5   6
ENDBRANCH   4   5
ENDBRANCH   3   4
ENDBRANCH   2   3
ENDBRANCH   1   2
BRANCH   1  11
ATOM     11  C   UNL     1      17.070   1.680  62.499  1.00  0.00     0.000 C 
BRANCH  11  12
ATOM     12  C   UNL     1      15.628   2.080  62.149  1.00  0.00    -0.000 C 
BRANCH  12  13
ATOM     13  C   UNL     1      15.260   1.751  60.692  1.00  0.00    -0.000 C 
BRANCH  13  14
ATOM     14  C   UNL     1      14.403   0.478  60.564  1.00  0.00    -0.000 C 
BRANCH  14  15
ATOM     15  C   UNL     1      13.724   0.020  61.869  1.00  0.00    -0.000 C 
BRANCH  15  16
ATOM     16  C   UNL     1      13.615  -1.507  62.047  1.00  0.00    -0.000 C 
BRANCH  16  17
ATOM     17  C   UNL     1      14.967  -2.243  61.942  1.00  0.00    -0.003 C 
ATOM     18  C   UNL     1      14.982  -3.297  60.835  1.00  0.00     0.004 C 
ENDBRANCH  16  17
ENDBRANCH  15  16
ENDBRANCH  14  15
ENDBRANCH  13  14
ENDBRANCH  12  13
ENDBRANCH  11  12
ENDBRANCH   1  11
TORSDOF 14
ENDMDL
MODEL 3
REMARK VINA RESULT:    -3.560      9.229     12.486
REMARK INTER + INTRA:          -8.986
REMARK INTER:                  -6.644
REMARK INTRA:                  -2.342
REMARK UNBOUND:                -2.512
REMARK SMILES CCCCCCCCCCCCCCCC(=O)[O-]
REMARK SMILES IDX 9 1 10 2 11 3 12 4 13 5 14 6 15 7 16 8 17 9 18 10 8 11 7 12
REMARK SMILES IDX 6 13 5 14 4 15 3 16 2 17 1 18
REMARK H PARENT
REMARK Flexibility Score: inf
ROOT
ATOM      1  C   UNL     1      26.563  -2.358  54.866  1.00  0.00     0.000 C 
ENDROOT
BRANCH   1   2
ATOM      2  C   UNL     1      25.080  -2.654  54.610  1.00  0.00     0.000 C 
BRANCH   2   3
ATOM      3  C   UNL     1      24.736  -4.102  54.981  1.00  0.00     0.000 C 
BRANCH   3   4
ATOM      4  C   UNL     1      25.961  -4.831  55.547  1.00  0.00     0.000 C 
BRANCH   4   5
ATOM      5  C   UNL     1      25.629  -5.512  56.883  1.00  0.00     0.000 C 
BRANCH   5   6
ATOM      6  C   UNL     1      24.458  -4.846  57.625  1.00  0.00     0.006 C 
BRANCH   6   7
ATOM      7  C   UNL     1      24.883  -4.021  58.853  1.00  0.00     0.053 C 
BRANCH   7   8
ATOM      8  C   UNL     1      24.256  -4.509  60.124  1.00  0.00     0.041 C 
ATOM      9  O   UNL     1      23.595  -3.722  60.850  1.00  0.00    -0.550 OA
ATOM     10  O   UNL     1      24.431  -5.829  60.523  1.00  0.00    -0.550 OA
ENDBRANCH   7   8
ENDBRANCH   6   7
ENDBRANCH   5   6
ENDBRANCH   4   5
ENDBRANCH   3   4
ENDBRANCH   2   3
ENDBRANCH   1   2
BRANCH   1  11
ATOM     11  C   UNL     1      27.245  -1.826  53.597  1.00  0.00     0.000 C 
BRANCH  11  12
ATOM     12  C   UNL     1      26.311  -1.835  52.376  1.00  0.00    -0.000 C 
BRANCH  12  13
ATOM     13  C   UNL     1      26.751  -2.846  51.303  1.00  0.00    -0.000 C 
BRANCH  13  14
ATOM     14  C   UNL     1      25.882  -4.117  51.287  1.00  0.00    -0.000 C 
BRANCH  14  15
ATOM     15  C   UNL     1      26.536  -5.357  51.926  1.00  0.00    -0.000 C 
BRANCH  15  16
ATOM     16  C   UNL     1      28.077  -5.339  51.960  1.00  0.00    -0.000 C 
BRANCH  16  17
ATOM     17  C   UNL     1      28.676  -5.855  53.285  1.00  0.00    -0.003 C 
ATOM     18  C   UNL     1      29.425  -4.769  54.057  1.00  0.00     0.004 C 
ENDBRANCH  16  17
ENDBRANCH  15  16
ENDBRANCH  14  15
ENDBRANCH  13  14
ENDBRANCH  12  13
ENDBRANCH  11  12
ENDBRANCH   1  11
TORSDOF 14
ENDMDL
MODEL 4
REMARK VINA RESULT:    -3.518      8.571     12.277
REMARK INTER + INTRA:          -8.910
REMARK INTER:                  -6.340
REMARK INTRA:                  -2.570
REMARK UNBOUND:                -2.512
REMARK SMILES CCCCCCCCCCCCCCCC(=O)[O-]
REMARK SMILES IDX 9 1 10 2 11 3 12 4 13 5 14 6 15 7 16 8 17 9 18 10 8 11 7 12
REMARK SMILES IDX 6 13 5 14 4 15 3 16 2 17 1 18
REMARK H PARENT
REMARK Flexibility Score: inf
ROOT
ATOM      1  C   UNL     1      27.125  -3.860  55.486  1.00  0.00     0.000 C 
ENDROOT
BRANCH   1   2
ATOM      2  C   UNL     1      25.929  -4.808  55.330  1.00  0.00     0.000 C 
BRANCH   2   3
ATOM      3  C   UNL     1      24.658  -4.034  54.959  1.00  0.00     0.000 C 
BRANCH   3   4
ATOM      4  C   UNL     1      24.847  -2.528  55.178  1.00  0.00     0.000 C 
BRANCH   4   5
ATOM      5  C   UNL     1      23.986  -2.028  56.347  1.00  0.00     0.000 C 
BRANCH   5   6
ATOM      6  C   UNL     1      24.769  -1.915  57.668  1.00  0.00     0.006 C 
BRANCH   6   7
ATOM      7  C   UNL     1      24.168  -2.736  58.823  1.00  0.00     0.053 C 
BRANCH   7   8
ATOM      8  C   UNL     1      24.574  -4.177  58.781  1.00  0.00     0.041 C 
ATOM      9  O   UNL     1      23.828  -5.033  58.236  1.00  0.00    -0.550 OA
ATOM     10  O   UNL     1      25.764  -4.582  59.374  1.00  0.00    -0.550 OA
ENDBRANCH   7   8
ENDBRANCH   6   7
ENDBRANCH   5   6
ENDBRANCH   4   5
ENDBRANCH   3   4
ENDBRANCH   2   3
ENDBRANCH   1   2
BRANCH   1  11
ATOM     11  C   UNL     1      28.320  -4.340  54.650  1.00  0.00     0.000 C 
BRANCH  11  12
ATOM     12  C   UNL     1      27.998  -5.597  53.826  1.00  0.00    -0.000 C 
BRANCH  12  13
ATOM     13  C   UNL     1      27.972  -5.320  52.313  1.00  0.00    -0.000 C 
BRANCH  13  14
ATOM     14  C   UNL     1      26.549  -5.350  51.724  1.00  0.00    -0.000 C 
BRANCH  14  15
ATOM     15  C   UNL     1      25.882  -3.970  51.569  1.00  0.00    -0.000 C 
BRANCH  15  16
ATOM     16  C   UNL     1      26.845  -2.815  51.231  1.00  0.00    -0.000 C 
BRANCH  16  17
ATOM     17  C   UNL     1      26.832  -1.671  52.266  1.00  0.00    -0.003 C 
ATOM     18  C   UNL     1      28.236  -1.195  52.638  1.00  0.00     0.004 C 
ENDBRANCH  16  17
ENDBRANCH  15  16
ENDBRANCH  14  15
ENDBRANCH  13  14
ENDBRANCH  12  13
ENDBRANCH  11  12
ENDBRANCH   1  11
TORSDOF 14
ENDMDL
MODEL 5
REMARK VINA RESULT:    -3.517      9.876     12.942
REMARK INTER + INTRA:          -8.906
REMARK INTER:                  -6.627
REMARK INTRA:                  -2.279
REMARK UNBOUND:                -2.512
REMARK SMILES CCCCCCCCCCCCCCCC(=O)[O-]
REMARK SMILES IDX 9 1 10 2 11 3 12 4 13 5 14 6 15 7 16 8 17 9 18 10 8 11 7 12
REMARK SMILES IDX 6 13 5 14 4 15 3 16 2 17 1 18
REMARK H PARENT
REMARK Flexibility Score: inf
ROOT
ATOM      1  C   UNL     1      24.838  -3.355  53.293  1.00  0.00     0.000 C 
ENDROOT
BRANCH   1   2
ATOM      2  C   UNL     1      24.810  -2.844  54.739  1.00  0.00     0.000 C 
BRANCH   2   3
ATOM      3  C   UNL     1      24.842  -4.009  55.735  1.00  0.00     0.000 C 
BRANCH   3   4
ATOM      4  C   UNL     1      25.725  -5.151  55.218  1.00  0.00     0.000 C 
BRANCH   4   5
ATOM      5  C   UNL     1      26.450  -5.854  56.375  1.00  0.00     0.000 C 
BRANCH   5   6
ATOM      6  C   UNL     1      26.695  -4.933  57.583  1.00  0.00     0.006 C 
BRANCH   6   7
ATOM      7  C   UNL     1      26.459  -5.611  58.945  1.00  0.00     0.053 C 
BRANCH   7   8
ATOM      8  C   UNL     1      25.185  -5.170  59.597  1.00  0.00     0.041 C 
ATOM      9  O   UNL     1      24.104  -5.178  58.952  1.00  0.00    -0.550 OA
ATOM     10  O   UNL     1      25.197  -4.717  60.911  1.00  0.00    -0.550 OA
ENDBRANCH   7   8
ENDBRANCH   6   7
ENDBRANCH   5   6
ENDBRANCH   4   5
ENDBRANCH   3   4
ENDBRANCH   2   3
ENDBRANCH   1   2
BRANCH   1  11
ATOM     11  C   UNL     1      25.891  -2.604  52.464  1.00  0.00     0.000 C 
BRANCH  11  12
ATOM     12  C   UNL     1      26.481  -3.467  51.338  1.00  0.00    -0.000 C 
BRANCH  12  13
ATOM     13  C   UNL     1      26.558  -4.957  51.713  1.00  0.00    -0.000 C 
BRANCH  13  14
ATOM     14  C   UNL     1      28.005  -5.469  51.836  1.00  0.00    -0.000 C 
BRANCH  14  15
ATOM     15  C   UNL     1      29.091  -4.395  51.635  1.00  0.00    -0.000 C 
BRANCH  15  16
ATOM     16  C   UNL     1      29.921  -4.062  52.891  1.00  0.00    -0.000 C 
BRANCH  16  17
ATOM     17  C   UNL     1      29.141  -4.226  54.213  1.00  0.00    -0.003 C 
ATOM     18  C   UNL     1      28.713  -2.888  54.816  1.00  0.00     0.004 C 
ENDBRANCH  16  17
ENDBRANCH  15  16
ENDBRANCH  14  15
ENDBRANCH  13  14
ENDBRANCH  12  13
ENDBRANCH  11  12
ENDBRANCH   1  11
TORSDOF 14
ENDMDL
MODEL 6
REMARK VINA RESULT:    -3.515     10.391     13.385
REMARK INTER + INTRA:          -8.904
REMARK INTER:                  -6.345
REMARK INTRA:                  -2.559
REMARK UNBOUND:                -2.512
REMARK SMILES CCCCCCCCCCCCCCCC(=O)[O-]
REMARK SMILES IDX 9 1 10 2 11 3 12 4 13 5 14 6 15 7 16 8 17 9 18 10 8 11 7 12
REMARK SMILES IDX 6 13 5 14 4 15 3 16 2 17 1 18
REMARK H PARENT
REMARK Flexibility Score: inf
ROOT
ATOM      1  C   UNL     1      26.486  -3.214  51.296  1.00  0.00     0.000 C 
ENDROOT
BRANCH   1   2
ATOM      2  C   UNL     1      25.652  -4.014  52.304  1.00  0.00     0.000 C 
BRANCH   2   3
ATOM      3  C   UNL     1      25.007  -3.088  53.342  1.00  0.00     0.000 C 
BRANCH   3   4
ATOM      4  C   UNL     1      25.125  -3.676  54.753  1.00  0.00     0.000 C 
BRANCH   4   5
ATOM      5  C   UNL     1      25.758  -5.075  54.717  1.00  0.00     0.000 C 
BRANCH   5   6
ATOM      6  C   UNL     1      26.662  -5.360  55.929  1.00  0.00     0.006 C 
BRANCH   6   7
ATOM      7  C   UNL     1      26.393  -4.448  57.139  1.00  0.00     0.053 C 
BRANCH   7   8
ATOM      8  C   UNL     1      25.537  -5.104  58.179  1.00  0.00     0.041 C 
ATOM      9  O   UNL     1      24.281  -5.041  58.102  1.00  0.00    -0.550 OA
ATOM     10  O   UNL     1      26.126  -5.757  59.254  1.00  0.00    -0.550 OA
ENDBRANCH   7   8
ENDBRANCH   6   7
ENDBRANCH   5   6
ENDBRANCH   4   5
ENDBRANCH   3   4
ENDBRANCH   2   3
ENDBRANCH   1   2
BRANCH   1  11
ATOM     11  C   UNL     1      26.942  -1.877  51.897  1.00  0.00     0.000 C 
BRANCH  11  12
ATOM     12  C   UNL     1      28.466  -1.800  52.077  1.00  0.00    -0.000 C 
BRANCH  12  13
ATOM     13  C   UNL     1      28.884  -1.738  53.557  1.00  0.00    -0.000 C 
BRANCH  13  14
ATOM     14  C   UNL     1      28.843  -3.113  54.248  1.00  0.00    -0.000 C 
BRANCH  14  15
ATOM     15  C   UNL     1      30.198  -3.843  54.322  1.00  0.00    -0.000 C 
BRANCH  15  16
ATOM     16  C   UNL     1      30.230  -5.231  53.654  1.00  0.00    -0.000 C 
BRANCH  16  17
ATOM     17  C   UNL     1      28.970  -5.550  52.821  1.00  0.00    -0.003 C 
ATOM     18  C   UNL     1      29.257  -5.628  51.322  1.00  0.00     0.004 C 
ENDBRANCH  16  17
ENDBRANCH  15  16
ENDBRANCH  14  15
ENDBRANCH  13  14
ENDBRANCH  12  13
ENDBRANCH  11  12
ENDBRANCH   1  11
TORSDOF 14
ENDMDL
MODEL 7
REMARK VINA RESULT:    -3.486     10.476     13.773
REMARK INTER + INTRA:          -8.850
REMARK INTER:                  -6.348
REMARK INTRA:                  -2.502
REMARK UNBOUND:                -2.512
REMARK SMILES CCCCCCCCCCCCCCCC(=O)[O-]
REMARK SMILES IDX 9 1 10 2 11 3 12 4 13 5 14 6 15 7 16 8 17 9 18 10 8 11 7 12
REMARK SMILES IDX 6 13 5 14 4 15 3 16 2 17 1 18
REMARK H PARENT
REMARK Flexibility Score: inf
ROOT
ATOM      1  C   UNL     1      26.137  -4.554  51.415  1.00  0.00     0.000 C 
ENDROOT
BRANCH   1   2
ATOM      2  C   UNL     1      26.511  -3.098  51.716  1.00  0.00     0.000 C 
BRANCH   2   3
ATOM      3  C   UNL     1      26.090  -2.705  53.138  1.00  0.00     0.000 C 
BRANCH   3   4
ATOM      4  C   UNL     1      24.640  -3.119  53.417  1.00  0.00     0.000 C 
BRANCH   4   5
ATOM      5  C   UNL     1      24.536  -3.915  54.725  1.00  0.00     0.000 C 
BRANCH   5   6
ATOM      6  C   UNL     1      25.906  -4.325  55.293  1.00  0.00     0.006 C 
BRANCH   6   7
ATOM      7  C   UNL     1      25.888  -5.651  56.075  1.00  0.00     0.053 C 
BRANCH   7   8
ATOM      8  C   UNL     1      26.510  -5.530  57.433  1.00  0.00     0.041 C 
ATOM      9  O   UNL     1      25.785  -5.465  58.460  1.00  0.00    -0.550 OA
ATOM     10  O   UNL     1      27.891  -5.456  57.561  1.00  0.00    -0.550 OA
ENDBRANCH   7   8
ENDBRANCH   6   7
ENDBRANCH   5   6
ENDBRANCH   4   5
ENDBRANCH   3   4
ENDBRANCH   2   3
ENDBRANCH   1   2
BRANCH   1  11
ATOM     11  C   UNL     1      27.144  -5.525  52.049  1.00  0.00     0.000 C 
BRANCH  11  12
ATOM     12  C   UNL     1      28.559  -5.368  51.470  1.00  0.00    -0.000 C 
BRANCH  12  13
ATOM     13  C   UNL     1      29.657  -5.563  52.530  1.00  0.00    -0.000 C 
BRANCH  13  14
ATOM     14  C   UNL     1      29.154  -5.311  53.964  1.00  0.00    -0.000 C 
BRANCH  14  15
ATOM     15  C   UNL     1      29.395  -3.884  54.494  1.00  0.00    -0.000 C 
BRANCH  15  16
ATOM     16  C   UNL     1      30.597  -3.149  53.867  1.00  0.00    -0.000 C 
BRANCH  16  17
ATOM     17  C   UNL     1      30.226  -1.808  53.199  1.00  0.00    -0.003 C 
ATOM     18  C   UNL     1      30.054  -1.930  51.685  1.00  0.00     0.004 C 
ENDBRANCH  16  17
ENDBRANCH  15  16
ENDBRANCH  14  15
ENDBRANCH  13  14
ENDBRANCH  12  13
ENDBRANCH  11  12
ENDBRANCH   1  11
TORSDOF 14
ENDMDL
MODEL 8
REMARK VINA RESULT:    -3.476      2.730      5.138
REMARK INTER + INTRA:          -8.833
REMARK INTER:                  -6.394
REMARK INTRA:                  -2.438
REMARK UNBOUND:                -2.512
REMARK SMILES CCCCCCCCCCCCCCCC(=O)[O-]
REMARK SMILES IDX 9 1 10 2 11 3 12 4 13 5 14 6 15 7 16 8 17 9 18 10 8 11 7 12
REMARK SMILES IDX 6 13 5 14 4 15 3 16 2 17 1 18
REMARK H PARENT
REMARK Flexibility Score: inf
ROOT
ATOM      1  C   UNL     1      14.912   1.325  58.272  1.00  0.00     0.000 C 
ENDROOT
BRANCH   1   2
ATOM      2  C   UNL     1      14.880   0.896  59.744  1.00  0.00     0.000 C 
BRANCH   2   3
ATOM      3  C   UNL     1      14.857  -0.631  59.872  1.00  0.00     0.000 C 
BRANCH   3   4
ATOM      4  C   UNL     1      16.101  -1.140  60.611  1.00  0.00     0.000 C 
BRANCH   4   5
ATOM      5  C   UNL     1      16.780  -2.275  59.831  1.00  0.00     0.000 C 
BRANCH   5   6
ATOM      6  C   UNL     1      16.255  -3.670  60.215  1.00  0.00     0.006 C 
BRANCH   6   7
ATOM      7  C   UNL     1      16.265  -3.947  61.729  1.00  0.00     0.053 C 
BRANCH   7   8
ATOM      8  C   UNL     1      17.645  -3.921  62.313  1.00  0.00     0.041 C 
ATOM      9  O   UNL     1      17.985  -2.999  63.100  1.00  0.00    -0.550 OA
ATOM     10  O   UNL     1      18.567  -4.899  61.961  1.00  0.00    -0.550 OA
ENDBRANCH   7   8
ENDBRANCH   6   7
ENDBRANCH   5   6
ENDBRANCH   4   5
ENDBRANCH   3   4
ENDBRANCH   2   3
ENDBRANCH   1   2
BRANCH   1  11
ATOM     11  C   UNL     1      15.151   0.118  57.352  1.00  0.00     0.000 C 
BRANCH  11  12
ATOM     12  C   UNL     1      16.371   0.305  56.438  1.00  0.00    -0.000 C 
BRANCH  12  13
ATOM     13  C   UNL     1      17.379  -0.853  56.552  1.00  0.00    -0.000 C 
BRANCH  13  14
ATOM     14  C   UNL     1      18.761  -0.395  57.053  1.00  0.00    -0.000 C 
BRANCH  14  15
ATOM     15  C   UNL     1      18.772   0.969  57.770  1.00  0.00    -0.000 C 
BRANCH  15  16
ATOM     16  C   UNL     1      18.804   0.897  59.309  1.00  0.00    -0.000 C 
BRANCH  16  17
ATOM     17  C   UNL     1      18.290   2.177  60.002  1.00  0.00    -0.003 C 
ATOM     18  C   UNL     1      18.041   1.979  61.497  1.00  0.00     0.004 C 
ENDBRANCH  16  17
ENDBRANCH  15  16
ENDBRANCH  14  15
ENDBRANCH  13  14
ENDBRANCH  12  13
ENDBRANCH  11  12
ENDBRANCH   1  11
TORSDOF 14
ENDMDL
MODEL 9
REMARK VINA RESULT:    -3.459      1.894      2.733
REMARK INTER + INTRA:          -8.802
REMARK INTER:                  -6.640
REMARK INTRA:                  -2.163
REMARK UNBOUND:                -2.512
REMARK SMILES CCCCCCCCCCCCCCCC(=O)[O-]
REMARK SMILES IDX 9 1 10 2 11 3 12 4 13 5 14 6 15 7 16 8 17 9 18 10 8 11 7 12
REMARK SMILES IDX 6 13 5 14 4 15 3 16 2 17 1 18
REMARK H PARENT
REMARK Flexibility Score: inf
ROOT
ATOM      1  C   UNL     1      15.564   2.028  58.879  1.00  0.00     0.000 C 
ENDROOT
BRANCH   1   2
ATOM      2  C   UNL     1      14.896   0.907  58.073  1.00  0.00     0.000 C 
BRANCH   2   3
ATOM      3  C   UNL     1      15.925   0.155  57.219  1.00  0.00     0.000 C 
BRANCH   3   4
ATOM      4  C   UNL     1      17.354   0.451  57.692  1.00  0.00     0.000 C 
BRANCH   4   5
ATOM      5  C   UNL     1      18.290   0.693  56.499  1.00  0.00     0.000 C 
BRANCH   5   6
ATOM      6  C   UNL     1      17.554   1.199  55.246  1.00  0.00     0.006 C 
BRANCH   6   7
ATOM      7  C   UNL     1      18.128   2.504  54.667  1.00  0.00     0.053 C 
BRANCH   7   8
ATOM      8  C   UNL     1      17.619   3.724  55.374  1.00  0.00     0.041 C 
ATOM      9  O   UNL     1      16.448   3.748  55.836  1.00  0.00    -0.550 OA
ATOM     10  O   UNL     1      18.427   4.847  55.492  1.00  0.00    -0.550 OA
ENDBRANCH   7   8
ENDBRANCH   6   7
ENDBRANCH   5   6
ENDBRANCH   4   5
ENDBRANCH   3   4
ENDBRANCH   2   3
ENDBRANCH   1   2
BRANCH   1  11
ATOM     11  C   UNL     1      15.200   1.927  60.367  1.00  0.00     0.000 C 
BRANCH  11  12
ATOM     12  C   UNL     1      16.394   2.224  61.288  1.00  0.00    -0.000 C 
BRANCH  12  13
ATOM     13  C   UNL     1      16.813   1.003  62.125  1.00  0.00    -0.000 C 
BRANCH  13  14
ATOM     14  C   UNL     1      17.476  -0.101  61.281  1.00  0.00    -0.000 C 
BRANCH  14  15
ATOM     15  C   UNL     1      16.851  -1.501  61.438  1.00  0.00    -0.000 C 
BRANCH  15  16
ATOM     16  C   UNL     1      15.495  -1.693  60.732  1.00  0.00    -0.000 C 
BRANCH  16  17
ATOM     17  C   UNL     1      14.346  -2.085  61.685  1.00  0.00    -0.003 C 
ATOM     18  C   UNL     1      13.353  -0.945  61.913  1.00  0.00     0.004 C 
ENDBRANCH  16  17
ENDBRANCH  15  16
ENDBRANCH  14  15
ENDBRANCH  13  14
ENDBRANCH  12  13
ENDBRANCH  11  12
ENDBRANCH   1  11
TORSDOF 14
ENDMDL
