MODEL 1
REMARK VINA RESULT:    -4.911      0.000      0.000
REMARK INTER + INTRA:         -14.019
REMARK INTER:                 -10.654
REMARK INTRA:                  -3.365
REMARK UNBOUND:                -3.365
REMARK SMILES CCCCCCCCCCCCCCCCCCCCCC(=O)[O-]
REMARK SMILES IDX 12 1 11 2 10 3 9 4 8 5 7 6 6 7 5 8 4 9 3 10 2 11 1 12 13 13
REMARK SMILES IDX 14 14 15 15 16 16 17 17 18 18 19 19 20 20 21 21 22 22 23 23
REMARK SMILES IDX 24 24
REMARK H PARENT
REMARK Flexibility Score: inf
ROOT
ATOM      1  C   UNL     1      14.723 -33.694  20.136  1.00  0.00     0.000 C 
ENDROOT
BRANCH   1   2
ATOM      2  C   UNL     1      14.348 -32.550  21.096  1.00  0.00     0.000 C 
BRANCH   2   3
ATOM      3  C   UNL     1      13.125 -31.747  20.619  1.00  0.00     0.000 C 
BRANCH   3   4
ATOM      4  C   UNL     1      12.555 -30.832  21.714  1.00  0.00    -0.000 C 
BRANCH   4   5
ATOM      5  C   UNL     1      12.994 -31.257  23.126  1.00  0.00    -0.000 C 
BRANCH   5   6
ATOM      6  C   UNL     1      13.500 -30.073  23.967  1.00  0.00    -0.000 C 
BRANCH   6   7
ATOM      7  C   UNL     1      13.676 -28.791  23.134  1.00  0.00    -0.000 C 
BRANCH   7   8
ATOM      8  C   UNL     1      15.097 -28.211  23.232  1.00  0.00    -0.000 C 
BRANCH   8   9
ATOM      9  C   UNL     1      15.974 -28.525  22.001  1.00  0.00    -0.000 C 
BRANCH   9  10
ATOM     10  C   UNL     1      16.637 -29.918  22.059  1.00  0.00    -0.000 C 
BRANCH  10  11
ATOM     11  C   UNL     1      17.130 -30.303  23.463  1.00  0.00    -0.003 C 
ATOM     12  C   UNL     1      16.758 -31.733  23.855  1.00  0.00     0.004 C 
ENDBRANCH  10  11
ENDBRANCH   9  10
ENDBRANCH   8   9
ENDBRANCH   7   8
ENDBRANCH   6   7
ENDBRANCH   5   6
ENDBRANCH   4   5
ENDBRANCH   3   4
ENDBRANCH   2   3
ENDBRANCH   1   2
BRANCH   1  13
ATOM     13  C   UNL     1      15.504 -34.853  20.783  1.00  0.00     0.000 C 
BRANCH  13  14
ATOM     14  C   UNL     1      16.232 -35.729  19.751  1.00  0.00     0.000 C 
BRANCH  14  15
ATOM     15  C   UNL     1      17.616 -35.174  19.374  1.00  0.00     0.000 C 
BRANCH  15  16
ATOM     16  C   UNL     1      18.342 -34.524  20.566  1.00  0.00     0.000 C 
BRANCH  16  17
ATOM     17  C   UNL     1      18.637 -33.028  20.338  1.00  0.00     0.000 C 
BRANCH  17  18
ATOM     18  C   UNL     1      19.493 -32.386  21.446  1.00  0.00     0.000 C 
BRANCH  18  19
ATOM     19  C   UNL     1      20.269 -31.139  20.962  1.00  0.00     0.000 C 
BRANCH  19  20
ATOM     20  C   UNL     1      21.022 -30.401  22.086  1.00  0.00     0.006 C 
BRANCH  20  21
ATOM     21  C   UNL     1      20.474 -28.992  22.376  1.00  0.00     0.053 C 
BRANCH  21  22
ATOM     22  C   UNL     1      20.613 -28.066  21.207  1.00  0.00     0.041 C 
ATOM     23  O   UNL     1      21.747 -27.629  20.877  1.00  0.00    -0.550 OA
ATOM     24  O   UNL     1      19.490 -27.670  20.493  1.00  0.00    -0.550 OA
ENDBRANCH  21  22
ENDBRANCH  20  21
ENDBRANCH  19  20
ENDBRANCH  18  19
ENDBRANCH  17  18
ENDBRANCH  16  17
ENDBRANCH  15  16
ENDBRANCH  14  15
ENDBRANCH  13  14
ENDBRANCH   1  13
TORSDOF 20
ENDMDL
MODEL 2
REMARK VINA RESULT:    -4.878      2.275      5.649
REMARK INTER + INTRA:         -13.945
REMARK INTER:                 -10.473
REMARK INTRA:                  -3.472
REMARK UNBOUND:                -3.365
REMARK SMILES CCCCCCCCCCCCCCCCCCCCCC(=O)[O-]
REMARK SMILES IDX 12 1 11 2 10 3 9 4 8 5 7 6 6 7 5 8 4 9 3 10 2 11 1 12 13 13
REMARK SMILES IDX 14 14 15 15 16 16 17 17 18 18 19 19 20 20 21 21 22 22 23 23
REMARK SMILES IDX 24 24
REMARK H PARENT
REMARK Flexibility Score: inf
ROOT
ATOM      1  C   UNL     1      17.482 -34.230  19.242  1.00  0.00     0.000 C 
ENDROOT
BRANCH   1   2
ATOM      2  C   UNL     1      18.623 -34.119  20.270  1.00  0.00     0.000 C 
BRANCH   2   3
ATOM      3  C   UNL     1      18.979 -32.661  20.612  1.00  0.00     0.000 C 
BRANCH   3   4
ATOM      4  C   UNL     1      17.818 -31.909  21.279  1.00  0.00    -0.000 C 
BRANCH   4   5
ATOM      5  C   UNL     1      18.018 -31.741  22.796  1.00  0.00    -0.000 C 
BRANCH   5   6
ATOM      6  C   UNL     1      16.694 -31.809  23.575  1.00  0.00    -0.000 C 
BRANCH   6   7
ATOM      7  C   UNL     1      16.660 -32.972  24.581  1.00  0.00    -0.000 C 
BRANCH   7   8
ATOM      8  C   UNL     1      16.451 -34.337  23.904  1.00  0.00    -0.000 C 
BRANCH   8   9
ATOM      9  C   UNL     1      17.440 -35.419  24.387  1.00  0.00    -0.000 C 
BRANCH   9  10
ATOM     10  C   UNL     1      18.775 -35.423  23.610  1.00  0.00    -0.000 C 
BRANCH  10  11
ATOM     11  C   UNL     1      19.063 -36.754  22.897  1.00  0.00    -0.003 C 
ATOM     12  C   UNL     1      19.429 -37.881  23.862  1.00  0.00     0.004 C 
ENDBRANCH  10  11
ENDBRANCH   9  10
ENDBRANCH   8   9
ENDBRANCH   7   8
ENDBRANCH   6   7
ENDBRANCH   5   6
ENDBRANCH   4   5
ENDBRANCH   3   4
ENDBRANCH   2   3
ENDBRANCH   1   2
BRANCH   1  13
ATOM     13  C   UNL     1      16.454 -35.340  19.532  1.00  0.00     0.000 C 
BRANCH  13  14
ATOM     14  C   UNL     1      15.366 -34.898  20.525  1.00  0.00     0.000 C 
BRANCH  14  15
ATOM     15  C   UNL     1      14.595 -33.659  20.045  1.00  0.00     0.000 C 
BRANCH  15  16
ATOM     16  C   UNL     1      14.249 -32.689  21.191  1.00  0.00     0.000 C 
BRANCH  16  17
ATOM     17  C   UNL     1      13.243 -31.602  20.766  1.00  0.00     0.000 C 
BRANCH  17  18
ATOM     18  C   UNL     1      12.445 -31.000  21.938  1.00  0.00     0.000 C 
BRANCH  18  19
ATOM     19  C   UNL     1      13.097 -31.271  23.314  1.00  0.00     0.000 C 
BRANCH  19  20
ATOM     20  C   UNL     1      13.469 -29.992  24.088  1.00  0.00     0.006 C 
BRANCH  20  21
ATOM     21  C   UNL     1      13.623 -28.750  23.192  1.00  0.00     0.053 C 
BRANCH  21  22
ATOM     22  C   UNL     1      15.044 -28.496  22.794  1.00  0.00     0.041 C 
ATOM     23  O   UNL     1      15.769 -27.733  23.486  1.00  0.00    -0.550 OA
ATOM     24  O   UNL     1      15.564 -29.087  21.651  1.00  0.00    -0.550 OA
ENDBRANCH  21  22
ENDBRANCH  20  21
ENDBRANCH  19  20
ENDBRANCH  18  19
ENDBRANCH  17  18
ENDBRANCH  16  17
ENDBRANCH  15  16
ENDBRANCH  14  15
ENDBRANCH  13  14
ENDBRANCH   1  13
TORSDOF 20
ENDMDL
MODEL 3
REMARK VINA RESULT:    -4.788      3.546      5.499
REMARK INTER + INTRA:         -13.750
REMARK INTER:                  -9.790
REMARK INTRA:                  -3.961
REMARK UNBOUND:                -3.365
REMARK SMILES CCCCCCCCCCCCCCCCCCCCCC(=O)[O-]
REMARK SMILES IDX 12 1 11 2 10 3 9 4 8 5 7 6 6 7 5 8 4 9 3 10 2 11 1 12 13 13
REMARK SMILES IDX 14 14 15 15 16 16 17 17 18 18 19 19 20 20 21 21 22 22 23 23
REMARK SMILES IDX 24 24
REMARK H PARENT
REMARK Flexibility Score: inf
ROOT
ATOM      1  C   UNL     1      19.262 -32.171  21.155  1.00  0.00     0.000 C 
ENDROOT
BRANCH   1   2
ATOM      2  C   UNL     1      19.071 -31.440  22.497  1.00  0.00     0.000 C 
BRANCH   2   3
ATOM      3  C   UNL     1      17.655 -30.861  22.666  1.00  0.00     0.000 C 
BRANCH   3   4
ATOM      4  C   UNL     1      17.040 -31.191  24.034  1.00  0.00    -0.000 C 
BRANCH   4   5
ATOM      5  C   UNL     1      16.606 -32.663  24.148  1.00  0.00    -0.000 C 
BRANCH   5   6
ATOM      6  C   UNL     1      15.157 -32.886  23.684  1.00  0.00    -0.000 C 
BRANCH   6   7
ATOM      7  C   UNL     1      15.076 -33.593  22.321  1.00  0.00    -0.000 C 
BRANCH   7   8
ATOM      8  C   UNL     1      14.201 -32.834  21.310  1.00  0.00    -0.000 C 
BRANCH   8   9
ATOM      9  C   UNL     1      14.228 -31.302  21.503  1.00  0.00    -0.000 C 
BRANCH   9  10
ATOM     10  C   UNL     1      12.881 -30.720  21.982  1.00  0.00    -0.000 C 
BRANCH  10  11
ATOM     11  C   UNL     1      13.006 -29.848  23.243  1.00  0.00    -0.003 C 
ATOM     12  C   UNL     1      14.202 -28.898  23.195  1.00  0.00     0.004 C 
ENDBRANCH  10  11
ENDBRANCH   9  10
ENDBRANCH   8   9
ENDBRANCH   7   8
ENDBRANCH   6   7
ENDBRANCH   5   6
ENDBRANCH   4   5
ENDBRANCH   3   4
ENDBRANCH   2   3
ENDBRANCH   1   2
BRANCH   1  13
ATOM     13  C   UNL     1      17.956 -32.558  20.437  1.00  0.00     0.000 C 
BRANCH  13  14
ATOM     14  C   UNL     1      18.123 -33.777  19.515  1.00  0.00     0.000 C 
BRANCH  14  15
ATOM     15  C   UNL     1      16.778 -34.383  19.084  1.00  0.00     0.000 C 
BRANCH  15  16
ATOM     16  C   UNL     1      16.536 -35.784  19.678  1.00  0.00     0.000 C 
BRANCH  16  17
ATOM     17  C   UNL     1      17.841 -36.579  19.874  1.00  0.00     0.000 C 
BRANCH  17  18
ATOM     18  C   UNL     1      18.079 -37.040  21.324  1.00  0.00     0.000 C 
BRANCH  18  19
ATOM     19  C   UNL     1      17.873 -35.909  22.358  1.00  0.00     0.000 C 
BRANCH  19  20
ATOM     20  C   UNL     1      19.186 -35.355  22.943  1.00  0.00     0.006 C 
BRANCH  20  21
ATOM     21  C   UNL     1      19.186 -35.257  24.480  1.00  0.00     0.053 C 
BRANCH  21  22
ATOM     22  C   UNL     1      18.287 -36.266  25.124  1.00  0.00     0.041 C 
ATOM     23  O   UNL     1      17.163 -35.919  25.571  1.00  0.00    -0.550 OA
ATOM     24  O   UNL     1      18.697 -37.587  25.247  1.00  0.00    -0.550 OA
ENDBRANCH  21  22
ENDBRANCH  20  21
ENDBRANCH  19  20
ENDBRANCH  18  19
ENDBRANCH  17  18
ENDBRANCH  16  17
ENDBRANCH  15  16
ENDBRANCH  14  15
ENDBRANCH  13  14
ENDBRANCH   1  13
TORSDOF 20
ENDMDL
MODEL 4
REMARK VINA RESULT:    -4.764      3.319      7.286
REMARK INTER + INTRA:         -13.699
REMARK INTER:                 -11.015
REMARK INTRA:                  -2.684
REMARK UNBOUND:                -3.365
REMARK SMILES CCCCCCCCCCCCCCCCCCCCCC(=O)[O-]
REMARK SMILES IDX 12 1 11 2 10 3 9 4 8 5 7 6 6 7 5 8 4 9 3 10 2 11 1 12 13 13
REMARK SMILES IDX 14 14 15 15 16 16 17 17 18 18 19 19 20 20 21 21 22 22 23 23
REMARK SMILES IDX 24 24
REMARK H PARENT
REMARK Flexibility Score: inf
ROOT
ATOM      1  C   UNL     1      18.653 -32.192  21.132  1.00  0.00     0.000 C 
ENDROOT
BRANCH   1   2
ATOM      2  C   UNL     1      19.933 -31.749  21.865  1.00  0.00     0.000 C 
BRANCH   2   3
ATOM      3  C   UNL     1      20.992 -31.162  20.915  1.00  0.00     0.000 C 
BRANCH   3   4
ATOM      4  C   UNL     1      21.142 -29.640  21.063  1.00  0.00    -0.000 C 
BRANCH   4   5
ATOM      5  C   UNL     1      20.213 -29.058  22.142  1.00  0.00    -0.000 C 
BRANCH   5   6
ATOM      6  C   UNL     1      19.277 -27.970  21.588  1.00  0.00    -0.000 C 
BRANCH   6   7
ATOM      7  C   UNL     1      19.926 -27.153  20.459  1.00  0.00    -0.000 C 
BRANCH   7   8
ATOM      8  C   UNL     1      20.253 -25.711  20.882  1.00  0.00    -0.000 C 
BRANCH   8   9
ATOM      9  C   UNL     1      21.749 -25.487  21.189  1.00  0.00    -0.000 C 
BRANCH   9  10
ATOM     10  C   UNL     1      22.685 -26.441  20.416  1.00  0.00    -0.000 C 
BRANCH  10  11
ATOM     11  C   UNL     1      23.453 -25.754  19.276  1.00  0.00    -0.003 C 
ATOM     12  C   UNL     1      23.822 -24.305  19.594  1.00  0.00     0.004 C 
ENDBRANCH  10  11
ENDBRANCH   9  10
ENDBRANCH   8   9
ENDBRANCH   7   8
ENDBRANCH   6   7
ENDBRANCH   5   6
ENDBRANCH   4   5
ENDBRANCH   3   4
ENDBRANCH   2   3
ENDBRANCH   1   2
BRANCH   1  13
ATOM     13  C   UNL     1      17.460 -31.228  21.272  1.00  0.00     0.000 C 
BRANCH  13  14
ATOM     14  C   UNL     1      17.069 -30.973  22.737  1.00  0.00     0.000 C 
BRANCH  14  15
ATOM     15  C   UNL     1      15.778 -30.148  22.869  1.00  0.00     0.000 C 
BRANCH  15  16
ATOM     16  C   UNL     1      14.948 -30.125  21.573  1.00  0.00     0.000 C 
BRANCH  16  17
ATOM     17  C   UNL     1      13.720 -31.054  21.637  1.00  0.00     0.000 C 
BRANCH  17  18
ATOM     18  C   UNL     1      13.857 -32.328  20.782  1.00  0.00     0.000 C 
BRANCH  18  19
ATOM     19  C   UNL     1      14.603 -33.468  21.514  1.00  0.00     0.000 C 
BRANCH  19  20
ATOM     20  C   UNL     1      15.484 -34.328  20.588  1.00  0.00     0.006 C 
BRANCH  20  21
ATOM     21  C   UNL     1      16.543 -35.159  21.336  1.00  0.00     0.053 C 
BRANCH  21  22
ATOM     22  C   UNL     1      17.127 -36.247  20.490  1.00  0.00     0.041 C 
ATOM     23  O   UNL     1      16.688 -36.450  19.327  1.00  0.00    -0.550 OA
ATOM     24  O   UNL     1      18.143 -37.050  20.990  1.00  0.00    -0.550 OA
ENDBRANCH  21  22
ENDBRANCH  20  21
ENDBRANCH  19  20
ENDBRANCH  18  19
ENDBRANCH  17  18
ENDBRANCH  16  17
ENDBRANCH  15  16
ENDBRANCH  14  15
ENDBRANCH  13  14
ENDBRANCH   1  13
TORSDOF 20
ENDMDL
MODEL 5
REMARK VINA RESULT:    -4.712      3.043      5.952
REMARK INTER + INTRA:         -13.585
REMARK INTER:                  -9.756
REMARK INTRA:                  -3.829
REMARK UNBOUND:                -3.365
REMARK SMILES CCCCCCCCCCCCCCCCCCCCCC(=O)[O-]
REMARK SMILES IDX 12 1 11 2 10 3 9 4 8 5 7 6 6 7 5 8 4 9 3 10 2 11 1 12 13 13
REMARK SMILES IDX 14 14 15 15 16 16 17 17 18 18 19 19 20 20 21 21 22 22 23 23
REMARK SMILES IDX 24 24
REMARK H PARENT
REMARK Flexibility Score: inf
ROOT
ATOM      1  C   UNL     1      19.308 -36.422  22.331  1.00  0.00     0.000 C 
ENDROOT
BRANCH   1   2
ATOM      2  C   UNL     1      18.122 -37.176  21.704  1.00  0.00     0.000 C 
BRANCH   2   3
ATOM      3  C   UNL     1      18.013 -36.962  20.183  1.00  0.00     0.000 C 
BRANCH   3   4
ATOM      4  C   UNL     1      16.633 -36.439  19.756  1.00  0.00    -0.000 C 
BRANCH   4   5
ATOM      5  C   UNL     1      16.640 -34.927  19.467  1.00  0.00    -0.000 C 
BRANCH   5   6
ATOM      6  C   UNL     1      18.054 -34.325  19.519  1.00  0.00    -0.000 C 
BRANCH   6   7
ATOM      7  C   UNL     1      18.064 -32.892  20.076  1.00  0.00    -0.000 C 
BRANCH   7   8
ATOM      8  C   UNL     1      19.232 -32.640  21.045  1.00  0.00    -0.000 C 
BRANCH   8   9
ATOM      9  C   UNL     1      19.587 -31.146  21.203  1.00  0.00    -0.000 C 
BRANCH   9  10
ATOM     10  C   UNL     1      19.166 -30.556  22.566  1.00  0.00    -0.000 C 
BRANCH  10  11
ATOM     11  C   UNL     1      18.632 -31.609  23.550  1.00  0.00    -0.003 C 
ATOM     12  C   UNL     1      17.714 -31.016  24.619  1.00  0.00     0.004 C 
ENDBRANCH  10  11
ENDBRANCH   9  10
ENDBRANCH   8   9
ENDBRANCH   7   8
ENDBRANCH   6   7
ENDBRANCH   5   6
ENDBRANCH   4   5
ENDBRANCH   3   4
ENDBRANCH   2   3
ENDBRANCH   1   2
BRANCH   1  13
ATOM     13  C   UNL     1      18.918 -35.300  23.310  1.00  0.00     0.000 C 
BRANCH  13  14
ATOM     14  C   UNL     1      17.982 -35.786  24.430  1.00  0.00     0.000 C 
BRANCH  14  15
ATOM     15  C   UNL     1      16.681 -34.972  24.509  1.00  0.00     0.000 C 
BRANCH  15  16
ATOM     16  C   UNL     1      16.303 -34.318  23.167  1.00  0.00     0.000 C 
BRANCH  16  17
ATOM     17  C   UNL     1      15.091 -33.373  23.287  1.00  0.00     0.000 C 
BRANCH  17  18
ATOM     18  C   UNL     1      14.667 -32.732  21.952  1.00  0.00     0.000 C 
BRANCH  18  19
ATOM     19  C   UNL     1      15.468 -31.453  21.615  1.00  0.00     0.000 C 
BRANCH  19  20
ATOM     20  C   UNL     1      14.648 -30.155  21.744  1.00  0.00     0.006 C 
BRANCH  20  21
ATOM     21  C   UNL     1      14.407 -29.716  23.200  1.00  0.00     0.053 C 
BRANCH  21  22
ATOM     22  C   UNL     1      12.963 -29.454  23.493  1.00  0.00     0.041 C 
ATOM     23  O   UNL     1      12.635 -28.756  24.489  1.00  0.00    -0.550 OA
ATOM     24  O   UNL     1      11.976 -29.993  22.679  1.00  0.00    -0.550 OA
ENDBRANCH  21  22
ENDBRANCH  20  21
ENDBRANCH  19  20
ENDBRANCH  18  19
ENDBRANCH  17  18
ENDBRANCH  16  17
ENDBRANCH  15  16
ENDBRANCH  14  15
ENDBRANCH  13  14
ENDBRANCH   1  13
TORSDOF 20
ENDMDL
MODEL 6
REMARK VINA RESULT:    -4.701      2.826      6.390
REMARK INTER + INTRA:         -13.563
REMARK INTER:                  -9.679
REMARK INTRA:                  -3.884
REMARK UNBOUND:                -3.365
REMARK SMILES CCCCCCCCCCCCCCCCCCCCCC(=O)[O-]
REMARK SMILES IDX 12 1 11 2 10 3 9 4 8 5 7 6 6 7 5 8 4 9 3 10 2 11 1 12 13 13
REMARK SMILES IDX 14 14 15 15 16 16 17 17 18 18 19 19 20 20 21 21 22 22 23 23
REMARK SMILES IDX 24 24
REMARK H PARENT
REMARK Flexibility Score: inf
ROOT
ATOM      1  C   UNL     1      17.847 -31.001  24.425  1.00  0.00     0.000 C 
ENDROOT
BRANCH   1   2
ATOM      2  C   UNL     1      16.997 -30.553  23.222  1.00  0.00     0.000 C 
BRANCH   2   3
ATOM      3  C   UNL     1      17.843 -30.247  21.973  1.00  0.00     0.000 C 
BRANCH   3   4
ATOM      4  C   UNL     1      17.718 -31.333  20.893  1.00  0.00    -0.000 C 
BRANCH   4   5
ATOM      5  C   UNL     1      18.882 -32.338  20.929  1.00  0.00    -0.000 C 
BRANCH   5   6
ATOM      6  C   UNL     1      20.242 -31.656  21.151  1.00  0.00    -0.000 C 
BRANCH   6   7
ATOM      7  C   UNL     1      21.024 -32.267  22.325  1.00  0.00    -0.000 C 
BRANCH   7   8
ATOM      8  C   UNL     1      21.291 -31.253  23.452  1.00  0.00    -0.000 C 
BRANCH   8   9
ATOM      9  C   UNL     1      22.257 -30.121  23.042  1.00  0.00    -0.000 C 
BRANCH   9  10
ATOM     10  C   UNL     1      21.563 -28.751  22.876  1.00  0.00    -0.000 C 
BRANCH  10  11
ATOM     11  C   UNL     1      21.634 -28.199  21.443  1.00  0.00    -0.003 C 
ATOM     12  C   UNL     1      20.261 -27.852  20.869  1.00  0.00     0.004 C 
ENDBRANCH  10  11
ENDBRANCH   9  10
ENDBRANCH   8   9
ENDBRANCH   7   8
ENDBRANCH   6   7
ENDBRANCH   5   6
ENDBRANCH   4   5
ENDBRANCH   3   4
ENDBRANCH   2   3
ENDBRANCH   1   2
BRANCH   1  13
ATOM     13  C   UNL     1      17.834 -32.517  24.699  1.00  0.00     0.000 C 
BRANCH  13  14
ATOM     14  C   UNL     1      16.500 -33.179  24.317  1.00  0.00     0.000 C 
BRANCH  14  15
ATOM     15  C   UNL     1      16.675 -34.314  23.295  1.00  0.00     0.000 C 
BRANCH  15  16
ATOM     16  C   UNL     1      15.778 -34.143  22.054  1.00  0.00     0.000 C 
BRANCH  16  17
ATOM     17  C   UNL     1      14.576 -33.214  22.313  1.00  0.00     0.000 C 
BRANCH  17  18
ATOM     18  C   UNL     1      14.195 -32.337  21.105  1.00  0.00     0.000 C 
BRANCH  18  19
ATOM     19  C   UNL     1      13.622 -30.961  21.515  1.00  0.00     0.000 C 
BRANCH  19  20
ATOM     20  C   UNL     1      12.856 -30.981  22.851  1.00  0.00     0.006 C 
BRANCH  20  21
ATOM     21  C   UNL     1      13.428 -30.017  23.908  1.00  0.00     0.053 C 
BRANCH  21  22
ATOM     22  C   UNL     1      12.706 -28.706  23.945  1.00  0.00     0.041 C 
ATOM     23  O   UNL     1      11.494 -28.640  23.609  1.00  0.00    -0.550 OA
ATOM     24  O   UNL     1      13.374 -27.552  24.332  1.00  0.00    -0.550 OA
ENDBRANCH  21  22
ENDBRANCH  20  21
ENDBRANCH  19  20
ENDBRANCH  18  19
ENDBRANCH  17  18
ENDBRANCH  16  17
ENDBRANCH  15  16
ENDBRANCH  14  15
ENDBRANCH  13  14
ENDBRANCH   1  13
TORSDOF 20
ENDMDL
MODEL 7
REMARK VINA RESULT:    -4.693      2.901      6.678
REMARK INTER + INTRA:         -13.544
REMARK INTER:                  -9.503
REMARK INTRA:                  -4.041
REMARK UNBOUND:                -3.365
REMARK SMILES CCCCCCCCCCCCCCCCCCCCCC(=O)[O-]
REMARK SMILES IDX 12 1 11 2 10 3 9 4 8 5 7 6 6 7 5 8 4 9 3 10 2 11 1 12 13 13
REMARK SMILES IDX 14 14 15 15 16 16 17 17 18 18 19 19 20 20 21 21 22 22 23 23
REMARK SMILES IDX 24 24
REMARK H PARENT
REMARK Flexibility Score: inf
ROOT
ATOM      1  C   UNL     1      17.165 -29.951  23.582  1.00  0.00     0.000 C 
ENDROOT
BRANCH   1   2
ATOM      2  C   UNL     1      17.425 -31.431  23.917  1.00  0.00     0.000 C 
BRANCH   2   3
ATOM      3  C   UNL     1      18.230 -31.618  25.216  1.00  0.00     0.000 C 
BRANCH   3   4
ATOM      4  C   UNL     1      18.132 -33.046  25.773  1.00  0.00    -0.000 C 
BRANCH   4   5
ATOM      5  C   UNL     1      16.864 -33.778  25.301  1.00  0.00    -0.000 C 
BRANCH   5   6
ATOM      6  C   UNL     1      17.106 -35.277  25.059  1.00  0.00    -0.000 C 
BRANCH   6   7
ATOM      7  C   UNL     1      18.350 -35.543  24.196  1.00  0.00    -0.000 C 
BRANCH   7   8
ATOM      8  C   UNL     1      18.045 -35.515  22.689  1.00  0.00    -0.000 C 
BRANCH   8   9
ATOM      9  C   UNL     1      19.065 -34.693  21.871  1.00  0.00    -0.000 C 
BRANCH   9  10
ATOM     10  C   UNL     1      20.014 -33.846  22.746  1.00  0.00    -0.000 C 
BRANCH  10  11
ATOM     11  C   UNL     1      20.507 -32.566  22.052  1.00  0.00    -0.003 C 
ATOM     12  C   UNL     1      19.535 -32.051  20.990  1.00  0.00     0.004 C 
ENDBRANCH  10  11
ENDBRANCH   9  10
ENDBRANCH   8   9
ENDBRANCH   7   8
ENDBRANCH   6   7
ENDBRANCH   5   6
ENDBRANCH   4   5
ENDBRANCH   3   4
ENDBRANCH   2   3
ENDBRANCH   1   2
BRANCH   1  13
ATOM     13  C   UNL     1      16.927 -29.657  22.089  1.00  0.00     0.000 C 
BRANCH  13  14
ATOM     14  C   UNL     1      15.513 -29.126  21.805  1.00  0.00     0.000 C 
BRANCH  14  15
ATOM     15  C   UNL     1      14.610 -29.152  23.049  1.00  0.00     0.000 C 
BRANCH  15  16
ATOM     16  C   UNL     1      13.429 -30.131  22.909  1.00  0.00     0.000 C 
BRANCH  16  17
ATOM     17  C   UNL     1      13.536 -31.333  23.867  1.00  0.00     0.000 C 
BRANCH  17  18
ATOM     18  C   UNL     1      14.293 -32.537  23.274  1.00  0.00     0.000 C 
BRANCH  18  19
ATOM     19  C   UNL     1      14.284 -32.552  21.727  1.00  0.00     0.000 C 
BRANCH  19  20
ATOM     20  C   UNL     1      15.533 -33.203  21.105  1.00  0.00     0.006 C 
BRANCH  20  21
ATOM     21  C   UNL     1      15.214 -34.360  20.141  1.00  0.00     0.053 C 
BRANCH  21  22
ATOM     22  C   UNL     1      16.424 -34.855  19.411  1.00  0.00     0.041 C 
ATOM     23  O   UNL     1      17.204 -34.040  18.852  1.00  0.00    -0.550 OA
ATOM     24  O   UNL     1      16.683 -36.216  19.331  1.00  0.00    -0.550 OA
ENDBRANCH  21  22
ENDBRANCH  20  21
ENDBRANCH  19  20
ENDBRANCH  18  19
ENDBRANCH  17  18
ENDBRANCH  16  17
ENDBRANCH  15  16
ENDBRANCH  14  15
ENDBRANCH  13  14
ENDBRANCH   1  13
TORSDOF 20
ENDMDL
MODEL 8
REMARK VINA RESULT:    -4.691      1.862      3.653
REMARK INTER + INTRA:         -13.540
REMARK INTER:                  -9.678
REMARK INTRA:                  -3.862
REMARK UNBOUND:                -3.365
REMARK SMILES CCCCCCCCCCCCCCCCCCCCCC(=O)[O-]
REMARK SMILES IDX 12 1 11 2 10 3 9 4 8 5 7 6 6 7 5 8 4 9 3 10 2 11 1 12 13 13
REMARK SMILES IDX 14 14 15 15 16 16 17 17 18 18 19 19 20 20 21 21 22 22 23 23
REMARK SMILES IDX 24 24
REMARK H PARENT
REMARK Flexibility Score: inf
ROOT
ATOM      1  C   UNL     1      17.154 -36.519  20.031  1.00  0.00     0.000 C 
ENDROOT
BRANCH   1   2
ATOM      2  C   UNL     1      17.598 -35.202  19.367  1.00  0.00     0.000 C 
BRANCH   2   3
ATOM      3  C   UNL     1      16.484 -34.141  19.340  1.00  0.00     0.000 C 
BRANCH   3   4
ATOM      4  C   UNL     1      15.280 -34.523  20.214  1.00  0.00    -0.000 C 
BRANCH   4   5
ATOM      5  C   UNL     1      14.789 -33.354  21.086  1.00  0.00    -0.000 C 
BRANCH   5   6
ATOM      6  C   UNL     1      13.660 -32.553  20.416  1.00  0.00    -0.000 C 
BRANCH   6   7
ATOM      7  C   UNL     1      13.313 -31.267  21.183  1.00  0.00    -0.000 C 
BRANCH   7   8
ATOM      8  C   UNL     1      13.914 -31.240  22.599  1.00  0.00    -0.000 C 
BRANCH   8   9
ATOM      9  C   UNL     1      14.254 -29.818  23.094  1.00  0.00    -0.000 C 
BRANCH   9  10
ATOM     10  C   UNL     1      15.201 -29.048  22.149  1.00  0.00    -0.000 C 
BRANCH  10  11
ATOM     11  C   UNL     1      16.242 -28.193  22.889  1.00  0.00    -0.003 C 
ATOM     12  C   UNL     1      17.599 -28.164  22.187  1.00  0.00     0.004 C 
ENDBRANCH  10  11
ENDBRANCH   9  10
ENDBRANCH   8   9
ENDBRANCH   7   8
ENDBRANCH   6   7
ENDBRANCH   5   6
ENDBRANCH   4   5
ENDBRANCH   3   4
ENDBRANCH   2   3
ENDBRANCH   1   2
BRANCH   1  13
ATOM     13  C   UNL     1      17.996 -36.947  21.247  1.00  0.00     0.000 C 
BRANCH  13  14
ATOM     14  C   UNL     1      19.070 -35.912  21.621  1.00  0.00     0.000 C 
BRANCH  14  15
ATOM     15  C   UNL     1      18.892 -35.365  23.047  1.00  0.00     0.000 C 
BRANCH  15  16
ATOM     16  C   UNL     1      17.444 -34.937  23.346  1.00  0.00     0.000 C 
BRANCH  16  17
ATOM     17  C   UNL     1      17.357 -33.857  24.442  1.00  0.00     0.000 C 
BRANCH  17  18
ATOM     18  C   UNL     1      16.949 -32.468  23.918  1.00  0.00     0.000 C 
BRANCH  18  19
ATOM     19  C   UNL     1      18.114 -31.717  23.230  1.00  0.00     0.000 C 
BRANCH  19  20
ATOM     20  C   UNL     1      17.992 -31.654  21.696  1.00  0.00     0.006 C 
BRANCH  20  21
ATOM     21  C   UNL     1      19.214 -32.228  20.955  1.00  0.00     0.053 C 
BRANCH  21  22
ATOM     22  C   UNL     1      20.497 -31.570  21.360  1.00  0.00     0.041 C 
ATOM     23  O   UNL     1      20.706 -30.361  21.076  1.00  0.00    -0.550 OA
ATOM     24  O   UNL     1      21.469 -32.295  22.035  1.00  0.00    -0.550 OA
ENDBRANCH  21  22
ENDBRANCH  20  21
ENDBRANCH  19  20
ENDBRANCH  18  19
ENDBRANCH  17  18
ENDBRANCH  16  17
ENDBRANCH  15  16
ENDBRANCH  14  15
ENDBRANCH  13  14
ENDBRANCH   1  13
TORSDOF 20
ENDMDL
MODEL 9
REMARK VINA RESULT:    -4.621      3.554      6.934
REMARK INTER + INTRA:         -13.388
REMARK INTER:                  -9.721
REMARK INTRA:                  -3.667
REMARK UNBOUND:                -3.365
REMARK SMILES CCCCCCCCCCCCCCCCCCCCCC(=O)[O-]
REMARK SMILES IDX 12 1 11 2 10 3 9 4 8 5 7 6 6 7 5 8 4 9 3 10 2 11 1 12 13 13
REMARK SMILES IDX 14 14 15 15 16 16 17 17 18 18 19 19 20 20 21 21 22 22 23 23
REMARK SMILES IDX 24 24
REMARK H PARENT
REMARK Flexibility Score: inf
ROOT
ATOM      1  C   UNL     1      18.108 -30.928  23.731  1.00  0.00     0.000 C 
ENDROOT
BRANCH   1   2
ATOM      2  C   UNL     1      18.915 -31.546  22.575  1.00  0.00     0.000 C 
BRANCH   2   3
ATOM      3  C   UNL     1      18.162 -31.508  21.233  1.00  0.00     0.000 C 
BRANCH   3   4
ATOM      4  C   UNL     1      18.280 -32.824  20.450  1.00  0.00    -0.000 C 
BRANCH   4   5
ATOM      5  C   UNL     1      18.777 -33.989  21.325  1.00  0.00    -0.000 C 
BRANCH   5   6
ATOM      6  C   UNL     1      18.236 -35.349  20.855  1.00  0.00    -0.000 C 
BRANCH   6   7
ATOM      7  C   UNL     1      18.344 -36.434  21.940  1.00  0.00    -0.000 C 
BRANCH   7   8
ATOM      8  C   UNL     1      19.310 -36.046  23.072  1.00  0.00    -0.000 C 
BRANCH   8   9
ATOM      9  C   UNL     1      19.556 -37.183  24.086  1.00  0.00    -0.000 C 
BRANCH   9  10
ATOM     10  C   UNL     1      19.181 -36.806  25.536  1.00  0.00    -0.000 C 
BRANCH  10  11
ATOM     11  C   UNL     1      18.125 -37.734  26.157  1.00  0.00    -0.003 C 
ATOM     12  C   UNL     1      16.974 -36.973  26.815  1.00  0.00     0.004 C 
ENDBRANCH  10  11
ENDBRANCH   9  10
ENDBRANCH   8   9
ENDBRANCH   7   8
ENDBRANCH   6   7
ENDBRANCH   5   6
ENDBRANCH   4   5
ENDBRANCH   3   4
ENDBRANCH   2   3
ENDBRANCH   1   2
BRANCH   1  13
ATOM     13  C   UNL     1      16.945 -31.795  24.246  1.00  0.00     0.000 C 
BRANCH  13  14
ATOM     14  C   UNL     1      17.362 -33.249  24.520  1.00  0.00     0.000 C 
BRANCH  14  15
ATOM     15  C   UNL     1      16.222 -34.249  24.272  1.00  0.00     0.000 C 
BRANCH  15  16
ATOM     16  C   UNL     1      15.011 -33.611  23.566  1.00  0.00     0.000 C 
BRANCH  16  17
ATOM     17  C   UNL     1      15.035 -33.819  22.039  1.00  0.00     0.000 C 
BRANCH  17  18
ATOM     18  C   UNL     1      14.676 -32.557  21.232  1.00  0.00     0.000 C 
BRANCH  18  19
ATOM     19  C   UNL     1      13.551 -31.722  21.887  1.00  0.00     0.000 C 
BRANCH  19  20
ATOM     20  C   UNL     1      14.031 -30.375  22.459  1.00  0.00     0.006 C 
BRANCH  20  21
ATOM     21  C   UNL     1      13.496 -30.076  23.872  1.00  0.00     0.053 C 
BRANCH  21  22
ATOM     22  C   UNL     1      12.858 -28.725  23.975  1.00  0.00     0.041 C 
ATOM     23  O   UNL     1      13.567 -27.703  24.170  1.00  0.00    -0.550 OA
ATOM     24  O   UNL     1      11.480 -28.596  23.874  1.00  0.00    -0.550 OA
ENDBRANCH  21  22
ENDBRANCH  20  21
ENDBRANCH  19  20
ENDBRANCH  18  19
ENDBRANCH  17  18
ENDBRANCH  16  17
ENDBRANCH  15  16
ENDBRANCH  14  15
ENDBRANCH  13  14
ENDBRANCH   1  13
TORSDOF 20
ENDMDL
