MODEL 1
REMARK VINA RESULT:     6.593      0.000      0.000
REMARK INTER + INTRA:          16.744
REMARK INTER:                  17.384
REMARK INTRA:                  -0.640
REMARK UNBOUND:                -0.640
REMARK SMILES CCCCCCCCCCCCCCCCCCCCCCCCCCCCCC(=O)[O-]
REMARK SMILES IDX 16 1 17 2 18 3 19 4 20 5 21 6 22 7 23 8 24 9 25 10 26 11
REMARK SMILES IDX 27 12 28 13 29 14 30 15 31 16 32 17 15 18 14 19 13 20 12 21
REMARK SMILES IDX 11 22 10 23 9 24 8 25 7 26 6 27 5 28 4 29 3 30 2 31 1 32
REMARK H PARENT
REMARK Flexibility Score: inf
ROOT
ATOM      1  C   UNL     1       4.619 -39.028  22.037  1.00  0.00     0.000 C 
ENDROOT
BRANCH   1   2
ATOM      2  C   UNL     1       5.704 -39.922  21.410  1.00  0.00     0.000 C 
BRANCH   2   3
ATOM      3  C   UNL     1       5.973 -39.574  19.932  1.00  0.00     0.000 C 
BRANCH   3   4
ATOM      4  C   UNL     1       5.427 -38.197  19.501  1.00  0.00     0.000 C 
BRANCH   4   5
ATOM      5  C   UNL     1       3.999 -38.240  18.917  1.00  0.00     0.000 C 
BRANCH   5   6
ATOM      6  C   UNL     1       3.026 -37.262  19.598  1.00  0.00     0.000 C 
BRANCH   6   7
ATOM      7  C   UNL     1       1.629 -37.878  19.802  1.00  0.00     0.000 C 
BRANCH   7   8
ATOM      8  C   UNL     1       0.955 -38.260  18.475  1.00  0.00     0.000 C 
BRANCH   8   9
ATOM      9  C   UNL     1       1.703 -37.702  17.251  1.00  0.00     0.000 C 
BRANCH   9  10
ATOM     10  C   UNL     1       1.269 -36.271  16.894  1.00  0.00     0.000 C 
BRANCH  10  11
ATOM     11  C   UNL     1       1.610 -35.900  15.440  1.00  0.00     0.000 C 
BRANCH  11  12
ATOM     12  C   UNL     1       3.106 -36.062  15.123  1.00  0.00     0.000 C 
BRANCH  12  13
ATOM     13  C   UNL     1       3.361 -36.927  13.876  1.00  0.00     0.006 C 
BRANCH  13  14
ATOM     14  C   UNL     1       4.705 -37.665  13.946  1.00  0.00     0.053 C 
BRANCH  14  15
ATOM     15  C   UNL     1       4.535 -39.084  14.394  1.00  0.00     0.041 C 
ATOM     16  O   UNL     1       5.372 -39.961  14.054  1.00  0.00    -0.550 OA
ATOM     17  O   UNL     1       3.476 -39.429  15.225  1.00  0.00    -0.550 OA
ENDBRANCH  14  15
ENDBRANCH  13  14
ENDBRANCH  12  13
ENDBRANCH  11  12
ENDBRANCH  10  11
ENDBRANCH   9  10
ENDBRANCH   8   9
ENDBRANCH   7   8
ENDBRANCH   6   7
ENDBRANCH   5   6
ENDBRANCH   4   5
ENDBRANCH   3   4
ENDBRANCH   2   3
ENDBRANCH   1   2
BRANCH   1  18
ATOM     18  C   UNL     1       5.188 -38.046  23.076  1.00  0.00     0.000 C 
BRANCH  18  19
ATOM     19  C   UNL     1       6.125 -36.966  22.500  1.00  0.00     0.000 C 
BRANCH  19  20
ATOM     20  C   UNL     1       5.415 -35.778  21.818  1.00  0.00     0.000 C 
BRANCH  20  21
ATOM     21  C   UNL     1       4.299 -35.117  22.647  1.00  0.00     0.000 C 
BRANCH  21  22
ATOM     22  C   UNL     1       4.843 -34.280  23.816  1.00  0.00     0.000 C 
BRANCH  22  23
ATOM     23  C   UNL     1       6.106 -34.890  24.451  1.00  0.00     0.000 C 
BRANCH  23  24
ATOM     24  C   UNL     1       5.899 -35.547  25.832  1.00  0.00    -0.000 C 
BRANCH  24  25
ATOM     25  C   UNL     1       6.011 -37.081  25.855  1.00  0.00    -0.000 C 
BRANCH  25  26
ATOM     26  C   UNL     1       4.827 -37.757  26.567  1.00  0.00    -0.000 C 
BRANCH  26  27
ATOM     27  C   UNL     1       3.483 -37.070  26.269  1.00  0.00    -0.000 C 
BRANCH  27  28
ATOM     28  C   UNL     1       2.426 -37.178  27.387  1.00  0.00    -0.000 C 
BRANCH  28  29
ATOM     29  C   UNL     1       1.670 -35.875  27.701  1.00  0.00    -0.000 C 
BRANCH  29  30
ATOM     30  C   UNL     1       2.567 -34.806  28.342  1.00  0.00    -0.000 C 
BRANCH  30  31
ATOM     31  C   UNL     1       2.001 -34.352  29.692  1.00  0.00    -0.003 C 
ATOM     32  C   UNL     1       0.502 -34.620  29.779  1.00  0.00     0.004 C 
ENDBRANCH  30  31
ENDBRANCH  29  30
ENDBRANCH  28  29
ENDBRANCH  27  28
ENDBRANCH  26  27
ENDBRANCH  25  26
ENDBRANCH  24  25
ENDBRANCH  23  24
ENDBRANCH  22  23
ENDBRANCH  21  22
ENDBRANCH  20  21
ENDBRANCH  19  20
ENDBRANCH  18  19
ENDBRANCH   1  18
TORSDOF 28
ENDMDL
MODEL 2
REMARK VINA RESULT:     7.407      4.402     11.387
REMARK INTER + INTRA:          18.893
REMARK INTER:                  20.946
REMARK INTRA:                  -2.053
REMARK UNBOUND:                -0.640
REMARK SMILES CCCCCCCCCCCCCCCCCCCCCCCCCCCCCC(=O)[O-]
REMARK SMILES IDX 16 1 17 2 18 3 19 4 20 5 21 6 22 7 23 8 24 9 25 10 26 11
REMARK SMILES IDX 27 12 28 13 29 14 30 15 31 16 32 17 15 18 14 19 13 20 12 21
REMARK SMILES IDX 11 22 10 23 9 24 8 25 7 26 6 27 5 28 4 29 3 30 2 31 1 32
REMARK H PARENT
REMARK Flexibility Score: inf
ROOT
ATOM      1  C   UNL     1       4.757 -34.781  23.425  1.00  0.00     0.000 C 
ENDROOT
BRANCH   1   2
ATOM      2  C   UNL     1       6.107 -34.876  24.157  1.00  0.00     0.000 C 
BRANCH   2   3
ATOM      3  C   UNL     1       6.105 -35.951  25.262  1.00  0.00     0.000 C 
BRANCH   3   4
ATOM      4  C   UNL     1       5.108 -37.102  25.018  1.00  0.00     0.000 C 
BRANCH   4   5
ATOM      5  C   UNL     1       4.513 -37.704  26.308  1.00  0.00     0.000 C 
BRANCH   5   6
ATOM      6  C   UNL     1       3.189 -38.456  26.082  1.00  0.00     0.000 C 
BRANCH   6   7
ATOM      7  C   UNL     1       2.044 -37.890  26.941  1.00  0.00     0.000 C 
BRANCH   7   8
ATOM      8  C   UNL     1       2.535 -36.869  27.979  1.00  0.00     0.000 C 
BRANCH   8   9
ATOM      9  C   UNL     1       1.616 -35.639  28.078  1.00  0.00     0.000 C 
BRANCH   9  10
ATOM     10  C   UNL     1       2.103 -34.618  29.119  1.00  0.00     0.000 C 
BRANCH  10  11
ATOM     11  C   UNL     1       0.976 -34.154  30.058  1.00  0.00     0.000 C 
BRANCH  11  12
ATOM     12  C   UNL     1       0.406 -32.781  29.664  1.00  0.00     0.000 C 
BRANCH  12  13
ATOM     13  C   UNL     1      -1.129 -32.783  29.549  1.00  0.00     0.006 C 
BRANCH  13  14
ATOM     14  C   UNL     1      -1.717 -34.196  29.656  1.00  0.00     0.053 C 
BRANCH  14  15
ATOM     15  C   UNL     1      -3.213 -34.181  29.588  1.00  0.00     0.041 C 
ATOM     16  O   UNL     1      -3.875 -33.427  30.349  1.00  0.00    -0.550 OA
ATOM     17  O   UNL     1      -3.875 -34.968  28.653  1.00  0.00    -0.550 OA
ENDBRANCH  14  15
ENDBRANCH  13  14
ENDBRANCH  12  13
ENDBRANCH  11  12
ENDBRANCH  10  11
ENDBRANCH   9  10
ENDBRANCH   8   9
ENDBRANCH   7   8
ENDBRANCH   6   7
ENDBRANCH   5   6
ENDBRANCH   4   5
ENDBRANCH   3   4
ENDBRANCH   2   3
ENDBRANCH   1   2
BRANCH   1  18
ATOM     18  C   UNL     1       4.877 -35.066  21.918  1.00  0.00     0.000 C 
BRANCH  18  19
ATOM     19  C   UNL     1       6.064 -35.967  21.524  1.00  0.00     0.000 C 
BRANCH  19  20
ATOM     20  C   UNL     1       5.768 -37.482  21.530  1.00  0.00     0.000 C 
BRANCH  20  21
ATOM     21  C   UNL     1       5.626 -38.128  20.140  1.00  0.00     0.000 C 
BRANCH  21  22
ATOM     22  C   UNL     1       4.728 -37.313  19.196  1.00  0.00     0.000 C 
BRANCH  22  23
ATOM     23  C   UNL     1       3.250 -37.315  19.626  1.00  0.00     0.000 C 
BRANCH  23  24
ATOM     24  C   UNL     1       2.347 -38.327  18.890  1.00  0.00    -0.000 C 
BRANCH  24  25
ATOM     25  C   UNL     1       0.857 -37.952  18.821  1.00  0.00    -0.000 C 
BRANCH  25  26
ATOM     26  C   UNL     1       0.478 -37.242  17.509  1.00  0.00    -0.000 C 
BRANCH  26  27
ATOM     27  C   UNL     1       1.707 -36.780  16.708  1.00  0.00    -0.000 C 
BRANCH  27  28
ATOM     28  C   UNL     1       1.429 -36.397  15.239  1.00  0.00    -0.000 C 
BRANCH  28  29
ATOM     29  C   UNL     1       2.470 -36.900  14.224  1.00  0.00    -0.000 C 
BRANCH  29  30
ATOM     30  C   UNL     1       3.871 -37.054  14.833  1.00  0.00    -0.000 C 
BRANCH  30  31
ATOM     31  C   UNL     1       4.745 -37.974  13.974  1.00  0.00    -0.003 C 
ATOM     32  C   UNL     1       4.418 -39.442  14.230  1.00  0.00     0.004 C 
ENDBRANCH  30  31
ENDBRANCH  29  30
ENDBRANCH  28  29
ENDBRANCH  27  28
ENDBRANCH  26  27
ENDBRANCH  25  26
ENDBRANCH  24  25
ENDBRANCH  23  24
ENDBRANCH  22  23
ENDBRANCH  21  22
ENDBRANCH  20  21
ENDBRANCH  19  20
ENDBRANCH  18  19
ENDBRANCH   1  18
TORSDOF 28
ENDMDL
MODEL 3
REMARK VINA RESULT:     7.544      1.817      2.284
REMARK INTER + INTRA:          19.253
REMARK INTER:                  16.047
REMARK INTRA:                   3.207
REMARK UNBOUND:                -0.640
REMARK SMILES CCCCCCCCCCCCCCCCCCCCCCCCCCCCCC(=O)[O-]
REMARK SMILES IDX 16 1 17 2 18 3 19 4 20 5 21 6 22 7 23 8 24 9 25 10 26 11
REMARK SMILES IDX 27 12 28 13 29 14 30 15 31 16 32 17 15 18 14 19 13 20 12 21
REMARK SMILES IDX 11 22 10 23 9 24 8 25 7 26 6 27 5 28 4 29 3 30 2 31 1 32
REMARK H PARENT
REMARK Flexibility Score: inf
ROOT
ATOM      1  C   UNL     1       5.085 -37.413  22.185  1.00  0.00     0.000 C 
ENDROOT
BRANCH   1   2
ATOM      2  C   UNL     1       5.600 -38.848  21.977  1.00  0.00     0.000 C 
BRANCH   2   3
ATOM      3  C   UNL     1       5.695 -39.230  20.486  1.00  0.00     0.000 C 
BRANCH   3   4
ATOM      4  C   UNL     1       5.053 -38.204  19.531  1.00  0.00     0.000 C 
BRANCH   4   5
ATOM      5  C   UNL     1       3.572 -38.488  19.204  1.00  0.00     0.000 C 
BRANCH   5   6
ATOM      6  C   UNL     1       2.589 -37.568  19.950  1.00  0.00     0.000 C 
BRANCH   6   7
ATOM      7  C   UNL     1       1.139 -38.078  19.869  1.00  0.00     0.000 C 
BRANCH   7   8
ATOM      8  C   UNL     1       0.515 -37.862  18.481  1.00  0.00     0.000 C 
BRANCH   8   9
ATOM      9  C   UNL     1       1.574 -37.640  17.387  1.00  0.00     0.000 C 
BRANCH   9  10
ATOM     10  C   UNL     1       1.203 -36.498  16.427  1.00  0.00     0.000 C 
BRANCH  10  11
ATOM     11  C   UNL     1       1.648 -36.779  14.981  1.00  0.00     0.000 C 
BRANCH  11  12
ATOM     12  C   UNL     1       3.164 -37.001  14.861  1.00  0.00     0.000 C 
BRANCH  12  13
ATOM     13  C   UNL     1       3.919 -36.679  16.163  1.00  0.00     0.006 C 
BRANCH  13  14
ATOM     14  C   UNL     1       3.898 -35.181  16.491  1.00  0.00     0.053 C 
BRANCH  14  15
ATOM     15  C   UNL     1       4.561 -34.890  17.802  1.00  0.00     0.041 C 
ATOM     16  O   UNL     1       4.505 -35.727  18.741  1.00  0.00    -0.550 OA
ATOM     17  O   UNL     1       5.279 -33.713  17.973  1.00  0.00    -0.550 OA
ENDBRANCH  14  15
ENDBRANCH  13  14
ENDBRANCH  12  13
ENDBRANCH  11  12
ENDBRANCH  10  11
ENDBRANCH   9  10
ENDBRANCH   8   9
ENDBRANCH   7   8
ENDBRANCH   6   7
ENDBRANCH   5   6
ENDBRANCH   4   5
ENDBRANCH   3   4
ENDBRANCH   2   3
ENDBRANCH   1   2
BRANCH   1  18
ATOM     18  C   UNL     1       6.125 -36.347  21.796  1.00  0.00     0.000 C 
BRANCH  18  19
ATOM     19  C   UNL     1       5.554 -35.135  21.034  1.00  0.00     0.000 C 
BRANCH  19  20
ATOM     20  C   UNL     1       4.163 -34.661  21.503  1.00  0.00     0.000 C 
BRANCH  20  21
ATOM     21  C   UNL     1       4.052 -34.339  23.004  1.00  0.00     0.000 C 
BRANCH  21  22
ATOM     22  C   UNL     1       5.306 -33.643  23.556  1.00  0.00     0.000 C 
BRANCH  22  23
ATOM     23  C   UNL     1       6.124 -34.544  24.498  1.00  0.00     0.000 C 
BRANCH  23  24
ATOM     24  C   UNL     1       5.524 -35.941  24.765  1.00  0.00    -0.000 C 
BRANCH  24  25
ATOM     25  C   UNL     1       5.504 -36.379  26.239  1.00  0.00    -0.000 C 
BRANCH  25  26
ATOM     26  C   UNL     1       5.135 -37.862  26.418  1.00  0.00    -0.000 C 
BRANCH  26  27
ATOM     27  C   UNL     1       3.703 -38.178  25.954  1.00  0.00    -0.000 C 
BRANCH  27  28
ATOM     28  C   UNL     1       2.605 -37.966  27.016  1.00  0.00    -0.000 C 
BRANCH  28  29
ATOM     29  C   UNL     1       2.136 -36.511  27.191  1.00  0.00    -0.000 C 
BRANCH  29  30
ATOM     30  C   UNL     1       1.940 -36.122  28.664  1.00  0.00    -0.000 C 
BRANCH  30  31
ATOM     31  C   UNL     1       1.866 -34.599  28.823  1.00  0.00    -0.003 C 
ATOM     32  C   UNL     1       1.648 -34.207  30.281  1.00  0.00     0.004 C 
ENDBRANCH  30  31
ENDBRANCH  29  30
ENDBRANCH  28  29
ENDBRANCH  27  28
ENDBRANCH  26  27
ENDBRANCH  25  26
ENDBRANCH  24  25
ENDBRANCH  23  24
ENDBRANCH  22  23
ENDBRANCH  21  22
ENDBRANCH  20  21
ENDBRANCH  19  20
ENDBRANCH  18  19
ENDBRANCH   1  18
TORSDOF 28
ENDMDL
MODEL 4
REMARK VINA RESULT:     7.604      1.495      3.476
REMARK INTER + INTRA:          19.412
REMARK INTER:                  18.478
REMARK INTRA:                   0.935
REMARK UNBOUND:                -0.640
REMARK SMILES CCCCCCCCCCCCCCCCCCCCCCCCCCCCCC(=O)[O-]
REMARK SMILES IDX 16 1 17 2 18 3 19 4 20 5 21 6 22 7 23 8 24 9 25 10 26 11
REMARK SMILES IDX 27 12 28 13 29 14 30 15 31 16 32 17 15 18 14 19 13 20 12 21
REMARK SMILES IDX 11 22 10 23 9 24 8 25 7 26 6 27 5 28 4 29 3 30 2 31 1 32
REMARK H PARENT
REMARK Flexibility Score: inf
ROOT
ATOM      1  C   UNL     1       5.287 -36.159  23.809  1.00  0.00     0.000 C 
ENDROOT
BRANCH   1   2
ATOM      2  C   UNL     1       6.059 -34.845  24.026  1.00  0.00     0.000 C 
BRANCH   2   3
ATOM      3  C   UNL     1       6.124 -33.981  22.751  1.00  0.00     0.000 C 
BRANCH   3   4
ATOM      4  C   UNL     1       5.265 -34.514  21.586  1.00  0.00     0.000 C 
BRANCH   4   5
ATOM      5  C   UNL     1       6.076 -35.211  20.473  1.00  0.00     0.000 C 
BRANCH   5   6
ATOM      6  C   UNL     1       5.876 -34.583  19.082  1.00  0.00     0.000 C 
BRANCH   6   7
ATOM      7  C   UNL     1       4.740 -35.261  18.295  1.00  0.00     0.000 C 
BRANCH   7   8
ATOM      8  C   UNL     1       4.407 -36.662  18.831  1.00  0.00     0.000 C 
BRANCH   8   9
ATOM      9  C   UNL     1       3.076 -36.698  19.603  1.00  0.00     0.000 C 
BRANCH   9  10
ATOM     10  C   UNL     1       2.368 -38.058  19.498  1.00  0.00     0.000 C 
BRANCH  10  11
ATOM     11  C   UNL     1       1.600 -38.220  18.175  1.00  0.00     0.000 C 
BRANCH  11  12
ATOM     12  C   UNL     1       1.268 -36.872  17.515  1.00  0.00     0.000 C 
BRANCH  12  13
ATOM     13  C   UNL     1       1.441 -36.898  15.985  1.00  0.00     0.006 C 
BRANCH  13  14
ATOM     14  C   UNL     1       2.727 -36.192  15.535  1.00  0.00     0.053 C 
BRANCH  14  15
ATOM     15  C   UNL     1       3.622 -37.110  14.763  1.00  0.00     0.041 C 
ATOM     16  O   UNL     1       3.262 -38.292  14.519  1.00  0.00    -0.550 OA
ATOM     17  O   UNL     1       4.838 -36.647  14.273  1.00  0.00    -0.550 OA
ENDBRANCH  14  15
ENDBRANCH  13  14
ENDBRANCH  12  13
ENDBRANCH  11  12
ENDBRANCH  10  11
ENDBRANCH   9  10
ENDBRANCH   8   9
ENDBRANCH   7   8
ENDBRANCH   6   7
ENDBRANCH   5   6
ENDBRANCH   4   5
ENDBRANCH   3   4
ENDBRANCH   2   3
ENDBRANCH   1   2
BRANCH   1  18
ATOM     18  C   UNL     1       6.124 -37.225  23.082  1.00  0.00     0.000 C 
BRANCH  18  19
ATOM     19  C   UNL     1       5.535 -37.705  21.740  1.00  0.00     0.000 C 
BRANCH  19  20
ATOM     20  C   UNL     1       5.627 -39.225  21.490  1.00  0.00     0.000 C 
BRANCH  20  21
ATOM     21  C   UNL     1       5.902 -40.080  22.739  1.00  0.00     0.000 C 
BRANCH  21  22
ATOM     22  C   UNL     1       4.673 -40.208  23.653  1.00  0.00     0.000 C 
BRANCH  22  23
ATOM     23  C   UNL     1       4.941 -39.720  25.088  1.00  0.00     0.000 C 
BRANCH  23  24
ATOM     24  C   UNL     1       4.802 -38.199  25.307  1.00  0.00    -0.000 C 
BRANCH  24  25
ATOM     25  C   UNL     1       4.089 -37.783  26.605  1.00  0.00    -0.000 C 
BRANCH  25  26
ATOM     26  C   UNL     1       2.587 -38.116  26.597  1.00  0.00    -0.000 C 
BRANCH  26  27
ATOM     27  C   UNL     1       1.786 -37.279  27.609  1.00  0.00    -0.000 C 
BRANCH  27  28
ATOM     28  C   UNL     1       2.357 -35.875  27.900  1.00  0.00    -0.000 C 
BRANCH  28  29
ATOM     29  C   UNL     1       2.012 -35.302  29.285  1.00  0.00    -0.000 C 
BRANCH  29  30
ATOM     30  C   UNL     1       1.841 -33.776  29.273  1.00  0.00    -0.000 C 
BRANCH  30  31
ATOM     31  C   UNL     1       0.488 -33.371  29.867  1.00  0.00    -0.003 C 
ATOM     32  C   UNL     1      -0.651 -34.167  29.237  1.00  0.00     0.004 C 
ENDBRANCH  30  31
ENDBRANCH  29  30
ENDBRANCH  28  29
ENDBRANCH  27  28
ENDBRANCH  26  27
ENDBRANCH  25  26
ENDBRANCH  24  25
ENDBRANCH  23  24
ENDBRANCH  22  23
ENDBRANCH  21  22
ENDBRANCH  20  21
ENDBRANCH  19  20
ENDBRANCH  18  19
ENDBRANCH   1  18
TORSDOF 28
ENDMDL
MODEL 5
REMARK VINA RESULT:     7.744      4.285      9.871
REMARK INTER + INTRA:          19.780
REMARK INTER:                  19.210
REMARK INTRA:                   0.571
REMARK UNBOUND:                -0.640
REMARK SMILES CCCCCCCCCCCCCCCCCCCCCCCCCCCCCC(=O)[O-]
REMARK SMILES IDX 16 1 17 2 18 3 19 4 20 5 21 6 22 7 23 8 24 9 25 10 26 11
REMARK SMILES IDX 27 12 28 13 29 14 30 15 31 16 32 17 15 18 14 19 13 20 12 21
REMARK SMILES IDX 11 22 10 23 9 24 8 25 7 26 6 27 5 28 4 29 3 30 2 31 1 32
REMARK H PARENT
REMARK Flexibility Score: inf
ROOT
ATOM      1  C   UNL     1       4.079 -35.574  21.724  1.00  0.00     0.000 C 
ENDROOT
BRANCH   1   2
ATOM      2  C   UNL     1       5.553 -35.638  22.161  1.00  0.00     0.000 C 
BRANCH   2   3
ATOM      3  C   UNL     1       6.121 -37.070  22.114  1.00  0.00     0.000 C 
BRANCH   3   4
ATOM      4  C   UNL     1       5.588 -37.920  20.942  1.00  0.00     0.000 C 
BRANCH   4   5
ATOM      5  C   UNL     1       5.714 -39.442  21.160  1.00  0.00     0.000 C 
BRANCH   5   6
ATOM      6  C   UNL     1       6.043 -39.831  22.612  1.00  0.00     0.000 C 
BRANCH   6   7
ATOM      7  C   UNL     1       4.780 -39.942  23.486  1.00  0.00     0.000 C 
BRANCH   7   8
ATOM      8  C   UNL     1       5.030 -39.513  24.940  1.00  0.00     0.000 C 
BRANCH   8   9
ATOM      9  C   UNL     1       5.408 -38.026  25.059  1.00  0.00     0.000 C 
BRANCH   9  10
ATOM     10  C   UNL     1       4.493 -37.258  26.027  1.00  0.00     0.000 C 
BRANCH  10  11
ATOM     11  C   UNL     1       3.077 -37.856  26.096  1.00  0.00     0.000 C 
BRANCH  11  12
ATOM     12  C   UNL     1       2.403 -37.625  27.458  1.00  0.00     0.000 C 
BRANCH  12  13
ATOM     13  C   UNL     1       2.675 -36.221  28.028  1.00  0.00     0.006 C 
BRANCH  13  14
ATOM     14  C   UNL     1       1.405 -35.362  28.086  1.00  0.00     0.053 C 
BRANCH  14  15
ATOM     15  C   UNL     1       1.354 -34.531  29.331  1.00  0.00     0.041 C 
ATOM     16  O   UNL     1       2.380 -34.401  30.050  1.00  0.00    -0.550 OA
ATOM     17  O   UNL     1       0.185 -33.862  29.674  1.00  0.00    -0.550 OA
ENDBRANCH  14  15
ENDBRANCH  13  14
ENDBRANCH  12  13
ENDBRANCH  11  12
ENDBRANCH  10  11
ENDBRANCH   9  10
ENDBRANCH   8   9
ENDBRANCH   7   8
ENDBRANCH   6   7
ENDBRANCH   5   6
ENDBRANCH   4   5
ENDBRANCH   3   4
ENDBRANCH   2   3
ENDBRANCH   1   2
BRANCH   1  18
ATOM     18  C   UNL     1       3.915 -35.193  20.242  1.00  0.00     0.000 C 
BRANCH  18  19
ATOM     19  C   UNL     1       5.218 -34.770  19.536  1.00  0.00     0.000 C 
BRANCH  19  20
ATOM     20  C   UNL     1       5.092 -34.527  18.017  1.00  0.00     0.000 C 
BRANCH  20  21
ATOM     21  C   UNL     1       4.309 -35.603  17.244  1.00  0.00     0.000 C 
BRANCH  21  22
ATOM     22  C   UNL     1       3.129 -35.022  16.449  1.00  0.00     0.000 C 
BRANCH  22  23
ATOM     23  C   UNL     1       2.631 -35.967  15.341  1.00  0.00     0.000 C 
BRANCH  23  24
ATOM     24  C   UNL     1       3.648 -36.263  14.218  1.00  0.00    -0.000 C 
BRANCH  24  25
ATOM     25  C   UNL     1       4.194 -37.701  14.186  1.00  0.00    -0.000 C 
BRANCH  25  26
ATOM     26  C   UNL     1       3.426 -38.654  15.117  1.00  0.00    -0.000 C 
BRANCH  26  27
ATOM     27  C   UNL     1       3.697 -38.377  16.607  1.00  0.00    -0.000 C 
BRANCH  27  28
ATOM     28  C   UNL     1       2.440 -38.182  17.479  1.00  0.00    -0.000 C 
BRANCH  28  29
ATOM     29  C   UNL     1       2.710 -37.985  18.981  1.00  0.00    -0.000 C 
BRANCH  29  30
ATOM     30  C   UNL     1       1.427 -37.752  19.792  1.00  0.00    -0.000 C 
BRANCH  30  31
ATOM     31  C   UNL     1       0.187 -38.135  18.978  1.00  0.00    -0.003 C 
ATOM     32  C   UNL     1       0.068 -37.282  17.719  1.00  0.00     0.004 C 
ENDBRANCH  30  31
ENDBRANCH  29  30
ENDBRANCH  28  29
ENDBRANCH  27  28
ENDBRANCH  26  27
ENDBRANCH  25  26
ENDBRANCH  24  25
ENDBRANCH  23  24
ENDBRANCH  22  23
ENDBRANCH  21  22
ENDBRANCH  20  21
ENDBRANCH  19  20
ENDBRANCH  18  19
ENDBRANCH   1  18
TORSDOF 28
ENDMDL
MODEL 6
REMARK VINA RESULT:     7.810      4.295      9.952
REMARK INTER + INTRA:          19.954
REMARK INTER:                  20.055
REMARK INTRA:                  -0.101
REMARK UNBOUND:                -0.640
REMARK SMILES CCCCCCCCCCCCCCCCCCCCCCCCCCCCCC(=O)[O-]
REMARK SMILES IDX 16 1 17 2 18 3 19 4 20 5 21 6 22 7 23 8 24 9 25 10 26 11
REMARK SMILES IDX 27 12 28 13 29 14 30 15 31 16 32 17 15 18 14 19 13 20 12 21
REMARK SMILES IDX 11 22 10 23 9 24 8 25 7 26 6 27 5 28 4 29 3 30 2 31 1 32
REMARK H PARENT
REMARK Flexibility Score: inf
ROOT
ATOM      1  C   UNL     1       4.179 -35.507  22.581  1.00  0.00     0.000 C 
ENDROOT
BRANCH   1   2
ATOM      2  C   UNL     1       5.447 -35.718  23.427  1.00  0.00     0.000 C 
BRANCH   2   3
ATOM      3  C   UNL     1       6.122 -37.076  23.150  1.00  0.00     0.000 C 
BRANCH   3   4
ATOM      4  C   UNL     1       5.873 -37.624  21.731  1.00  0.00     0.000 C 
BRANCH   4   5
ATOM      5  C   UNL     1       5.966 -39.161  21.624  1.00  0.00     0.000 C 
BRANCH   5   6
ATOM      6  C   UNL     1       5.697 -39.888  22.953  1.00  0.00     0.000 C 
BRANCH   6   7
ATOM      7  C   UNL     1       4.433 -39.363  23.658  1.00  0.00     0.000 C 
BRANCH   7   8
ATOM      8  C   UNL     1       4.573 -39.353  25.188  1.00  0.00     0.000 C 
BRANCH   8   9
ATOM      9  C   UNL     1       4.981 -37.974  25.734  1.00  0.00     0.000 C 
BRANCH   9  10
ATOM     10  C   UNL     1       3.803 -37.217  26.370  1.00  0.00     0.000 C 
BRANCH  10  11
ATOM     11  C   UNL     1       2.734 -38.166  26.939  1.00  0.00     0.000 C 
BRANCH  11  12
ATOM     12  C   UNL     1       1.707 -37.437  27.821  1.00  0.00     0.000 C 
BRANCH  12  13
ATOM     13  C   UNL     1       1.816 -35.905  27.723  1.00  0.00     0.006 C 
BRANCH  13  14
ATOM     14  C   UNL     1       2.186 -35.262  29.067  1.00  0.00     0.053 C 
BRANCH  14  15
ATOM     15  C   UNL     1       1.209 -34.198  29.460  1.00  0.00     0.041 C 
ATOM     16  O   UNL     1       1.574 -32.994  29.525  1.00  0.00    -0.550 OA
ATOM     17  O   UNL     1      -0.117 -34.529  29.712  1.00  0.00    -0.550 OA
ENDBRANCH  14  15
ENDBRANCH  13  14
ENDBRANCH  12  13
ENDBRANCH  11  12
ENDBRANCH  10  11
ENDBRANCH   9  10
ENDBRANCH   8   9
ENDBRANCH   7   8
ENDBRANCH   6   7
ENDBRANCH   5   6
ENDBRANCH   4   5
ENDBRANCH   3   4
ENDBRANCH   2   3
ENDBRANCH   1   2
BRANCH   1  18
ATOM     18  C   UNL     1       4.425 -34.608  21.357  1.00  0.00     0.000 C 
BRANCH  18  19
ATOM     19  C   UNL     1       5.900 -34.495  20.924  1.00  0.00     0.000 C 
BRANCH  19  20
ATOM     20  C   UNL     1       6.125 -33.972  19.490  1.00  0.00     0.000 C 
BRANCH  20  21
ATOM     21  C   UNL     1       5.985 -35.027  18.378  1.00  0.00     0.000 C 
BRANCH  21  22
ATOM     22  C   UNL     1       4.608 -34.992  17.695  1.00  0.00     0.000 C 
BRANCH  22  23
ATOM     23  C   UNL     1       3.799 -36.283  17.915  1.00  0.00     0.000 C 
BRANCH  23  24
ATOM     24  C   UNL     1       4.245 -37.147  19.113  1.00  0.00    -0.000 C 
BRANCH  24  25
ATOM     25  C   UNL     1       3.116 -37.603  20.053  1.00  0.00    -0.000 C 
BRANCH  25  26
ATOM     26  C   UNL     1       2.003 -38.375  19.323  1.00  0.00    -0.000 C 
BRANCH  26  27
ATOM     27  C   UNL     1       0.996 -37.446  18.623  1.00  0.00    -0.000 C 
BRANCH  27  28
ATOM     28  C   UNL     1       0.585 -37.874  17.199  1.00  0.00    -0.000 C 
BRANCH  28  29
ATOM     29  C   UNL     1       1.711 -37.831  16.152  1.00  0.00    -0.000 C 
BRANCH  29  30
ATOM     30  C   UNL     1       1.877 -36.445  15.512  1.00  0.00    -0.000 C 
BRANCH  30  31
ATOM     31  C   UNL     1       3.125 -36.398  14.623  1.00  0.00    -0.003 C 
ATOM     32  C   UNL     1       3.762 -37.777  14.494  1.00  0.00     0.004 C 
ENDBRANCH  30  31
ENDBRANCH  29  30
ENDBRANCH  28  29
ENDBRANCH  27  28
ENDBRANCH  26  27
ENDBRANCH  25  26
ENDBRANCH  24  25
ENDBRANCH  23  24
ENDBRANCH  22  23
ENDBRANCH  21  22
ENDBRANCH  20  21
ENDBRANCH  19  20
ENDBRANCH  18  19
ENDBRANCH   1  18
TORSDOF 28
ENDMDL
MODEL 7
REMARK VINA RESULT:     7.864      2.027      3.842
REMARK INTER + INTRA:          20.096
REMARK INTER:                  18.745
REMARK INTRA:                   1.350
REMARK UNBOUND:                -0.640
REMARK SMILES CCCCCCCCCCCCCCCCCCCCCCCCCCCCCC(=O)[O-]
REMARK SMILES IDX 16 1 17 2 18 3 19 4 20 5 21 6 22 7 23 8 24 9 25 10 26 11
REMARK SMILES IDX 27 12 28 13 29 14 30 15 31 16 32 17 15 18 14 19 13 20 12 21
REMARK SMILES IDX 11 22 10 23 9 24 8 25 7 26 6 27 5 28 4 29 3 30 2 31 1 32
REMARK H PARENT
REMARK Flexibility Score: inf
ROOT
ATOM      1  C   UNL     1       5.130 -36.208  23.479  1.00  0.00     0.000 C 
ENDROOT
BRANCH   1   2
ATOM      2  C   UNL     1       5.636 -34.790  23.797  1.00  0.00     0.000 C 
BRANCH   2   3
ATOM      3  C   UNL     1       5.339 -33.789  22.664  1.00  0.00     0.000 C 
BRANCH   3   4
ATOM      4  C   UNL     1       4.062 -34.109  21.860  1.00  0.00     0.000 C 
BRANCH   4   5
ATOM      5  C   UNL     1       4.317 -34.916  20.569  1.00  0.00     0.000 C 
BRANCH   5   6
ATOM      6  C   UNL     1       5.761 -34.803  20.047  1.00  0.00     0.000 C 
BRANCH   6   7
ATOM      7  C   UNL     1       5.817 -34.667  18.515  1.00  0.00     0.000 C 
BRANCH   7   8
ATOM      8  C   UNL     1       4.429 -34.768  17.863  1.00  0.00     0.000 C 
BRANCH   8   9
ATOM      9  C   UNL     1       4.322 -35.949  16.883  1.00  0.00     0.000 C 
BRANCH   9  10
ATOM     10  C   UNL     1       3.673 -35.553  15.547  1.00  0.00     0.000 C 
BRANCH  10  11
ATOM     11  C   UNL     1       2.705 -36.628  15.022  1.00  0.00     0.000 C 
BRANCH  11  12
ATOM     12  C   UNL     1       1.321 -36.553  15.689  1.00  0.00     0.000 C 
BRANCH  12  13
ATOM     13  C   UNL     1       1.125 -37.626  16.776  1.00  0.00     0.006 C 
BRANCH  13  14
ATOM     14  C   UNL     1       2.265 -37.627  17.803  1.00  0.00     0.053 C 
BRANCH  14  15
ATOM     15  C   UNL     1       1.799 -38.092  19.148  1.00  0.00     0.041 C 
ATOM     16  O   UNL     1       2.358 -37.670  20.195  1.00  0.00    -0.550 OA
ATOM     17  O   UNL     1       0.717 -38.959  19.248  1.00  0.00    -0.550 OA
ENDBRANCH  14  15
ENDBRANCH  13  14
ENDBRANCH  12  13
ENDBRANCH  11  12
ENDBRANCH  10  11
ENDBRANCH   9  10
ENDBRANCH   8   9
ENDBRANCH   7   8
ENDBRANCH   6   7
ENDBRANCH   5   6
ENDBRANCH   4   5
ENDBRANCH   3   4
ENDBRANCH   2   3
ENDBRANCH   1   2
BRANCH   1  18
ATOM     18  C   UNL     1       6.110 -37.004  22.600  1.00  0.00     0.000 C 
BRANCH  18  19
ATOM     19  C   UNL     1       5.469 -37.697  21.381  1.00  0.00     0.000 C 
BRANCH  19  20
ATOM     20  C   UNL     1       5.990 -39.119  21.085  1.00  0.00     0.000 C 
BRANCH  20  21
ATOM     21  C   UNL     1       5.849 -40.123  22.243  1.00  0.00     0.000 C 
BRANCH  21  22
ATOM     22  C   UNL     1       4.697 -39.771  23.197  1.00  0.00     0.000 C 
BRANCH  22  23
ATOM     23  C   UNL     1       5.140 -39.702  24.670  1.00  0.00     0.000 C 
BRANCH  23  24
ATOM     24  C   UNL     1       5.622 -38.317  25.151  1.00  0.00    -0.000 C 
BRANCH  24  25
ATOM     25  C   UNL     1       4.624 -37.540  26.027  1.00  0.00    -0.000 C 
BRANCH  25  26
ATOM     26  C   UNL     1       3.559 -38.445  26.669  1.00  0.00    -0.000 C 
BRANCH  26  27
ATOM     27  C   UNL     1       2.196 -37.746  26.817  1.00  0.00    -0.000 C 
BRANCH  27  28
ATOM     28  C   UNL     1       1.972 -37.019  28.159  1.00  0.00    -0.000 C 
BRANCH  28  29
ATOM     29  C   UNL     1       1.570 -35.538  28.041  1.00  0.00    -0.000 C 
BRANCH  29  30
ATOM     30  C   UNL     1       2.325 -34.635  29.028  1.00  0.00    -0.000 C 
BRANCH  30  31
ATOM     31  C   UNL     1       1.406 -34.177  30.165  1.00  0.00    -0.003 C 
ATOM     32  C   UNL     1       0.125 -33.551  29.622  1.00  0.00     0.004 C 
ENDBRANCH  30  31
ENDBRANCH  29  30
ENDBRANCH  28  29
ENDBRANCH  27  28
ENDBRANCH  26  27
ENDBRANCH  25  26
ENDBRANCH  24  25
ENDBRANCH  23  24
ENDBRANCH  22  23
ENDBRANCH  21  22
ENDBRANCH  20  21
ENDBRANCH  19  20
ENDBRANCH  18  19
ENDBRANCH   1  18
TORSDOF 28
ENDMDL
MODEL 8
REMARK VINA RESULT:     7.989      4.318      9.599
REMARK INTER + INTRA:          20.427
REMARK INTER:                  21.332
REMARK INTRA:                  -0.905
REMARK UNBOUND:                -0.640
REMARK SMILES CCCCCCCCCCCCCCCCCCCCCCCCCCCCCC(=O)[O-]
REMARK SMILES IDX 16 1 17 2 18 3 19 4 20 5 21 6 22 7 23 8 24 9 25 10 26 11
REMARK SMILES IDX 27 12 28 13 29 14 30 15 31 16 32 17 15 18 14 19 13 20 12 21
REMARK SMILES IDX 11 22 10 23 9 24 8 25 7 26 6 27 5 28 4 29 3 30 2 31 1 32
REMARK H PARENT
REMARK Flexibility Score: inf
ROOT
ATOM      1  C   UNL     1       5.106 -36.647  23.213  1.00  0.00     0.000 C 
ENDROOT
BRANCH   1   2
ATOM      2  C   UNL     1       6.120 -37.143  22.168  1.00  0.00     0.000 C 
BRANCH   2   3
ATOM      3  C   UNL     1       5.440 -37.657  20.884  1.00  0.00     0.000 C 
BRANCH   3   4
ATOM      4  C   UNL     1       5.345 -39.193  20.794  1.00  0.00     0.000 C 
BRANCH   4   5
ATOM      5  C   UNL     1       5.776 -39.927  22.081  1.00  0.00     0.000 C 
BRANCH   5   6
ATOM      6  C   UNL     1       4.648 -40.062  23.120  1.00  0.00     0.000 C 
BRANCH   6   7
ATOM      7  C   UNL     1       5.160 -39.893  24.561  1.00  0.00     0.000 C 
BRANCH   7   8
ATOM      8  C   UNL     1       4.180 -39.108  25.447  1.00  0.00     0.000 C 
BRANCH   8   9
ATOM      9  C   UNL     1       4.745 -37.747  25.890  1.00  0.00     0.000 C 
BRANCH   9  10
ATOM     10  C   UNL     1       3.663 -36.814  26.460  1.00  0.00     0.000 C 
BRANCH  10  11
ATOM     11  C   UNL     1       2.434 -37.584  26.972  1.00  0.00     0.000 C 
BRANCH  11  12
ATOM     12  C   UNL     1       1.611 -36.776  27.989  1.00  0.00     0.000 C 
BRANCH  12  13
ATOM     13  C   UNL     1       2.074 -35.312  28.100  1.00  0.00     0.006 C 
BRANCH  13  14
ATOM     14  C   UNL     1       1.953 -34.772  29.531  1.00  0.00     0.053 C 
BRANCH  14  15
ATOM     15  C   UNL     1       0.808 -33.816  29.669  1.00  0.00     0.041 C 
ATOM     16  O   UNL     1      -0.355 -34.166  29.334  1.00  0.00    -0.550 OA
ATOM     17  O   UNL     1       1.018 -32.553  30.208  1.00  0.00    -0.550 OA
ENDBRANCH  14  15
ENDBRANCH  13  14
ENDBRANCH  12  13
ENDBRANCH  11  12
ENDBRANCH  10  11
ENDBRANCH   9  10
ENDBRANCH   8   9
ENDBRANCH   7   8
ENDBRANCH   6   7
ENDBRANCH   5   6
ENDBRANCH   4   5
ENDBRANCH   3   4
ENDBRANCH   2   3
ENDBRANCH   1   2
BRANCH   1  18
ATOM     18  C   UNL     1       5.534 -35.326  23.877  1.00  0.00     0.000 C 
BRANCH  18  19
ATOM     19  C   UNL     1       5.279 -34.064  23.028  1.00  0.00     0.000 C 
BRANCH  19  20
ATOM     20  C   UNL     1       4.001 -34.101  22.165  1.00  0.00     0.000 C 
BRANCH  20  21
ATOM     21  C   UNL     1       4.181 -34.685  20.752  1.00  0.00     0.000 C 
BRANCH  21  22
ATOM     22  C   UNL     1       5.653 -34.734  20.313  1.00  0.00     0.000 C 
BRANCH  22  23
ATOM     23  C   UNL     1       5.849 -34.354  18.834  1.00  0.00     0.000 C 
BRANCH  23  24
ATOM     24  C   UNL     1       4.557 -34.282  17.993  1.00  0.00    -0.000 C 
BRANCH  24  25
ATOM     25  C   UNL     1       4.297 -35.492  17.080  1.00  0.00    -0.000 C 
BRANCH  25  26
ATOM     26  C   UNL     1       3.035 -35.330  16.216  1.00  0.00    -0.000 C 
BRANCH  26  27
ATOM     27  C   UNL     1       2.590 -36.649  15.559  1.00  0.00    -0.000 C 
BRANCH  27  28
ATOM     28  C   UNL     1       2.724 -37.903  16.446  1.00  0.00    -0.000 C 
BRANCH  28  29
ATOM     29  C   UNL     1       1.712 -38.000  17.601  1.00  0.00    -0.000 C 
BRANCH  29  30
ATOM     30  C   UNL     1       2.359 -38.419  18.929  1.00  0.00    -0.000 C 
BRANCH  30  31
ATOM     31  C   UNL     1       1.956 -37.468  20.060  1.00  0.00    -0.003 C 
ATOM     32  C   UNL     1       0.456 -37.194  20.042  1.00  0.00     0.004 C 
ENDBRANCH  30  31
ENDBRANCH  29  30
ENDBRANCH  28  29
ENDBRANCH  27  28
ENDBRANCH  26  27
ENDBRANCH  25  26
ENDBRANCH  24  25
ENDBRANCH  23  24
ENDBRANCH  22  23
ENDBRANCH  21  22
ENDBRANCH  20  21
ENDBRANCH  19  20
ENDBRANCH  18  19
ENDBRANCH   1  18
TORSDOF 28
ENDMDL
