MODEL 1
REMARK VINA RESULT:     7.550      0.000      0.000
REMARK INTER + INTRA:          15.210
REMARK INTER:                  13.729
REMARK INTRA:                   1.480
REMARK UNBOUND:                 1.480
REMARK SMILES CCCCCCCCCCCCCCCC(=O)[O-]
REMARK SMILES IDX 9 1 10 2 11 3 12 4 13 5 14 6 15 7 16 8 17 9 18 10 8 11 7 12
REMARK SMILES IDX 6 13 5 14 4 15 3 16 2 17 1 18
REMARK H PARENT
REMARK Flexibility Score: inf
ROOT
ATOM      1  C   UNL     1      16.126  98.556   8.993  1.00  0.00     0.000 C 
ENDROOT
BRANCH   1   2
ATOM      2  C   UNL     1      15.011  98.263  10.011  1.00  0.00     0.000 C 
BRANCH   2   3
ATOM      3  C   UNL     1      14.690  96.765  10.124  1.00  0.00     0.000 C 
BRANCH   3   4
ATOM      4  C   UNL     1      15.762  95.921   9.416  1.00  0.00     0.000 C 
BRANCH   4   5
ATOM      5  C   UNL     1      15.277  94.498   9.095  1.00  0.00     0.000 C 
BRANCH   5   6
ATOM      6  C   UNL     1      16.430  93.494   8.958  1.00  0.00     0.006 C 
BRANCH   6   7
ATOM      7  C   UNL     1      17.783  94.211   8.940  1.00  0.00     0.053 C 
BRANCH   7   8
ATOM      8  C   UNL     1      18.887  93.243   8.659  1.00  0.00     0.041 C 
ATOM      9  O   UNL     1      19.246  93.016   7.474  1.00  0.00    -0.550 OA
ATOM     10  O   UNL     1      19.553  92.623   9.710  1.00  0.00    -0.550 OA
ENDBRANCH   7   8
ENDBRANCH   6   7
ENDBRANCH   5   6
ENDBRANCH   4   5
ENDBRANCH   3   4
ENDBRANCH   2   3
ENDBRANCH   1   2
BRANCH   1  11
ATOM     11  C   UNL     1      16.583 100.024   9.024  1.00  0.00     0.000 C 
BRANCH  11  12
ATOM     12  C   UNL     1      17.974 100.224   8.401  1.00  0.00    -0.000 C 
BRANCH  12  13
ATOM     13  C   UNL     1      19.092 100.295   9.453  1.00  0.00    -0.000 C 
BRANCH  13  14
ATOM     14  C   UNL     1      19.681  98.902   9.719  1.00  0.00    -0.000 C 
BRANCH  14  15
ATOM     15  C   UNL     1      18.846  97.772   9.093  1.00  0.00    -0.000 C 
BRANCH  15  16
ATOM     16  C   UNL     1      19.253  97.382   7.659  1.00  0.00    -0.000 C 
BRANCH  16  17
ATOM     17  C   UNL     1      18.359  96.291   7.033  1.00  0.00    -0.003 C 
ATOM     18  C   UNL     1      16.909  96.744   6.869  1.00  0.00     0.004 C 
ENDBRANCH  16  17
ENDBRANCH  15  16
ENDBRANCH  14  15
ENDBRANCH  13  14
ENDBRANCH  12  13
ENDBRANCH  11  12
ENDBRANCH   1  11
TORSDOF 14
ENDMDL
MODEL 2
REMARK VINA RESULT:     7.877      1.677      4.571
REMARK INTER + INTRA:          15.805
REMARK INTER:                  14.270
REMARK INTRA:                   1.535
REMARK UNBOUND:                 1.480
REMARK SMILES CCCCCCCCCCCCCCCC(=O)[O-]
REMARK SMILES IDX 9 1 10 2 11 3 12 4 13 5 14 6 15 7 16 8 17 9 18 10 8 11 7 12
REMARK SMILES IDX 6 13 5 14 4 15 3 16 2 17 1 18
REMARK H PARENT
REMARK Flexibility Score: inf
ROOT
ATOM      1  C   UNL     1      14.813  98.344   9.740  1.00  0.00     0.000 C 
ENDROOT
BRANCH   1   2
ATOM      2  C   UNL     1      16.286  98.574   9.363  1.00  0.00     0.000 C 
BRANCH   2   3
ATOM      3  C   UNL     1      16.569 100.023   8.935  1.00  0.00     0.000 C 
BRANCH   3   4
ATOM      4  C   UNL     1      17.940 100.133   8.251  1.00  0.00     0.000 C 
BRANCH   4   5
ATOM      5  C   UNL     1      19.102 100.161   9.257  1.00  0.00     0.000 C 
BRANCH   5   6
ATOM      6  C   UNL     1      19.786  98.795   9.413  1.00  0.00     0.006 C 
BRANCH   6   7
ATOM      7  C   UNL     1      18.788  97.654   9.196  1.00  0.00     0.053 C 
BRANCH   7   8
ATOM      8  C   UNL     1      18.898  97.118   7.805  1.00  0.00     0.041 C 
ATOM      9  O   UNL     1      20.029  96.948   7.279  1.00  0.00    -0.550 OA
ATOM     10  O   UNL     1      17.752  96.763   7.103  1.00  0.00    -0.550 OA
ENDBRANCH   7   8
ENDBRANCH   6   7
ENDBRANCH   5   6
ENDBRANCH   4   5
ENDBRANCH   3   4
ENDBRANCH   2   3
ENDBRANCH   1   2
BRANCH   1  11
ATOM     11  C   UNL     1      14.525  96.882  10.125  1.00  0.00     0.000 C 
BRANCH  11  12
ATOM     12  C   UNL     1      15.747  95.969   9.935  1.00  0.00    -0.000 C 
BRANCH  12  13
ATOM     13  C   UNL     1      15.686  95.158   8.631  1.00  0.00    -0.000 C 
BRANCH  13  14
ATOM     14  C   UNL     1      16.641  93.956   8.691  1.00  0.00    -0.000 C 
BRANCH  14  15
ATOM     15  C   UNL     1      17.872  94.215   9.575  1.00  0.00    -0.000 C 
BRANCH  15  16
ATOM     16  C   UNL     1      19.041  93.234   9.362  1.00  0.00    -0.000 C 
BRANCH  16  17
ATOM     17  C   UNL     1      19.604  93.238   7.925  1.00  0.00    -0.003 C 
ATOM     18  C   UNL     1      18.505  93.334   6.867  1.00  0.00     0.004 C 
ENDBRANCH  16  17
ENDBRANCH  15  16
ENDBRANCH  14  15
ENDBRANCH  13  14
ENDBRANCH  12  13
ENDBRANCH  11  12
ENDBRANCH   1  11
TORSDOF 14
ENDMDL
MODEL 3
REMARK VINA RESULT:     8.502      2.264      4.904
REMARK INTER + INTRA:          16.940
REMARK INTER:                  16.521
REMARK INTRA:                   0.419
REMARK UNBOUND:                 1.480
REMARK SMILES CCCCCCCCCCCCCCCC(=O)[O-]
REMARK SMILES IDX 9 1 10 2 11 3 12 4 13 5 14 6 15 7 16 8 17 9 18 10 8 11 7 12
REMARK SMILES IDX 6 13 5 14 4 15 3 16 2 17 1 18
REMARK H PARENT
REMARK Flexibility Score: inf
ROOT
ATOM      1  C   UNL     1      14.780  95.071   8.925  1.00  0.00     0.000 C 
ENDROOT
BRANCH   1   2
ATOM      2  C   UNL     1      14.848  96.099  10.067  1.00  0.00     0.000 C 
BRANCH   2   3
ATOM      3  C   UNL     1      14.389  97.499   9.632  1.00  0.00     0.000 C 
BRANCH   3   4
ATOM      4  C   UNL     1      15.532  98.517   9.767  1.00  0.00     0.000 C 
BRANCH   4   5
ATOM      5  C   UNL     1      16.692  98.236   8.798  1.00  0.00     0.000 C 
BRANCH   5   6
ATOM      6  C   UNL     1      17.098  99.472   7.983  1.00  0.00     0.006 C 
BRANCH   6   7
ATOM      7  C   UNL     1      18.341 100.138   8.580  1.00  0.00     0.053 C 
BRANCH   7   8
ATOM      8  C   UNL     1      19.347  99.107   8.982  1.00  0.00     0.041 C 
ATOM      9  O   UNL     1      19.531  98.089   8.265  1.00  0.00    -0.550 OA
ATOM     10  O   UNL     1      20.115  99.293  10.125  1.00  0.00    -0.550 OA
ENDBRANCH   7   8
ENDBRANCH   6   7
ENDBRANCH   5   6
ENDBRANCH   4   5
ENDBRANCH   3   4
ENDBRANCH   2   3
ENDBRANCH   1   2
BRANCH   1  11
ATOM     11  C   UNL     1      16.082  94.265   8.779  1.00  0.00     0.000 C 
BRANCH  11  12
ATOM     12  C   UNL     1      17.317  95.046   9.257  1.00  0.00    -0.000 C 
BRANCH  12  13
ATOM     13  C   UNL     1      18.090  95.701   8.103  1.00  0.00    -0.000 C 
BRANCH  13  14
ATOM     14  C   UNL     1      18.380  94.681   6.991  1.00  0.00    -0.000 C 
BRANCH  14  15
ATOM     15  C   UNL     1      18.822  93.314   7.536  1.00  0.00    -0.000 C 
BRANCH  15  16
ATOM     16  C   UNL     1      20.238  93.285   8.145  1.00  0.00    -0.000 C 
BRANCH  16  17
ATOM     17  C   UNL     1      20.331  92.494   9.466  1.00  0.00    -0.003 C 
ATOM     18  C   UNL     1      18.966  92.288  10.123  1.00  0.00     0.004 C 
ENDBRANCH  16  17
ENDBRANCH  15  16
ENDBRANCH  14  15
ENDBRANCH  13  14
ENDBRANCH  12  13
ENDBRANCH  11  12
ENDBRANCH   1  11
TORSDOF 14
ENDMDL
MODEL 4
REMARK VINA RESULT:     8.803      2.762      5.056
REMARK INTER + INTRA:          17.489
REMARK INTER:                  15.874
REMARK INTRA:                   1.615
REMARK UNBOUND:                 1.480
REMARK SMILES CCCCCCCCCCCCCCCC(=O)[O-]
REMARK SMILES IDX 9 1 10 2 11 3 12 4 13 5 14 6 15 7 16 8 17 9 18 10 8 11 7 12
REMARK SMILES IDX 6 13 5 14 4 15 3 16 2 17 1 18
REMARK H PARENT
REMARK Flexibility Score: inf
ROOT
ATOM      1  C   UNL     1      15.834  94.203   8.833  1.00  0.00     0.000 C 
ENDROOT
BRANCH   1   2
ATOM      2  C   UNL     1      15.005  95.498   8.849  1.00  0.00     0.000 C 
BRANCH   2   3
ATOM      3  C   UNL     1      15.227  96.328  10.123  1.00  0.00     0.000 C 
BRANCH   3   4
ATOM      4  C   UNL     1      15.173  97.832   9.812  1.00  0.00     0.000 C 
BRANCH   4   5
ATOM      5  C   UNL     1      16.422  98.326   9.064  1.00  0.00     0.000 C 
BRANCH   5   6
ATOM      6  C   UNL     1      17.719  97.697   9.592  1.00  0.00     0.006 C 
BRANCH   6   7
ATOM      7  C   UNL     1      18.947  98.368   8.969  1.00  0.00     0.053 C 
BRANCH   7   8
ATOM      8  C   UNL     1      18.755  99.849   8.896  1.00  0.00     0.041 C 
ATOM      9  O   UNL     1      18.168 100.364   7.909  1.00  0.00    -0.550 OA
ATOM     10  O   UNL     1      19.184 100.659   9.941  1.00  0.00    -0.550 OA
ENDBRANCH   7   8
ENDBRANCH   6   7
ENDBRANCH   5   6
ENDBRANCH   4   5
ENDBRANCH   3   4
ENDBRANCH   2   3
ENDBRANCH   1   2
BRANCH   1  11
ATOM     11  C   UNL     1      17.260  94.409   9.373  1.00  0.00     0.000 C 
BRANCH  11  12
ATOM     12  C   UNL     1      17.900  93.101   9.865  1.00  0.00    -0.000 C 
BRANCH  12  13
ATOM     13  C   UNL     1      19.429  93.093   9.714  1.00  0.00    -0.000 C 
BRANCH  13  14
ATOM     14  C   UNL     1      19.837  92.627   8.308  1.00  0.00    -0.000 C 
BRANCH  14  15
ATOM     15  C   UNL     1      19.126  93.409   7.191  1.00  0.00    -0.000 C 
BRANCH  15  16
ATOM     16  C   UNL     1      19.600  94.864   7.014  1.00  0.00    -0.000 C 
BRANCH  16  17
ATOM     17  C   UNL     1      18.574  95.915   7.488  1.00  0.00    -0.003 C 
ATOM     18  C   UNL     1      17.531  96.239   6.419  1.00  0.00     0.004 C 
ENDBRANCH  16  17
ENDBRANCH  15  16
ENDBRANCH  14  15
ENDBRANCH  13  14
ENDBRANCH  12  13
ENDBRANCH  11  12
ENDBRANCH   1  11
TORSDOF 14
ENDMDL
MODEL 5
REMARK VINA RESULT:     9.317      1.342      3.558
REMARK INTER + INTRA:          18.423
REMARK INTER:                  18.484
REMARK INTRA:                  -0.061
REMARK UNBOUND:                 1.480
REMARK SMILES CCCCCCCCCCCCCCCC(=O)[O-]
REMARK SMILES IDX 9 1 10 2 11 3 12 4 13 5 14 6 15 7 16 8 17 9 18 10 8 11 7 12
REMARK SMILES IDX 6 13 5 14 4 15 3 16 2 17 1 18
REMARK H PARENT
REMARK Flexibility Score: inf
ROOT
ATOM      1  C   UNL     1      14.565  95.175   8.740  1.00  0.00     0.000 C 
ENDROOT
BRANCH   1   2
ATOM      2  C   UNL     1      15.222  93.930   9.359  1.00  0.00     0.000 C 
BRANCH   2   3
ATOM      3  C   UNL     1      16.547  93.558   8.675  1.00  0.00     0.000 C 
BRANCH   3   4
ATOM      4  C   UNL     1      17.312  94.818   8.243  1.00  0.00     0.000 C 
BRANCH   4   5
ATOM      5  C   UNL     1      18.633  94.491   7.527  1.00  0.00     0.000 C 
BRANCH   5   6
ATOM      6  C   UNL     1      18.872  92.982   7.378  1.00  0.00     0.006 C 
BRANCH   6   7
ATOM      7  C   UNL     1      20.254  92.590   7.909  1.00  0.00     0.053 C 
BRANCH   7   8
ATOM      8  C   UNL     1      20.248  92.545   9.404  1.00  0.00     0.041 C 
ATOM      9  O   UNL     1      19.231  92.133  10.022  1.00  0.00    -0.550 OA
ATOM     10  O   UNL     1      21.382  92.914  10.116  1.00  0.00    -0.550 OA
ENDBRANCH   7   8
ENDBRANCH   6   7
ENDBRANCH   5   6
ENDBRANCH   4   5
ENDBRANCH   3   4
ENDBRANCH   2   3
ENDBRANCH   1   2
BRANCH   1  11
ATOM     11  C   UNL     1      13.806  96.019   9.778  1.00  0.00     0.000 C 
BRANCH  11  12
ATOM     12  C   UNL     1      14.535  97.328  10.122  1.00  0.00    -0.000 C 
BRANCH  12  13
ATOM     13  C   UNL     1      16.064  97.198  10.035  1.00  0.00    -0.000 C 
BRANCH  13  14
ATOM     14  C   UNL     1      16.622  98.068   8.898  1.00  0.00    -0.000 C 
BRANCH  14  15
ATOM     15  C   UNL     1      17.971  97.558   8.364  1.00  0.00    -0.000 C 
BRANCH  15  16
ATOM     16  C   UNL     1      19.161  98.509   8.596  1.00  0.00    -0.000 C 
BRANCH  16  17
ATOM     17  C   UNL     1      18.757  99.993   8.719  1.00  0.00    -0.003 C 
ATOM     18  C   UNL     1      19.222 100.620  10.034  1.00  0.00     0.004 C 
ENDBRANCH  16  17
ENDBRANCH  15  16
ENDBRANCH  14  15
ENDBRANCH  13  14
ENDBRANCH  12  13
ENDBRANCH  11  12
ENDBRANCH   1  11
TORSDOF 14
ENDMDL
MODEL 6
REMARK VINA RESULT:     9.343      1.673      3.951
REMARK INTER + INTRA:          18.470
REMARK INTER:                  16.966
REMARK INTRA:                   1.505
REMARK UNBOUND:                 1.480
REMARK SMILES CCCCCCCCCCCCCCCC(=O)[O-]
REMARK SMILES IDX 9 1 10 2 11 3 12 4 13 5 14 6 15 7 16 8 17 9 18 10 8 11 7 12
REMARK SMILES IDX 6 13 5 14 4 15 3 16 2 17 1 18
REMARK H PARENT
REMARK Flexibility Score: inf
ROOT
ATOM      1  C   UNL     1      15.284  94.307   8.586  1.00  0.00     0.000 C 
ENDROOT
BRANCH   1   2
ATOM      2  C   UNL     1      16.307  93.464   9.367  1.00  0.00     0.000 C 
BRANCH   2   3
ATOM      3  C   UNL     1      17.650  94.187   9.554  1.00  0.00     0.000 C 
BRANCH   3   4
ATOM      4  C   UNL     1      18.784  93.179   9.797  1.00  0.00     0.000 C 
BRANCH   4   5
ATOM      5  C   UNL     1      19.589  92.876   8.522  1.00  0.00     0.000 C 
BRANCH   5   6
ATOM      6  C   UNL     1      19.032  93.592   7.283  1.00  0.00     0.006 C 
BRANCH   6   7
ATOM      7  C   UNL     1      19.857  94.840   6.956  1.00  0.00     0.053 C 
BRANCH   7   8
ATOM      8  C   UNL     1      19.012  96.070   7.057  1.00  0.00     0.041 C 
ATOM      9  O   UNL     1      17.777  96.011   6.815  1.00  0.00    -0.550 OA
ATOM     10  O   UNL     1      19.577  97.272   7.462  1.00  0.00    -0.550 OA
ENDBRANCH   7   8
ENDBRANCH   6   7
ENDBRANCH   5   6
ENDBRANCH   4   5
ENDBRANCH   3   4
ENDBRANCH   2   3
ENDBRANCH   1   2
BRANCH   1  11
ATOM     11  C   UNL     1      15.609  95.810   8.621  1.00  0.00     0.000 C 
BRANCH  11  12
ATOM     12  C   UNL     1      15.017  96.513   9.853  1.00  0.00    -0.000 C 
BRANCH  12  13
ATOM     13  C   UNL     1      15.428  97.991   9.949  1.00  0.00    -0.000 C 
BRANCH  13  14
ATOM     14  C   UNL     1      16.688  98.262   9.112  1.00  0.00    -0.000 C 
BRANCH  14  15
ATOM     15  C   UNL     1      17.971  97.740   9.780  1.00  0.00    -0.000 C 
BRANCH  15  16
ATOM     16  C   UNL     1      19.161  98.720   9.753  1.00  0.00    -0.000 C 
BRANCH  16  17
ATOM     17  C   UNL     1      18.771 100.162   9.368  1.00  0.00    -0.003 C 
ATOM     18  C   UNL     1      18.339 100.282   7.906  1.00  0.00     0.004 C 
ENDBRANCH  16  17
ENDBRANCH  15  16
ENDBRANCH  14  15
ENDBRANCH  13  14
ENDBRANCH  12  13
ENDBRANCH  11  12
ENDBRANCH   1  11
TORSDOF 14
ENDMDL
MODEL 7
REMARK VINA RESULT:     9.484      2.777      5.212
REMARK INTER + INTRA:          18.726
REMARK INTER:                  17.411
REMARK INTRA:                   1.315
REMARK UNBOUND:                 1.480
REMARK SMILES CCCCCCCCCCCCCCCC(=O)[O-]
REMARK SMILES IDX 9 1 10 2 11 3 12 4 13 5 14 6 15 7 16 8 17 9 18 10 8 11 7 12
REMARK SMILES IDX 6 13 5 14 4 15 3 16 2 17 1 18
REMARK H PARENT
REMARK Flexibility Score: inf
ROOT
ATOM      1  C   UNL     1      14.483  95.780   9.389  1.00  0.00     0.000 C 
ENDROOT
BRANCH   1   2
ATOM      2  C   UNL     1      15.125  96.989  10.090  1.00  0.00     0.000 C 
BRANCH   2   3
ATOM      3  C   UNL     1      16.218  97.656   9.241  1.00  0.00     0.000 C 
BRANCH   3   4
ATOM      4  C   UNL     1      17.614  97.344   9.804  1.00  0.00     0.000 C 
BRANCH   4   5
ATOM      5  C   UNL     1      18.743  97.945   8.952  1.00  0.00     0.000 C 
BRANCH   5   6
ATOM      6  C   UNL     1      19.720  98.797   9.775  1.00  0.00     0.006 C 
BRANCH   6   7
ATOM      7  C   UNL     1      19.335 100.278   9.722  1.00  0.00     0.053 C 
BRANCH   7   8
ATOM      8  C   UNL     1      18.194 100.490   8.778  1.00  0.00     0.041 C 
ATOM      9  O   UNL     1      18.378 100.417   7.535  1.00  0.00    -0.550 OA
ATOM     10  O   UNL     1      16.916 100.723   9.272  1.00  0.00    -0.550 OA
ENDBRANCH   7   8
ENDBRANCH   6   7
ENDBRANCH   5   6
ENDBRANCH   4   5
ENDBRANCH   3   4
ENDBRANCH   2   3
ENDBRANCH   1   2
BRANCH   1  11
ATOM     11  C   UNL     1      15.448  95.085   8.413  1.00  0.00     0.000 C 
BRANCH  11  12
ATOM     12  C   UNL     1      16.226  93.934   9.072  1.00  0.00    -0.000 C 
BRANCH  12  13
ATOM     13  C   UNL     1      17.652  94.336   9.477  1.00  0.00    -0.000 C 
BRANCH  13  14
ATOM     14  C   UNL     1      18.677  93.319   8.951  1.00  0.00    -0.000 C 
BRANCH  14  15
ATOM     15  C   UNL     1      19.025  93.535   7.469  1.00  0.00    -0.000 C 
BRANCH  15  16
ATOM     16  C   UNL     1      18.229  94.655   6.772  1.00  0.00    -0.000 C 
BRANCH  16  17
ATOM     17  C   UNL     1      18.900  96.042   6.859  1.00  0.00    -0.003 C 
ATOM     18  C   UNL     1      20.393  95.951   7.172  1.00  0.00     0.004 C 
ENDBRANCH  16  17
ENDBRANCH  15  16
ENDBRANCH  14  15
ENDBRANCH  13  14
ENDBRANCH  12  13
ENDBRANCH  11  12
ENDBRANCH   1  11
TORSDOF 14
ENDMDL
