MODEL 1
REMARK VINA RESULT:    -4.921      0.000      0.000
REMARK INTER + INTRA:         -17.082
REMARK INTER:                 -12.977
REMARK INTRA:                  -4.105
REMARK UNBOUND:                -4.105
REMARK SMILES CCCCCCCCCCCCCCCCCCCCCCCCCCCCCC(=O)[O-]
REMARK SMILES IDX 16 1 17 2 18 3 19 4 20 5 21 6 22 7 23 8 24 9 25 10 26 11
REMARK SMILES IDX 27 12 28 13 29 14 30 15 31 16 32 17 15 18 14 19 13 20 12 21
REMARK SMILES IDX 11 22 10 23 9 24 8 25 7 26 6 27 5 28 4 29 3 30 2 31 1 32
REMARK H PARENT
REMARK Flexibility Score: inf
ROOT
ATOM      1  C   UNL     1      18.524  -1.765  34.187  1.00  0.00     0.000 C 
ENDROOT
BRANCH   1   2
ATOM      2  C   UNL     1      19.149  -3.019  34.826  1.00  0.00     0.000 C 
BRANCH   2   3
ATOM      3  C   UNL     1      20.543  -3.362  34.270  1.00  0.00     0.000 C 
BRANCH   3   4
ATOM      4  C   UNL     1      20.539  -4.329  33.066  1.00  0.00     0.000 C 
BRANCH   4   5
ATOM      5  C   UNL     1      19.342  -5.298  32.987  1.00  0.00     0.000 C 
BRANCH   5   6
ATOM      6  C   UNL     1      19.664  -6.788  33.219  1.00  0.00     0.000 C 
BRANCH   6   7
ATOM      7  C   UNL     1      19.109  -7.383  34.524  1.00  0.00     0.000 C 
BRANCH   7   8
ATOM      8  C   UNL     1      19.645  -6.674  35.777  1.00  0.00     0.000 C 
BRANCH   8   9
ATOM      9  C   UNL     1      18.495  -6.106  36.617  1.00  0.00     0.000 C 
BRANCH   9  10
ATOM     10  C   UNL     1      17.137  -6.380  35.951  1.00  0.00     0.000 C 
BRANCH  10  11
ATOM     11  C   UNL     1      16.396  -5.088  35.571  1.00  0.00     0.000 C 
BRANCH  11  12
ATOM     12  C   UNL     1      15.856  -5.118  34.133  1.00  0.00     0.000 C 
BRANCH  12  13
ATOM     13  C   UNL     1      15.511  -6.550  33.706  1.00  0.00     0.006 C 
BRANCH  13  14
ATOM     14  C   UNL     1      16.137  -6.889  32.350  1.00  0.00     0.053 C 
BRANCH  14  15
ATOM     15  C   UNL     1      16.234  -8.371  32.174  1.00  0.00     0.041 C 
ATOM     16  O   UNL     1      17.241  -8.878  31.612  1.00  0.00    -0.550 OA
ATOM     17  O   UNL     1      15.190  -9.189  32.584  1.00  0.00    -0.550 OA
ENDBRANCH  14  15
ENDBRANCH  13  14
ENDBRANCH  12  13
ENDBRANCH  11  12
ENDBRANCH  10  11
ENDBRANCH   9  10
ENDBRANCH   8   9
ENDBRANCH   7   8
ENDBRANCH   6   7
ENDBRANCH   5   6
ENDBRANCH   4   5
ENDBRANCH   3   4
ENDBRANCH   2   3
ENDBRANCH   1   2
BRANCH   1  18
ATOM     18  C   UNL     1      17.606  -2.097  33.001  1.00  0.00     0.000 C 
BRANCH  18  19
ATOM     19  C   UNL     1      17.031  -0.840  32.325  1.00  0.00     0.000 C 
BRANCH  19  20
ATOM     20  C   UNL     1      16.163  -1.199  31.108  1.00  0.00     0.000 C 
BRANCH  20  21
ATOM     21  C   UNL     1      15.440   0.029  30.517  1.00  0.00     0.000 C 
BRANCH  21  22
ATOM     22  C   UNL     1      14.154  -0.348  29.765  1.00  0.00     0.000 C 
BRANCH  22  23
ATOM     23  C   UNL     1      13.652   0.812  28.884  1.00  0.00     0.000 C 
BRANCH  23  24
ATOM     24  C   UNL     1      14.784   1.509  28.116  1.00  0.00    -0.000 C 
BRANCH  24  25
ATOM     25  C   UNL     1      14.902   1.021  26.664  1.00  0.00    -0.000 C 
BRANCH  25  26
ATOM     26  C   UNL     1      13.533   1.027  25.972  1.00  0.00    -0.000 C 
BRANCH  26  27
ATOM     27  C   UNL     1      13.189  -0.362  25.413  1.00  0.00    -0.000 C 
BRANCH  27  28
ATOM     28  C   UNL     1      13.701  -1.499  26.311  1.00  0.00    -0.000 C 
BRANCH  28  29
ATOM     29  C   UNL     1      15.093  -2.002  25.895  1.00  0.00    -0.000 C 
BRANCH  29  30
ATOM     30  C   UNL     1      16.046  -2.150  27.090  1.00  0.00    -0.000 C 
BRANCH  30  31
ATOM     31  C   UNL     1      16.167  -3.602  27.573  1.00  0.00    -0.003 C 
ATOM     32  C   UNL     1      15.329  -3.838  28.826  1.00  0.00     0.004 C 
ENDBRANCH  30  31
ENDBRANCH  29  30
ENDBRANCH  28  29
ENDBRANCH  27  28
ENDBRANCH  26  27
ENDBRANCH  25  26
ENDBRANCH  24  25
ENDBRANCH  23  24
ENDBRANCH  22  23
ENDBRANCH  21  22
ENDBRANCH  20  21
ENDBRANCH  19  20
ENDBRANCH  18  19
ENDBRANCH   1  18
TORSDOF 28
ENDMDL
MODEL 2
REMARK VINA RESULT:    -4.658      8.468     15.880
REMARK INTER + INTRA:         -16.387
REMARK INTER:                 -12.501
REMARK INTRA:                  -3.887
REMARK UNBOUND:                -4.105
REMARK SMILES CCCCCCCCCCCCCCCCCCCCCCCCCCCCCC(=O)[O-]
REMARK SMILES IDX 16 1 17 2 18 3 19 4 20 5 21 6 22 7 23 8 24 9 25 10 26 11
REMARK SMILES IDX 27 12 28 13 29 14 30 15 31 16 32 17 15 18 14 19 13 20 12 21
REMARK SMILES IDX 11 22 10 23 9 24 8 25 7 26 6 27 5 28 4 29 3 30 2 31 1 32
REMARK H PARENT
REMARK Flexibility Score: inf
ROOT
ATOM      1  C   UNL     1      11.301   7.915  20.868  1.00  0.00     0.000 C 
ENDROOT
BRANCH   1   2
ATOM      2  C   UNL     1      12.689   8.277  20.308  1.00  0.00     0.000 C 
BRANCH   2   3
ATOM      3  C   UNL     1      12.881   7.872  18.835  1.00  0.00     0.000 C 
BRANCH   3   4
ATOM      4  C   UNL     1      11.966   6.725  18.356  1.00  0.00     0.000 C 
BRANCH   4   5
ATOM      5  C   UNL     1      10.991   7.076  17.214  1.00  0.00     0.000 C 
BRANCH   5   6
ATOM      6  C   UNL     1       9.858   8.059  17.573  1.00  0.00     0.000 C 
BRANCH   6   7
ATOM      7  C   UNL     1       8.524   7.404  17.967  1.00  0.00     0.000 C 
BRANCH   7   8
ATOM      8  C   UNL     1       8.401   5.956  17.469  1.00  0.00     0.000 C 
BRANCH   8   9
ATOM      9  C   UNL     1       8.004   5.015  18.614  1.00  0.00     0.000 C 
BRANCH   9  10
ATOM     10  C   UNL     1       8.836   5.299  19.874  1.00  0.00     0.000 C 
BRANCH  10  11
ATOM     11  C   UNL     1       9.731   4.112  20.268  1.00  0.00     0.000 C 
BRANCH  11  12
ATOM     12  C   UNL     1      10.821   3.823  19.225  1.00  0.00     0.000 C 
BRANCH  12  13
ATOM     13  C   UNL     1      10.479   2.572  18.407  1.00  0.00     0.006 C 
BRANCH  13  14
ATOM     14  C   UNL     1       9.506   1.664  19.165  1.00  0.00     0.053 C 
BRANCH  14  15
ATOM     15  C   UNL     1       8.401   1.211  18.264  1.00  0.00     0.041 C 
ATOM     16  O   UNL     1       8.653   0.472  17.276  1.00  0.00    -0.550 OA
ATOM     17  O   UNL     1       7.101   1.647  18.485  1.00  0.00    -0.550 OA
ENDBRANCH  14  15
ENDBRANCH  13  14
ENDBRANCH  12  13
ENDBRANCH  11  12
ENDBRANCH  10  11
ENDBRANCH   9  10
ENDBRANCH   8   9
ENDBRANCH   7   8
ENDBRANCH   6   7
ENDBRANCH   5   6
ENDBRANCH   4   5
ENDBRANCH   3   4
ENDBRANCH   2   3
ENDBRANCH   1   2
BRANCH   1  18
ATOM     18  C   UNL     1      11.360   6.808  21.932  1.00  0.00     0.000 C 
BRANCH  18  19
ATOM     19  C   UNL     1      12.684   6.024  21.900  1.00  0.00     0.000 C 
BRANCH  19  20
ATOM     20  C   UNL     1      12.544   4.650  22.576  1.00  0.00     0.000 C 
BRANCH  20  21
ATOM     21  C   UNL     1      13.326   4.565  23.904  1.00  0.00     0.000 C 
BRANCH  21  22
ATOM     22  C   UNL     1      14.487   3.561  23.842  1.00  0.00     0.000 C 
BRANCH  22  23
ATOM     23  C   UNL     1      14.509   2.642  25.077  1.00  0.00     0.000 C 
BRANCH  23  24
ATOM     24  C   UNL     1      15.654   1.618  25.037  1.00  0.00    -0.000 C 
BRANCH  24  25
ATOM     25  C   UNL     1      15.651   0.679  26.253  1.00  0.00    -0.000 C 
BRANCH  25  26
ATOM     26  C   UNL     1      14.974   1.346  27.457  1.00  0.00    -0.000 C 
BRANCH  26  27
ATOM     27  C   UNL     1      13.859   0.457  28.028  1.00  0.00    -0.000 C 
BRANCH  27  28
ATOM     28  C   UNL     1      13.835  -0.939  27.388  1.00  0.00    -0.000 C 
BRANCH  28  29
ATOM     29  C   UNL     1      12.925  -1.009  26.150  1.00  0.00    -0.000 C 
BRANCH  29  30
ATOM     30  C   UNL     1      11.531  -0.419  26.412  1.00  0.00    -0.000 C 
BRANCH  30  31
ATOM     31  C   UNL     1      11.260   0.844  25.583  1.00  0.00    -0.003 C 
ATOM     32  C   UNL     1      11.668   0.645  24.127  1.00  0.00     0.004 C 
ENDBRANCH  30  31
ENDBRANCH  29  30
ENDBRANCH  28  29
ENDBRANCH  27  28
ENDBRANCH  26  27
ENDBRANCH  25  26
ENDBRANCH  24  25
ENDBRANCH  23  24
ENDBRANCH  22  23
ENDBRANCH  21  22
ENDBRANCH  20  21
ENDBRANCH  19  20
ENDBRANCH  18  19
ENDBRANCH   1  18
TORSDOF 28
ENDMDL
MODEL 3
REMARK VINA RESULT:    -4.473      2.270      9.212
REMARK INTER + INTRA:         -15.901
REMARK INTER:                 -12.230
REMARK INTRA:                  -3.672
REMARK UNBOUND:                -4.105
REMARK SMILES CCCCCCCCCCCCCCCCCCCCCCCCCCCCCC(=O)[O-]
REMARK SMILES IDX 16 1 17 2 18 3 19 4 20 5 21 6 22 7 23 8 24 9 25 10 26 11
REMARK SMILES IDX 27 12 28 13 29 14 30 15 31 16 32 17 15 18 14 19 13 20 12 21
REMARK SMILES IDX 11 22 10 23 9 24 8 25 7 26 6 27 5 28 4 29 3 30 2 31 1 32
REMARK H PARENT
REMARK Flexibility Score: inf
ROOT
ATOM      1  C   UNL     1      15.913  -7.041  31.430  1.00  0.00     0.000 C 
ENDROOT
BRANCH   1   2
ATOM      2  C   UNL     1      15.930  -5.535  31.111  1.00  0.00     0.000 C 
BRANCH   2   3
ATOM      3  C   UNL     1      15.542  -5.210  29.657  1.00  0.00     0.000 C 
BRANCH   3   4
ATOM      4  C   UNL     1      15.937  -3.795  29.184  1.00  0.00     0.000 C 
BRANCH   4   5
ATOM      5  C   UNL     1      15.170  -3.258  27.958  1.00  0.00     0.000 C 
BRANCH   5   6
ATOM      6  C   UNL     1      16.029  -2.593  26.863  1.00  0.00     0.000 C 
BRANCH   6   7
ATOM      7  C   UNL     1      15.274  -1.624  25.938  1.00  0.00     0.000 C 
BRANCH   7   8
ATOM      8  C   UNL     1      13.759  -1.619  26.189  1.00  0.00     0.000 C 
BRANCH   8   9
ATOM      9  C   UNL     1      13.238  -0.186  26.361  1.00  0.00     0.000 C 
BRANCH   9  10
ATOM     10  C   UNL     1      14.397   0.799  26.579  1.00  0.00     0.000 C 
BRANCH  10  11
ATOM     11  C   UNL     1      14.394   1.409  27.990  1.00  0.00     0.000 C 
BRANCH  11  12
ATOM     12  C   UNL     1      13.407   0.708  28.935  1.00  0.00     0.000 C 
BRANCH  12  13
ATOM     13  C   UNL     1      14.108   0.253  30.222  1.00  0.00     0.006 C 
BRANCH  13  14
ATOM     14  C   UNL     1      15.381  -0.537  29.907  1.00  0.00     0.053 C 
BRANCH  14  15
ATOM     15  C   UNL     1      16.272  -0.595  31.108  1.00  0.00     0.041 C 
ATOM     16  O   UNL     1      16.952   0.411  31.441  1.00  0.00    -0.550 OA
ATOM     17  O   UNL     1      16.388  -1.775  31.830  1.00  0.00    -0.550 OA
ENDBRANCH  14  15
ENDBRANCH  13  14
ENDBRANCH  12  13
ENDBRANCH  11  12
ENDBRANCH  10  11
ENDBRANCH   9  10
ENDBRANCH   8   9
ENDBRANCH   7   8
ENDBRANCH   6   7
ENDBRANCH   5   6
ENDBRANCH   4   5
ENDBRANCH   3   4
ENDBRANCH   2   3
ENDBRANCH   1   2
BRANCH   1  18
ATOM     18  C   UNL     1      16.246  -7.341  32.899  1.00  0.00     0.000 C 
BRANCH  18  19
ATOM     19  C   UNL     1      15.336  -6.583  33.882  1.00  0.00     0.000 C 
BRANCH  19  20
ATOM     20  C   UNL     1      16.022  -5.321  34.430  1.00  0.00     0.000 C 
BRANCH  20  21
ATOM     21  C   UNL     1      16.192  -5.362  35.963  1.00  0.00     0.000 C 
BRANCH  21  22
ATOM     22  C   UNL     1      17.518  -4.740  36.427  1.00  0.00     0.000 C 
BRANCH  22  23
ATOM     23  C   UNL     1      18.498  -5.810  36.942  1.00  0.00     0.000 C 
BRANCH  23  24
ATOM     24  C   UNL     1      18.154  -7.221  36.441  1.00  0.00    -0.000 C 
BRANCH  24  25
ATOM     25  C   UNL     1      19.037  -7.662  35.263  1.00  0.00    -0.000 C 
BRANCH  25  26
ATOM     26  C   UNL     1      19.822  -6.474  34.694  1.00  0.00    -0.000 C 
BRANCH  26  27
ATOM     27  C   UNL     1      19.586  -6.326  33.183  1.00  0.00    -0.000 C 
BRANCH  27  28
ATOM     28  C   UNL     1      19.233  -4.885  32.783  1.00  0.00    -0.000 C 
BRANCH  28  29
ATOM     29  C   UNL     1      19.804  -3.841  33.758  1.00  0.00    -0.000 C 
BRANCH  29  30
ATOM     30  C   UNL     1      18.859  -2.647  33.959  1.00  0.00    -0.000 C 
BRANCH  30  31
ATOM     31  C   UNL     1      18.957  -2.049  35.370  1.00  0.00    -0.003 C 
ATOM     32  C   UNL     1      20.168  -1.130  35.495  1.00  0.00     0.004 C 
ENDBRANCH  30  31
ENDBRANCH  29  30
ENDBRANCH  28  29
ENDBRANCH  27  28
ENDBRANCH  26  27
ENDBRANCH  25  26
ENDBRANCH  24  25
ENDBRANCH  23  24
ENDBRANCH  22  23
ENDBRANCH  21  22
ENDBRANCH  20  21
ENDBRANCH  19  20
ENDBRANCH  18  19
ENDBRANCH   1  18
TORSDOF 28
ENDMDL
MODEL 4
REMARK VINA RESULT:    -4.466      7.060     11.934
REMARK INTER + INTRA:         -15.881
REMARK INTER:                 -12.731
REMARK INTRA:                  -3.151
REMARK UNBOUND:                -4.105
REMARK SMILES CCCCCCCCCCCCCCCCCCCCCCCCCCCCCC(=O)[O-]
REMARK SMILES IDX 16 1 17 2 18 3 19 4 20 5 21 6 22 7 23 8 24 9 25 10 26 11
REMARK SMILES IDX 27 12 28 13 29 14 30 15 31 16 32 17 15 18 14 19 13 20 12 21
REMARK SMILES IDX 11 22 10 23 9 24 8 25 7 26 6 27 5 28 4 29 3 30 2 31 1 32
REMARK H PARENT
REMARK Flexibility Score: inf
ROOT
ATOM      1  C   UNL     1      13.438   5.117  23.253  1.00  0.00     0.000 C 
ENDROOT
BRANCH   1   2
ATOM      2  C   UNL     1      13.946   4.436  24.537  1.00  0.00     0.000 C 
BRANCH   2   3
ATOM      3  C   UNL     1      13.907   2.898  24.473  1.00  0.00     0.000 C 
BRANCH   3   4
ATOM      4  C   UNL     1      15.292   2.216  24.484  1.00  0.00     0.000 C 
BRANCH   4   5
ATOM      5  C   UNL     1      15.711   1.568  25.819  1.00  0.00     0.000 C 
BRANCH   5   6
ATOM      6  C   UNL     1      14.704   1.702  26.980  1.00  0.00     0.000 C 
BRANCH   6   7
ATOM      7  C   UNL     1      15.222   1.240  28.352  1.00  0.00     0.000 C 
BRANCH   7   8
ATOM      8  C   UNL     1      14.336   0.160  28.990  1.00  0.00     0.000 C 
BRANCH   8   9
ATOM      9  C   UNL     1      15.178  -1.037  29.450  1.00  0.00     0.000 C 
BRANCH   9  10
ATOM     10  C   UNL     1      15.124  -2.177  28.421  1.00  0.00     0.000 C 
BRANCH  10  11
ATOM     11  C   UNL     1      15.951  -1.872  27.161  1.00  0.00     0.000 C 
BRANCH  11  12
ATOM     12  C   UNL     1      15.110  -1.917  25.876  1.00  0.00     0.000 C 
BRANCH  12  13
ATOM     13  C   UNL     1      13.628  -1.671  26.183  1.00  0.00     0.006 C 
BRANCH  13  14
ATOM     14  C   UNL     1      13.014  -0.681  25.189  1.00  0.00     0.053 C 
BRANCH  14  15
ATOM     15  C   UNL     1      11.824  -0.003  25.792  1.00  0.00     0.041 C 
ATOM     16  O   UNL     1      11.560  -0.155  27.014  1.00  0.00    -0.550 OA
ATOM     17  O   UNL     1      10.979   0.756  24.994  1.00  0.00    -0.550 OA
ENDBRANCH  14  15
ENDBRANCH  13  14
ENDBRANCH  12  13
ENDBRANCH  11  12
ENDBRANCH  10  11
ENDBRANCH   9  10
ENDBRANCH   8   9
ENDBRANCH   7   8
ENDBRANCH   6   7
ENDBRANCH   5   6
ENDBRANCH   4   5
ENDBRANCH   3   4
ENDBRANCH   2   3
ENDBRANCH   1   2
BRANCH   1  18
ATOM     18  C   UNL     1      12.490   4.223  22.440  1.00  0.00     0.000 C 
BRANCH  18  19
ATOM     19  C   UNL     1      11.603   5.023  21.471  1.00  0.00     0.000 C 
BRANCH  19  20
ATOM     20  C   UNL     1      11.420   4.288  20.133  1.00  0.00     0.000 C 
BRANCH  20  21
ATOM     21  C   UNL     1      10.292   3.235  20.190  1.00  0.00     0.000 C 
BRANCH  21  22
ATOM     22  C   UNL     1       9.458   3.194  18.900  1.00  0.00     0.000 C 
BRANCH  22  23
ATOM     23  C   UNL     1       8.598   4.461  18.740  1.00  0.00     0.000 C 
BRANCH  23  24
ATOM     24  C   UNL     1       9.138   5.417  17.666  1.00  0.00    -0.000 C 
BRANCH  24  25
ATOM     25  C   UNL     1       8.715   6.874  17.904  1.00  0.00    -0.000 C 
BRANCH  25  26
ATOM     26  C   UNL     1       9.930   7.751  18.232  1.00  0.00    -0.000 C 
BRANCH  26  27
ATOM     27  C   UNL     1      11.218   7.156  17.642  1.00  0.00    -0.000 C 
BRANCH  27  28
ATOM     28  C   UNL     1      12.340   7.037  18.685  1.00  0.00    -0.000 C 
BRANCH  28  29
ATOM     29  C   UNL     1      13.033   8.381  18.967  1.00  0.00    -0.000 C 
BRANCH  29  30
ATOM     30  C   UNL     1      13.656   8.438  20.370  1.00  0.00    -0.000 C 
BRANCH  30  31
ATOM     31  C   UNL     1      12.605   8.611  21.475  1.00  0.00    -0.003 C 
ATOM     32  C   UNL     1      12.700   9.994  22.113  1.00  0.00     0.004 C 
ENDBRANCH  30  31
ENDBRANCH  29  30
ENDBRANCH  28  29
ENDBRANCH  27  28
ENDBRANCH  26  27
ENDBRANCH  25  26
ENDBRANCH  24  25
ENDBRANCH  23  24
ENDBRANCH  22  23
ENDBRANCH  21  22
ENDBRANCH  20  21
ENDBRANCH  19  20
ENDBRANCH  18  19
ENDBRANCH   1  18
TORSDOF 28
ENDMDL
MODEL 5
REMARK VINA RESULT:    -4.463      3.666      9.412
REMARK INTER + INTRA:         -15.873
REMARK INTER:                 -12.691
REMARK INTRA:                  -3.183
REMARK UNBOUND:                -4.105
REMARK SMILES CCCCCCCCCCCCCCCCCCCCCCCCCCCCCC(=O)[O-]
REMARK SMILES IDX 16 1 17 2 18 3 19 4 20 5 21 6 22 7 23 8 24 9 25 10 26 11
REMARK SMILES IDX 27 12 28 13 29 14 30 15 31 16 32 17 15 18 14 19 13 20 12 21
REMARK SMILES IDX 11 22 10 23 9 24 8 25 7 26 6 27 5 28 4 29 3 30 2 31 1 32
REMARK H PARENT
REMARK Flexibility Score: inf
ROOT
ATOM      1  C   UNL     1      15.894  -5.214  34.323  1.00  0.00     0.000 C 
ENDROOT
BRANCH   1   2
ATOM      2  C   UNL     1      16.568  -3.879  33.960  1.00  0.00     0.000 C 
BRANCH   2   3
ATOM      3  C   UNL     1      16.520  -3.555  32.455  1.00  0.00     0.000 C 
BRANCH   3   4
ATOM      4  C   UNL     1      17.001  -4.696  31.534  1.00  0.00     0.000 C 
BRANCH   4   5
ATOM      5  C   UNL     1      15.893  -5.575  30.918  1.00  0.00     0.000 C 
BRANCH   5   6
ATOM      6  C   UNL     1      15.482  -5.228  29.473  1.00  0.00     0.000 C 
BRANCH   6   7
ATOM      7  C   UNL     1      15.160  -3.746  29.221  1.00  0.00     0.000 C 
BRANCH   7   8
ATOM      8  C   UNL     1      15.738  -3.227  27.896  1.00  0.00     0.000 C 
BRANCH   8   9
ATOM      9  C   UNL     1      15.225  -1.814  27.591  1.00  0.00     0.000 C 
BRANCH   9  10
ATOM     10  C   UNL     1      15.384  -0.895  28.812  1.00  0.00     0.000 C 
BRANCH  10  11
ATOM     11  C   UNL     1      14.117  -0.073  29.100  1.00  0.00     0.000 C 
BRANCH  11  12
ATOM     12  C   UNL     1      13.636   0.719  27.875  1.00  0.00     0.000 C 
BRANCH  12  13
ATOM     13  C   UNL     1      14.793   1.498  27.237  1.00  0.00     0.006 C 
BRANCH  13  14
ATOM     14  C   UNL     1      14.887   1.217  25.735  1.00  0.00     0.053 C 
BRANCH  14  15
ATOM     15  C   UNL     1      13.746   1.858  25.009  1.00  0.00     0.041 C 
ATOM     16  O   UNL     1      12.760   1.166  24.642  1.00  0.00    -0.550 OA
ATOM     17  O   UNL     1      13.795   3.210  24.695  1.00  0.00    -0.550 OA
ENDBRANCH  14  15
ENDBRANCH  13  14
ENDBRANCH  12  13
ENDBRANCH  11  12
ENDBRANCH  10  11
ENDBRANCH   9  10
ENDBRANCH   8   9
ENDBRANCH   7   8
ENDBRANCH   6   7
ENDBRANCH   5   6
ENDBRANCH   4   5
ENDBRANCH   3   4
ENDBRANCH   2   3
ENDBRANCH   1   2
BRANCH   1  18
ATOM     18  C   UNL     1      16.304  -5.729  35.711  1.00  0.00     0.000 C 
BRANCH  18  19
ATOM     19  C   UNL     1      17.385  -4.856  36.373  1.00  0.00     0.000 C 
BRANCH  19  20
ATOM     20  C   UNL     1      18.466  -5.712  37.054  1.00  0.00     0.000 C 
BRANCH  20  21
ATOM     21  C   UNL     1      18.090  -7.208  37.097  1.00  0.00     0.000 C 
BRANCH  21  22
ATOM     22  C   UNL     1      19.081  -8.088  36.318  1.00  0.00     0.000 C 
BRANCH  22  23
ATOM     23  C   UNL     1      19.671  -7.342  35.107  1.00  0.00     0.000 C 
BRANCH  23  24
ATOM     24  C   UNL     1      18.885  -7.594  33.812  1.00  0.00    -0.000 C 
BRANCH  24  25
ATOM     25  C   UNL     1      19.008  -6.435  32.810  1.00  0.00    -0.000 C 
BRANCH  25  26
ATOM     26  C   UNL     1      20.407  -5.810  32.866  1.00  0.00    -0.000 C 
BRANCH  26  27
ATOM     27  C   UNL     1      20.326  -4.284  33.022  1.00  0.00    -0.000 C 
BRANCH  27  28
ATOM     28  C   UNL     1      20.163  -3.852  34.487  1.00  0.00    -0.000 C 
BRANCH  28  29
ATOM     29  C   UNL     1      20.173  -2.323  34.661  1.00  0.00    -0.000 C 
BRANCH  29  30
ATOM     30  C   UNL     1      18.779  -1.758  34.972  1.00  0.00    -0.000 C 
BRANCH  30  31
ATOM     31  C   UNL     1      18.812  -0.674  36.059  1.00  0.00    -0.003 C 
ATOM     32  C   UNL     1      20.246  -0.312  36.432  1.00  0.00     0.004 C 
ENDBRANCH  30  31
ENDBRANCH  29  30
ENDBRANCH  28  29
ENDBRANCH  27  28
ENDBRANCH  26  27
ENDBRANCH  25  26
ENDBRANCH  24  25
ENDBRANCH  23  24
ENDBRANCH  22  23
ENDBRANCH  21  22
ENDBRANCH  20  21
ENDBRANCH  19  20
ENDBRANCH  18  19
ENDBRANCH   1  18
TORSDOF 28
ENDMDL
MODEL 6
REMARK VINA RESULT:    -4.372      1.141      2.628
REMARK INTER + INTRA:         -15.633
REMARK INTER:                 -12.146
REMARK INTRA:                  -3.487
REMARK UNBOUND:                -4.105
REMARK SMILES CCCCCCCCCCCCCCCCCCCCCCCCCCCCCC(=O)[O-]
REMARK SMILES IDX 16 1 17 2 18 3 19 4 20 5 21 6 22 7 23 8 24 9 25 10 26 11
REMARK SMILES IDX 27 12 28 13 29 14 30 15 31 16 32 17 15 18 14 19 13 20 12 21
REMARK SMILES IDX 11 22 10 23 9 24 8 25 7 26 6 27 5 28 4 29 3 30 2 31 1 32
REMARK H PARENT
REMARK Flexibility Score: inf
ROOT
ATOM      1  C   UNL     1      17.205  -3.383  33.329  1.00  0.00     0.000 C 
ENDROOT
BRANCH   1   2
ATOM      2  C   UNL     1      18.623  -2.948  33.743  1.00  0.00     0.000 C 
BRANCH   2   3
ATOM      3  C   UNL     1      19.691  -4.032  33.508  1.00  0.00     0.000 C 
BRANCH   3   4
ATOM      4  C   UNL     1      19.204  -5.256  32.704  1.00  0.00     0.000 C 
BRANCH   4   5
ATOM      5  C   UNL     1      19.837  -6.608  33.090  1.00  0.00     0.000 C 
BRANCH   5   6
ATOM      6  C   UNL     1      19.148  -7.372  34.240  1.00  0.00     0.000 C 
BRANCH   6   7
ATOM      7  C   UNL     1      19.662  -7.035  35.649  1.00  0.00     0.000 C 
BRANCH   7   8
ATOM      8  C   UNL     1      18.527  -6.768  36.649  1.00  0.00     0.000 C 
BRANCH   8   9
ATOM      9  C   UNL     1      18.166  -5.277  36.682  1.00  0.00     0.000 C 
BRANCH   9  10
ATOM     10  C   UNL     1      16.804  -5.026  36.016  1.00  0.00     0.000 C 
BRANCH  10  11
ATOM     11  C   UNL     1      16.150  -6.321  35.505  1.00  0.00     0.000 C 
BRANCH  11  12
ATOM     12  C   UNL     1      15.576  -6.173  34.088  1.00  0.00     0.000 C 
BRANCH  12  13
ATOM     13  C   UNL     1      15.599  -7.515  33.344  1.00  0.00     0.006 C 
BRANCH  13  14
ATOM     14  C   UNL     1      16.158  -7.352  31.928  1.00  0.00     0.053 C 
BRANCH  14  15
ATOM     15  C   UNL     1      16.337  -8.688  31.279  1.00  0.00     0.041 C 
ATOM     16  O   UNL     1      15.449  -9.143  30.511  1.00  0.00    -0.550 OA
ATOM     17  O   UNL     1      17.461  -9.453  31.563  1.00  0.00    -0.550 OA
ENDBRANCH  14  15
ENDBRANCH  13  14
ENDBRANCH  12  13
ENDBRANCH  11  12
ENDBRANCH  10  11
ENDBRANCH   9  10
ENDBRANCH   8   9
ENDBRANCH   7   8
ENDBRANCH   6   7
ENDBRANCH   5   6
ENDBRANCH   4   5
ENDBRANCH   3   4
ENDBRANCH   2   3
ENDBRANCH   1   2
BRANCH   1  18
ATOM     18  C   UNL     1      16.611  -2.499  32.222  1.00  0.00     0.000 C 
BRANCH  18  19
ATOM     19  C   UNL     1      17.006  -1.018  32.368  1.00  0.00     0.000 C 
BRANCH  19  20
ATOM     20  C   UNL     1      16.158  -0.114  31.459  1.00  0.00     0.000 C 
BRANCH  20  21
ATOM     21  C   UNL     1      16.044  -0.666  30.022  1.00  0.00     0.000 C 
BRANCH  21  22
ATOM     22  C   UNL     1      14.676  -0.375  29.386  1.00  0.00     0.000 C 
BRANCH  22  23
ATOM     23  C   UNL     1      14.288  -1.454  28.358  1.00  0.00     0.000 C 
BRANCH  23  24
ATOM     24  C   UNL     1      15.479  -2.324  27.930  1.00  0.00    -0.000 C 
BRANCH  24  25
ATOM     25  C   UNL     1      15.945  -2.025  26.497  1.00  0.00    -0.000 C 
BRANCH  25  26
ATOM     26  C   UNL     1      15.095  -0.917  25.865  1.00  0.00    -0.000 C 
BRANCH  26  27
ATOM     27  C   UNL     1      15.791   0.448  25.975  1.00  0.00    -0.000 C 
BRANCH  27  28
ATOM     28  C   UNL     1      14.796   1.600  26.183  1.00  0.00    -0.000 C 
BRANCH  28  29
ATOM     29  C   UNL     1      13.986   1.920  24.915  1.00  0.00    -0.000 C 
BRANCH  29  30
ATOM     30  C   UNL     1      12.614   1.228  24.904  1.00  0.00    -0.000 C 
BRANCH  30  31
ATOM     31  C   UNL     1      12.187   0.744  26.297  1.00  0.00    -0.003 C 
ATOM     32  C   UNL     1      10.870  -0.022  26.233  1.00  0.00     0.004 C 
ENDBRANCH  30  31
ENDBRANCH  29  30
ENDBRANCH  28  29
ENDBRANCH  27  28
ENDBRANCH  26  27
ENDBRANCH  25  26
ENDBRANCH  24  25
ENDBRANCH  23  24
ENDBRANCH  22  23
ENDBRANCH  21  22
ENDBRANCH  20  21
ENDBRANCH  19  20
ENDBRANCH  18  19
ENDBRANCH   1  18
TORSDOF 28
ENDMDL
MODEL 7
REMARK VINA RESULT:    -4.335      3.606      8.987
REMARK INTER + INTRA:         -15.537
REMARK INTER:                 -11.815
REMARK INTRA:                  -3.722
REMARK UNBOUND:                -4.105
REMARK SMILES CCCCCCCCCCCCCCCCCCCCCCCCCCCCCC(=O)[O-]
REMARK SMILES IDX 16 1 17 2 18 3 19 4 20 5 21 6 22 7 23 8 24 9 25 10 26 11
REMARK SMILES IDX 27 12 28 13 29 14 30 15 31 16 32 17 15 18 14 19 13 20 12 21
REMARK SMILES IDX 11 22 10 23 9 24 8 25 7 26 6 27 5 28 4 29 3 30 2 31 1 32
REMARK H PARENT
REMARK Flexibility Score: inf
ROOT
ATOM      1  C   UNL     1      18.875  -8.290  33.467  1.00  0.00     0.000 C 
ENDROOT
BRANCH   1   2
ATOM      2  C   UNL     1      19.320  -6.849  33.772  1.00  0.00     0.000 C 
BRANCH   2   3
ATOM      3  C   UNL     1      19.983  -6.143  32.575  1.00  0.00     0.000 C 
BRANCH   3   4
ATOM      4  C   UNL     1      19.108  -5.070  31.893  1.00  0.00     0.000 C 
BRANCH   4   5
ATOM      5  C   UNL     1      17.661  -4.953  32.413  1.00  0.00     0.000 C 
BRANCH   5   6
ATOM      6  C   UNL     1      16.642  -4.328  31.438  1.00  0.00     0.000 C 
BRANCH   6   7
ATOM      7  C   UNL     1      15.919  -5.326  30.519  1.00  0.00     0.000 C 
BRANCH   7   8
ATOM      8  C   UNL     1      15.305  -4.659  29.279  1.00  0.00     0.000 C 
BRANCH   8   9
ATOM      9  C   UNL     1      16.061  -3.373  28.919  1.00  0.00     0.000 C 
BRANCH   9  10
ATOM     10  C   UNL     1      15.128  -2.357  28.243  1.00  0.00     0.000 C 
BRANCH  10  11
ATOM     11  C   UNL     1      15.123  -0.996  28.959  1.00  0.00     0.000 C 
BRANCH  11  12
ATOM     12  C   UNL     1      14.321   0.070  28.195  1.00  0.00     0.000 C 
BRANCH  12  13
ATOM     13  C   UNL     1      14.011  -0.396  26.768  1.00  0.00     0.006 C 
BRANCH  13  14
ATOM     14  C   UNL     1      12.606   0.036  26.339  1.00  0.00     0.053 C 
BRANCH  14  15
ATOM     15  C   UNL     1      12.672   0.895  25.116  1.00  0.00     0.041 C 
ATOM     16  O   UNL     1      13.550   1.793  25.019  1.00  0.00    -0.550 OA
ATOM     17  O   UNL     1      11.734   0.737  24.104  1.00  0.00    -0.550 OA
ENDBRANCH  14  15
ENDBRANCH  13  14
ENDBRANCH  12  13
ENDBRANCH  11  12
ENDBRANCH  10  11
ENDBRANCH   9  10
ENDBRANCH   8   9
ENDBRANCH   7   8
ENDBRANCH   6   7
ENDBRANCH   5   6
ENDBRANCH   4   5
ENDBRANCH   3   4
ENDBRANCH   2   3
ENDBRANCH   1   2
BRANCH   1  18
ATOM     18  C   UNL     1      18.711  -8.555  31.963  1.00  0.00     0.000 C 
BRANCH  18  19
ATOM     19  C   UNL     1      17.408  -9.304  31.630  1.00  0.00     0.000 C 
BRANCH  19  20
ATOM     20  C   UNL     1      16.193  -8.363  31.651  1.00  0.00     0.000 C 
BRANCH  20  21
ATOM     21  C   UNL     1      15.267  -8.624  32.858  1.00  0.00     0.000 C 
BRANCH  21  22
ATOM     22  C   UNL     1      15.682  -7.825  34.104  1.00  0.00     0.000 C 
BRANCH  22  23
ATOM     23  C   UNL     1      15.151  -6.380  34.053  1.00  0.00     0.000 C 
BRANCH  23  24
ATOM     24  C   UNL     1      15.773  -5.479  35.131  1.00  0.00    -0.000 C 
BRANCH  24  25
ATOM     25  C   UNL     1      16.922  -6.166  35.884  1.00  0.00    -0.000 C 
BRANCH  25  26
ATOM     26  C   UNL     1      17.728  -5.146  36.698  1.00  0.00    -0.000 C 
BRANCH  26  27
ATOM     27  C   UNL     1      18.099  -3.924  35.845  1.00  0.00    -0.000 C 
BRANCH  27  28
ATOM     28  C   UNL     1      19.592  -3.892  35.483  1.00  0.00    -0.000 C 
BRANCH  28  29
ATOM     29  C   UNL     1      20.006  -2.585  34.786  1.00  0.00    -0.000 C 
BRANCH  29  30
ATOM     30  C   UNL     1      18.826  -1.618  34.602  1.00  0.00    -0.000 C 
BRANCH  30  31
ATOM     31  C   UNL     1      18.817  -0.493  35.647  1.00  0.00    -0.003 C 
ATOM     32  C   UNL     1      20.219  -0.236  36.191  1.00  0.00     0.004 C 
ENDBRANCH  30  31
ENDBRANCH  29  30
ENDBRANCH  28  29
ENDBRANCH  27  28
ENDBRANCH  26  27
ENDBRANCH  25  26
ENDBRANCH  24  25
ENDBRANCH  23  24
ENDBRANCH  22  23
ENDBRANCH  21  22
ENDBRANCH  20  21
ENDBRANCH  19  20
ENDBRANCH  18  19
ENDBRANCH   1  18
TORSDOF 28
ENDMDL
MODEL 8
REMARK VINA RESULT:    -4.314      3.749      9.847
REMARK INTER + INTRA:         -15.480
REMARK INTER:                 -12.460
REMARK INTRA:                  -3.020
REMARK UNBOUND:                -4.105
REMARK SMILES CCCCCCCCCCCCCCCCCCCCCCCCCCCCCC(=O)[O-]
REMARK SMILES IDX 16 1 17 2 18 3 19 4 20 5 21 6 22 7 23 8 24 9 25 10 26 11
REMARK SMILES IDX 27 12 28 13 29 14 30 15 31 16 32 17 15 18 14 19 13 20 12 21
REMARK SMILES IDX 11 22 10 23 9 24 8 25 7 26 6 27 5 28 4 29 3 30 2 31 1 32
REMARK H PARENT
REMARK Flexibility Score: inf
ROOT
ATOM      1  C   UNL     1      14.905  -7.478  33.398  1.00  0.00     0.000 C 
ENDROOT
BRANCH   1   2
ATOM      2  C   UNL     1      15.733  -6.705  34.440  1.00  0.00     0.000 C 
BRANCH   2   3
ATOM      3  C   UNL     1      15.491  -5.185  34.414  1.00  0.00     0.000 C 
BRANCH   3   4
ATOM      4  C   UNL     1      16.459  -4.392  33.509  1.00  0.00     0.000 C 
BRANCH   4   5
ATOM      5  C   UNL     1      17.079  -5.179  32.337  1.00  0.00     0.000 C 
BRANCH   5   6
ATOM      6  C   UNL     1      16.254  -5.210  31.034  1.00  0.00     0.000 C 
BRANCH   6   7
ATOM      7  C   UNL     1      16.124  -3.859  30.310  1.00  0.00     0.000 C 
BRANCH   7   8
ATOM      8  C   UNL     1      15.356  -3.966  28.984  1.00  0.00     0.000 C 
BRANCH   8   9
ATOM      9  C   UNL     1      15.186  -2.585  28.338  1.00  0.00     0.000 C 
BRANCH   9  10
ATOM     10  C   UNL     1      15.787  -2.560  26.924  1.00  0.00     0.000 C 
BRANCH  10  11
ATOM     11  C   UNL     1      15.517  -1.234  26.193  1.00  0.00     0.000 C 
BRANCH  11  12
ATOM     12  C   UNL     1      14.026  -1.018  25.892  1.00  0.00     0.000 C 
BRANCH  12  13
ATOM     13  C   UNL     1      13.556   0.349  26.402  1.00  0.00     0.006 C 
BRANCH  13  14
ATOM     14  C   UNL     1      13.019   1.212  25.257  1.00  0.00     0.053 C 
BRANCH  14  15
ATOM     15  C   UNL     1      14.027   2.244  24.861  1.00  0.00     0.041 C 
ATOM     16  O   UNL     1      15.256   1.970  24.886  1.00  0.00    -0.550 OA
ATOM     17  O   UNL     1      13.613   3.523  24.513  1.00  0.00    -0.550 OA
ENDBRANCH  14  15
ENDBRANCH  13  14
ENDBRANCH  12  13
ENDBRANCH  11  12
ENDBRANCH  10  11
ENDBRANCH   9  10
ENDBRANCH   8   9
ENDBRANCH   7   8
ENDBRANCH   6   7
ENDBRANCH   5   6
ENDBRANCH   4   5
ENDBRANCH   3   4
ENDBRANCH   2   3
ENDBRANCH   1   2
BRANCH   1  18
ATOM     18  C   UNL     1      15.302  -8.959  33.302  1.00  0.00     0.000 C 
BRANCH  18  19
ATOM     19  C   UNL     1      15.250  -9.496  31.861  1.00  0.00     0.000 C 
BRANCH  19  20
ATOM     20  C   UNL     1      16.420  -8.964  31.017  1.00  0.00     0.000 C 
BRANCH  20  21
ATOM     21  C   UNL     1      17.794  -9.338  31.611  1.00  0.00     0.000 C 
BRANCH  21  22
ATOM     22  C   UNL     1      18.509  -8.137  32.249  1.00  0.00     0.000 C 
BRANCH  22  23
ATOM     23  C   UNL     1      18.882  -8.413  33.717  1.00  0.00     0.000 C 
BRANCH  23  24
ATOM     24  C   UNL     1      19.248  -7.136  34.488  1.00  0.00    -0.000 C 
BRANCH  24  25
ATOM     25  C   UNL     1      19.150  -7.316  36.010  1.00  0.00    -0.000 C 
BRANCH  25  26
ATOM     26  C   UNL     1      19.402  -5.988  36.736  1.00  0.00    -0.000 C 
BRANCH  26  27
ATOM     27  C   UNL     1      18.119  -5.148  36.816  1.00  0.00    -0.000 C 
BRANCH  27  28
ATOM     28  C   UNL     1      18.341  -3.694  36.371  1.00  0.00    -0.000 C 
BRANCH  28  29
ATOM     29  C   UNL     1      19.119  -3.590  35.049  1.00  0.00    -0.000 C 
BRANCH  29  30
ATOM     30  C   UNL     1      20.038  -2.359  35.003  1.00  0.00    -0.000 C 
BRANCH  30  31
ATOM     31  C   UNL     1      19.288  -1.053  35.302  1.00  0.00    -0.003 C 
ATOM     32  C   UNL     1      19.971  -0.269  36.418  1.00  0.00     0.004 C 
ENDBRANCH  30  31
ENDBRANCH  29  30
ENDBRANCH  28  29
ENDBRANCH  27  28
ENDBRANCH  26  27
ENDBRANCH  25  26
ENDBRANCH  24  25
ENDBRANCH  23  24
ENDBRANCH  22  23
ENDBRANCH  21  22
ENDBRANCH  20  21
ENDBRANCH  19  20
ENDBRANCH  18  19
ENDBRANCH   1  18
TORSDOF 28
ENDMDL
MODEL 9
REMARK VINA RESULT:    -4.289      4.789      7.658
REMARK INTER + INTRA:         -15.416
REMARK INTER:                 -13.439
REMARK INTRA:                  -1.977
REMARK UNBOUND:                -4.105
REMARK SMILES CCCCCCCCCCCCCCCCCCCCCCCCCCCCCC(=O)[O-]
REMARK SMILES IDX 16 1 17 2 18 3 19 4 20 5 21 6 22 7 23 8 24 9 25 10 26 11
REMARK SMILES IDX 27 12 28 13 29 14 30 15 31 16 32 17 15 18 14 19 13 20 12 21
REMARK SMILES IDX 11 22 10 23 9 24 8 25 7 26 6 27 5 28 4 29 3 30 2 31 1 32
REMARK H PARENT
REMARK Flexibility Score: inf
ROOT
ATOM      1  C   UNL     1      15.198  -1.257  26.188  1.00  0.00     0.000 C 
ENDROOT
BRANCH   1   2
ATOM      2  C   UNL     1      15.973  -2.278  27.042  1.00  0.00     0.000 C 
BRANCH   2   3
ATOM      3  C   UNL     1      15.301  -2.586  28.392  1.00  0.00     0.000 C 
BRANCH   3   4
ATOM      4  C   UNL     1      15.455  -4.045  28.872  1.00  0.00     0.000 C 
BRANCH   4   5
ATOM      5  C   UNL     1      16.214  -4.238  30.201  1.00  0.00     0.000 C 
BRANCH   5   6
ATOM      6  C   UNL     1      15.853  -5.504  31.006  1.00  0.00     0.000 C 
BRANCH   6   7
ATOM      7  C   UNL     1      16.405  -5.546  32.440  1.00  0.00     0.000 C 
BRANCH   7   8
ATOM      8  C   UNL     1      15.928  -6.776  33.226  1.00  0.00     0.000 C 
BRANCH   8   9
ATOM      9  C   UNL     1      17.026  -7.845  33.290  1.00  0.00     0.000 C 
BRANCH   9  10
ATOM     10  C   UNL     1      18.421  -7.207  33.194  1.00  0.00     0.000 C 
BRANCH  10  11
ATOM     11  C   UNL     1      19.210  -7.317  34.509  1.00  0.00     0.000 C 
BRANCH  11  12
ATOM     12  C   UNL     1      18.521  -6.591  35.675  1.00  0.00     0.000 C 
BRANCH  12  13
ATOM     13  C   UNL     1      19.108  -5.188  35.871  1.00  0.00     0.006 C 
BRANCH  13  14
ATOM     14  C   UNL     1      18.144  -4.110  35.368  1.00  0.00     0.053 C 
BRANCH  14  15
ATOM     15  C   UNL     1      18.887  -3.052  34.616  1.00  0.00     0.041 C 
ATOM     16  O   UNL     1      18.296  -2.360  33.746  1.00  0.00    -0.550 OA
ATOM     17  O   UNL     1      20.245  -2.864  34.841  1.00  0.00    -0.550 OA
ENDBRANCH  14  15
ENDBRANCH  13  14
ENDBRANCH  12  13
ENDBRANCH  11  12
ENDBRANCH  10  11
ENDBRANCH   9  10
ENDBRANCH   8   9
ENDBRANCH   7   8
ENDBRANCH   6   7
ENDBRANCH   5   6
ENDBRANCH   4   5
ENDBRANCH   3   4
ENDBRANCH   2   3
ENDBRANCH   1   2
BRANCH   1  18
ATOM     18  C   UNL     1      13.677  -1.363  26.372  1.00  0.00     0.000 C 
BRANCH  18  19
ATOM     19  C   UNL     1      12.939  -0.073  25.969  1.00  0.00     0.000 C 
BRANCH  19  20
ATOM     20  C   UNL     1      13.922   1.055  25.619  1.00  0.00     0.000 C 
BRANCH  20  21
ATOM     21  C   UNL     1      13.272   2.154  24.753  1.00  0.00     0.000 C 
BRANCH  21  22
ATOM     22  C   UNL     1      14.281   3.221  24.298  1.00  0.00     0.000 C 
BRANCH  22  23
ATOM     23  C   UNL     1      13.593   4.572  24.026  1.00  0.00     0.000 C 
BRANCH  23  24
ATOM     24  C   UNL     1      12.761   4.567  22.734  1.00  0.00    -0.000 C 
BRANCH  24  25
ATOM     25  C   UNL     1      12.441   5.983  22.232  1.00  0.00    -0.000 C 
BRANCH  25  26
ATOM     26  C   UNL     1      11.549   5.932  20.985  1.00  0.00    -0.000 C 
BRANCH  26  27
ATOM     27  C   UNL     1      11.336   4.485  20.514  1.00  0.00    -0.000 C 
BRANCH  27  28
ATOM     28  C   UNL     1      11.668   4.298  19.026  1.00  0.00    -0.000 C 
BRANCH  28  29
ATOM     29  C   UNL     1      10.427   3.973  18.177  1.00  0.00    -0.000 C 
BRANCH  29  30
ATOM     30  C   UNL     1       9.197   3.642  19.037  1.00  0.00    -0.000 C 
BRANCH  30  31
ATOM     31  C   UNL     1       8.124   4.738  18.977  1.00  0.00    -0.003 C 
ATOM     32  C   UNL     1       8.482   5.804  17.946  1.00  0.00     0.004 C 
ENDBRANCH  30  31
ENDBRANCH  29  30
ENDBRANCH  28  29
ENDBRANCH  27  28
ENDBRANCH  26  27
ENDBRANCH  25  26
ENDBRANCH  24  25
ENDBRANCH  23  24
ENDBRANCH  22  23
ENDBRANCH  21  22
ENDBRANCH  20  21
ENDBRANCH  19  20
ENDBRANCH  18  19
ENDBRANCH   1  18
TORSDOF 28
ENDMDL
