MODEL 1
REMARK VINA RESULT:     7.807      0.000      0.000
REMARK INTER + INTRA:           9.757
REMARK INTER:                   9.404
REMARK INTRA:                   0.352
REMARK UNBOUND:                 0.352
REMARK SMILES O=c1c(O)c(-c2ccc(O)c(O)c2)oc2cc(O)cc(O)c12
REMARK SMILES IDX 5 1 3 2 2 3 1 4 22 5 20 6 19 7 17 8 16 9 15 10 14 11 6 12
REMARK SMILES IDX 7 13 8 14 9 15 13 16 11 17 10 18 12 20 4 22 21 24 18 26
REMARK H PARENT 10 19 12 21 4 23 21 25 18 27
REMARK Flexibility Score: inf
ROOT
ATOM      1  C   UNL     1      13.074  21.712  -0.043  1.00  0.00     0.180 A 
ATOM      2  C   UNL     1      13.730  22.755  -0.719  1.00  0.00     0.208 A 
ATOM      3  C   UNL     1      13.669  22.803  -2.120  1.00  0.00     0.238 A 
ATOM      4  O   UNL     1      14.213  23.770  -2.716  1.00  0.00    -0.285 OA
ATOM      5  C   UNL     1      12.967  21.800  -2.830  1.00  0.00     0.111 A 
ATOM      6  C   UNL     1      12.874  21.727  -4.253  1.00  0.00     0.134 A 
ATOM      7  C   UNL     1      12.044  20.766  -4.842  1.00  0.00     0.093 A 
ATOM      8  C   UNL     1      11.356  19.834  -4.066  1.00  0.00     0.123 A 
ATOM      9  C   UNL     1      11.487  19.858  -2.677  1.00  0.00     0.094 A 
ATOM     10  C   UNL     1      12.279  20.828  -2.057  1.00  0.00     0.146 A 
ATOM     11  O   UNL     1      12.368  20.823  -0.733  1.00  0.00    -0.452 OA
ENDROOT
BRANCH   1  12
ATOM     12  C   UNL     1      13.113  21.579   1.432  1.00  0.00     0.025 A 
ATOM     13  C   UNL     1      13.248  22.727   2.224  1.00  0.00     0.016 A 
ATOM     14  C   UNL     1      13.267  22.626   3.616  1.00  0.00     0.051 A 
ATOM     15  C   UNL     1      13.138  21.382   4.245  1.00  0.00     0.157 A 
ATOM     16  C   UNL     1      12.960  20.330   2.058  1.00  0.00     0.062 A 
ATOM     17  C   UNL     1      12.976  20.219   3.454  1.00  0.00     0.158 A 
BRANCH  15  18
ATOM     18  O   UNL     1      13.173  21.348   5.640  1.00  0.00    -0.504 OA
ATOM     19  H   UNL     1      13.102  20.503   6.186  1.00  0.00     0.293 HD
ENDBRANCH  15  18
BRANCH  17  20
ATOM     20  O   UNL     1      12.821  18.947   4.009  1.00  0.00    -0.504 OA
ATOM     21  H   UNL     1      12.036  18.673   4.583  1.00  0.00     0.293 HD
ENDBRANCH  17  20
ENDBRANCH   1  12
BRANCH   2  22
ATOM     22  O   UNL     1      14.400  23.747   0.003  1.00  0.00    -0.502 OA
ATOM     23  H   UNL     1      13.916  24.402   0.605  1.00  0.00     0.293 HD
ENDBRANCH   2  22
BRANCH   6  24
ATOM     24  O   UNL     1      13.591  22.551  -5.125  1.00  0.00    -0.507 OA
ATOM     25  H   UNL     1      13.675  22.400  -6.119  1.00  0.00     0.293 HD
ENDBRANCH   6  24
BRANCH   8  26
ATOM     26  O   UNL     1      10.553  18.881  -4.687  1.00  0.00    -0.508 OA
ATOM     27  H   UNL     1       9.626  19.110  -5.029  1.00  0.00     0.293 HD
ENDBRANCH   8  26
TORSDOF 6
ENDMDL
MODEL 2
REMARK VINA RESULT:     8.066      2.880      6.452
REMARK INTER + INTRA:          10.069
REMARK INTER:                  10.177
REMARK INTRA:                  -0.109
REMARK UNBOUND:                 0.352
REMARK SMILES O=c1c(O)c(-c2ccc(O)c(O)c2)oc2cc(O)cc(O)c12
REMARK SMILES IDX 5 1 3 2 2 3 1 4 22 5 20 6 19 7 17 8 16 9 15 10 14 11 6 12
REMARK SMILES IDX 7 13 8 14 9 15 13 16 11 17 10 18 12 20 4 22 21 24 18 26
REMARK H PARENT 10 19 12 21 4 23 21 25 18 27
REMARK Flexibility Score: inf
ROOT
ATOM      1  C   UNL     1      13.333  21.651  -1.918  1.00  0.00     0.180 A 
ATOM      2  C   UNL     1      14.151  20.990  -0.985  1.00  0.00     0.208 A 
ATOM      3  C   UNL     1      15.110  21.730  -0.275  1.00  0.00     0.238 A 
ATOM      4  O   UNL     1      15.802  21.142   0.597  1.00  0.00    -0.285 OA
ATOM      5  C   UNL     1      15.250  23.118  -0.518  1.00  0.00     0.111 A 
ATOM      6  C   UNL     1      16.216  23.958   0.115  1.00  0.00     0.134 A 
ATOM      7  C   UNL     1      16.177  25.340  -0.104  1.00  0.00     0.093 A 
ATOM      8  C   UNL     1      15.252  25.905  -0.982  1.00  0.00     0.123 A 
ATOM      9  C   UNL     1      14.343  25.086  -1.651  1.00  0.00     0.094 A 
ATOM     10  C   UNL     1      14.333  23.707  -1.426  1.00  0.00     0.146 A 
ATOM     11  O   UNL     1      13.444  22.965  -2.075  1.00  0.00    -0.452 OA
ENDROOT
BRANCH   1  12
ATOM     12  C   UNL     1      12.317  20.934  -2.722  1.00  0.00     0.025 A 
ATOM     13  C   UNL     1      12.441  20.898  -4.117  1.00  0.00     0.016 A 
ATOM     14  C   UNL     1      11.505  20.212  -4.893  1.00  0.00     0.051 A 
ATOM     15  C   UNL     1      10.437  19.536  -4.292  1.00  0.00     0.157 A 
ATOM     16  C   UNL     1      11.259  20.238  -2.112  1.00  0.00     0.062 A 
ATOM     17  C   UNL     1      10.316  19.544  -2.882  1.00  0.00     0.158 A 
BRANCH  15  18
ATOM     18  O   UNL     1       9.531  18.876  -5.124  1.00  0.00    -0.504 OA
ATOM     19  H   UNL     1       9.787  18.137  -5.763  1.00  0.00     0.293 HD
ENDBRANCH  15  18
BRANCH  17  20
ATOM     20  O   UNL     1       9.290  18.877  -2.210  1.00  0.00    -0.504 OA
ATOM     21  H   UNL     1       9.390  17.961  -1.794  1.00  0.00     0.293 HD
ENDBRANCH  17  20
ENDBRANCH   1  12
BRANCH   2  22
ATOM     22  O   UNL     1      13.981  19.623  -0.746  1.00  0.00    -0.502 OA
ATOM     23  H   UNL     1      13.675  19.262   0.149  1.00  0.00     0.293 HD
ENDBRANCH   2  22
BRANCH   6  24
ATOM     24  O   UNL     1      17.241  23.485   0.939  1.00  0.00    -0.507 OA
ATOM     25  H   UNL     1      17.848  24.070   1.493  1.00  0.00     0.293 HD
ENDBRANCH   6  24
BRANCH   8  26
ATOM     26  O   UNL     1      15.254  27.282  -1.188  1.00  0.00    -0.508 OA
ATOM     27  H   UNL     1      16.087  27.841  -1.038  1.00  0.00     0.293 HD
ENDBRANCH   8  26
TORSDOF 6
ENDMDL
MODEL 3
REMARK VINA RESULT:     8.390      3.142      6.376
REMARK INTER + INTRA:          10.459
REMARK INTER:                  10.495
REMARK INTRA:                  -0.035
REMARK UNBOUND:                 0.352
REMARK SMILES O=c1c(O)c(-c2ccc(O)c(O)c2)oc2cc(O)cc(O)c12
REMARK SMILES IDX 5 1 3 2 2 3 1 4 22 5 20 6 19 7 17 8 16 9 15 10 14 11 6 12
REMARK SMILES IDX 7 13 8 14 9 15 13 16 11 17 10 18 12 20 4 22 21 24 18 26
REMARK H PARENT 10 19 12 21 4 23 21 25 18 27
REMARK Flexibility Score: inf
ROOT
ATOM      1  C   UNL     1      13.383  22.418  -2.303  1.00  0.00     0.180 A 
ATOM      2  C   UNL     1      13.380  23.804  -2.538  1.00  0.00     0.208 A 
ATOM      3  C   UNL     1      14.267  24.619  -1.817  1.00  0.00     0.238 A 
ATOM      4  O   UNL     1      14.297  25.852  -2.071  1.00  0.00    -0.285 OA
ATOM      5  C   UNL     1      15.135  24.042  -0.859  1.00  0.00     0.111 A 
ATOM      6  C   UNL     1      16.046  24.777  -0.043  1.00  0.00     0.134 A 
ATOM      7  C   UNL     1      16.950  24.089   0.776  1.00  0.00     0.093 A 
ATOM      8  C   UNL     1      16.930  22.697   0.859  1.00  0.00     0.123 A 
ATOM      9  C   UNL     1      16.003  21.971   0.111  1.00  0.00     0.094 A 
ATOM     10  C   UNL     1      15.114  22.627  -0.743  1.00  0.00     0.146 A 
ATOM     11  O   UNL     1      14.255  21.898  -1.446  1.00  0.00    -0.452 OA
ENDROOT
BRANCH   1  12
ATOM     12  C   UNL     1      12.460  21.496  -3.005  1.00  0.00     0.025 A 
ATOM     13  C   UNL     1      12.454  21.461  -4.405  1.00  0.00     0.016 A 
ATOM     14  C   UNL     1      11.606  20.586  -5.087  1.00  0.00     0.051 A 
ATOM     15  C   UNL     1      10.760  19.719  -4.385  1.00  0.00     0.157 A 
ATOM     16  C   UNL     1      11.630  20.613  -2.295  1.00  0.00     0.062 A 
ATOM     17  C   UNL     1      10.777  19.729  -2.970  1.00  0.00     0.158 A 
BRANCH  15  18
ATOM     18  O   UNL     1       9.931  18.875  -5.125  1.00  0.00    -0.504 OA
ATOM     19  H   UNL     1       8.940  18.772  -4.962  1.00  0.00     0.293 HD
ENDBRANCH  15  18
BRANCH  17  20
ATOM     20  O   UNL     1       9.977  18.880  -2.201  1.00  0.00    -0.504 OA
ATOM     21  H   UNL     1      10.226  17.929  -1.966  1.00  0.00     0.293 HD
ENDBRANCH  17  20
ENDBRANCH   1  12
BRANCH   2  22
ATOM     22  O   UNL     1      12.530  24.350  -3.503  1.00  0.00    -0.502 OA
ATOM     23  H   UNL     1      11.731  23.848  -3.871  1.00  0.00     0.293 HD
ENDBRANCH   2  22
BRANCH   6  24
ATOM     24  O   UNL     1      16.087  26.173   0.018  1.00  0.00    -0.507 OA
ATOM     25  H   UNL     1      15.669  26.790  -0.662  1.00  0.00     0.293 HD
ENDBRANCH   6  24
BRANCH   8  26
ATOM     26  O   UNL     1      17.832  22.047   1.698  1.00  0.00    -0.508 OA
ATOM     27  H   UNL     1      18.828  22.227   1.648  1.00  0.00     0.293 HD
ENDBRANCH   8  26
TORSDOF 6
ENDMDL
MODEL 4
REMARK VINA RESULT:     9.457      1.343      2.837
REMARK INTER + INTRA:          11.744
REMARK INTER:                  11.280
REMARK INTRA:                   0.464
REMARK UNBOUND:                 0.352
REMARK SMILES O=c1c(O)c(-c2ccc(O)c(O)c2)oc2cc(O)cc(O)c12
REMARK SMILES IDX 5 1 3 2 2 3 1 4 22 5 20 6 19 7 17 8 16 9 15 10 14 11 6 12
REMARK SMILES IDX 7 13 8 14 9 15 13 16 11 17 10 18 12 20 4 22 21 24 18 26
REMARK H PARENT 10 19 12 21 4 23 21 25 18 27
REMARK Flexibility Score: inf
ROOT
ATOM      1  C   UNL     1      13.036  21.506  -0.000  1.00  0.00     0.180 A 
ATOM      2  C   UNL     1      12.912  20.344  -0.783  1.00  0.00     0.208 A 
ATOM      3  C   UNL     1      12.848  20.468  -2.180  1.00  0.00     0.238 A 
ATOM      4  O   UNL     1      12.792  19.421  -2.877  1.00  0.00    -0.285 OA
ATOM      5  C   UNL     1      12.894  21.751  -2.777  1.00  0.00     0.111 A 
ATOM      6  C   UNL     1      12.798  21.996  -4.180  1.00  0.00     0.134 A 
ATOM      7  C   UNL     1      12.987  23.295  -4.668  1.00  0.00     0.093 A 
ATOM      8  C   UNL     1      13.203  24.366  -3.802  1.00  0.00     0.123 A 
ATOM      9  C   UNL     1      13.240  24.146  -2.425  1.00  0.00     0.094 A 
ATOM     10  C   UNL     1      13.091  22.856  -1.909  1.00  0.00     0.146 A 
ATOM     11  O   UNL     1      13.143  22.690  -0.593  1.00  0.00    -0.452 OA
ENDROOT
BRANCH   1  12
ATOM     12  C   UNL     1      13.084  21.459   1.479  1.00  0.00     0.025 A 
ATOM     13  C   UNL     1      13.246  22.647   2.202  1.00  0.00     0.016 A 
ATOM     14  C   UNL     1      13.274  22.628   3.598  1.00  0.00     0.051 A 
ATOM     15  C   UNL     1      13.124  21.425   4.299  1.00  0.00     0.157 A 
ATOM     16  C   UNL     1      12.911  20.251   2.178  1.00  0.00     0.062 A 
ATOM     17  C   UNL     1      12.935  20.222   3.578  1.00  0.00     0.158 A 
BRANCH  15  18
ATOM     18  O   UNL     1      13.170  21.471   5.693  1.00  0.00    -0.504 OA
ATOM     19  H   UNL     1      12.376  21.690   6.276  1.00  0.00     0.293 HD
ENDBRANCH  15  18
BRANCH  17  20
ATOM     20  O   UNL     1      12.759  18.987   4.207  1.00  0.00    -0.504 OA
ATOM     21  H   UNL     1      13.483  18.287   4.289  1.00  0.00     0.293 HD
ENDBRANCH  17  20
ENDBRANCH   1  12
BRANCH   2  22
ATOM     22  O   UNL     1      12.890  19.087  -0.174  1.00  0.00    -0.502 OA
ATOM     23  H   UNL     1      13.005  18.964   0.825  1.00  0.00     0.293 HD
ENDBRANCH   2  22
BRANCH   6  24
ATOM     24  O   UNL     1      12.494  21.012  -5.125  1.00  0.00    -0.507 OA
ATOM     25  H   UNL     1      13.165  20.373  -5.524  1.00  0.00     0.293 HD
ENDBRANCH   6  24
BRANCH   8  26
ATOM     26  O   UNL     1      13.371  25.647  -4.322  1.00  0.00    -0.508 OA
ATOM     27  H   UNL     1      13.874  26.365  -3.813  1.00  0.00     0.293 HD
ENDBRANCH   8  26
TORSDOF 6
ENDMDL
MODEL 5
REMARK VINA RESULT:    10.723      9.080     14.283
REMARK INTER + INTRA:          13.269
REMARK INTER:                  13.002
REMARK INTRA:                   0.267
REMARK UNBOUND:                 0.352
REMARK SMILES O=c1c(O)c(-c2ccc(O)c(O)c2)oc2cc(O)cc(O)c12
REMARK SMILES IDX 5 1 3 2 2 3 1 4 22 5 20 6 19 7 17 8 16 9 15 10 14 11 6 12
REMARK SMILES IDX 7 13 8 14 9 15 13 16 11 17 10 18 12 20 4 22 21 24 18 26
REMARK H PARENT 10 19 12 21 4 23 21 25 18 27
REMARK Flexibility Score: inf
ROOT
ATOM      1  C   UNL     1      18.461  22.426  10.379  1.00  0.00     0.180 A 
ATOM      2  C   UNL     1      18.891  23.743  10.617  1.00  0.00     0.208 A 
ATOM      3  C   UNL     1      19.671  24.009  11.753  1.00  0.00     0.238 A 
ATOM      4  O   UNL     1      20.098  25.180  11.931  1.00  0.00    -0.285 OA
ATOM      5  C   UNL     1      19.998  22.960  12.646  1.00  0.00     0.111 A 
ATOM      6  C   UNL     1      20.749  23.123  13.849  1.00  0.00     0.134 A 
ATOM      7  C   UNL     1      21.125  21.994  14.587  1.00  0.00     0.093 A 
ATOM      8  C   UNL     1      20.722  20.716  14.203  1.00  0.00     0.123 A 
ATOM      9  C   UNL     1      19.938  20.551  13.061  1.00  0.00     0.094 A 
ATOM     10  C   UNL     1      19.577  21.654  12.284  1.00  0.00     0.146 A 
ATOM     11  O   UNL     1      18.839  21.452  11.199  1.00  0.00    -0.452 OA
ENDROOT
BRANCH   1  12
ATOM     12  C   UNL     1      17.614  22.071   9.216  1.00  0.00     0.025 A 
ATOM     13  C   UNL     1      16.650  21.063   9.348  1.00  0.00     0.016 A 
ATOM     14  C   UNL     1      15.828  20.727   8.270  1.00  0.00     0.051 A 
ATOM     15  C   UNL     1      15.942  21.398   7.047  1.00  0.00     0.157 A 
ATOM     16  C   UNL     1      17.718  22.763   7.998  1.00  0.00     0.062 A 
ATOM     17  C   UNL     1      16.896  22.435   6.912  1.00  0.00     0.158 A 
BRANCH  15  18
ATOM     18  O   UNL     1      15.097  21.009   6.007  1.00  0.00    -0.504 OA
ATOM     19  H   UNL     1      15.093  20.086   5.599  1.00  0.00     0.293 HD
ENDBRANCH  15  18
BRANCH  17  20
ATOM     20  O   UNL     1      17.055  23.163   5.731  1.00  0.00    -0.504 OA
ATOM     21  H   UNL     1      17.938  23.541   5.415  1.00  0.00     0.293 HD
ENDBRANCH  17  20
ENDBRANCH   1  12
BRANCH   2  22
ATOM     22  O   UNL     1      18.574  24.759   9.712  1.00  0.00    -0.502 OA
ATOM     23  H   UNL     1      18.285  24.569   8.760  1.00  0.00     0.293 HD
ENDBRANCH   2  22
BRANCH   6  24
ATOM     24  O   UNL     1      21.125  24.364  14.372  1.00  0.00    -0.507 OA
ATOM     25  H   UNL     1      20.480  25.086  14.656  1.00  0.00     0.293 HD
ENDBRANCH   6  24
BRANCH   8  26
ATOM     26  O   UNL     1      21.100  19.617  14.970  1.00  0.00    -0.508 OA
ATOM     27  H   UNL     1      20.501  18.805  15.066  1.00  0.00     0.293 HD
ENDBRANCH   8  26
TORSDOF 6
ENDMDL
