MODEL 1
REMARK VINA RESULT:    -3.934      0.000      0.000
REMARK INTER + INTRA:         -10.020
REMARK INTER:                  -7.614
REMARK INTRA:                  -2.406
REMARK UNBOUND:                -2.406
REMARK SMILES CCCCCCCCCCCCCCCCCC(=O)[O-]
REMARK SMILES IDX 10 1 11 2 12 3 13 4 14 5 15 6 16 7 17 8 18 9 19 10 20 11
REMARK SMILES IDX 9 12 8 13 7 14 6 15 5 16 4 17 3 18 2 19 1 20
REMARK H PARENT
REMARK Flexibility Score: inf
ROOT
ATOM      1  C   UNL     1       3.777   4.075  14.566  1.00  0.00     0.000 C 
ENDROOT
BRANCH   1   2
ATOM      2  C   UNL     1       4.007   3.432  13.190  1.00  0.00     0.000 C 
BRANCH   2   3
ATOM      3  C   UNL     1       5.494   3.173  12.900  1.00  0.00     0.000 C 
BRANCH   3   4
ATOM      4  C   UNL     1       5.840   1.675  12.875  1.00  0.00     0.000 C 
BRANCH   4   5
ATOM      5  C   UNL     1       4.591   0.780  12.916  1.00  0.00     0.000 C 
BRANCH   5   6
ATOM      6  C   UNL     1       4.937  -0.716  12.943  1.00  0.00     0.000 C 
BRANCH   6   7
ATOM      7  C   UNL     1       3.811  -1.529  13.592  1.00  0.00     0.006 C 
BRANCH   7   8
ATOM      8  C   UNL     1       2.498  -0.741  13.602  1.00  0.00     0.053 C 
BRANCH   8   9
ATOM      9  C   UNL     1       1.743  -0.989  14.871  1.00  0.00     0.041 C 
ATOM     10  O   UNL     1       0.785  -0.240  15.196  1.00  0.00    -0.550 OA
ATOM     11  O   UNL     1       2.125  -2.023  15.715  1.00  0.00    -0.550 OA
ENDBRANCH   8   9
ENDBRANCH   7   8
ENDBRANCH   6   7
ENDBRANCH   5   6
ENDBRANCH   4   5
ENDBRANCH   3   4
ENDBRANCH   2   3
ENDBRANCH   1   2
BRANCH   1  12
ATOM     12  C   UNL     1       4.613   3.375  15.644  1.00  0.00     0.000 C 
BRANCH  12  13
ATOM     13  C   UNL     1       3.743   2.457  16.508  1.00  0.00    -0.000 C 
BRANCH  13  14
ATOM     14  C   UNL     1       4.211   0.997  16.406  1.00  0.00    -0.000 C 
BRANCH  14  15
ATOM     15  C   UNL     1       5.750   0.876  16.447  1.00  0.00    -0.000 C 
BRANCH  15  16
ATOM     16  C   UNL     1       6.252  -0.576  16.365  1.00  0.00    -0.000 C 
BRANCH  16  17
ATOM     17  C   UNL     1       5.421  -1.544  17.225  1.00  0.00    -0.000 C 
BRANCH  17  18
ATOM     18  C   UNL     1       6.127  -1.899  18.551  1.00  0.00    -0.000 C 
BRANCH  18  19
ATOM     19  C   UNL     1       6.228  -0.716  19.530  1.00  0.00    -0.003 C 
ATOM     20  C   UNL     1       4.926   0.073  19.650  1.00  0.00     0.004 C 
ENDBRANCH  18  19
ENDBRANCH  17  18
ENDBRANCH  16  17
ENDBRANCH  15  16
ENDBRANCH  14  15
ENDBRANCH  13  14
ENDBRANCH  12  13
ENDBRANCH   1  12
TORSDOF 16
ENDMDL
MODEL 2
REMARK VINA RESULT:    -3.876      1.938      4.605
REMARK INTER + INTRA:          -9.909
REMARK INTER:                  -7.647
REMARK INTRA:                  -2.262
REMARK UNBOUND:                -2.406
REMARK SMILES CCCCCCCCCCCCCCCCCC(=O)[O-]
REMARK SMILES IDX 10 1 11 2 12 3 13 4 14 5 15 6 16 7 17 8 18 9 19 10 20 11
REMARK SMILES IDX 9 12 8 13 7 14 6 15 5 16 4 17 3 18 2 19 1 20
REMARK H PARENT
REMARK Flexibility Score: inf
ROOT
ATOM      1  C   UNL     1       5.634   2.714  12.876  1.00  0.00     0.000 C 
ENDROOT
BRANCH   1   2
ATOM      2  C   UNL     1       4.371   3.547  13.139  1.00  0.00     0.000 C 
BRANCH   2   3
ATOM      3  C   UNL     1       4.137   3.809  14.635  1.00  0.00     0.000 C 
BRANCH   3   4
ATOM      4  C   UNL     1       2.793   3.249  15.132  1.00  0.00     0.000 C 
BRANCH   4   5
ATOM      5  C   UNL     1       2.968   2.132  16.173  1.00  0.00     0.000 C 
BRANCH   5   6
ATOM      6  C   UNL     1       4.439   1.745  16.383  1.00  0.00     0.000 C 
BRANCH   6   7
ATOM      7  C   UNL     1       4.641   1.068  17.743  1.00  0.00     0.006 C 
BRANCH   7   8
ATOM      8  C   UNL     1       5.997   0.360  17.810  1.00  0.00     0.053 C 
BRANCH   8   9
ATOM      9  C   UNL     1       5.880  -0.936  18.551  1.00  0.00     0.041 C 
ATOM     10  O   UNL     1       6.809  -1.319  19.309  1.00  0.00    -0.550 OA
ATOM     11  O   UNL     1       4.762  -1.740  18.371  1.00  0.00    -0.550 OA
ENDBRANCH   8   9
ENDBRANCH   7   8
ENDBRANCH   6   7
ENDBRANCH   5   6
ENDBRANCH   4   5
ENDBRANCH   3   4
ENDBRANCH   2   3
ENDBRANCH   1   2
BRANCH   1  12
ATOM     12  C   UNL     1       5.333   1.214  12.984  1.00  0.00     0.000 C 
BRANCH  12  13
ATOM     13  C   UNL     1       6.578   0.431  13.412  1.00  0.00    -0.000 C 
BRANCH  13  14
ATOM     14  C   UNL     1       6.433  -1.061  13.073  1.00  0.00    -0.000 C 
BRANCH  14  15
ATOM     15  C   UNL     1       5.040  -1.610  13.447  1.00  0.00    -0.000 C 
BRANCH  15  16
ATOM     16  C   UNL     1       4.809  -1.711  14.965  1.00  0.00    -0.000 C 
BRANCH  16  17
ATOM     17  C   UNL     1       3.318  -1.681  15.345  1.00  0.00    -0.000 C 
BRANCH  17  18
ATOM     18  C   UNL     1       2.400  -1.732  14.106  1.00  0.00    -0.000 C 
BRANCH  18  19
ATOM     19  C   UNL     1       1.455  -0.523  13.990  1.00  0.00    -0.003 C 
ATOM     20  C   UNL     1       0.864  -0.095  15.331  1.00  0.00     0.004 C 
ENDBRANCH  18  19
ENDBRANCH  17  18
ENDBRANCH  16  17
ENDBRANCH  15  16
ENDBRANCH  14  15
ENDBRANCH  13  14
ENDBRANCH  12  13
ENDBRANCH   1  12
TORSDOF 16
ENDMDL
MODEL 3
REMARK VINA RESULT:    -3.844      2.125      4.234
REMARK INTER + INTRA:          -9.846
REMARK INTER:                  -7.523
REMARK INTRA:                  -2.323
REMARK UNBOUND:                -2.406
REMARK SMILES CCCCCCCCCCCCCCCCCC(=O)[O-]
REMARK SMILES IDX 10 1 11 2 12 3 13 4 14 5 15 6 16 7 17 8 18 9 19 10 20 11
REMARK SMILES IDX 9 12 8 13 7 14 6 15 5 16 4 17 3 18 2 19 1 20
REMARK H PARENT
REMARK Flexibility Score: inf
ROOT
ATOM      1  C   UNL     1       4.654   3.388  12.966  1.00  0.00     0.000 C 
ENDROOT
BRANCH   1   2
ATOM      2  C   UNL     1       4.696   1.855  12.876  1.00  0.00     0.000 C 
BRANCH   2   3
ATOM      3  C   UNL     1       6.111   1.290  13.076  1.00  0.00     0.000 C 
BRANCH   3   4
ATOM      4  C   UNL     1       6.270   0.553  14.418  1.00  0.00     0.000 C 
BRANCH   4   5
ATOM      5  C   UNL     1       6.649  -0.925  14.238  1.00  0.00     0.000 C 
BRANCH   5   6
ATOM      6  C   UNL     1       6.268  -1.785  15.451  1.00  0.00     0.000 C 
BRANCH   6   7
ATOM      7  C   UNL     1       5.494  -0.961  16.487  1.00  0.00     0.006 C 
BRANCH   7   8
ATOM      8  C   UNL     1       5.385  -1.712  17.817  1.00  0.00     0.053 C 
BRANCH   8   9
ATOM      9  C   UNL     1       5.660  -0.793  18.967  1.00  0.00     0.041 C 
ATOM     10  O   UNL     1       4.798   0.052  19.323  1.00  0.00    -0.550 OA
ATOM     11  O   UNL     1       6.885  -0.843  19.619  1.00  0.00    -0.550 OA
ENDBRANCH   8   9
ENDBRANCH   7   8
ENDBRANCH   6   7
ENDBRANCH   5   6
ENDBRANCH   4   5
ENDBRANCH   3   4
ENDBRANCH   2   3
ENDBRANCH   1   2
BRANCH   1  12
ATOM     12  C   UNL     1       4.774   3.854  14.422  1.00  0.00     0.000 C 
BRANCH  12  13
ATOM     13  C   UNL     1       3.529   3.471  15.229  1.00  0.00    -0.000 C 
BRANCH  13  14
ATOM     14  C   UNL     1       3.886   2.502  16.366  1.00  0.00    -0.000 C 
BRANCH  14  15
ATOM     15  C   UNL     1       3.079   1.188  16.286  1.00  0.00    -0.000 C 
BRANCH  15  16
ATOM     16  C   UNL     1       2.074   1.156  15.121  1.00  0.00    -0.000 C 
BRANCH  16  17
ATOM     17  C   UNL     1       1.159  -0.079  15.156  1.00  0.00    -0.000 C 
BRANCH  17  18
ATOM     18  C   UNL     1       1.955  -1.390  15.326  1.00  0.00    -0.000 C 
BRANCH  18  19
ATOM     19  C   UNL     1       2.221  -2.125  14.000  1.00  0.00    -0.003 C 
ATOM     20  C   UNL     1       3.514  -1.684  13.320  1.00  0.00     0.004 C 
ENDBRANCH  18  19
ENDBRANCH  17  18
ENDBRANCH  16  17
ENDBRANCH  15  16
ENDBRANCH  14  15
ENDBRANCH  13  14
ENDBRANCH  12  13
ENDBRANCH   1  12
TORSDOF 16
ENDMDL
MODEL 4
REMARK VINA RESULT:    -3.683      1.055      2.881
REMARK INTER + INTRA:          -9.535
REMARK INTER:                  -7.635
REMARK INTRA:                  -1.899
REMARK UNBOUND:                -2.406
REMARK SMILES CCCCCCCCCCCCCCCCCC(=O)[O-]
REMARK SMILES IDX 10 1 11 2 12 3 13 4 14 5 15 6 16 7 17 8 18 9 19 10 20 11
REMARK SMILES IDX 9 12 8 13 7 14 6 15 5 16 4 17 3 18 2 19 1 20
REMARK H PARENT
REMARK Flexibility Score: inf
ROOT
ATOM      1  C   UNL     1       5.029   3.276  12.989  1.00  0.00     0.000 C 
ENDROOT
BRANCH   1   2
ATOM      2  C   UNL     1       3.690   3.880  13.435  1.00  0.00     0.000 C 
BRANCH   2   3
ATOM      3  C   UNL     1       3.610   4.087  14.955  1.00  0.00     0.000 C 
BRANCH   3   4
ATOM      4  C   UNL     1       4.841   3.532  15.693  1.00  0.00     0.000 C 
BRANCH   4   5
ATOM      5  C   UNL     1       4.667   2.061  16.107  1.00  0.00     0.000 C 
BRANCH   5   6
ATOM      6  C   UNL     1       3.739   1.894  17.318  1.00  0.00     0.000 C 
BRANCH   6   7
ATOM      7  C   UNL     1       2.390   1.298  16.898  1.00  0.00     0.006 C 
BRANCH   7   8
ATOM      8  C   UNL     1       2.372   0.975  15.401  1.00  0.00     0.053 C 
BRANCH   8   9
ATOM      9  C   UNL     1       1.621  -0.294  15.144  1.00  0.00     0.041 C 
ATOM     10  O   UNL     1       0.553  -0.275  14.478  1.00  0.00    -0.550 OA
ATOM     11  O   UNL     1       2.080  -1.493  15.674  1.00  0.00    -0.550 OA
ENDBRANCH   8   9
ENDBRANCH   7   8
ENDBRANCH   6   7
ENDBRANCH   5   6
ENDBRANCH   4   5
ENDBRANCH   3   4
ENDBRANCH   2   3
ENDBRANCH   1   2
BRANCH   1  12
ATOM     12  C   UNL     1       4.929   1.749  12.875  1.00  0.00     0.000 C 
BRANCH  12  13
ATOM     13  C   UNL     1       6.306   1.093  13.026  1.00  0.00    -0.000 C 
BRANCH  13  14
ATOM     14  C   UNL     1       6.200  -0.437  12.940  1.00  0.00    -0.000 C 
BRANCH  14  15
ATOM     15  C   UNL     1       4.963  -0.977  13.691  1.00  0.00    -0.000 C 
BRANCH  15  16
ATOM     16  C   UNL     1       5.309  -2.010  14.777  1.00  0.00    -0.000 C 
BRANCH  16  17
ATOM     17  C   UNL     1       6.124  -1.408  15.935  1.00  0.00    -0.000 C 
BRANCH  17  18
ATOM     18  C   UNL     1       5.378  -1.499  17.283  1.00  0.00    -0.000 C 
BRANCH  18  19
ATOM     19  C   UNL     1       6.020  -0.660  18.401  1.00  0.00    -0.003 C 
ATOM     20  C   UNL     1       5.097  -0.452  19.598  1.00  0.00     0.004 C 
ENDBRANCH  18  19
ENDBRANCH  17  18
ENDBRANCH  16  17
ENDBRANCH  15  16
ENDBRANCH  14  15
ENDBRANCH  13  14
ENDBRANCH  12  13
ENDBRANCH   1  12
TORSDOF 16
ENDMDL
MODEL 5
REMARK VINA RESULT:    -3.620      2.036      5.476
REMARK INTER + INTRA:          -9.413
REMARK INTER:                  -7.386
REMARK INTRA:                  -2.027
REMARK UNBOUND:                -2.406
REMARK SMILES CCCCCCCCCCCCCCCCCC(=O)[O-]
REMARK SMILES IDX 10 1 11 2 12 3 13 4 14 5 15 6 16 7 17 8 18 9 19 10 20 11
REMARK SMILES IDX 9 12 8 13 7 14 6 15 5 16 4 17 3 18 2 19 1 20
REMARK H PARENT
REMARK Flexibility Score: inf
ROOT
ATOM      1  C   UNL     1       5.251  -1.731  17.955  1.00  0.00     0.000 C 
ENDROOT
BRANCH   1   2
ATOM      2  C   UNL     1       5.627  -0.603  18.927  1.00  0.00     0.000 C 
BRANCH   2   3
ATOM      3  C   UNL     1       4.405   0.200  19.402  1.00  0.00     0.000 C 
BRANCH   3   4
ATOM      4  C   UNL     1       4.368   1.623  18.817  1.00  0.00     0.000 C 
BRANCH   4   5
ATOM      5  C   UNL     1       4.093   1.631  17.305  1.00  0.00     0.000 C 
BRANCH   5   6
ATOM      6  C   UNL     1       5.378   1.533  16.470  1.00  0.00     0.000 C 
BRANCH   6   7
ATOM      7  C   UNL     1       5.293   2.421  15.223  1.00  0.00     0.006 C 
BRANCH   7   8
ATOM      8  C   UNL     1       4.393   3.635  15.472  1.00  0.00     0.053 C 
BRANCH   8   9
ATOM      9  C   UNL     1       3.423   3.812  14.346  1.00  0.00     0.041 C 
ATOM     10  O   UNL     1       2.192   3.925  14.581  1.00  0.00    -0.550 OA
ATOM     11  O   UNL     1       3.875   3.812  13.033  1.00  0.00    -0.550 OA
ENDBRANCH   8   9
ENDBRANCH   7   8
ENDBRANCH   6   7
ENDBRANCH   5   6
ENDBRANCH   4   5
ENDBRANCH   3   4
ENDBRANCH   2   3
ENDBRANCH   1   2
BRANCH   1  12
ATOM     12  C   UNL     1       6.342  -1.924  16.895  1.00  0.00     0.000 C 
BRANCH  12  13
ATOM     13  C   UNL     1       5.734  -2.072  15.497  1.00  0.00    -0.000 C 
BRANCH  13  14
ATOM     14  C   UNL     1       6.742  -1.667  14.411  1.00  0.00    -0.000 C 
BRANCH  14  15
ATOM     15  C   UNL     1       6.133  -1.743  12.994  1.00  0.00    -0.000 C 
BRANCH  15  16
ATOM     16  C   UNL     1       4.608  -1.539  12.971  1.00  0.00    -0.000 C 
BRANCH  16  17
ATOM     17  C   UNL     1       4.199  -0.069  13.167  1.00  0.00    -0.000 C 
BRANCH  17  18
ATOM     18  C   UNL     1       2.734   0.071  13.630  1.00  0.00    -0.000 C 
BRANCH  18  19
ATOM     19  C   UNL     1       2.496  -0.409  15.072  1.00  0.00    -0.003 C 
ATOM     20  C   UNL     1       1.954  -1.834  15.146  1.00  0.00     0.004 C 
ENDBRANCH  18  19
ENDBRANCH  17  18
ENDBRANCH  16  17
ENDBRANCH  15  16
ENDBRANCH  14  15
ENDBRANCH  13  14
ENDBRANCH  12  13
ENDBRANCH   1  12
TORSDOF 16
ENDMDL
MODEL 6
REMARK VINA RESULT:    -3.576      1.427      4.774
REMARK INTER + INTRA:          -9.327
REMARK INTER:                  -7.604
REMARK INTRA:                  -1.723
REMARK UNBOUND:                -2.406
REMARK SMILES CCCCCCCCCCCCCCCCCC(=O)[O-]
REMARK SMILES IDX 10 1 11 2 12 3 13 4 14 5 15 6 16 7 17 8 18 9 19 10 20 11
REMARK SMILES IDX 9 12 8 13 7 14 6 15 5 16 4 17 3 18 2 19 1 20
REMARK H PARENT
REMARK Flexibility Score: inf
ROOT
ATOM      1  C   UNL     1       4.476   3.784  14.701  1.00  0.00     0.000 C 
ENDROOT
BRANCH   1   2
ATOM      2  C   UNL     1       3.604   2.683  15.322  1.00  0.00     0.000 C 
BRANCH   2   3
ATOM      3  C   UNL     1       4.366   1.835  16.352  1.00  0.00     0.000 C 
BRANCH   3   4
ATOM      4  C   UNL     1       3.522   1.521  17.600  1.00  0.00     0.000 C 
BRANCH   4   5
ATOM      5  C   UNL     1       4.328   1.645  18.903  1.00  0.00     0.000 C 
BRANCH   5   6
ATOM      6  C   UNL     1       4.662   0.280  19.523  1.00  0.00     0.000 C 
BRANCH   6   7
ATOM      7  C   UNL     1       6.105  -0.128  19.209  1.00  0.00     0.006 C 
BRANCH   7   8
ATOM      8  C   UNL     1       6.171  -1.570  18.698  1.00  0.00     0.053 C 
BRANCH   8   9
ATOM      9  C   UNL     1       5.527  -1.684  17.352  1.00  0.00     0.041 C 
ATOM     10  O   UNL     1       6.225  -1.613  16.307  1.00  0.00    -0.550 OA
ATOM     11  O   UNL     1       4.149  -1.828  17.251  1.00  0.00    -0.550 OA
ENDBRANCH   8   9
ENDBRANCH   7   8
ENDBRANCH   6   7
ENDBRANCH   5   6
ENDBRANCH   4   5
ENDBRANCH   3   4
ENDBRANCH   2   3
ENDBRANCH   1   2
BRANCH   1  12
ATOM     12  C   UNL     1       4.797   3.466  13.235  1.00  0.00     0.000 C 
BRANCH  12  13
ATOM     13  C   UNL     1       4.576   1.981  12.931  1.00  0.00    -0.000 C 
BRANCH  13  14
ATOM     14  C   UNL     1       5.872   1.179  13.130  1.00  0.00    -0.000 C 
BRANCH  14  15
ATOM     15  C   UNL     1       5.604  -0.337  13.248  1.00  0.00    -0.000 C 
BRANCH  15  16
ATOM     16  C   UNL     1       4.127  -0.716  13.050  1.00  0.00    -0.000 C 
BRANCH  16  17
ATOM     17  C   UNL     1       3.761  -2.059  13.706  1.00  0.00    -0.000 C 
BRANCH  17  18
ATOM     18  C   UNL     1       2.391  -2.008  14.414  1.00  0.00    -0.000 C 
BRANCH  18  19
ATOM     19  C   UNL     1       2.061  -0.632  15.019  1.00  0.00    -0.003 C 
ATOM     20  C   UNL     1       0.626  -0.188  14.748  1.00  0.00     0.004 C 
ENDBRANCH  18  19
ENDBRANCH  17  18
ENDBRANCH  16  17
ENDBRANCH  15  16
ENDBRANCH  14  15
ENDBRANCH  13  14
ENDBRANCH  12  13
ENDBRANCH   1  12
TORSDOF 16
ENDMDL
MODEL 7
REMARK VINA RESULT:    -3.571      2.113      4.765
REMARK INTER + INTRA:          -9.317
REMARK INTER:                  -7.395
REMARK INTRA:                  -1.922
REMARK UNBOUND:                -2.406
REMARK SMILES CCCCCCCCCCCCCCCCCC(=O)[O-]
REMARK SMILES IDX 10 1 11 2 12 3 13 4 14 5 15 6 16 7 17 8 18 9 19 10 20 11
REMARK SMILES IDX 9 12 8 13 7 14 6 15 5 16 4 17 3 18 2 19 1 20
REMARK H PARENT
REMARK Flexibility Score: inf
ROOT
ATOM      1  C   UNL     1       5.749   1.731  13.363  1.00  0.00     0.000 C 
ENDROOT
BRANCH   1   2
ATOM      2  C   UNL     1       5.800   0.270  12.893  1.00  0.00     0.000 C 
BRANCH   2   3
ATOM      3  C   UNL     1       6.899  -0.540  13.597  1.00  0.00     0.000 C 
BRANCH   3   4
ATOM      4  C   UNL     1       6.397  -1.903  14.105  1.00  0.00     0.000 C 
BRANCH   4   5
ATOM      5  C   UNL     1       6.233  -1.940  15.632  1.00  0.00     0.000 C 
BRANCH   5   6
ATOM      6  C   UNL     1       4.971  -1.208  16.109  1.00  0.00     0.000 C 
BRANCH   6   7
ATOM      7  C   UNL     1       5.315   0.183  16.654  1.00  0.00     0.006 C 
BRANCH   7   8
ATOM      8  C   UNL     1       6.418   0.102  17.713  1.00  0.00     0.053 C 
BRANCH   8   9
ATOM      9  C   UNL     1       5.939  -0.646  18.918  1.00  0.00     0.041 C 
ATOM     10  O   UNL     1       6.490  -1.727  19.253  1.00  0.00    -0.550 OA
ATOM     11  O   UNL     1       4.857  -0.170  19.647  1.00  0.00    -0.550 OA
ENDBRANCH   8   9
ENDBRANCH   7   8
ENDBRANCH   6   7
ENDBRANCH   5   6
ENDBRANCH   4   5
ENDBRANCH   3   4
ENDBRANCH   2   3
ENDBRANCH   1   2
BRANCH   1  12
ATOM     12  C   UNL     1       4.468   2.419  12.875  1.00  0.00     0.000 C 
BRANCH  12  13
ATOM     13  C   UNL     1       4.282   3.782  13.549  1.00  0.00    -0.000 C 
BRANCH  13  14
ATOM     14  C   UNL     1       3.126   3.745  14.560  1.00  0.00    -0.000 C 
BRANCH  14  15
ATOM     15  C   UNL     1       3.361   2.703  15.674  1.00  0.00    -0.000 C 
BRANCH  15  16
ATOM     16  C   UNL     1       2.210   1.694  15.822  1.00  0.00    -0.000 C 
BRANCH  16  17
ATOM     17  C   UNL     1       2.146   0.687  14.660  1.00  0.00    -0.000 C 
BRANCH  17  18
ATOM     18  C   UNL     1       1.117  -0.434  14.916  1.00  0.00    -0.000 C 
BRANCH  18  19
ATOM     19  C   UNL     1       1.739  -1.841  14.965  1.00  0.00    -0.003 C 
ATOM     20  C   UNL     1       2.673  -2.123  13.791  1.00  0.00     0.004 C 
ENDBRANCH  18  19
ENDBRANCH  17  18
ENDBRANCH  16  17
ENDBRANCH  15  16
ENDBRANCH  14  15
ENDBRANCH  13  14
ENDBRANCH  12  13
ENDBRANCH   1  12
TORSDOF 16
ENDMDL
MODEL 8
REMARK VINA RESULT:    -3.434      0.998      4.777
REMARK INTER + INTRA:          -9.052
REMARK INTER:                  -7.439
REMARK INTRA:                  -1.613
REMARK UNBOUND:                -2.406
REMARK SMILES CCCCCCCCCCCCCCCCCC(=O)[O-]
REMARK SMILES IDX 10 1 11 2 12 3 13 4 14 5 15 6 16 7 17 8 18 9 19 10 20 11
REMARK SMILES IDX 9 12 8 13 7 14 6 15 5 16 4 17 3 18 2 19 1 20
REMARK H PARENT
REMARK Flexibility Score: inf
ROOT
ATOM      1  C   UNL     1       5.923  -0.423  18.725  1.00  0.00     0.000 C 
ENDROOT
BRANCH   1   2
ATOM      2  C   UNL     1       5.696  -1.760  18.004  1.00  0.00     0.000 C 
BRANCH   2   3
ATOM      3  C   UNL     1       6.478  -1.860  16.684  1.00  0.00     0.000 C 
BRANCH   3   4
ATOM      4  C   UNL     1       5.556  -1.979  15.458  1.00  0.00     0.000 C 
BRANCH   4   5
ATOM      5  C   UNL     1       6.192  -1.400  14.184  1.00  0.00     0.000 C 
BRANCH   5   6
ATOM      6  C   UNL     1       5.215  -1.367  13.000  1.00  0.00     0.000 C 
BRANCH   6   7
ATOM      7  C   UNL     1       3.800  -1.756  13.442  1.00  0.00     0.006 C 
BRANCH   7   8
ATOM      8  C   UNL     1       2.984  -0.519  13.830  1.00  0.00     0.053 C 
BRANCH   8   9
ATOM      9  C   UNL     1       1.854  -0.895  14.736  1.00  0.00     0.041 C 
ATOM     10  O   UNL     1       1.953  -1.896  15.493  1.00  0.00    -0.550 OA
ATOM     11  O   UNL     1       0.673  -0.164  14.714  1.00  0.00    -0.550 OA
ENDBRANCH   8   9
ENDBRANCH   7   8
ENDBRANCH   6   7
ENDBRANCH   5   6
ENDBRANCH   4   5
ENDBRANCH   3   4
ENDBRANCH   2   3
ENDBRANCH   1   2
BRANCH   1  12
ATOM     12  C   UNL     1       4.592   0.179  19.191  1.00  0.00     0.000 C 
BRANCH  12  13
ATOM     13  C   UNL     1       4.393   1.587  18.619  1.00  0.00    -0.000 C 
BRANCH  13  14
ATOM     14  C   UNL     1       3.450   1.561  17.406  1.00  0.00    -0.000 C 
BRANCH  14  15
ATOM     15  C   UNL     1       4.076   2.239  16.168  1.00  0.00    -0.000 C 
BRANCH  15  16
ATOM     16  C   UNL     1       3.040   2.664  15.113  1.00  0.00    -0.000 C 
BRANCH  16  17
ATOM     17  C   UNL     1       3.422   3.968  14.393  1.00  0.00    -0.000 C 
BRANCH  17  18
ATOM     18  C   UNL     1       3.941   3.714  12.962  1.00  0.00    -0.000 C 
BRANCH  18  19
ATOM     19  C   UNL     1       5.460   3.476  12.892  1.00  0.00    -0.003 C 
ATOM     20  C   UNL     1       5.833   1.996  12.879  1.00  0.00     0.004 C 
ENDBRANCH  18  19
ENDBRANCH  17  18
ENDBRANCH  16  17
ENDBRANCH  15  16
ENDBRANCH  14  15
ENDBRANCH  13  14
ENDBRANCH  12  13
ENDBRANCH   1  12
TORSDOF 16
ENDMDL
MODEL 9
REMARK VINA RESULT:    -3.382      1.285      5.152
REMARK INTER + INTRA:          -8.952
REMARK INTER:                  -6.637
REMARK INTRA:                  -2.314
REMARK UNBOUND:                -2.406
REMARK SMILES CCCCCCCCCCCCCCCCCC(=O)[O-]
REMARK SMILES IDX 10 1 11 2 12 3 13 4 14 5 15 6 16 7 17 8 18 9 19 10 20 11
REMARK SMILES IDX 9 12 8 13 7 14 6 15 5 16 4 17 3 18 2 19 1 20
REMARK H PARENT
REMARK Flexibility Score: inf
ROOT
ATOM      1  C   UNL     1       6.482  -0.884  17.209  1.00  0.00     0.000 C 
ENDROOT
BRANCH   1   2
ATOM      2  C   UNL     1       6.169  -0.565  18.678  1.00  0.00     0.000 C 
BRANCH   2   3
ATOM      3  C   UNL     1       4.683  -0.255  18.913  1.00  0.00     0.000 C 
BRANCH   3   4
ATOM      4  C   UNL     1       4.413   1.247  19.104  1.00  0.00     0.000 C 
BRANCH   4   5
ATOM      5  C   UNL     1       4.104   1.964  17.780  1.00  0.00     0.000 C 
BRANCH   5   6
ATOM      6  C   UNL     1       3.767   0.987  16.644  1.00  0.00     0.000 C 
BRANCH   6   7
ATOM      7  C   UNL     1       2.484   1.407  15.919  1.00  0.00     0.006 C 
BRANCH   7   8
ATOM      8  C   UNL     1       2.280   0.588  14.641  1.00  0.00     0.053 C 
BRANCH   8   9
ATOM      9  C   UNL     1       1.300  -0.519  14.874  1.00  0.00     0.041 C 
ATOM     10  O   UNL     1       1.666  -1.720  14.783  1.00  0.00    -0.550 OA
ATOM     11  O   UNL     1      -0.028  -0.224  15.154  1.00  0.00    -0.550 OA
ENDBRANCH   8   9
ENDBRANCH   7   8
ENDBRANCH   6   7
ENDBRANCH   5   6
ENDBRANCH   4   5
ENDBRANCH   3   4
ENDBRANCH   2   3
ENDBRANCH   1   2
BRANCH   1  12
ATOM     12  C   UNL     1       5.676  -2.098  16.730  1.00  0.00     0.000 C 
BRANCH  12  13
ATOM     13  C   UNL     1       5.368  -2.001  15.232  1.00  0.00    -0.000 C 
BRANCH  13  14
ATOM     14  C   UNL     1       6.657  -2.063  14.399  1.00  0.00    -0.000 C 
BRANCH  14  15
ATOM     15  C   UNL     1       6.640  -1.062  13.224  1.00  0.00    -0.000 C 
BRANCH  15  16
ATOM     16  C   UNL     1       5.490  -0.043  13.306  1.00  0.00    -0.000 C 
BRANCH  16  17
ATOM     17  C   UNL     1       5.974   1.377  13.646  1.00  0.00    -0.000 C 
BRANCH  17  18
ATOM     18  C   UNL     1       5.069   2.465  13.029  1.00  0.00    -0.000 C 
BRANCH  18  19
ATOM     19  C   UNL     1       4.661   3.564  14.026  1.00  0.00    -0.003 C 
ATOM     20  C   UNL     1       3.259   4.111  13.770  1.00  0.00     0.004 C 
ENDBRANCH  18  19
ENDBRANCH  17  18
ENDBRANCH  16  17
ENDBRANCH  15  16
ENDBRANCH  14  15
ENDBRANCH  13  14
ENDBRANCH  12  13
ENDBRANCH   1  12
TORSDOF 16
ENDMDL
