MODEL 1
REMARK VINA RESULT:    -6.994      0.000      0.000
REMARK INTER + INTRA:          -8.488
REMARK INTER:                  -8.221
REMARK INTRA:                  -0.267
REMARK UNBOUND:                -0.267
REMARK SMILES O=c1cc(-c2ccc(O)c(O)c2)oc2cc(O)cc(O)c12
REMARK SMILES IDX 4 1 3 2 2 3 1 4 21 5 19 6 18 7 16 8 15 9 14 10 13 11 5 12
REMARK SMILES IDX 6 13 7 14 8 15 12 16 10 17 9 18 11 20 20 22 17 24
REMARK H PARENT 9 19 11 21 20 23 17 25
REMARK Flexibility Score: inf
ROOT
ATOM      1  C   UNL     1      17.601  -1.290  10.546  1.00  0.00     0.138 A 
ATOM      2  C   UNL     1      16.409  -1.325  11.286  1.00  0.00     0.100 A 
ATOM      3  C   UNL     1      15.218  -1.691  10.656  1.00  0.00     0.197 A 
ATOM      4  O   UNL     1      14.153  -1.720  11.330  1.00  0.00    -0.289 OA
ATOM      5  C   UNL     1      15.230  -2.024   9.286  1.00  0.00     0.107 A 
ATOM      6  C   UNL     1      14.070  -2.405   8.572  1.00  0.00     0.134 A 
ATOM      7  C   UNL     1      14.167  -2.727   7.210  1.00  0.00     0.093 A 
ATOM      8  C   UNL     1      15.398  -2.677   6.552  1.00  0.00     0.123 A 
ATOM      9  C   UNL     1      16.549  -2.302   7.254  1.00  0.00     0.094 A 
ATOM     10  C   UNL     1      16.473  -1.976   8.612  1.00  0.00     0.146 A 
ATOM     11  O   UNL     1      17.579  -1.621   9.255  1.00  0.00    -0.456 OA
ENDROOT
BRANCH   1  12
ATOM     12  C   UNL     1      18.896  -0.910  11.163  1.00  0.00     0.021 A 
ATOM     13  C   UNL     1      19.588   0.214  10.682  1.00  0.00     0.016 A 
ATOM     14  C   UNL     1      20.805   0.598  11.251  1.00  0.00     0.051 A 
ATOM     15  C   UNL     1      21.347  -0.129  12.318  1.00  0.00     0.157 A 
ATOM     16  C   UNL     1      19.440  -1.629  12.246  1.00  0.00     0.062 A 
ATOM     17  C   UNL     1      20.658  -1.246  12.819  1.00  0.00     0.158 A 
BRANCH  15  18
ATOM     18  O   UNL     1      22.562   0.255  12.883  1.00  0.00    -0.504 OA
ATOM     19  H   UNL     1      22.767   0.092  13.862  1.00  0.00     0.293 HD
ENDBRANCH  15  18
BRANCH  17  20
ATOM     20  O   UNL     1      21.164  -1.984  13.889  1.00  0.00    -0.504 OA
ATOM     21  H   UNL     1      22.107  -1.852  14.235  1.00  0.00     0.293 HD
ENDBRANCH  17  20
ENDBRANCH   1  12
BRANCH   6  22
ATOM     22  O   UNL     1      12.827  -2.464   9.202  1.00  0.00    -0.507 OA
ATOM     23  H   UNL     1      12.070  -1.838   8.948  1.00  0.00     0.293 HD
ENDBRANCH   6  22
BRANCH   8  24
ATOM     24  O   UNL     1      15.467  -3.003   5.199  1.00  0.00    -0.508 OA
ATOM     25  H   UNL     1      15.815  -2.344   4.513  1.00  0.00     0.293 HD
ENDBRANCH   8  24
TORSDOF 5
ENDMDL
MODEL 2
REMARK VINA RESULT:    -6.614      3.659      6.096
REMARK INTER + INTRA:          -8.041
REMARK INTER:                  -7.723
REMARK INTRA:                  -0.318
REMARK UNBOUND:                -0.267
REMARK SMILES O=c1cc(-c2ccc(O)c(O)c2)oc2cc(O)cc(O)c12
REMARK SMILES IDX 4 1 3 2 2 3 1 4 21 5 19 6 18 7 16 8 15 9 14 10 13 11 5 12
REMARK SMILES IDX 6 13 7 14 8 15 12 16 10 17 9 18 11 20 20 22 17 24
REMARK H PARENT 9 19 11 21 20 23 17 25
REMARK Flexibility Score: inf
ROOT
ATOM      1  C   UNL     1      13.759  -1.973  10.986  1.00  0.00     0.138 A 
ATOM      2  C   UNL     1      15.124  -1.724  10.769  1.00  0.00     0.100 A 
ATOM      3  C   UNL     1      15.641  -1.810   9.475  1.00  0.00     0.197 A 
ATOM      4  O   UNL     1      16.867  -1.585   9.290  1.00  0.00    -0.289 OA
ATOM      5  C   UNL     1      14.785  -2.142   8.405  1.00  0.00     0.107 A 
ATOM      6  C   UNL     1      15.227  -2.251   7.065  1.00  0.00     0.134 A 
ATOM      7  C   UNL     1      14.310  -2.580   6.056  1.00  0.00     0.093 A 
ATOM      8  C   UNL     1      12.965  -2.800   6.359  1.00  0.00     0.123 A 
ATOM      9  C   UNL     1      12.522  -2.693   7.682  1.00  0.00     0.094 A 
ATOM     10  C   UNL     1      13.421  -2.368   8.703  1.00  0.00     0.146 A 
ATOM     11  O   UNL     1      12.976  -2.274   9.952  1.00  0.00    -0.456 OA
ENDROOT
BRANCH   1  12
ATOM     12  C   UNL     1      13.155  -1.894  12.340  1.00  0.00     0.021 A 
ATOM     13  C   UNL     1      13.956  -1.527  13.435  1.00  0.00     0.016 A 
ATOM     14  C   UNL     1      13.410  -1.438  14.718  1.00  0.00     0.051 A 
ATOM     15  C   UNL     1      12.052  -1.704  14.927  1.00  0.00     0.157 A 
ATOM     16  C   UNL     1      11.786  -2.147  12.556  1.00  0.00     0.062 A 
ATOM     17  C   UNL     1      11.236  -2.057  13.840  1.00  0.00     0.158 A 
BRANCH  15  18
ATOM     18  O   UNL     1      11.510  -1.615  16.209  1.00  0.00    -0.504 OA
ATOM     19  H   UNL     1      12.090  -1.428  17.018  1.00  0.00     0.293 HD
ENDBRANCH  15  18
BRANCH  17  20
ATOM     20  O   UNL     1       9.876  -2.316  14.013  1.00  0.00    -0.504 OA
ATOM     21  H   UNL     1       9.517  -2.769  14.845  1.00  0.00     0.293 HD
ENDBRANCH  17  20
ENDBRANCH   1  12
BRANCH   6  22
ATOM     22  O   UNL     1      16.565  -2.037   6.731  1.00  0.00    -0.507 OA
ATOM     23  H   UNL     1      17.321  -2.450   7.265  1.00  0.00     0.293 HD
ENDBRANCH   6  22
BRANCH   8  24
ATOM     24  O   UNL     1      12.075  -3.125   5.338  1.00  0.00    -0.508 OA
ATOM     25  H   UNL     1      12.390  -3.260   4.385  1.00  0.00     0.293 HD
ENDBRANCH   8  24
TORSDOF 5
ENDMDL
MODEL 3
REMARK VINA RESULT:    -6.605      3.479      7.045
REMARK INTER + INTRA:          -8.030
REMARK INTER:                  -7.714
REMARK INTRA:                  -0.316
REMARK UNBOUND:                -0.267
REMARK SMILES O=c1cc(-c2ccc(O)c(O)c2)oc2cc(O)cc(O)c12
REMARK SMILES IDX 4 1 3 2 2 3 1 4 21 5 19 6 18 7 16 8 15 9 14 10 13 11 5 12
REMARK SMILES IDX 6 13 7 14 8 15 12 16 10 17 9 18 11 20 20 22 17 24
REMARK H PARENT 9 19 11 21 20 23 17 25
REMARK Flexibility Score: inf
ROOT
ATOM      1  C   UNL     1      14.450  -2.109  10.227  1.00  0.00     0.138 A 
ATOM      2  C   UNL     1      15.484  -1.759  11.110  1.00  0.00     0.100 A 
ATOM      3  C   UNL     1      15.198  -1.574  12.465  1.00  0.00     0.197 A 
ATOM      4  O   UNL     1      16.133  -1.261  13.249  1.00  0.00    -0.289 OA
ATOM      5  C   UNL     1      13.877  -1.745  12.926  1.00  0.00     0.107 A 
ATOM      6  C   UNL     1      13.503  -1.576  14.280  1.00  0.00     0.134 A 
ATOM      7  C   UNL     1      12.166  -1.770  14.661  1.00  0.00     0.093 A 
ATOM      8  C   UNL     1      11.202  -2.130  13.717  1.00  0.00     0.123 A 
ATOM      9  C   UNL     1      11.567  -2.299  12.377  1.00  0.00     0.094 A 
ATOM     10  C   UNL     1      12.893  -2.109  11.977  1.00  0.00     0.146 A 
ATOM     11  O   UNL     1      13.214  -2.273  10.698  1.00  0.00    -0.456 OA
ENDROOT
BRANCH   1  12
ATOM     12  C   UNL     1      14.695  -2.321   8.779  1.00  0.00     0.021 A 
ATOM     13  C   UNL     1      16.014  -2.459   8.314  1.00  0.00     0.016 A 
ATOM     14  C   UNL     1      16.272  -2.667   6.956  1.00  0.00     0.051 A 
ATOM     15  C   UNL     1      15.216  -2.750   6.041  1.00  0.00     0.157 A 
ATOM     16  C   UNL     1      13.636  -2.419   7.855  1.00  0.00     0.062 A 
ATOM     17  C   UNL     1      13.892  -2.629   6.495  1.00  0.00     0.158 A 
BRANCH  15  18
ATOM     18  O   UNL     1      15.476  -2.956   4.687  1.00  0.00    -0.504 OA
ATOM     19  H   UNL     1      14.727  -3.072   4.015  1.00  0.00     0.293 HD
ENDBRANCH  15  18
BRANCH  17  20
ATOM     20  O   UNL     1      12.817  -2.719   5.610  1.00  0.00    -0.504 OA
ATOM     21  H   UNL     1      12.737  -2.120   4.798  1.00  0.00     0.293 HD
ENDBRANCH  17  20
ENDBRANCH   1  12
BRANCH   6  22
ATOM     22  O   UNL     1      14.444  -1.217  15.246  1.00  0.00    -0.507 OA
ATOM     23  H   UNL     1      15.408  -1.525  15.191  1.00  0.00     0.293 HD
ENDBRANCH   6  22
BRANCH   8  24
ATOM     24  O   UNL     1       9.882  -2.317  14.121  1.00  0.00    -0.508 OA
ATOM     25  H   UNL     1       9.130  -1.747  13.754  1.00  0.00     0.293 HD
ENDBRANCH   8  24
TORSDOF 5
ENDMDL
MODEL 4
REMARK VINA RESULT:    -6.592      3.880      7.682
REMARK INTER + INTRA:          -8.016
REMARK INTER:                  -7.730
REMARK INTRA:                  -0.285
REMARK UNBOUND:                -0.267
REMARK SMILES O=c1cc(-c2ccc(O)c(O)c2)oc2cc(O)cc(O)c12
REMARK SMILES IDX 4 1 3 2 2 3 1 4 21 5 19 6 18 7 16 8 15 9 14 10 13 11 5 12
REMARK SMILES IDX 6 13 7 14 8 15 12 16 10 17 9 18 11 20 20 22 17 24
REMARK H PARENT 9 19 11 21 20 23 17 25
REMARK Flexibility Score: inf
ROOT
ATOM      1  C   UNL     1      16.500  -0.649  14.030  1.00  0.00     0.138 A 
ATOM      2  C   UNL     1      16.914   0.317  14.962  1.00  0.00     0.100 A 
ATOM      3  C   UNL     1      18.278   0.541  15.159  1.00  0.00     0.197 A 
ATOM      4  O   UNL     1      18.639   1.410  15.997  1.00  0.00    -0.289 OA
ATOM      5  C   UNL     1      19.219  -0.203  14.419  1.00  0.00     0.107 A 
ATOM      6  C   UNL     1      20.617  -0.039  14.559  1.00  0.00     0.134 A 
ATOM      7  C   UNL     1      21.489  -0.815  13.780  1.00  0.00     0.093 A 
ATOM      8  C   UNL     1      20.991  -1.747  12.867  1.00  0.00     0.123 A 
ATOM      9  C   UNL     1      19.608  -1.912  12.724  1.00  0.00     0.094 A 
ATOM     10  C   UNL     1      18.723  -1.149  13.492  1.00  0.00     0.146 A 
ATOM     11  O   UNL     1      17.415  -1.327  13.340  1.00  0.00    -0.456 OA
ENDROOT
BRANCH   1  12
ATOM     12  C   UNL     1      15.064  -0.927  13.777  1.00  0.00     0.021 A 
ATOM     13  C   UNL     1      14.645  -1.272  12.481  1.00  0.00     0.016 A 
ATOM     14  C   UNL     1      13.300  -1.548  12.218  1.00  0.00     0.051 A 
ATOM     15  C   UNL     1      12.353  -1.492  13.248  1.00  0.00     0.157 A 
ATOM     16  C   UNL     1      14.108  -0.887  14.812  1.00  0.00     0.062 A 
ATOM     17  C   UNL     1      12.761  -1.164  14.551  1.00  0.00     0.158 A 
BRANCH  15  18
ATOM     18  O   UNL     1      11.012  -1.766  12.982  1.00  0.00    -0.504 OA
ATOM     19  H   UNL     1      10.267  -1.216  13.392  1.00  0.00     0.293 HD
ENDBRANCH  15  18
BRANCH  17  20
ATOM     20  O   UNL     1      11.844  -1.113  15.601  1.00  0.00    -0.504 OA
ATOM     21  H   UNL     1      10.863  -0.916  15.448  1.00  0.00     0.293 HD
ENDBRANCH  17  20
ENDBRANCH   1  12
BRANCH   6  22
ATOM     22  O   UNL     1      21.145   0.884  15.463  1.00  0.00    -0.507 OA
ATOM     23  H   UNL     1      20.922   0.850  16.451  1.00  0.00     0.293 HD
ENDBRANCH   6  22
BRANCH   8  24
ATOM     24  O   UNL     1      21.878  -2.504  12.105  1.00  0.00    -0.508 OA
ATOM     25  H   UNL     1      21.625  -3.420  11.753  1.00  0.00     0.293 HD
ENDBRANCH   8  24
TORSDOF 5
ENDMDL
MODEL 5
REMARK VINA RESULT:    -6.458      1.292      2.901
REMARK INTER + INTRA:          -7.857
REMARK INTER:                  -7.579
REMARK INTRA:                  -0.279
REMARK UNBOUND:                -0.267
REMARK SMILES O=c1cc(-c2ccc(O)c(O)c2)oc2cc(O)cc(O)c12
REMARK SMILES IDX 4 1 3 2 2 3 1 4 21 5 19 6 18 7 16 8 15 9 14 10 13 11 5 12
REMARK SMILES IDX 6 13 7 14 8 15 12 16 10 17 9 18 11 20 20 22 17 24
REMARK H PARENT 9 19 11 21 20 23 17 25
REMARK Flexibility Score: inf
ROOT
ATOM      1  C   UNL     1      17.610  -1.266  10.602  1.00  0.00     0.138 A 
ATOM      2  C   UNL     1      17.488  -1.642   9.255  1.00  0.00     0.100 A 
ATOM      3  C   UNL     1      16.228  -1.955   8.740  1.00  0.00     0.197 A 
ATOM      4  O   UNL     1      16.130  -2.291   7.529  1.00  0.00    -0.289 OA
ATOM      5  C   UNL     1      15.097  -1.885   9.578  1.00  0.00     0.107 A 
ATOM      6  C   UNL     1      13.787  -2.186   9.137  1.00  0.00     0.134 A 
ATOM      7  C   UNL     1      12.712  -2.087  10.033  1.00  0.00     0.093 A 
ATOM      8  C   UNL     1      12.922  -1.693  11.357  1.00  0.00     0.123 A 
ATOM      9  C   UNL     1      14.216  -1.393  11.798  1.00  0.00     0.094 A 
ATOM     10  C   UNL     1      15.301  -1.488  10.921  1.00  0.00     0.146 A 
ATOM     11  O   UNL     1      16.519  -1.200  11.365  1.00  0.00    -0.456 OA
ENDROOT
BRANCH   1  12
ATOM     12  C   UNL     1      18.922  -0.921  11.203  1.00  0.00     0.021 A 
ATOM     13  C   UNL     1      19.667   0.146  10.672  1.00  0.00     0.016 A 
ATOM     14  C   UNL     1      20.902   0.497  11.224  1.00  0.00     0.051 A 
ATOM     15  C   UNL     1      21.409  -0.207  12.323  1.00  0.00     0.157 A 
ATOM     16  C   UNL     1      19.433  -1.616  12.318  1.00  0.00     0.062 A 
ATOM     17  C   UNL     1      20.669  -1.265  12.874  1.00  0.00     0.158 A 
BRANCH  15  18
ATOM     18  O   UNL     1      22.642   0.144  12.872  1.00  0.00    -0.504 OA
ATOM     19  H   UNL     1      22.721   0.857  13.588  1.00  0.00     0.293 HD
ENDBRANCH  15  18
BRANCH  17  20
ATOM     20  O   UNL     1      21.141  -1.978  13.976  1.00  0.00    -0.504 OA
ATOM     21  H   UNL     1      20.644  -2.775  14.354  1.00  0.00     0.293 HD
ENDBRANCH  17  20
ENDBRANCH   1  12
BRANCH   6  22
ATOM     22  O   UNL     1      13.547  -2.582   7.821  1.00  0.00    -0.507 OA
ATOM     23  H   UNL     1      12.971  -3.387   7.603  1.00  0.00     0.293 HD
ENDBRANCH   6  22
BRANCH   8  24
ATOM     24  O   UNL     1      11.838  -1.602  12.226  1.00  0.00    -0.508 OA
ATOM     25  H   UNL     1      10.914  -1.918  11.955  1.00  0.00     0.293 HD
ENDBRANCH   8  24
TORSDOF 5
ENDMDL
MODEL 6
REMARK VINA RESULT:    -6.411      3.228      6.987
REMARK INTER + INTRA:          -7.802
REMARK INTER:                  -7.505
REMARK INTRA:                  -0.297
REMARK UNBOUND:                -0.267
REMARK SMILES O=c1cc(-c2ccc(O)c(O)c2)oc2cc(O)cc(O)c12
REMARK SMILES IDX 4 1 3 2 2 3 1 4 21 5 19 6 18 7 16 8 15 9 14 10 13 11 5 12
REMARK SMILES IDX 6 13 7 14 8 15 12 16 10 17 9 18 11 20 20 22 17 24
REMARK H PARENT 9 19 11 21 20 23 17 25
REMARK Flexibility Score: inf
ROOT
ATOM      1  C   UNL     1      14.275  -1.953  10.409  1.00  0.00     0.138 A 
ATOM      2  C   UNL     1      12.960  -1.776  10.866  1.00  0.00     0.100 A 
ATOM      3  C   UNL     1      12.730  -1.530  12.221  1.00  0.00     0.197 A 
ATOM      4  O   UNL     1      11.545  -1.372  12.621  1.00  0.00    -0.289 OA
ATOM      5  C   UNL     1      13.822  -1.459  13.110  1.00  0.00     0.107 A 
ATOM      6  C   UNL     1      13.677  -1.214  14.495  1.00  0.00     0.134 A 
ATOM      7  C   UNL     1      14.816  -1.153  15.313  1.00  0.00     0.093 A 
ATOM      8  C   UNL     1      16.091  -1.330  14.772  1.00  0.00     0.123 A 
ATOM      9  C   UNL     1      16.240  -1.571  13.402  1.00  0.00     0.094 A 
ATOM     10  C   UNL     1      15.118  -1.637  12.571  1.00  0.00     0.146 A 
ATOM     11  O   UNL     1      15.285  -1.870  11.274  1.00  0.00    -0.456 OA
ENDROOT
BRANCH   1  12
ATOM     12  C   UNL     1      14.579  -2.216   8.980  1.00  0.00     0.021 A 
ATOM     13  C   UNL     1      15.916  -2.363   8.573  1.00  0.00     0.016 A 
ATOM     14  C   UNL     1      16.229  -2.619   7.236  1.00  0.00     0.051 A 
ATOM     15  C   UNL     1      15.210  -2.742   6.283  1.00  0.00     0.157 A 
ATOM     16  C   UNL     1      13.559  -2.354   8.018  1.00  0.00     0.062 A 
ATOM     17  C   UNL     1      13.869  -2.612   6.678  1.00  0.00     0.158 A 
BRANCH  15  18
ATOM     18  O   UNL     1      15.526  -2.995   4.949  1.00  0.00    -0.504 OA
ATOM     19  H   UNL     1      14.819  -3.284   4.282  1.00  0.00     0.293 HD
ENDBRANCH  15  18
BRANCH  17  20
ATOM     20  O   UNL     1      12.831  -2.741   5.756  1.00  0.00    -0.504 OA
ATOM     21  H   UNL     1      13.003  -2.853   4.764  1.00  0.00     0.293 HD
ENDBRANCH  17  20
ENDBRANCH   1  12
BRANCH   6  22
ATOM     22  O   UNL     1      12.416  -1.034  15.065  1.00  0.00    -0.507 OA
ATOM     23  H   UNL     1      12.051  -0.111  15.271  1.00  0.00     0.293 HD
ENDBRANCH   6  22
BRANCH   8  24
ATOM     24  O   UNL     1      17.205  -1.263  15.606  1.00  0.00    -0.508 OA
ATOM     25  H   UNL     1      17.185  -1.636  16.547  1.00  0.00     0.293 HD
ENDBRANCH   8  24
TORSDOF 5
ENDMDL
MODEL 7
REMARK VINA RESULT:    -6.350      4.100      7.853
REMARK INTER + INTRA:          -7.731
REMARK INTER:                  -7.467
REMARK INTRA:                  -0.264
REMARK UNBOUND:                -0.267
REMARK SMILES O=c1cc(-c2ccc(O)c(O)c2)oc2cc(O)cc(O)c12
REMARK SMILES IDX 4 1 3 2 2 3 1 4 21 5 19 6 18 7 16 8 15 9 14 10 13 11 5 12
REMARK SMILES IDX 6 13 7 14 8 15 12 16 10 17 9 18 11 20 20 22 17 24
REMARK H PARENT 9 19 11 21 20 23 17 25
REMARK Flexibility Score: inf
ROOT
ATOM      1  C   UNL     1      17.189  -0.837  14.125  1.00  0.00     0.138 A 
ATOM      2  C   UNL     1      17.579  -1.438  12.917  1.00  0.00     0.100 A 
ATOM      3  C   UNL     1      18.765  -1.034  12.300  1.00  0.00     0.197 A 
ATOM      4  O   UNL     1      19.105  -1.580  11.216  1.00  0.00    -0.289 OA
ATOM      5  C   UNL     1      19.555  -0.033  12.899  1.00  0.00     0.107 A 
ATOM      6  C   UNL     1      20.768   0.433  12.340  1.00  0.00     0.134 A 
ATOM      7  C   UNL     1      21.500   1.430  13.002  1.00  0.00     0.093 A 
ATOM      8  C   UNL     1      21.045   1.966  14.209  1.00  0.00     0.123 A 
ATOM      9  C   UNL     1      19.846   1.507  14.767  1.00  0.00     0.094 A 
ATOM     10  C   UNL     1      19.101   0.516  14.121  1.00  0.00     0.146 A 
ATOM     11  O   UNL     1      17.965   0.099  14.670  1.00  0.00    -0.456 OA
ENDROOT
BRANCH   1  12
ATOM     12  C   UNL     1      15.941  -1.227  14.826  1.00  0.00     0.021 A 
ATOM     13  C   UNL     1      15.997  -2.176  15.861  1.00  0.00     0.016 A 
ATOM     14  C   UNL     1      14.837  -2.554  16.543  1.00  0.00     0.051 A 
ATOM     15  C   UNL     1      13.603  -1.983  16.209  1.00  0.00     0.157 A 
ATOM     16  C   UNL     1      14.698  -0.647  14.504  1.00  0.00     0.062 A 
ATOM     17  C   UNL     1      13.535  -1.023  15.186  1.00  0.00     0.158 A 
BRANCH  15  18
ATOM     18  O   UNL     1      12.447  -2.364  16.890  1.00  0.00    -0.504 OA
ATOM     19  H   UNL     1      12.209  -3.339  17.026  1.00  0.00     0.293 HD
ENDBRANCH  15  18
BRANCH  17  20
ATOM     20  O   UNL     1      12.323  -0.427  14.838  1.00  0.00    -0.504 OA
ATOM     21  H   UNL     1      11.432  -0.820  15.114  1.00  0.00     0.293 HD
ENDBRANCH  17  20
ENDBRANCH   1  12
BRANCH   6  22
ATOM     22  O   UNL     1      21.249  -0.083  11.136  1.00  0.00    -0.507 OA
ATOM     23  H   UNL     1      20.644  -0.216  10.334  1.00  0.00     0.293 HD
ENDBRANCH   6  22
BRANCH   8  24
ATOM     24  O   UNL     1      21.791   2.954  14.847  1.00  0.00    -0.508 OA
ATOM     25  H   UNL     1      21.381   3.555  15.552  1.00  0.00     0.293 HD
ENDBRANCH   8  24
TORSDOF 5
ENDMDL
MODEL 8
REMARK VINA RESULT:    -6.328      3.895      7.482
REMARK INTER + INTRA:          -7.704
REMARK INTER:                  -7.440
REMARK INTRA:                  -0.265
REMARK UNBOUND:                -0.267
REMARK SMILES O=c1cc(-c2ccc(O)c(O)c2)oc2cc(O)cc(O)c12
REMARK SMILES IDX 4 1 3 2 2 3 1 4 21 5 19 6 18 7 16 8 15 9 14 10 13 11 5 12
REMARK SMILES IDX 6 13 7 14 8 15 12 16 10 17 9 18 11 20 20 22 17 24
REMARK H PARENT 9 19 11 21 20 23 17 25
REMARK Flexibility Score: inf
ROOT
ATOM      1  C   UNL     1      16.558  -1.723  14.003  1.00  0.00     0.138 A 
ATOM      2  C   UNL     1      17.269  -2.020  15.177  1.00  0.00     0.100 A 
ATOM      3  C   UNL     1      18.657  -1.869  15.195  1.00  0.00     0.197 A 
ATOM      4  O   UNL     1      19.287  -2.138  16.254  1.00  0.00    -0.289 OA
ATOM      5  C   UNL     1      19.324  -1.419  14.038  1.00  0.00     0.107 A 
ATOM      6  C   UNL     1      20.725  -1.240  13.972  1.00  0.00     0.134 A 
ATOM      7  C   UNL     1      21.313  -0.783  12.783  1.00  0.00     0.093 A 
ATOM      8  C   UNL     1      20.527  -0.499  11.664  1.00  0.00     0.123 A 
ATOM      9  C   UNL     1      19.140  -0.673  11.724  1.00  0.00     0.094 A 
ATOM     10  C   UNL     1      18.536  -1.130  12.899  1.00  0.00     0.146 A 
ATOM     11  O   UNL     1      17.217  -1.289  12.930  1.00  0.00    -0.456 OA
ENDROOT
BRANCH   1  12
ATOM     12  C   UNL     1      15.082  -1.862  13.926  1.00  0.00     0.021 A 
ATOM     13  C   UNL     1      14.525  -2.929  13.201  1.00  0.00     0.016 A 
ATOM     14  C   UNL     1      13.139  -3.088  13.120  1.00  0.00     0.051 A 
ATOM     15  C   UNL     1      12.286  -2.187  13.769  1.00  0.00     0.157 A 
ATOM     16  C   UNL     1      14.218  -0.967  14.589  1.00  0.00     0.062 A 
ATOM     17  C   UNL     1      12.829  -1.125  14.510  1.00  0.00     0.158 A 
BRANCH  15  18
ATOM     18  O   UNL     1      10.903  -2.347  13.685  1.00  0.00    -0.504 OA
ATOM     19  H   UNL     1      10.294  -2.108  14.458  1.00  0.00     0.293 HD
ENDBRANCH  15  18
BRANCH  17  20
ATOM     20  O   UNL     1      12.006  -0.218  15.179  1.00  0.00    -0.504 OA
ATOM     21  H   UNL     1      11.132   0.106  14.785  1.00  0.00     0.293 HD
ENDBRANCH  17  20
ENDBRANCH   1  12
BRANCH   6  22
ATOM     22  O   UNL     1      21.537  -1.515  15.074  1.00  0.00    -0.507 OA
ATOM     23  H   UNL     1      22.455  -1.931  14.969  1.00  0.00     0.293 HD
ENDBRANCH   6  22
BRANCH   8  24
ATOM     24  O   UNL     1      21.134  -0.045  10.496  1.00  0.00    -0.508 OA
ATOM     25  H   UNL     1      21.234   0.945  10.301  1.00  0.00     0.293 HD
ENDBRANCH   8  24
TORSDOF 5
ENDMDL
MODEL 9
REMARK VINA RESULT:    -6.244      2.517      3.562
REMARK INTER + INTRA:          -7.606
REMARK INTER:                  -7.288
REMARK INTRA:                  -0.318
REMARK UNBOUND:                -0.267
REMARK SMILES O=c1cc(-c2ccc(O)c(O)c2)oc2cc(O)cc(O)c12
REMARK SMILES IDX 4 1 3 2 2 3 1 4 21 5 19 6 18 7 16 8 15 9 14 10 13 11 5 12
REMARK SMILES IDX 6 13 7 14 8 15 12 16 10 17 9 18 11 20 20 22 17 24
REMARK H PARENT 9 19 11 21 20 23 17 25
REMARK Flexibility Score: inf
ROOT
ATOM      1  C   UNL     1      16.679  -1.293  13.729  1.00  0.00     0.138 A 
ATOM      2  C   UNL     1      15.594  -1.083  14.596  1.00  0.00     0.100 A 
ATOM      3  C   UNL     1      14.295  -1.090  14.085  1.00  0.00     0.197 A 
ATOM      4  O   UNL     1      13.328  -0.901  14.872  1.00  0.00    -0.289 OA
ATOM      5  C   UNL     1      14.090  -1.311  12.709  1.00  0.00     0.107 A 
ATOM      6  C   UNL     1      12.808  -1.333  12.111  1.00  0.00     0.134 A 
ATOM      7  C   UNL     1      12.688  -1.565  10.732  1.00  0.00     0.093 A 
ATOM      8  C   UNL     1      13.821  -1.776   9.944  1.00  0.00     0.123 A 
ATOM      9  C   UNL     1      15.092  -1.756  10.530  1.00  0.00     0.094 A 
ATOM     10  C   UNL     1      15.232  -1.525  11.902  1.00  0.00     0.146 A 
ATOM     11  O   UNL     1      16.449  -1.509  12.435  1.00  0.00    -0.456 OA
ENDROOT
BRANCH   1  12
ATOM     12  C   UNL     1      18.081  -1.298  14.216  1.00  0.00     0.021 A 
ATOM     13  C   UNL     1      18.348  -0.975  15.558  1.00  0.00     0.016 A 
ATOM     14  C   UNL     1      19.658  -0.980  16.044  1.00  0.00     0.051 A 
ATOM     15  C   UNL     1      20.723  -1.318  15.199  1.00  0.00     0.157 A 
ATOM     16  C   UNL     1      19.156  -1.650  13.376  1.00  0.00     0.062 A 
ATOM     17  C   UNL     1      20.469  -1.657  13.861  1.00  0.00     0.158 A 
BRANCH  15  18
ATOM     18  O   UNL     1      22.030  -1.321  15.686  1.00  0.00    -0.504 OA
ATOM     19  H   UNL     1      22.332  -1.985  16.390  1.00  0.00     0.293 HD
ENDBRANCH  15  18
BRANCH  17  20
ATOM     20  O   UNL     1      21.506  -2.011  12.998  1.00  0.00    -0.504 OA
ATOM     21  H   UNL     1      21.543  -1.686  12.039  1.00  0.00     0.293 HD
ENDBRANCH  17  20
ENDBRANCH   1  12
BRANCH   6  22
ATOM     22  O   UNL     1      11.657  -1.125  12.872  1.00  0.00    -0.507 OA
ATOM     23  H   UNL     1      10.805  -0.761  12.462  1.00  0.00     0.293 HD
ENDBRANCH   6  22
BRANCH   8  24
ATOM     24  O   UNL     1      13.675  -2.005   8.578  1.00  0.00    -0.508 OA
ATOM     25  H   UNL     1      12.862  -2.482   8.205  1.00  0.00     0.293 HD
ENDBRANCH   8  24
TORSDOF 5
ENDMDL
