MODEL 1
REMARK VINA RESULT:    -5.025      0.000      0.000
REMARK INTER + INTRA:         -13.893
REMARK INTER:                 -10.900
REMARK INTRA:                  -2.993
REMARK UNBOUND:                -2.993
REMARK SMILES CCCCCCCCCCCCCCCCCCCCCC(=O)[O-]
REMARK SMILES IDX 12 1 11 2 10 3 9 4 8 5 7 6 6 7 5 8 4 9 3 10 2 11 1 12 13 13
REMARK SMILES IDX 14 14 15 15 16 16 17 17 18 18 19 19 20 20 21 21 22 22 23 23
REMARK SMILES IDX 24 24
REMARK H PARENT
REMARK Flexibility Score: inf
ROOT
ATOM      1  C   UNL     1      -4.897  11.486  23.751  1.00  0.00     0.000 C 
ENDROOT
BRANCH   1   2
ATOM      2  C   UNL     1      -4.419  12.008  22.381  1.00  0.00     0.000 C 
BRANCH   2   3
ATOM      3  C   UNL     1      -3.145  11.333  21.840  1.00  0.00     0.000 C 
BRANCH   3   4
ATOM      4  C   UNL     1      -3.447  10.086  20.992  1.00  0.00    -0.000 C 
BRANCH   4   5
ATOM      5  C   UNL     1      -2.621   8.863  21.419  1.00  0.00    -0.000 C 
BRANCH   5   6
ATOM      6  C   UNL     1      -3.027   8.328  22.803  1.00  0.00    -0.000 C 
BRANCH   6   7
ATOM      7  C   UNL     1      -1.815   8.075  23.714  1.00  0.00    -0.000 C 
BRANCH   7   8
ATOM      8  C   UNL     1      -0.781   9.209  23.647  1.00  0.00    -0.000 C 
BRANCH   8   9
ATOM      9  C   UNL     1       0.119   9.206  24.892  1.00  0.00    -0.000 C 
BRANCH   9  10
ATOM     10  C   UNL     1       1.407  10.031  24.683  1.00  0.00    -0.000 C 
BRANCH  10  11
ATOM     11  C   UNL     1       2.316  10.078  25.922  1.00  0.00    -0.003 C 
ATOM     12  C   UNL     1       3.069   8.770  26.161  1.00  0.00     0.004 C 
ENDBRANCH  10  11
ENDBRANCH   9  10
ENDBRANCH   8   9
ENDBRANCH   7   8
ENDBRANCH   6   7
ENDBRANCH   5   6
ENDBRANCH   4   5
ENDBRANCH   3   4
ENDBRANCH   2   3
ENDBRANCH   1   2
BRANCH   1  13
ATOM     13  C   UNL     1      -3.774  11.100  24.733  1.00  0.00     0.000 C 
BRANCH  13  14
ATOM     14  C   UNL     1      -4.198  10.147  25.866  1.00  0.00     0.000 C 
BRANCH  14  15
ATOM     15  C   UNL     1      -3.048   9.820  26.832  1.00  0.00     0.000 C 
BRANCH  15  16
ATOM     16  C   UNL     1      -3.035  10.742  28.062  1.00  0.00     0.000 C 
BRANCH  16  17
ATOM     17  C   UNL     1      -1.797  11.652  28.101  1.00  0.00     0.000 C 
BRANCH  17  18
ATOM     18  C   UNL     1      -2.097  13.016  27.470  1.00  0.00     0.000 C 
BRANCH  18  19
ATOM     19  C   UNL     1      -1.180  13.281  26.267  1.00  0.00     0.000 C 
BRANCH  19  20
ATOM     20  C   UNL     1       0.204  13.809  26.676  1.00  0.00     0.006 C 
BRANCH  20  21
ATOM     21  C   UNL     1       1.235  13.715  25.544  1.00  0.00     0.053 C 
BRANCH  21  22
ATOM     22  C   UNL     1       1.674  15.081  25.118  1.00  0.00     0.041 C 
ATOM     23  O   UNL     1       1.903  15.323  23.904  1.00  0.00    -0.550 OA
ATOM     24  O   UNL     1       1.853  16.082  26.064  1.00  0.00    -0.550 OA
ENDBRANCH  21  22
ENDBRANCH  20  21
ENDBRANCH  19  20
ENDBRANCH  18  19
ENDBRANCH  17  18
ENDBRANCH  16  17
ENDBRANCH  15  16
ENDBRANCH  14  15
ENDBRANCH  13  14
ENDBRANCH   1  13
TORSDOF 20
ENDMDL
MODEL 2
REMARK VINA RESULT:    -4.860      4.054      8.798
REMARK INTER + INTRA:         -13.536
REMARK INTER:                 -11.710
REMARK INTRA:                  -1.826
REMARK UNBOUND:                -2.993
REMARK SMILES CCCCCCCCCCCCCCCCCCCCCC(=O)[O-]
REMARK SMILES IDX 12 1 11 2 10 3 9 4 8 5 7 6 6 7 5 8 4 9 3 10 2 11 1 12 13 13
REMARK SMILES IDX 14 14 15 15 16 16 17 17 18 18 19 19 20 20 21 21 22 22 23 23
REMARK SMILES IDX 24 24
REMARK H PARENT
REMARK Flexibility Score: inf
ROOT
ATOM      1  C   UNL     1       1.958  14.442  25.454  1.00  0.00     0.000 C 
ENDROOT
BRANCH   1   2
ATOM      2  C   UNL     1       2.166  15.039  24.048  1.00  0.00     0.000 C 
BRANCH   2   3
ATOM      3  C   UNL     1       1.754  16.514  23.904  1.00  0.00     0.000 C 
BRANCH   3   4
ATOM      4  C   UNL     1       2.858  17.488  24.351  1.00  0.00    -0.000 C 
BRANCH   4   5
ATOM      5  C   UNL     1       3.952  17.674  23.288  1.00  0.00    -0.000 C 
BRANCH   5   6
ATOM      6  C   UNL     1       4.530  19.100  23.278  1.00  0.00    -0.000 C 
BRANCH   6   7
ATOM      7  C   UNL     1       4.193  19.861  21.986  1.00  0.00    -0.000 C 
BRANCH   7   8
ATOM      8  C   UNL     1       3.236  21.039  22.228  1.00  0.00    -0.000 C 
BRANCH   8   9
ATOM      9  C   UNL     1       1.773  20.575  22.188  1.00  0.00    -0.000 C 
BRANCH   9  10
ATOM     10  C   UNL     1       1.091  20.675  23.569  1.00  0.00    -0.000 C 
BRANCH  10  11
ATOM     11  C   UNL     1      -0.089  19.705  23.745  1.00  0.00    -0.003 C 
ATOM     12  C   UNL     1      -0.536  19.063  22.433  1.00  0.00     0.004 C 
ENDBRANCH  10  11
ENDBRANCH   9  10
ENDBRANCH   8   9
ENDBRANCH   7   8
ENDBRANCH   6   7
ENDBRANCH   5   6
ENDBRANCH   4   5
ENDBRANCH   3   4
ENDBRANCH   2   3
ENDBRANCH   1   2
BRANCH   1  13
ATOM     13  C   UNL     1       0.509  14.035  25.786  1.00  0.00     0.000 C 
BRANCH  13  14
ATOM     14  C   UNL     1       0.369  12.758  26.633  1.00  0.00     0.000 C 
BRANCH  14  15
ATOM     15  C   UNL     1       0.967  11.518  25.949  1.00  0.00     0.000 C 
BRANCH  15  16
ATOM     16  C   UNL     1      -0.107  10.488  25.559  1.00  0.00     0.000 C 
BRANCH  16  17
ATOM     17  C   UNL     1       0.408   9.461  24.538  1.00  0.00     0.000 C 
BRANCH  17  18
ATOM     18  C   UNL     1      -0.707   9.034  23.577  1.00  0.00     0.000 C 
BRANCH  18  19
ATOM     19  C   UNL     1      -2.052   9.655  23.984  1.00  0.00     0.000 C 
BRANCH  19  20
ATOM     20  C   UNL     1      -3.256   8.913  23.383  1.00  0.00     0.006 C 
BRANCH  20  21
ATOM     21  C   UNL     1      -4.181   9.836  22.578  1.00  0.00     0.053 C 
BRANCH  21  22
ATOM     22  C   UNL     1      -3.440  10.455  21.435  1.00  0.00     0.041 C 
ATOM     23  O   UNL     1      -2.972   9.732  20.517  1.00  0.00    -0.550 OA
ATOM     24  O   UNL     1      -3.243  11.829  21.395  1.00  0.00    -0.550 OA
ENDBRANCH  21  22
ENDBRANCH  20  21
ENDBRANCH  19  20
ENDBRANCH  18  19
ENDBRANCH  17  18
ENDBRANCH  16  17
ENDBRANCH  15  16
ENDBRANCH  14  15
ENDBRANCH  13  14
ENDBRANCH   1  13
TORSDOF 20
ENDMDL
MODEL 3
REMARK VINA RESULT:    -4.836      1.640      4.563
REMARK INTER + INTRA:         -13.484
REMARK INTER:                 -11.327
REMARK INTRA:                  -2.157
REMARK UNBOUND:                -2.993
REMARK SMILES CCCCCCCCCCCCCCCCCCCCCC(=O)[O-]
REMARK SMILES IDX 12 1 11 2 10 3 9 4 8 5 7 6 6 7 5 8 4 9 3 10 2 11 1 12 13 13
REMARK SMILES IDX 14 14 15 15 16 16 17 17 18 18 19 19 20 20 21 21 22 22 23 23
REMARK SMILES IDX 24 24
REMARK H PARENT
REMARK Flexibility Score: inf
ROOT
ATOM      1  C   UNL     1      -0.534   9.239  24.120  1.00  0.00     0.000 C 
ENDROOT
BRANCH   1   2
ATOM      2  C   UNL     1      -1.822   8.402  24.252  1.00  0.00     0.000 C 
BRANCH   2   3
ATOM      3  C   UNL     1      -2.418   7.917  22.919  1.00  0.00     0.000 C 
BRANCH   3   4
ATOM      4  C   UNL     1      -1.650   8.446  21.696  1.00  0.00    -0.000 C 
BRANCH   4   5
ATOM      5  C   UNL     1      -2.575   9.056  20.631  1.00  0.00    -0.000 C 
BRANCH   5   6
ATOM      6  C   UNL     1      -3.705   9.902  21.242  1.00  0.00    -0.000 C 
BRANCH   6   7
ATOM      7  C   UNL     1      -3.296  11.369  21.445  1.00  0.00    -0.000 C 
BRANCH   7   8
ATOM      8  C   UNL     1      -4.282  12.139  22.336  1.00  0.00    -0.000 C 
BRANCH   8   9
ATOM      9  C   UNL     1      -4.810  11.248  23.470  1.00  0.00    -0.000 C 
BRANCH   9  10
ATOM     10  C   UNL     1      -3.807  11.136  24.638  1.00  0.00    -0.000 C 
BRANCH  10  11
ATOM     11  C   UNL     1      -4.441  10.641  25.949  1.00  0.00    -0.003 C 
ATOM     12  C   UNL     1      -3.924  11.381  27.181  1.00  0.00     0.004 C 
ENDBRANCH  10  11
ENDBRANCH   9  10
ENDBRANCH   8   9
ENDBRANCH   7   8
ENDBRANCH   6   7
ENDBRANCH   5   6
ENDBRANCH   4   5
ENDBRANCH   3   4
ENDBRANCH   2   3
ENDBRANCH   1   2
BRANCH   1  13
ATOM     13  C   UNL     1       0.056   9.749  25.449  1.00  0.00     0.000 C 
BRANCH  13  14
ATOM     14  C   UNL     1      -0.411  11.153  25.873  1.00  0.00     0.000 C 
BRANCH  14  15
ATOM     15  C   UNL     1       0.755  12.083  26.245  1.00  0.00     0.000 C 
BRANCH  15  16
ATOM     16  C   UNL     1       0.284  13.509  26.575  1.00  0.00     0.000 C 
BRANCH  16  17
ATOM     17  C   UNL     1       1.136  14.584  25.880  1.00  0.00     0.000 C 
BRANCH  17  18
ATOM     18  C   UNL     1       2.212  13.946  24.996  1.00  0.00     0.000 C 
BRANCH  18  19
ATOM     19  C   UNL     1       3.055  15.020  24.291  1.00  0.00     0.000 C 
BRANCH  19  20
ATOM     20  C   UNL     1       2.775  16.436  24.817  1.00  0.00     0.006 C 
BRANCH  20  21
ATOM     21  C   UNL     1       2.550  17.454  23.692  1.00  0.00     0.053 C 
BRANCH  21  22
ATOM     22  C   UNL     1       1.299  18.239  23.936  1.00  0.00     0.041 C 
ATOM     23  O   UNL     1       1.213  18.997  24.937  1.00  0.00    -0.550 OA
ATOM     24  O   UNL     1       0.219  18.116  23.072  1.00  0.00    -0.550 OA
ENDBRANCH  21  22
ENDBRANCH  20  21
ENDBRANCH  19  20
ENDBRANCH  18  19
ENDBRANCH  17  18
ENDBRANCH  16  17
ENDBRANCH  15  16
ENDBRANCH  14  15
ENDBRANCH  13  14
ENDBRANCH   1  13
TORSDOF 20
ENDMDL
MODEL 4
REMARK VINA RESULT:    -4.826      3.339      7.627
REMARK INTER + INTRA:         -13.461
REMARK INTER:                 -11.315
REMARK INTRA:                  -2.146
REMARK UNBOUND:                -2.993
REMARK SMILES CCCCCCCCCCCCCCCCCCCCCC(=O)[O-]
REMARK SMILES IDX 12 1 11 2 10 3 9 4 8 5 7 6 6 7 5 8 4 9 3 10 2 11 1 12 13 13
REMARK SMILES IDX 14 14 15 15 16 16 17 17 18 18 19 19 20 20 21 21 22 22 23 23
REMARK SMILES IDX 24 24
REMARK H PARENT
REMARK Flexibility Score: inf
ROOT
ATOM      1  C   UNL     1       0.317  13.791  26.743  1.00  0.00     0.000 C 
ENDROOT
BRANCH   1   2
ATOM      2  C   UNL     1       1.235  14.060  25.534  1.00  0.00     0.000 C 
BRANCH   2   3
ATOM      3  C   UNL     1       1.739  15.510  25.415  1.00  0.00     0.000 C 
BRANCH   3   4
ATOM      4  C   UNL     1       1.443  16.132  24.040  1.00  0.00    -0.000 C 
BRANCH   4   5
ATOM      5  C   UNL     1       2.684  16.190  23.135  1.00  0.00    -0.000 C 
BRANCH   5   6
ATOM      6  C   UNL     1       3.899  16.823  23.835  1.00  0.00    -0.000 C 
BRANCH   6   7
ATOM      7  C   UNL     1       4.243  18.211  23.273  1.00  0.00    -0.000 C 
BRANCH   7   8
ATOM      8  C   UNL     1       3.338  19.317  23.837  1.00  0.00    -0.000 C 
BRANCH   8   9
ATOM      9  C   UNL     1       2.890  20.280  22.727  1.00  0.00    -0.000 C 
BRANCH   9  10
ATOM     10  C   UNL     1       1.449  20.789  22.943  1.00  0.00    -0.000 C 
BRANCH  10  11
ATOM     11  C   UNL     1       0.503  19.729  23.533  1.00  0.00    -0.003 C 
ATOM     12  C   UNL     1      -0.338  19.022  22.472  1.00  0.00     0.004 C 
ENDBRANCH  10  11
ENDBRANCH   9  10
ENDBRANCH   8   9
ENDBRANCH   7   8
ENDBRANCH   6   7
ENDBRANCH   5   6
ENDBRANCH   4   5
ENDBRANCH   3   4
ENDBRANCH   2   3
ENDBRANCH   1   2
BRANCH   1  13
ATOM     13  C   UNL     1      -0.511  12.494  26.661  1.00  0.00     0.000 C 
BRANCH  13  14
ATOM     14  C   UNL     1      -1.856  12.531  27.408  1.00  0.00     0.000 C 
BRANCH  14  15
ATOM     15  C   UNL     1      -1.943  11.488  28.534  1.00  0.00     0.000 C 
BRANCH  15  16
ATOM     16  C   UNL     1      -2.941  10.363  28.215  1.00  0.00     0.000 C 
BRANCH  16  17
ATOM     17  C   UNL     1      -2.285   9.189  27.470  1.00  0.00     0.000 C 
BRANCH  17  18
ATOM     18  C   UNL     1      -2.734   9.147  26.006  1.00  0.00     0.000 C 
BRANCH  18  19
ATOM     19  C   UNL     1      -1.537   8.921  25.069  1.00  0.00     0.000 C 
BRANCH  19  20
ATOM     20  C   UNL     1      -0.185   9.070  25.784  1.00  0.00     0.006 C 
BRANCH  20  21
ATOM     21  C   UNL     1       0.931   9.552  24.849  1.00  0.00     0.053 C 
BRANCH  21  22
ATOM     22  C   UNL     1       2.211   9.729  25.604  1.00  0.00     0.041 C 
ATOM     23  O   UNL     1       2.585  10.878  25.955  1.00  0.00    -0.550 OA
ATOM     24  O   UNL     1       3.003   8.628  25.901  1.00  0.00    -0.550 OA
ENDBRANCH  21  22
ENDBRANCH  20  21
ENDBRANCH  19  20
ENDBRANCH  18  19
ENDBRANCH  17  18
ENDBRANCH  16  17
ENDBRANCH  15  16
ENDBRANCH  14  15
ENDBRANCH  13  14
ENDBRANCH   1  13
TORSDOF 20
ENDMDL
MODEL 5
REMARK VINA RESULT:    -4.809      1.362      4.035
REMARK INTER + INTRA:         -13.425
REMARK INTER:                 -10.962
REMARK INTRA:                  -2.463
REMARK UNBOUND:                -2.993
REMARK SMILES CCCCCCCCCCCCCCCCCCCCCC(=O)[O-]
REMARK SMILES IDX 12 1 11 2 10 3 9 4 8 5 7 6 6 7 5 8 4 9 3 10 2 11 1 12 13 13
REMARK SMILES IDX 14 14 15 15 16 16 17 17 18 18 19 19 20 20 21 21 22 22 23 23
REMARK SMILES IDX 24 24
REMARK H PARENT
REMARK Flexibility Score: inf
ROOT
ATOM      1  C   UNL     1      -0.889   8.892  23.185  1.00  0.00     0.000 C 
ENDROOT
BRANCH   1   2
ATOM      2  C   UNL     1      -2.148   8.321  22.502  1.00  0.00     0.000 C 
BRANCH   2   3
ATOM      3  C   UNL     1      -2.363   8.787  21.051  1.00  0.00     0.000 C 
BRANCH   3   4
ATOM      4  C   UNL     1      -3.587   9.705  20.896  1.00  0.00    -0.000 C 
BRANCH   4   5
ATOM      5  C   UNL     1      -3.462  11.004  21.708  1.00  0.00    -0.000 C 
BRANCH   5   6
ATOM      6  C   UNL     1      -4.799  11.444  22.330  1.00  0.00    -0.000 C 
BRANCH   6   7
ATOM      7  C   UNL     1      -4.881  11.126  23.831  1.00  0.00    -0.000 C 
BRANCH   7   8
ATOM      8  C   UNL     1      -3.504  11.138  24.513  1.00  0.00    -0.000 C 
BRANCH   8   9
ATOM      9  C   UNL     1      -3.647  11.266  26.037  1.00  0.00    -0.000 C 
BRANCH   9  10
ATOM     10  C   UNL     1      -3.703   9.890  26.735  1.00  0.00    -0.000 C 
BRANCH  10  11
ATOM     11  C   UNL     1      -2.780   9.784  27.961  1.00  0.00    -0.003 C 
ATOM     12  C   UNL     1      -2.162  11.121  28.362  1.00  0.00     0.004 C 
ENDBRANCH  10  11
ENDBRANCH   9  10
ENDBRANCH   8   9
ENDBRANCH   7   8
ENDBRANCH   6   7
ENDBRANCH   5   6
ENDBRANCH   4   5
ENDBRANCH   3   4
ENDBRANCH   2   3
ENDBRANCH   1   2
BRANCH   1  13
ATOM     13  C   UNL     1      -0.859   8.759  24.720  1.00  0.00     0.000 C 
BRANCH  13  14
ATOM     14  C   UNL     1      -0.128   9.895  25.459  1.00  0.00     0.000 C 
BRANCH  14  15
ATOM     15  C   UNL     1       1.376   9.940  25.144  1.00  0.00     0.000 C 
BRANCH  15  16
ATOM     16  C   UNL     1       2.039  11.236  25.639  1.00  0.00     0.000 C 
BRANCH  16  17
ATOM     17  C   UNL     1       1.014  12.268  26.136  1.00  0.00     0.000 C 
BRANCH  17  18
ATOM     18  C   UNL     1       1.312  13.658  25.564  1.00  0.00     0.000 C 
BRANCH  18  19
ATOM     19  C   UNL     1       2.735  13.723  24.988  1.00  0.00     0.000 C 
BRANCH  19  20
ATOM     20  C   UNL     1       2.887  14.793  23.895  1.00  0.00     0.006 C 
BRANCH  20  21
ATOM     21  C   UNL     1       1.732  15.803  23.887  1.00  0.00     0.053 C 
BRANCH  21  22
ATOM     22  C   UNL     1       2.252  17.197  24.041  1.00  0.00     0.041 C 
ATOM     23  O   UNL     1       3.482  17.433  23.909  1.00  0.00    -0.550 OA
ATOM     24  O   UNL     1       1.384  18.235  24.354  1.00  0.00    -0.550 OA
ENDBRANCH  21  22
ENDBRANCH  20  21
ENDBRANCH  19  20
ENDBRANCH  18  19
ENDBRANCH  17  18
ENDBRANCH  16  17
ENDBRANCH  15  16
ENDBRANCH  14  15
ENDBRANCH  13  14
ENDBRANCH   1  13
TORSDOF 20
ENDMDL
MODEL 6
REMARK VINA RESULT:    -4.809      2.935      6.380
REMARK INTER + INTRA:         -13.424
REMARK INTER:                 -11.605
REMARK INTRA:                  -1.819
REMARK UNBOUND:                -2.993
REMARK SMILES CCCCCCCCCCCCCCCCCCCCCC(=O)[O-]
REMARK SMILES IDX 12 1 11 2 10 3 9 4 8 5 7 6 6 7 5 8 4 9 3 10 2 11 1 12 13 13
REMARK SMILES IDX 14 14 15 15 16 16 17 17 18 18 19 19 20 20 21 21 22 22 23 23
REMARK SMILES IDX 24 24
REMARK H PARENT
REMARK Flexibility Score: inf
ROOT
ATOM      1  C   UNL     1       0.070  13.429  26.642  1.00  0.00     0.000 C 
ENDROOT
BRANCH   1   2
ATOM      2  C   UNL     1      -1.455  13.208  26.580  1.00  0.00     0.000 C 
BRANCH   2   3
ATOM      3  C   UNL     1      -1.960  12.551  25.284  1.00  0.00     0.000 C 
BRANCH   3   4
ATOM      4  C   UNL     1      -2.894  11.357  25.546  1.00  0.00    -0.000 C 
BRANCH   4   5
ATOM      5  C   UNL     1      -2.143  10.114  26.047  1.00  0.00    -0.000 C 
BRANCH   5   6
ATOM      6  C   UNL     1      -0.969   9.722  25.132  1.00  0.00    -0.000 C 
BRANCH   6   7
ATOM      7  C   UNL     1      -1.327   8.569  24.181  1.00  0.00    -0.000 C 
BRANCH   7   8
ATOM      8  C   UNL     1      -1.156   8.949  22.702  1.00  0.00    -0.000 C 
BRANCH   8   9
ATOM      9  C   UNL     1      -2.340   8.443  21.864  1.00  0.00    -0.000 C 
BRANCH   9  10
ATOM     10  C   UNL     1      -2.920   9.543  20.951  1.00  0.00    -0.000 C 
BRANCH  10  11
ATOM     11  C   UNL     1      -3.898  10.489  21.670  1.00  0.00    -0.003 C 
ATOM     12  C   UNL     1      -3.389  11.926  21.750  1.00  0.00     0.004 C 
ENDBRANCH  10  11
ENDBRANCH   9  10
ENDBRANCH   8   9
ENDBRANCH   7   8
ENDBRANCH   6   7
ENDBRANCH   5   6
ENDBRANCH   4   5
ENDBRANCH   3   4
ENDBRANCH   2   3
ENDBRANCH   1   2
BRANCH   1  13
ATOM     13  C   UNL     1       0.677  14.162  25.430  1.00  0.00     0.000 C 
BRANCH  13  14
ATOM     14  C   UNL     1       1.611  15.335  25.778  1.00  0.00     0.000 C 
BRANCH  14  15
ATOM     15  C   UNL     1       1.956  16.205  24.558  1.00  0.00     0.000 C 
BRANCH  15  16
ATOM     16  C   UNL     1       3.206  15.705  23.816  1.00  0.00     0.000 C 
BRANCH  16  17
ATOM     17  C   UNL     1       4.240  16.819  23.590  1.00  0.00     0.000 C 
BRANCH  17  18
ATOM     18  C   UNL     1       3.701  18.174  24.062  1.00  0.00     0.000 C 
BRANCH  18  19
ATOM     19  C   UNL     1       3.608  19.168  22.894  1.00  0.00     0.000 C 
BRANCH  19  20
ATOM     20  C   UNL     1       2.798  20.426  23.245  1.00  0.00     0.006 C 
BRANCH  20  21
ATOM     21  C   UNL     1       1.496  20.537  22.441  1.00  0.00     0.053 C 
BRANCH  21  22
ATOM     22  C   UNL     1       0.433  19.670  23.040  1.00  0.00     0.041 C 
ATOM     23  O   UNL     1       0.373  19.512  24.287  1.00  0.00    -0.550 OA
ATOM     24  O   UNL     1      -0.477  19.016  22.219  1.00  0.00    -0.550 OA
ENDBRANCH  21  22
ENDBRANCH  20  21
ENDBRANCH  19  20
ENDBRANCH  18  19
ENDBRANCH  17  18
ENDBRANCH  16  17
ENDBRANCH  15  16
ENDBRANCH  14  15
ENDBRANCH  13  14
ENDBRANCH   1  13
TORSDOF 20
ENDMDL
MODEL 7
REMARK VINA RESULT:    -4.785      3.913      8.488
REMARK INTER + INTRA:         -13.372
REMARK INTER:                 -11.230
REMARK INTRA:                  -2.142
REMARK UNBOUND:                -2.993
REMARK SMILES CCCCCCCCCCCCCCCCCCCCCC(=O)[O-]
REMARK SMILES IDX 12 1 11 2 10 3 9 4 8 5 7 6 6 7 5 8 4 9 3 10 2 11 1 12 13 13
REMARK SMILES IDX 14 14 15 15 16 16 17 17 18 18 19 19 20 20 21 21 22 22 23 23
REMARK SMILES IDX 24 24
REMARK H PARENT
REMARK Flexibility Score: inf
ROOT
ATOM      1  C   UNL     1       0.454  14.004  25.952  1.00  0.00     0.000 C 
ENDROOT
BRANCH   1   2
ATOM      2  C   UNL     1       1.813  14.340  25.306  1.00  0.00     0.000 C 
BRANCH   2   3
ATOM      3  C   UNL     1       2.003  15.820  24.931  1.00  0.00     0.000 C 
BRANCH   3   4
ATOM      4  C   UNL     1       2.696  16.006  23.570  1.00  0.00    -0.000 C 
BRANCH   4   5
ATOM      5  C   UNL     1       4.073  16.676  23.691  1.00  0.00    -0.000 C 
BRANCH   5   6
ATOM      6  C   UNL     1       4.155  18.005  22.920  1.00  0.00    -0.000 C 
BRANCH   6   7
ATOM      7  C   UNL     1       4.397  19.207  23.846  1.00  0.00    -0.000 C 
BRANCH   7   8
ATOM      8  C   UNL     1       3.478  19.198  25.077  1.00  0.00    -0.000 C 
BRANCH   8   9
ATOM      9  C   UNL     1       2.318  20.191  24.904  1.00  0.00    -0.000 C 
BRANCH   9  10
ATOM     10  C   UNL     1       0.975  19.477  24.642  1.00  0.00    -0.000 C 
BRANCH  10  11
ATOM     11  C   UNL     1       0.662  19.282  23.149  1.00  0.00    -0.003 C 
ATOM     12  C   UNL     1       1.260  20.375  22.265  1.00  0.00     0.004 C 
ENDBRANCH  10  11
ENDBRANCH   9  10
ENDBRANCH   8   9
ENDBRANCH   7   8
ENDBRANCH   6   7
ENDBRANCH   5   6
ENDBRANCH   4   5
ENDBRANCH   3   4
ENDBRANCH   2   3
ENDBRANCH   1   2
BRANCH   1  13
ATOM     13  C   UNL     1       0.311  12.558  26.465  1.00  0.00     0.000 C 
BRANCH  13  14
ATOM     14  C   UNL     1      -0.945  11.815  25.977  1.00  0.00     0.000 C 
BRANCH  14  15
ATOM     15  C   UNL     1      -0.811  10.286  26.077  1.00  0.00     0.000 C 
BRANCH  15  16
ATOM     16  C   UNL     1       0.055   9.699  24.951  1.00  0.00     0.000 C 
BRANCH  16  17
ATOM     17  C   UNL     1      -0.788   9.102  23.813  1.00  0.00     0.000 C 
BRANCH  17  18
ATOM     18  C   UNL     1      -2.159   8.646  24.325  1.00  0.00     0.000 C 
BRANCH  18  19
ATOM     19  C   UNL     1      -3.292   9.395  23.608  1.00  0.00     0.000 C 
BRANCH  19  20
ATOM     20  C   UNL     1      -2.788  10.591  22.784  1.00  0.00     0.006 C 
BRANCH  20  21
ATOM     21  C   UNL     1      -3.336  10.598  21.352  1.00  0.00     0.053 C 
BRANCH  21  22
ATOM     22  C   UNL     1      -3.157   9.257  20.713  1.00  0.00     0.041 C 
ATOM     23  O   UNL     1      -2.001   8.811  20.490  1.00  0.00    -0.550 OA
ATOM     24  O   UNL     1      -4.266   8.508  20.341  1.00  0.00    -0.550 OA
ENDBRANCH  21  22
ENDBRANCH  20  21
ENDBRANCH  19  20
ENDBRANCH  18  19
ENDBRANCH  17  18
ENDBRANCH  16  17
ENDBRANCH  15  16
ENDBRANCH  14  15
ENDBRANCH  13  14
ENDBRANCH   1  13
TORSDOF 20
ENDMDL
MODEL 8
REMARK VINA RESULT:    -4.756      3.544      8.108
REMARK INTER + INTRA:         -13.309
REMARK INTER:                 -11.249
REMARK INTRA:                  -2.060
REMARK UNBOUND:                -2.993
REMARK SMILES CCCCCCCCCCCCCCCCCCCCCC(=O)[O-]
REMARK SMILES IDX 12 1 11 2 10 3 9 4 8 5 7 6 6 7 5 8 4 9 3 10 2 11 1 12 13 13
REMARK SMILES IDX 14 14 15 15 16 16 17 17 18 18 19 19 20 20 21 21 22 22 23 23
REMARK SMILES IDX 24 24
REMARK H PARENT
REMARK Flexibility Score: inf
ROOT
ATOM      1  C   UNL     1       1.201  14.272  25.514  1.00  0.00     0.000 C 
ENDROOT
BRANCH   1   2
ATOM      2  C   UNL     1       2.495  13.544  25.098  1.00  0.00     0.000 C 
BRANCH   2   3
ATOM      3  C   UNL     1       3.311  14.251  24.001  1.00  0.00     0.000 C 
BRANCH   3   4
ATOM      4  C   UNL     1       2.759  15.644  23.654  1.00  0.00    -0.000 C 
BRANCH   4   5
ATOM      5  C   UNL     1       3.851  16.725  23.623  1.00  0.00    -0.000 C 
BRANCH   5   6
ATOM      6  C   UNL     1       3.419  18.023  24.327  1.00  0.00    -0.000 C 
BRANCH   6   7
ATOM      7  C   UNL     1       2.330  17.783  25.385  1.00  0.00    -0.000 C 
BRANCH   7   8
ATOM      8  C   UNL     1       1.648  19.084  25.836  1.00  0.00    -0.000 C 
BRANCH   8   9
ATOM      9  C   UNL     1       2.023  20.250  24.910  1.00  0.00    -0.000 C 
BRANCH   9  10
ATOM     10  C   UNL     1       0.799  20.815  24.159  1.00  0.00    -0.000 C 
BRANCH  10  11
ATOM     11  C   UNL     1      -0.333  19.791  23.969  1.00  0.00    -0.003 C 
ATOM     12  C   UNL     1      -0.256  19.057  22.632  1.00  0.00     0.004 C 
ENDBRANCH  10  11
ENDBRANCH   9  10
ENDBRANCH   8   9
ENDBRANCH   7   8
ENDBRANCH   6   7
ENDBRANCH   5   6
ENDBRANCH   4   5
ENDBRANCH   3   4
ENDBRANCH   2   3
ENDBRANCH   1   2
BRANCH   1  13
ATOM     13  C   UNL     1       0.334  13.528  26.548  1.00  0.00     0.000 C 
BRANCH  13  14
ATOM     14  C   UNL     1       0.138  12.026  26.275  1.00  0.00     0.000 C 
BRANCH  14  15
ATOM     15  C   UNL     1      -1.280  11.688  25.785  1.00  0.00     0.000 C 
BRANCH  15  16
ATOM     16  C   UNL     1      -1.581  10.182  25.857  1.00  0.00     0.000 C 
BRANCH  16  17
ATOM     17  C   UNL     1      -0.508   9.334  25.156  1.00  0.00     0.000 C 
BRANCH  17  18
ATOM     18  C   UNL     1      -0.783   9.233  23.652  1.00  0.00     0.000 C 
BRANCH  18  19
ATOM     19  C   UNL     1      -2.255   8.883  23.383  1.00  0.00     0.000 C 
BRANCH  19  20
ATOM     20  C   UNL     1      -2.850   9.674  22.208  1.00  0.00     0.006 C 
BRANCH  20  21
ATOM     21  C   UNL     1      -2.845  11.189  22.448  1.00  0.00     0.053 C 
BRANCH  21  22
ATOM     22  C   UNL     1      -4.181  11.648  22.941  1.00  0.00     0.041 C 
ATOM     23  O   UNL     1      -4.887  12.415  22.236  1.00  0.00    -0.550 OA
ATOM     24  O   UNL     1      -4.638  11.249  24.190  1.00  0.00    -0.550 OA
ENDBRANCH  21  22
ENDBRANCH  20  21
ENDBRANCH  19  20
ENDBRANCH  18  19
ENDBRANCH  17  18
ENDBRANCH  16  17
ENDBRANCH  15  16
ENDBRANCH  14  15
ENDBRANCH  13  14
ENDBRANCH   1  13
TORSDOF 20
ENDMDL
MODEL 9
REMARK VINA RESULT:    -4.727      2.419      5.485
REMARK INTER + INTRA:         -13.247
REMARK INTER:                 -10.944
REMARK INTRA:                  -2.302
REMARK UNBOUND:                -2.993
REMARK SMILES CCCCCCCCCCCCCCCCCCCCCC(=O)[O-]
REMARK SMILES IDX 12 1 11 2 10 3 9 4 8 5 7 6 6 7 5 8 4 9 3 10 2 11 1 12 13 13
REMARK SMILES IDX 14 14 15 15 16 16 17 17 18 18 19 19 20 20 21 21 22 22 23 23
REMARK SMILES IDX 24 24
REMARK H PARENT
REMARK Flexibility Score: inf
ROOT
ATOM      1  C   UNL     1      -0.680  11.058  25.673  1.00  0.00     0.000 C 
ENDROOT
BRANCH   1   2
ATOM      2  C   UNL     1      -2.132  11.498  25.949  1.00  0.00     0.000 C 
BRANCH   2   3
ATOM      3  C   UNL     1      -2.787  10.834  27.173  1.00  0.00     0.000 C 
BRANCH   3   4
ATOM      4  C   UNL     1      -4.018   9.989  26.805  1.00  0.00    -0.000 C 
BRANCH   4   5
ATOM      5  C   UNL     1      -4.345  10.038  25.304  1.00  0.00    -0.000 C 
BRANCH   5   6
ATOM      6  C   UNL     1      -4.819   8.681  24.757  1.00  0.00    -0.000 C 
BRANCH   6   7
ATOM      7  C   UNL     1      -4.066   8.266  23.483  1.00  0.00    -0.000 C 
BRANCH   7   8
ATOM      8  C   UNL     1      -2.554   8.523  23.580  1.00  0.00    -0.000 C 
BRANCH   8   9
ATOM      9  C   UNL     1      -2.050   9.304  22.358  1.00  0.00    -0.000 C 
BRANCH   9  10
ATOM     10  C   UNL     1      -3.177  10.105  21.672  1.00  0.00    -0.000 C 
BRANCH  10  11
ATOM     11  C   UNL     1      -3.136  11.612  21.979  1.00  0.00    -0.003 C 
ATOM     12  C   UNL     1      -4.513  12.195  22.293  1.00  0.00     0.004 C 
ENDBRANCH  10  11
ENDBRANCH   9  10
ENDBRANCH   8   9
ENDBRANCH   7   8
ENDBRANCH   6   7
ENDBRANCH   5   6
ENDBRANCH   4   5
ENDBRANCH   3   4
ENDBRANCH   2   3
ENDBRANCH   1   2
BRANCH   1  13
ATOM     13  C   UNL     1       0.405  11.896  26.377  1.00  0.00     0.000 C 
BRANCH  13  14
ATOM     14  C   UNL     1       0.061  13.384  26.563  1.00  0.00     0.000 C 
BRANCH  14  15
ATOM     15  C   UNL     1       0.536  14.257  25.390  1.00  0.00     0.000 C 
BRANCH  15  16
ATOM     16  C   UNL     1       1.652  15.232  25.799  1.00  0.00     0.000 C 
BRANCH  16  17
ATOM     17  C   UNL     1       2.860  15.172  24.850  1.00  0.00     0.000 C 
BRANCH  17  18
ATOM     18  C   UNL     1       2.649  16.081  23.634  1.00  0.00     0.000 C 
BRANCH  18  19
ATOM     19  C   UNL     1       3.671  17.228  23.620  1.00  0.00     0.000 C 
BRANCH  19  20
ATOM     20  C   UNL     1       3.015  18.609  23.468  1.00  0.00     0.006 C 
BRANCH  20  21
ATOM     21  C   UNL     1       1.576  18.644  23.999  1.00  0.00     0.053 C 
BRANCH  21  22
ATOM     22  C   UNL     1       0.644  19.177  22.957  1.00  0.00     0.041 C 
ATOM     23  O   UNL     1      -0.479  18.637  22.775  1.00  0.00    -0.550 OA
ATOM     24  O   UNL     1       1.023  20.255  22.168  1.00  0.00    -0.550 OA
ENDBRANCH  21  22
ENDBRANCH  20  21
ENDBRANCH  19  20
ENDBRANCH  18  19
ENDBRANCH  17  18
ENDBRANCH  16  17
ENDBRANCH  15  16
ENDBRANCH  14  15
ENDBRANCH  13  14
ENDBRANCH   1  13
TORSDOF 20
ENDMDL
