MODEL 1
REMARK VINA RESULT:    -5.986      0.000      0.000
REMARK INTER + INTRA:          -6.604
REMARK INTER:                  -6.511
REMARK INTRA:                  -0.093
REMARK UNBOUND:                -0.093
REMARK SMILES C[C@H]1[C@H](C)CC[C@]2(C(=O)[O-])CC[C@]3(C)C(=CC[C@H]4[C@]5(C)CC[C@H](O)C(C)(C)[C@H]5CC[C@@]43C)[C@H]12
REMARK SMILES IDX 7 1 6 2 11 3 33 4 5 5 12 6 15 7 2 8 3 9 13 10 16 11 1 12
REMARK SMILES IDX 4 13 14 14 31 15 17 16 18 17 30 18 32 19 19 20 29 21 28 22
REMARK SMILES IDX 21 23 20 24 25 25 22 26 23 27 26 28 27 29 8 30 9 31 10 32
REMARK SMILES IDX 24 33
REMARK H PARENT 24 34
REMARK Flexibility Score: inf
ROOT
ATOM      1  C   UNL     1      69.207  98.985   8.831  1.00  0.00     0.017 C 
ATOM      2  C   UNL     1      68.707 100.089   7.835  1.00  0.00     0.014 C 
ATOM      3  C   UNL     1      69.235  97.633   8.069  1.00  0.00     0.014 C 
ATOM      4  C   UNL     1      68.268  98.931  10.096  1.00  0.00     0.030 C 
ATOM      5  C   UNL     1      68.062 101.274   8.558  1.00  0.00     0.004 C 
ATOM      6  C   UNL     1      69.438  96.394   8.964  1.00  0.00     0.013 C 
ATOM      7  C   UNL     1      68.421  97.610  10.875  1.00  0.00    -0.063 C 
ATOM      8  C   UNL     1      66.801  99.372   9.806  1.00  0.00    -0.003 C 
ATOM      9  C   UNL     1      66.759 100.851   9.289  1.00  0.00    -0.011 C 
ATOM     10  C   UNL     1      68.406  96.247  10.133  1.00  0.00    -0.006 C 
ATOM     11  C   UNL     1      68.820  97.730  12.164  1.00  0.00    -0.027 C 
ATOM     12  C   UNL     1      65.911  99.229  11.058  1.00  0.00     0.008 C 
ATOM     13  C   UNL     1      65.536 101.086   8.383  1.00  0.00     0.008 C 
ATOM     14  C   UNL     1      67.003  96.007   9.489  1.00  0.00     0.017 C 
ATOM     15  C   UNL     1      68.758  94.998  11.125  1.00  0.00    -0.020 C 
ATOM     16  C   UNL     1      69.346  96.618  13.010  1.00  0.00     0.032 C 
ATOM     17  C   UNL     1      69.872  95.445  12.155  1.00  0.00     0.006 C 
ATOM     18  C   UNL     1      69.265  93.756  10.315  1.00  0.00     0.008 C 
ATOM     19  C   UNL     1      67.467  94.552  11.891  1.00  0.00     0.012 C 
ATOM     20  C   UNL     1      70.614  94.299  12.995  1.00  0.00    -0.025 C 
ATOM     21  C   UNL     1      69.864  92.640  11.175  1.00  0.00     0.005 C 
ATOM     22  C   UNL     1      71.070  93.188  11.977  1.00  0.00     0.003 C 
ATOM     23  C   UNL     1      71.906  94.908  13.636  1.00  0.00     0.010 C 
ATOM     24  C   UNL     1      69.722  93.730  14.154  1.00  0.00     0.012 C 
ATOM     25  C   UNL     1      72.070  92.093  12.525  1.00  0.00    -0.006 C 
ATOM     26  C   UNL     1      72.880  93.865  14.218  1.00  0.00     0.033 C 
ATOM     27  C   UNL     1      73.294  92.808  13.188  1.00  0.00     0.120 C 
ATOM     28  C   UNL     1      72.609  91.222  11.354  1.00  0.00     0.014 C 
ATOM     29  C   UNL     1      71.417  91.110  13.530  1.00  0.00     0.014 C 
ENDROOT
BRANCH   1  30
ATOM     30  C   UNL     1      70.644  99.300   9.255  1.00  0.00     0.048 C 
ATOM     31  O   UNL     1      71.618  98.666   8.765  1.00  0.00    -0.550 OA
ATOM     32  O   UNL     1      70.910 100.365  10.110  1.00  0.00    -0.550 OA
ENDBRANCH   1  30
BRANCH  27  33
ATOM     33  O   UNL     1      74.092  93.439  12.212  1.00  0.00    -0.393 OA
ATOM     34  H   UNL     1      73.634  93.329  11.336  1.00  0.00     0.210 HD
ENDBRANCH  27  33
TORSDOF 2
ENDMDL
MODEL 2
REMARK VINA RESULT:    -5.976      2.225      4.045
REMARK INTER + INTRA:          -6.593
REMARK INTER:                  -6.482
REMARK INTRA:                  -0.112
REMARK UNBOUND:                -0.093
REMARK SMILES C[C@H]1[C@H](C)CC[C@]2(C(=O)[O-])CC[C@]3(C)C(=CC[C@H]4[C@]5(C)CC[C@H](O)C(C)(C)[C@H]5CC[C@@]43C)[C@H]12
REMARK SMILES IDX 7 1 6 2 11 3 33 4 5 5 12 6 15 7 2 8 3 9 13 10 16 11 1 12
REMARK SMILES IDX 4 13 14 14 31 15 17 16 18 17 30 18 32 19 19 20 29 21 28 22
REMARK SMILES IDX 21 23 20 24 25 25 22 26 23 27 26 28 27 29 8 30 9 31 10 32
REMARK SMILES IDX 24 33
REMARK H PARENT 24 34
REMARK Flexibility Score: inf
ROOT
ATOM      1  C   UNL     1      68.685  95.303  10.267  1.00  0.00     0.017 C 
ATOM      2  C   UNL     1      67.428  96.087   9.750  1.00  0.00     0.014 C 
ATOM      3  C   UNL     1      68.333  93.791  10.274  1.00  0.00     0.014 C 
ATOM      4  C   UNL     1      69.094  95.820  11.698  1.00  0.00     0.030 C 
ATOM      5  C   UNL     1      67.397  97.532  10.254  1.00  0.00     0.004 C 
ATOM      6  C   UNL     1      69.351  92.897  11.009  1.00  0.00     0.013 C 
ATOM      7  C   UNL     1      70.005  94.820  12.437  1.00  0.00    -0.063 C 
ATOM      8  C   UNL     1      67.898  96.376  12.530  1.00  0.00    -0.003 C 
ATOM      9  C   UNL     1      67.231  97.591  11.796  1.00  0.00    -0.011 C 
ATOM     10  C   UNL     1      69.646  93.311  12.491  1.00  0.00    -0.006 C 
ATOM     11  C   UNL     1      71.227  95.287  12.791  1.00  0.00    -0.027 C 
ATOM     12  C   UNL     1      68.342  96.798  13.945  1.00  0.00     0.008 C 
ATOM     13  C   UNL     1      65.743  97.714  12.171  1.00  0.00     0.008 C 
ATOM     14  C   UNL     1      68.326  93.108  13.302  1.00  0.00     0.017 C 
ATOM     15  C   UNL     1      70.831  92.416  13.168  1.00  0.00    -0.020 C 
ATOM     16  C   UNL     1      72.385  94.442  13.209  1.00  0.00     0.032 C 
ATOM     17  C   UNL     1      72.237  92.985  12.722  1.00  0.00     0.006 C 
ATOM     18  C   UNL     1      70.719  90.911  12.742  1.00  0.00     0.008 C 
ATOM     19  C   UNL     1      70.704  92.462  14.728  1.00  0.00     0.012 C 
ATOM     20  C   UNL     1      73.529  92.071  12.981  1.00  0.00    -0.025 C 
ATOM     21  C   UNL     1      71.933  90.056  13.113  1.00  0.00     0.005 C 
ATOM     22  C   UNL     1      73.203  90.629  12.438  1.00  0.00     0.003 C 
ATOM     23  C   UNL     1      74.718  92.636  12.133  1.00  0.00     0.010 C 
ATOM     24  C   UNL     1      73.969  92.067  14.487  1.00  0.00     0.012 C 
ATOM     25  C   UNL     1      74.419  89.626  12.323  1.00  0.00    -0.006 C 
ATOM     26  C   UNL     1      75.935  91.696  12.039  1.00  0.00     0.033 C 
ATOM     27  C   UNL     1      75.566  90.307  11.504  1.00  0.00     0.120 C 
ATOM     28  C   UNL     1      73.986  88.344  11.554  1.00  0.00     0.014 C 
ATOM     29  C   UNL     1      74.955  89.147  13.696  1.00  0.00     0.014 C 
ENDROOT
BRANCH   1  30
ATOM     30  C   UNL     1      69.842  95.499   9.285  1.00  0.00     0.048 C 
ATOM     31  O   UNL     1      70.147  94.600   8.455  1.00  0.00    -0.550 OA
ATOM     32  O   UNL     1      70.513  96.717   9.219  1.00  0.00    -0.550 OA
ENDBRANCH   1  30
BRANCH  27  33
ATOM     33  O   UNL     1      75.198  90.444  10.150  1.00  0.00    -0.393 OA
ATOM     34  H   UNL     1      74.762  91.331  10.047  1.00  0.00     0.210 HD
ENDBRANCH  27  33
TORSDOF 2
ENDMDL
MODEL 3
REMARK VINA RESULT:    -5.952      2.074      8.631
REMARK INTER + INTRA:          -6.567
REMARK INTER:                  -6.417
REMARK INTRA:                  -0.150
REMARK UNBOUND:                -0.093
REMARK SMILES C[C@H]1[C@H](C)CC[C@]2(C(=O)[O-])CC[C@]3(C)C(=CC[C@H]4[C@]5(C)CC[C@H](O)C(C)(C)[C@H]5CC[C@@]43C)[C@H]12
REMARK SMILES IDX 7 1 6 2 11 3 33 4 5 5 12 6 15 7 2 8 3 9 13 10 16 11 1 12
REMARK SMILES IDX 4 13 14 14 31 15 17 16 18 17 30 18 32 19 19 20 29 21 28 22
REMARK SMILES IDX 21 23 20 24 25 25 22 26 23 27 26 28 27 29 8 30 9 31 10 32
REMARK SMILES IDX 24 33
REMARK H PARENT 24 34
REMARK Flexibility Score: inf
ROOT
ATOM      1  C   UNL     1      74.844  91.294  12.376  1.00  0.00     0.017 C 
ATOM      2  C   UNL     1      76.010  90.358  12.851  1.00  0.00     0.014 C 
ATOM      3  C   UNL     1      74.747  92.478  13.375  1.00  0.00     0.014 C 
ATOM      4  C   UNL     1      73.497  90.482  12.290  1.00  0.00     0.030 C 
ATOM      5  C   UNL     1      75.829  88.917  12.369  1.00  0.00     0.004 C 
ATOM      6  C   UNL     1      73.484  93.349  13.220  1.00  0.00     0.013 C 
ATOM      7  C   UNL     1      72.263  91.406  12.273  1.00  0.00    -0.063 C 
ATOM      8  C   UNL     1      73.423  89.284  13.285  1.00  0.00    -0.003 C 
ATOM      9  C   UNL     1      74.575  88.258  13.004  1.00  0.00    -0.011 C 
ATOM     10  C   UNL     1      72.129  92.567  13.294  1.00  0.00    -0.006 C 
ATOM     11  C   UNL     1      71.467  91.304  11.181  1.00  0.00    -0.027 C 
ATOM     12  C   UNL     1      72.057  88.572  13.210  1.00  0.00     0.008 C 
ATOM     13  C   UNL     1      74.961  87.495  14.285  1.00  0.00     0.008 C 
ATOM     14  C   UNL     1      72.001  91.991  14.740  1.00  0.00     0.017 C 
ATOM     15  C   UNL     1      70.838  93.518  12.983  1.00  0.00    -0.020 C 
ATOM     16  C   UNL     1      70.424  92.294  10.780  1.00  0.00     0.032 C 
ATOM     17  C   UNL     1      70.670  93.678  11.419  1.00  0.00     0.006 C 
ATOM     18  C   UNL     1      71.007  94.933  13.636  1.00  0.00     0.008 C 
ATOM     19  C   UNL     1      69.549  92.878  13.599  1.00  0.00     0.012 C 
ATOM     20  C   UNL     1      69.691  94.832  10.888  1.00  0.00    -0.025 C 
ATOM     21  C   UNL     1      69.978  95.969  13.179  1.00  0.00     0.005 C 
ATOM     22  C   UNL     1      70.071  96.159  11.645  1.00  0.00     0.003 C 
ATOM     23  C   UNL     1      69.973  95.062   9.365  1.00  0.00     0.010 C 
ATOM     24  C   UNL     1      68.177  94.454  11.048  1.00  0.00     0.012 C 
ATOM     25  C   UNL     1      69.438  97.497  11.089  1.00  0.00    -0.006 C 
ATOM     26  C   UNL     1      69.331  96.337   8.786  1.00  0.00     0.033 C 
ATOM     27  C   UNL     1      69.733  97.600   9.556  1.00  0.00     0.120 C 
ATOM     28  C   UNL     1      70.091  98.728  11.781  1.00  0.00     0.014 C 
ATOM     29  C   UNL     1      67.914  97.611  11.350  1.00  0.00     0.014 C 
ENDROOT
BRANCH   1  30
ATOM     30  C   UNL     1      75.194  91.881  11.006  1.00  0.00     0.048 C 
ATOM     31  O   UNL     1      76.191  92.640  10.862  1.00  0.00    -0.550 OA
ATOM     32  O   UNL     1      74.480  91.502   9.873  1.00  0.00    -0.550 OA
ENDBRANCH   1  30
BRANCH  27  33
ATOM     33  O   UNL     1      71.104  97.834   9.327  1.00  0.00    -0.393 OA
ATOM     34  H   UNL     1      71.603  97.473  10.108  1.00  0.00     0.210 HD
ENDBRANCH  27  33
TORSDOF 2
ENDMDL
MODEL 4
REMARK VINA RESULT:    -5.911      1.613      8.194
REMARK INTER + INTRA:          -6.522
REMARK INTER:                  -6.236
REMARK INTRA:                  -0.286
REMARK UNBOUND:                -0.093
REMARK SMILES C[C@H]1[C@H](C)CC[C@]2(C(=O)[O-])CC[C@]3(C)C(=CC[C@H]4[C@]5(C)CC[C@H](O)C(C)(C)[C@H]5CC[C@@]43C)[C@H]12
REMARK SMILES IDX 7 1 6 2 11 3 33 4 5 5 12 6 15 7 2 8 3 9 13 10 16 11 1 12
REMARK SMILES IDX 4 13 14 14 31 15 17 16 18 17 30 18 32 19 19 20 29 21 28 22
REMARK SMILES IDX 21 23 20 24 25 25 22 26 23 27 26 28 27 29 8 30 9 31 10 32
REMARK SMILES IDX 24 33
REMARK H PARENT 24 34
REMARK Flexibility Score: inf
ROOT
ATOM      1  C   UNL     1      73.502  91.618  12.997  1.00  0.00     0.017 C 
ATOM      2  C   UNL     1      74.352  90.471  13.648  1.00  0.00     0.014 C 
ATOM      3  C   UNL     1      73.291  92.721  14.069  1.00  0.00     0.014 C 
ATOM      4  C   UNL     1      72.135  91.044  12.464  1.00  0.00     0.030 C 
ATOM      5  C   UNL     1      74.119  89.120  12.968  1.00  0.00     0.004 C 
ATOM      6  C   UNL     1      72.251  93.795  13.692  1.00  0.00     0.013 C 
ATOM      7  C   UNL     1      71.091  92.155  12.233  1.00  0.00    -0.063 C 
ATOM      8  C   UNL     1      71.626  89.802  13.256  1.00  0.00    -0.003 C 
ATOM      9  C   UNL     1      72.661  88.627  13.168  1.00  0.00    -0.011 C 
ATOM     10  C   UNL     1      70.836  93.240  13.313  1.00  0.00    -0.006 C 
ATOM     11  C   UNL     1      70.624  92.269  10.965  1.00  0.00    -0.027 C 
ATOM     12  C   UNL     1      70.251  89.328  12.740  1.00  0.00     0.008 C 
ATOM     13  C   UNL     1      72.568  87.715  14.405  1.00  0.00     0.008 C 
ATOM     14  C   UNL     1      70.235  92.583  14.595  1.00  0.00     0.017 C 
ATOM     15  C   UNL     1      69.825  94.410  12.788  1.00  0.00    -0.020 C 
ATOM     16  C   UNL     1      69.877  93.444  10.425  1.00  0.00     0.032 C 
ATOM     17  C   UNL     1      70.121  94.716  11.266  1.00  0.00     0.006 C 
ATOM     18  C   UNL     1      69.995  95.724  13.626  1.00  0.00     0.008 C 
ATOM     19  C   UNL     1      68.340  93.943  12.963  1.00  0.00     0.012 C 
ATOM     20  C   UNL     1      69.494  96.050  10.637  1.00  0.00    -0.025 C 
ATOM     21  C   UNL     1      69.283  96.945  13.040  1.00  0.00     0.005 C 
ATOM     22  C   UNL     1      69.824  97.235  11.619  1.00  0.00     0.003 C 
ATOM     23  C   UNL     1      70.216  96.349   9.280  1.00  0.00     0.010 C 
ATOM     24  C   UNL     1      67.958  95.913  10.346  1.00  0.00     0.012 C 
ATOM     25  C   UNL     1      69.558  98.697  11.079  1.00  0.00    -0.006 C 
ATOM     26  C   UNL     1      69.940  97.752   8.707  1.00  0.00     0.033 C 
ATOM     27  C   UNL     1      70.278  98.870   9.701  1.00  0.00     0.120 C 
ATOM     28  C   UNL     1      70.153  99.749  12.059  1.00  0.00     0.014 C 
ATOM     29  C   UNL     1      68.052  99.037  10.941  1.00  0.00     0.014 C 
ENDROOT
BRANCH   1  30
ATOM     30  C   UNL     1      74.295  92.244  11.847  1.00  0.00     0.048 C 
ATOM     31  O   UNL     1      75.228  93.063  12.074  1.00  0.00    -0.550 OA
ATOM     32  O   UNL     1      74.072  91.841  10.535  1.00  0.00    -0.550 OA
ENDBRANCH   1  30
BRANCH  27  33
ATOM     33  O   UNL     1      71.678  98.894   9.870  1.00  0.00    -0.393 OA
ATOM     34  H   UNL     1      71.953  98.002  10.210  1.00  0.00     0.210 HD
ENDBRANCH  27  33
TORSDOF 2
ENDMDL
MODEL 5
REMARK VINA RESULT:    -5.708      1.285      1.800
REMARK INTER + INTRA:          -6.301
REMARK INTER:                  -6.113
REMARK INTRA:                  -0.188
REMARK UNBOUND:                -0.093
REMARK SMILES C[C@H]1[C@H](C)CC[C@]2(C(=O)[O-])CC[C@]3(C)C(=CC[C@H]4[C@]5(C)CC[C@H](O)C(C)(C)[C@H]5CC[C@@]43C)[C@H]12
REMARK SMILES IDX 7 1 6 2 11 3 33 4 5 5 12 6 15 7 2 8 3 9 13 10 16 11 1 12
REMARK SMILES IDX 4 13 14 14 31 15 17 16 18 17 30 18 32 19 19 20 29 21 28 22
REMARK SMILES IDX 21 23 20 24 25 25 22 26 23 27 26 28 27 29 8 30 9 31 10 32
REMARK SMILES IDX 24 33
REMARK H PARENT 24 34
REMARK Flexibility Score: inf
ROOT
ATOM      1  C   UNL     1      69.161  97.837   9.694  1.00  0.00     0.017 C 
ATOM      2  C   UNL     1      68.379  98.915   8.864  1.00  0.00     0.014 C 
ATOM      3  C   UNL     1      69.414  96.616   8.769  1.00  0.00     0.014 C 
ATOM      4  C   UNL     1      68.341  97.443  10.981  1.00  0.00     0.030 C 
ATOM      5  C   UNL     1      67.554  99.846   9.756  1.00  0.00     0.004 C 
ATOM      6  C   UNL     1      69.927  95.355   9.494  1.00  0.00     0.013 C 
ATOM      7  C   UNL     1      68.814  96.105  11.582  1.00  0.00    -0.063 C 
ATOM      8  C   UNL     1      66.798  97.592  10.810  1.00  0.00    -0.003 C 
ATOM      9  C   UNL     1      66.419  99.078  10.483  1.00  0.00    -0.011 C 
ATOM     10  C   UNL     1      69.029  94.862  10.679  1.00  0.00    -0.006 C 
ATOM     11  C   UNL     1      69.267  96.161  12.859  1.00  0.00    -0.027 C 
ATOM     12  C   UNL     1      66.044  97.125  12.071  1.00  0.00     0.008 C 
ATOM     13  C   UNL     1      65.115  99.149   9.666  1.00  0.00     0.008 C 
ATOM     14  C   UNL     1      67.665  94.404  10.070  1.00  0.00     0.017 C 
ATOM     15  C   UNL     1      69.696  93.613  11.492  1.00  0.00    -0.020 C 
ATOM     16  C   UNL     1      70.066  95.098  13.537  1.00  0.00     0.032 C 
ATOM     17  C   UNL     1      70.761  94.166  12.521  1.00  0.00     0.006 C 
ATOM     18  C   UNL     1      70.391  92.605  10.513  1.00  0.00     0.008 C 
ATOM     19  C   UNL     1      68.579  92.820  12.251  1.00  0.00     0.012 C 
ATOM     20  C   UNL     1      71.778  93.117  13.179  1.00  0.00    -0.025 C 
ATOM     21  C   UNL     1      71.263  91.553  11.202  1.00  0.00     0.005 C 
ATOM     22  C   UNL     1      72.383  92.249  12.013  1.00  0.00     0.003 C 
ATOM     23  C   UNL     1      72.958  93.910  13.836  1.00  0.00     0.010 C 
ATOM     24  C   UNL     1      71.102  92.246  14.296  1.00  0.00     0.012 C 
ATOM     25  C   UNL     1      73.621  91.337  12.378  1.00  0.00    -0.006 C 
ATOM     26  C   UNL     1      74.162  93.039  14.242  1.00  0.00     0.033 C 
ATOM     27  C   UNL     1      74.714  92.216  13.072  1.00  0.00     0.120 C 
ATOM     28  C   UNL     1      74.246  90.737  11.086  1.00  0.00     0.014 C 
ATOM     29  C   UNL     1      73.253  90.131  13.280  1.00  0.00     0.014 C 
ENDROOT
BRANCH   1  30
ATOM     30  C   UNL     1      70.528  98.399  10.092  1.00  0.00     0.048 C 
ATOM     31  O   UNL     1      70.776  98.713  11.288  1.00  0.00    -0.550 OA
ATOM     32  O   UNL     1      71.557  98.477   9.159  1.00  0.00    -0.550 OA
ENDBRANCH   1  30
BRANCH  27  33
ATOM     33  O   UNL     1      75.297  93.107  12.148  1.00  0.00    -0.393 OA
ATOM     34  H   UNL     1      76.243  92.829  12.022  1.00  0.00     0.210 HD
ENDBRANCH  27  33
TORSDOF 2
ENDMDL
MODEL 6
REMARK VINA RESULT:    -5.664      1.458      7.684
REMARK INTER + INTRA:          -6.253
REMARK INTER:                  -5.968
REMARK INTRA:                  -0.285
REMARK UNBOUND:                -0.093
REMARK SMILES C[C@H]1[C@H](C)CC[C@]2(C(=O)[O-])CC[C@]3(C)C(=CC[C@H]4[C@]5(C)CC[C@H](O)C(C)(C)[C@H]5CC[C@@]43C)[C@H]12
REMARK SMILES IDX 7 1 6 2 11 3 33 4 5 5 12 6 15 7 2 8 3 9 13 10 16 11 1 12
REMARK SMILES IDX 4 13 14 14 31 15 17 16 18 17 30 18 32 19 19 20 29 21 28 22
REMARK SMILES IDX 21 23 20 24 25 25 22 26 23 27 26 28 27 29 8 30 9 31 10 32
REMARK SMILES IDX 24 33
REMARK H PARENT 24 34
REMARK Flexibility Score: inf
ROOT
ATOM      1  C   UNL     1      71.021  93.077  13.913  1.00  0.00     0.017 C 
ATOM      2  C   UNL     1      71.313  91.947  14.961  1.00  0.00     0.014 C 
ATOM      3  C   UNL     1      70.145  94.155  14.606  1.00  0.00     0.014 C 
ATOM      4  C   UNL     1      70.313  92.469  12.643  1.00  0.00     0.030 C 
ATOM      5  C   UNL     1      71.607  90.600  14.295  1.00  0.00     0.004 C 
ATOM      6  C   UNL     1      69.536  95.201  13.652  1.00  0.00     0.013 C 
ATOM      7  C   UNL     1      69.608  93.550  11.799  1.00  0.00    -0.063 C 
ATOM      8  C   UNL     1      69.464  91.198  12.947  1.00  0.00    -0.003 C 
ATOM      9  C   UNL     1      70.365  90.058  13.538  1.00  0.00    -0.011 C 
ATOM     10  C   UNL     1      68.694  94.608  12.472  1.00  0.00    -0.006 C 
ATOM     11  C   UNL     1      70.037  93.670  10.519  1.00  0.00    -0.027 C 
ATOM     12  C   UNL     1      68.737  90.690  11.686  1.00  0.00     0.008 C 
ATOM     13  C   UNL     1      69.548  89.123  14.448  1.00  0.00     0.008 C 
ATOM     14  C   UNL     1      67.443  93.911  13.096  1.00  0.00     0.017 C 
ATOM     15  C   UNL     1      68.195  95.753  11.420  1.00  0.00    -0.020 C 
ATOM     16  C   UNL     1      69.755  94.829   9.621  1.00  0.00     0.032 C 
ATOM     17  C   UNL     1      69.371  96.094  10.419  1.00  0.00     0.006 C 
ATOM     18  C   UNL     1      67.755  97.058  12.169  1.00  0.00     0.008 C 
ATOM     19  C   UNL     1      66.948  95.236  10.626  1.00  0.00     0.012 C 
ATOM     20  C   UNL     1      69.232  97.418   9.527  1.00  0.00    -0.025 C 
ATOM     21  C   UNL     1      67.527  98.266  11.257  1.00  0.00     0.005 C 
ATOM     22  C   UNL     1      68.830  98.597  10.490  1.00  0.00     0.003 C 
ATOM     23  C   UNL     1      70.636  97.762   8.923  1.00  0.00     0.010 C 
ATOM     24  C   UNL     1      68.226  97.237   8.337  1.00  0.00     0.012 C 
ATOM     25  C   UNL     1      68.911 100.058   9.892  1.00  0.00    -0.006 C 
ATOM     26  C   UNL     1      70.731  99.165   8.294  1.00  0.00     0.033 C 
ATOM     27  C   UNL     1      70.331 100.277   9.271  1.00  0.00     0.120 C 
ATOM     28  C   UNL     1      68.721 101.112  11.021  1.00  0.00     0.014 C 
ATOM     29  C   UNL     1      67.815 100.353   8.836  1.00  0.00     0.014 C 
ENDROOT
BRANCH   1  30
ATOM     30  C   UNL     1      72.338  93.747  13.512  1.00  0.00     0.048 C 
ATOM     31  O   UNL     1      72.827  94.680  14.205  1.00  0.00    -0.550 OA
ATOM     32  O   UNL     1      73.074  93.267  12.434  1.00  0.00    -0.550 OA
ENDBRANCH   1  30
BRANCH  27  33
ATOM     33  O   UNL     1      71.311 100.343  10.283  1.00  0.00    -0.393 OA
ATOM     34  H   UNL     1      71.307  99.471  10.761  1.00  0.00     0.210 HD
ENDBRANCH  27  33
TORSDOF 2
ENDMDL
MODEL 7
REMARK VINA RESULT:    -5.658      2.781      9.213
REMARK INTER + INTRA:          -6.247
REMARK INTER:                  -6.031
REMARK INTRA:                  -0.215
REMARK UNBOUND:                -0.093
REMARK SMILES C[C@H]1[C@H](C)CC[C@]2(C(=O)[O-])CC[C@]3(C)C(=CC[C@H]4[C@]5(C)CC[C@H](O)C(C)(C)[C@H]5CC[C@@]43C)[C@H]12
REMARK SMILES IDX 7 1 6 2 11 3 33 4 5 5 12 6 15 7 2 8 3 9 13 10 16 11 1 12
REMARK SMILES IDX 4 13 14 14 31 15 17 16 18 17 30 18 32 19 19 20 29 21 28 22
REMARK SMILES IDX 21 23 20 24 25 25 22 26 23 27 26 28 27 29 8 30 9 31 10 32
REMARK SMILES IDX 24 33
REMARK H PARENT 24 34
REMARK Flexibility Score: inf
ROOT
ATOM      1  C   UNL     1      69.557  98.796  10.735  1.00  0.00     0.017 C 
ATOM      2  C   UNL     1      70.072  97.932  11.940  1.00  0.00     0.014 C 
ATOM      3  C   UNL     1      68.821 100.033  11.316  1.00  0.00     0.014 C 
ATOM      4  C   UNL     1      68.620  97.932   9.809  1.00  0.00     0.030 C 
ATOM      5  C   UNL     1      70.248  96.459  11.563  1.00  0.00     0.004 C 
ATOM      6  C   UNL     1      68.016 100.847  10.283  1.00  0.00     0.013 C 
ATOM      7  C   UNL     1      67.743  98.808   8.893  1.00  0.00    -0.063 C 
ATOM      8  C   UNL     1      67.870  96.794  10.566  1.00  0.00    -0.003 C 
ATOM      9  C   UNL     1      68.889  95.795  11.216  1.00  0.00    -0.011 C 
ATOM     10  C   UNL     1      66.965 100.022   9.466  1.00  0.00    -0.006 C 
ATOM     11  C   UNL     1      67.905  98.614   7.561  1.00  0.00    -0.027 C 
ATOM     12  C   UNL     1      66.913  96.029   9.628  1.00  0.00     0.008 C 
ATOM     13  C   UNL     1      68.286  95.124  12.463  1.00  0.00     0.008 C 
ATOM     14  C   UNL     1      65.876  99.528  10.472  1.00  0.00     0.017 C 
ATOM     15  C   UNL     1      66.247 100.906   8.295  1.00  0.00    -0.020 C 
ATOM     16  C   UNL     1      67.430  99.540   6.491  1.00  0.00     0.032 C 
ATOM     17  C   UNL     1      67.194 100.967   7.030  1.00  0.00     0.006 C 
ATOM     18  C   UNL     1      65.945 102.362   8.790  1.00  0.00     0.008 C 
ATOM     19  C   UNL     1      64.875 100.258   7.909  1.00  0.00     0.012 C 
ATOM     20  C   UNL     1      66.857 102.051   5.898  1.00  0.00    -0.025 C 
ATOM     21  C   UNL     1      65.519 103.331   7.684  1.00  0.00     0.005 C 
ATOM     22  C   UNL     1      66.637 103.433   6.618  1.00  0.00     0.003 C 
ATOM     23  C   UNL     1      68.106 102.200   4.964  1.00  0.00     0.010 C 
ATOM     24  C   UNL     1      65.636 101.629   5.007  1.00  0.00     0.012 C 
ATOM     25  C   UNL     1      66.573 104.712   5.690  1.00  0.00    -0.006 C 
ATOM     26  C   UNL     1      68.050 103.415   4.018  1.00  0.00     0.033 C 
ATOM     27  C   UNL     1      67.836 104.735   4.767  1.00  0.00     0.120 C 
ATOM     28  C   UNL     1      66.595 106.005   6.556  1.00  0.00     0.014 C 
ATOM     29  C   UNL     1      65.283 104.787   4.834  1.00  0.00     0.014 C 
ENDROOT
BRANCH   1  30
ATOM     30  C   UNL     1      70.757  99.313   9.936  1.00  0.00     0.048 C 
ATOM     31  O   UNL     1      71.248  98.633   8.994  1.00  0.00    -0.550 OA
ATOM     32  O   UNL     1      71.260 100.589  10.165  1.00  0.00    -0.550 OA
ENDBRANCH   1  30
BRANCH  27  33
ATOM     33  O   UNL     1      68.998 105.004   5.520  1.00  0.00    -0.393 OA
ATOM     34  H   UNL     1      69.780 104.746   4.964  1.00  0.00     0.210 HD
ENDBRANCH  27  33
TORSDOF 2
ENDMDL
MODEL 8
REMARK VINA RESULT:    -5.349      3.692      7.903
REMARK INTER + INTRA:          -5.911
REMARK INTER:                  -5.618
REMARK INTRA:                  -0.294
REMARK UNBOUND:                -0.093
REMARK SMILES C[C@H]1[C@H](C)CC[C@]2(C(=O)[O-])CC[C@]3(C)C(=CC[C@H]4[C@]5(C)CC[C@H](O)C(C)(C)[C@H]5CC[C@@]43C)[C@H]12
REMARK SMILES IDX 7 1 6 2 11 3 33 4 5 5 12 6 15 7 2 8 3 9 13 10 16 11 1 12
REMARK SMILES IDX 4 13 14 14 31 15 17 16 18 17 30 18 32 19 19 20 29 21 28 22
REMARK SMILES IDX 21 23 20 24 25 25 22 26 23 27 26 28 27 29 8 30 9 31 10 32
REMARK SMILES IDX 24 33
REMARK H PARENT 24 34
REMARK Flexibility Score: inf
ROOT
ATOM      1  C   UNL     1      68.971  97.133  10.547  1.00  0.00     0.017 C 
ATOM      2  C   UNL     1      68.858  95.589  10.296  1.00  0.00     0.014 C 
ATOM      3  C   UNL     1      70.119  97.368  11.565  1.00  0.00     0.014 C 
ATOM      4  C   UNL     1      67.596  97.700  11.068  1.00  0.00     0.030 C 
ATOM      5  C   UNL     1      67.456  95.177   9.841  1.00  0.00     0.004 C 
ATOM      6  C   UNL     1      70.192  98.799  12.134  1.00  0.00     0.013 C 
ATOM      7  C   UNL     1      67.755  99.075  11.748  1.00  0.00    -0.063 C 
ATOM      8  C   UNL     1      66.747  96.657  11.858  1.00  0.00    -0.003 C 
ATOM      9  C   UNL     1      66.401  95.425  10.952  1.00  0.00    -0.011 C 
ATOM     10  C   UNL     1      68.871  99.313  12.800  1.00  0.00    -0.006 C 
ATOM     11  C   UNL     1      67.055 100.092  11.189  1.00  0.00    -0.027 C 
ATOM     12  C   UNL     1      65.450  97.285  12.406  1.00  0.00     0.008 C 
ATOM     13  C   UNL     1      66.206  94.154  11.799  1.00  0.00     0.008 C 
ATOM     14  C   UNL     1      68.609  98.430  14.061  1.00  0.00     0.017 C 
ATOM     15  C   UNL     1      68.967 100.878  13.256  1.00  0.00    -0.020 C 
ATOM     16  C   UNL     1      67.289 101.543  11.449  1.00  0.00     0.032 C 
ATOM     17  C   UNL     1      68.707 101.806  12.002  1.00  0.00     0.006 C 
ATOM     18  C   UNL     1      70.375 101.206  13.863  1.00  0.00     0.008 C 
ATOM     19  C   UNL     1      67.907 101.171  14.370  1.00  0.00     0.012 C 
ATOM     20  C   UNL     1      69.085 103.359  12.132  1.00  0.00    -0.025 C 
ATOM     21  C   UNL     1      70.643 102.699  14.070  1.00  0.00     0.005 C 
ATOM     22  C   UNL     1      70.544 103.442  12.716  1.00  0.00     0.003 C 
ATOM     23  C   UNL     1      69.116 103.985  10.697  1.00  0.00     0.010 C 
ATOM     24  C   UNL     1      68.042 104.161  12.987  1.00  0.00     0.012 C 
ATOM     25  C   UNL     1      71.246 104.858  12.669  1.00  0.00    -0.006 C 
ATOM     26  C   UNL     1      69.756 105.385  10.628  1.00  0.00     0.033 C 
ATOM     27  C   UNL     1      71.175 105.413  11.207  1.00  0.00     0.120 C 
ATOM     28  C   UNL     1      72.748 104.726  13.053  1.00  0.00     0.014 C 
ATOM     29  C   UNL     1      70.634 105.881  13.659  1.00  0.00     0.014 C 
ENDROOT
BRANCH   1  30
ATOM     30  C   UNL     1      69.367  97.829   9.242  1.00  0.00     0.048 C 
ATOM     31  O   UNL     1      70.572  97.871   8.871  1.00  0.00    -0.550 OA
ATOM     32  O   UNL     1      68.392  98.337   8.389  1.00  0.00    -0.550 OA
ENDBRANCH   1  30
BRANCH  27  33
ATOM     33  O   UNL     1      72.011 104.668  10.351  1.00  0.00    -0.393 OA
ATOM     34  H   UNL     1      71.520 104.534   9.497  1.00  0.00     0.210 HD
ENDBRANCH  27  33
TORSDOF 2
ENDMDL
