MODEL 1
REMARK VINA RESULT:    -4.132      0.000      0.000
REMARK INTER + INTRA:          -7.815
REMARK INTER:                  -7.031
REMARK INTRA:                  -0.784
REMARK UNBOUND:                -0.784
REMARK SMILES CCCCCCCCCCCCCC(=O)[O-]
REMARK SMILES IDX 8 1 9 2 10 3 11 4 12 5 13 6 14 7 15 8 16 9 7 10 6 11 5 12
REMARK SMILES IDX 4 13 3 14 2 15 1 16
REMARK H PARENT
REMARK Flexibility Score: inf
ROOT
ATOM      1  C   UNL     1       1.889  24.549  21.798  1.00  0.00     0.000 C 
ENDROOT
BRANCH   1   2
ATOM      2  C   UNL     1       2.679  23.660  22.774  1.00  0.00     0.000 C 
BRANCH   2   3
ATOM      3  C   UNL     1       1.834  22.510  23.346  1.00  0.00     0.000 C 
BRANCH   3   4
ATOM      4  C   UNL     1       1.129  22.889  24.658  1.00  0.00     0.000 C 
BRANCH   4   5
ATOM      5  C   UNL     1       1.906  23.943  25.464  1.00  0.00     0.006 C 
BRANCH   5   6
ATOM      6  C   UNL     1       1.208  24.292  26.785  1.00  0.00     0.053 C 
BRANCH   6   7
ATOM      7  C   UNL     1      -0.082  25.018  26.558  1.00  0.00     0.041 C 
ATOM      8  O   UNL     1      -0.078  26.243  26.266  1.00  0.00    -0.550 OA
ATOM      9  O   UNL     1      -1.290  24.348  26.698  1.00  0.00    -0.550 OA
ENDBRANCH   6   7
ENDBRANCH   5   6
ENDBRANCH   4   5
ENDBRANCH   3   4
ENDBRANCH   2   3
ENDBRANCH   1   2
BRANCH   1  10
ATOM     10  C   UNL     1       2.217  26.053  21.880  1.00  0.00     0.000 C 
BRANCH  10  11
ATOM     11  C   UNL     1       1.189  26.908  22.648  1.00  0.00    -0.000 C 
BRANCH  11  12
ATOM     12  C   UNL     1       0.728  28.185  21.920  1.00  0.00    -0.000 C 
BRANCH  12  13
ATOM     13  C   UNL     1      -0.383  27.915  20.891  1.00  0.00    -0.000 C 
BRANCH  13  14
ATOM     14  C   UNL     1      -1.220  29.168  20.584  1.00  0.00    -0.000 C 
BRANCH  14  15
ATOM     15  C   UNL     1      -0.360  30.360  20.136  1.00  0.00    -0.003 C 
ATOM     16  C   UNL     1      -1.231  31.507  19.635  1.00  0.00     0.004 C 
ENDBRANCH  14  15
ENDBRANCH  13  14
ENDBRANCH  12  13
ENDBRANCH  11  12
ENDBRANCH  10  11
ENDBRANCH   1  10
TORSDOF 12
ENDMDL
MODEL 2
REMARK VINA RESULT:    -4.032      2.565      3.000
REMARK INTER + INTRA:          -7.645
REMARK INTER:                  -6.818
REMARK INTRA:                  -0.827
REMARK UNBOUND:                -0.784
REMARK SMILES CCCCCCCCCCCCCC(=O)[O-]
REMARK SMILES IDX 8 1 9 2 10 3 11 4 12 5 13 6 14 7 15 8 16 9 7 10 6 11 5 12
REMARK SMILES IDX 4 13 3 14 2 15 1 16
REMARK H PARENT
REMARK Flexibility Score: inf
ROOT
ATOM      1  C   UNL     1       2.128  23.604  21.828  1.00  0.00     0.000 C 
ENDROOT
BRANCH   1   2
ATOM      2  C   UNL     1       1.756  22.554  22.889  1.00  0.00     0.000 C 
BRANCH   2   3
ATOM      3  C   UNL     1       1.248  23.185  24.197  1.00  0.00     0.000 C 
BRANCH   3   4
ATOM      4  C   UNL     1       1.970  22.638  25.438  1.00  0.00     0.000 C 
BRANCH   4   5
ATOM      5  C   UNL     1       2.810  23.709  26.153  1.00  0.00     0.006 C 
BRANCH   5   6
ATOM      6  C   UNL     1       4.296  23.333  26.215  1.00  0.00     0.053 C 
BRANCH   6   7
ATOM      7  C   UNL     1       5.129  24.204  25.326  1.00  0.00     0.041 C 
ATOM      8  O   UNL     1       5.797  25.153  25.812  1.00  0.00    -0.550 OA
ATOM      9  O   UNL     1       5.143  23.985  23.954  1.00  0.00    -0.550 OA
ENDBRANCH   6   7
ENDBRANCH   5   6
ENDBRANCH   4   5
ENDBRANCH   3   4
ENDBRANCH   2   3
ENDBRANCH   1   2
BRANCH   1  10
ATOM     10  C   UNL     1       2.381  25.021  22.379  1.00  0.00     0.000 C 
BRANCH  10  11
ATOM     11  C   UNL     1       1.595  26.148  21.679  1.00  0.00    -0.000 C 
BRANCH  11  12
ATOM     12  C   UNL     1       1.064  27.252  22.612  1.00  0.00    -0.000 C 
BRANCH  12  13
ATOM     13  C   UNL     1       0.626  28.515  21.850  1.00  0.00    -0.000 C 
BRANCH  13  14
ATOM     14  C   UNL     1      -0.510  28.238  20.852  1.00  0.00    -0.000 C 
BRANCH  14  15
ATOM     15  C   UNL     1      -1.253  29.514  20.431  1.00  0.00    -0.003 C 
ATOM     16  C   UNL     1      -0.278  30.583  19.949  1.00  0.00     0.004 C 
ENDBRANCH  14  15
ENDBRANCH  13  14
ENDBRANCH  12  13
ENDBRANCH  11  12
ENDBRANCH  10  11
ENDBRANCH   1  10
TORSDOF 12
ENDMDL
MODEL 3
REMARK VINA RESULT:    -3.947      4.049      5.522
REMARK INTER + INTRA:          -7.499
REMARK INTER:                  -5.862
REMARK INTRA:                  -1.638
REMARK UNBOUND:                -0.784
REMARK SMILES CCCCCCCCCCCCCC(=O)[O-]
REMARK SMILES IDX 8 1 9 2 10 3 11 4 12 5 13 6 14 7 15 8 16 9 7 10 6 11 5 12
REMARK SMILES IDX 4 13 3 14 2 15 1 16
REMARK H PARENT
REMARK Flexibility Score: inf
ROOT
ATOM      1  C   UNL     1      -0.586  23.667  26.361  1.00  0.00     0.000 C 
ENDROOT
BRANCH   1   2
ATOM      2  C   UNL     1       0.300  22.420  26.518  1.00  0.00     0.000 C 
BRANCH   2   3
ATOM      3  C   UNL     1       1.681  22.743  27.113  1.00  0.00     0.000 C 
BRANCH   3   4
ATOM      4  C   UNL     1       2.791  21.836  26.560  1.00  0.00     0.000 C 
BRANCH   4   5
ATOM      5  C   UNL     1       4.199  22.391  26.833  1.00  0.00     0.006 C 
BRANCH   5   6
ATOM      6  C   UNL     1       4.252  23.920  26.715  1.00  0.00     0.053 C 
BRANCH   6   7
ATOM      7  C   UNL     1       5.201  24.363  25.644  1.00  0.00     0.041 C 
ATOM      8  O   UNL     1       5.083  23.924  24.471  1.00  0.00    -0.550 OA
ATOM      9  O   UNL     1       6.234  25.240  25.951  1.00  0.00    -0.550 OA
ENDBRANCH   6   7
ENDBRANCH   5   6
ENDBRANCH   4   5
ENDBRANCH   3   4
ENDBRANCH   2   3
ENDBRANCH   1   2
BRANCH   1  10
ATOM     10  C   UNL     1      -0.051  24.935  27.055  1.00  0.00     0.000 C 
BRANCH  10  11
ATOM     11  C   UNL     1       0.347  26.085  26.107  1.00  0.00    -0.000 C 
BRANCH  11  12
ATOM     12  C   UNL     1       0.467  25.696  24.623  1.00  0.00    -0.000 C 
BRANCH  12  13
ATOM     13  C   UNL     1       1.832  25.075  24.278  1.00  0.00    -0.000 C 
BRANCH  13  14
ATOM     14  C   UNL     1       2.080  25.003  22.762  1.00  0.00    -0.000 C 
BRANCH  14  15
ATOM     15  C   UNL     1       2.484  23.596  22.294  1.00  0.00    -0.003 C 
ATOM     16  C   UNL     1       1.621  22.528  22.958  1.00  0.00     0.004 C 
ENDBRANCH  14  15
ENDBRANCH  13  14
ENDBRANCH  12  13
ENDBRANCH  11  12
ENDBRANCH  10  11
ENDBRANCH   1  10
TORSDOF 12
ENDMDL
MODEL 4
REMARK VINA RESULT:    -3.938      3.149      6.778
REMARK INTER + INTRA:          -7.484
REMARK INTER:                  -6.548
REMARK INTRA:                  -0.936
REMARK UNBOUND:                -0.784
REMARK SMILES CCCCCCCCCCCCCC(=O)[O-]
REMARK SMILES IDX 8 1 9 2 10 3 11 4 12 5 13 6 14 7 15 8 16 9 7 10 6 11 5 12
REMARK SMILES IDX 4 13 3 14 2 15 1 16
REMARK H PARENT
REMARK Flexibility Score: inf
ROOT
ATOM      1  C   UNL     1       2.432  24.838  22.207  1.00  0.00     0.000 C 
ENDROOT
BRANCH   1   2
ATOM      2  C   UNL     1       1.525  25.874  21.522  1.00  0.00     0.000 C 
BRANCH   2   3
ATOM      3  C   UNL     1       1.719  27.295  22.079  1.00  0.00     0.000 C 
BRANCH   3   4
ATOM      4  C   UNL     1       0.416  28.109  22.090  1.00  0.00     0.000 C 
BRANCH   4   5
ATOM      5  C   UNL     1      -0.232  28.208  20.698  1.00  0.00     0.006 C 
BRANCH   5   6
ATOM      6  C   UNL     1      -1.233  29.367  20.606  1.00  0.00     0.053 C 
BRANCH   6   7
ATOM      7  C   UNL     1      -0.605  30.601  20.035  1.00  0.00     0.041 C 
ATOM      8  O   UNL     1      -1.326  31.529  19.584  1.00  0.00    -0.550 OA
ATOM      9  O   UNL     1       0.778  30.713  19.975  1.00  0.00    -0.550 OA
ENDBRANCH   6   7
ENDBRANCH   5   6
ENDBRANCH   4   5
ENDBRANCH   3   4
ENDBRANCH   2   3
ENDBRANCH   1   2
BRANCH   1  10
ATOM     10  C   UNL     1       1.900  23.392  22.180  1.00  0.00     0.000 C 
BRANCH  10  11
ATOM     11  C   UNL     1       1.649  22.758  23.563  1.00  0.00    -0.000 C 
BRANCH  11  12
ATOM     12  C   UNL     1       2.468  23.364  24.717  1.00  0.00    -0.000 C 
BRANCH  12  13
ATOM     13  C   UNL     1       1.583  23.929  25.842  1.00  0.00    -0.000 C 
BRANCH  13  14
ATOM     14  C   UNL     1       0.861  25.222  25.430  1.00  0.00    -0.000 C 
BRANCH  14  15
ATOM     15  C   UNL     1      -0.549  25.330  26.030  1.00  0.00    -0.003 C 
ATOM     16  C   UNL     1      -0.908  24.075  26.818  1.00  0.00     0.004 C 
ENDBRANCH  14  15
ENDBRANCH  13  14
ENDBRANCH  12  13
ENDBRANCH  11  12
ENDBRANCH  10  11
ENDBRANCH   1  10
TORSDOF 12
ENDMDL
MODEL 5
REMARK VINA RESULT:    -3.809      4.191      5.801
REMARK INTER + INTRA:          -7.264
REMARK INTER:                  -6.118
REMARK INTRA:                  -1.146
REMARK UNBOUND:                -0.784
REMARK SMILES CCCCCCCCCCCCCC(=O)[O-]
REMARK SMILES IDX 8 1 9 2 10 3 11 4 12 5 13 6 14 7 15 8 16 9 7 10 6 11 5 12
REMARK SMILES IDX 4 13 3 14 2 15 1 16
REMARK H PARENT
REMARK Flexibility Score: inf
ROOT
ATOM      1  C   UNL     1       1.110  22.790  23.917  1.00  0.00     0.000 C 
ENDROOT
BRANCH   1   2
ATOM      2  C   UNL     1       1.699  22.384  22.555  1.00  0.00     0.000 C 
BRANCH   2   3
ATOM      3  C   UNL     1       2.257  23.583  21.769  1.00  0.00     0.000 C 
BRANCH   3   4
ATOM      4  C   UNL     1       2.962  24.607  22.672  1.00  0.00     0.000 C 
BRANCH   4   5
ATOM      5  C   UNL     1       4.400  24.194  23.025  1.00  0.00     0.006 C 
BRANCH   5   6
ATOM      6  C   UNL     1       4.753  24.512  24.484  1.00  0.00     0.053 C 
BRANCH   6   7
ATOM      7  C   UNL     1       5.908  23.692  24.969  1.00  0.00     0.041 C 
ATOM      8  O   UNL     1       7.058  23.869  24.489  1.00  0.00    -0.550 OA
ATOM      9  O   UNL     1       5.708  22.710  25.931  1.00  0.00    -0.550 OA
ENDBRANCH   6   7
ENDBRANCH   5   6
ENDBRANCH   4   5
ENDBRANCH   3   4
ENDBRANCH   2   3
ENDBRANCH   1   2
BRANCH   1  10
ATOM     10  C   UNL     1       1.990  22.441  25.134  1.00  0.00     0.000 C 
BRANCH  10  11
ATOM     11  C   UNL     1       1.404  22.839  26.504  1.00  0.00    -0.000 C 
BRANCH  11  12
ATOM     12  C   UNL     1      -0.089  22.516  26.694  1.00  0.00    -0.000 C 
BRANCH  12  13
ATOM     13  C   UNL     1      -0.913  23.742  27.125  1.00  0.00    -0.000 C 
BRANCH  13  14
ATOM     14  C   UNL     1      -1.054  24.782  26.001  1.00  0.00    -0.000 C 
BRANCH  14  15
ATOM     15  C   UNL     1      -0.061  25.946  26.141  1.00  0.00    -0.003 C 
ATOM     16  C   UNL     1       0.731  26.151  24.854  1.00  0.00     0.004 C 
ENDBRANCH  14  15
ENDBRANCH  13  14
ENDBRANCH  12  13
ENDBRANCH  11  12
ENDBRANCH  10  11
ENDBRANCH   1  10
TORSDOF 12
ENDMDL
MODEL 6
REMARK VINA RESULT:    -3.640      4.051      5.632
REMARK INTER + INTRA:          -6.978
REMARK INTER:                  -5.644
REMARK INTRA:                  -1.333
REMARK UNBOUND:                -0.784
REMARK SMILES CCCCCCCCCCCCCC(=O)[O-]
REMARK SMILES IDX 8 1 9 2 10 3 11 4 12 5 13 6 14 7 15 8 16 9 7 10 6 11 5 12
REMARK SMILES IDX 4 13 3 14 2 15 1 16
REMARK H PARENT
REMARK Flexibility Score: inf
ROOT
ATOM      1  C   UNL     1      -0.783  25.084  26.243  1.00  0.00     0.000 C 
ENDROOT
BRANCH   1   2
ATOM      2  C   UNL     1      -0.676  23.761  27.022  1.00  0.00     0.000 C 
BRANCH   2   3
ATOM      3  C   UNL     1       0.122  22.688  26.264  1.00  0.00     0.000 C 
BRANCH   3   4
ATOM      4  C   UNL     1       1.225  22.052  27.124  1.00  0.00     0.000 C 
BRANCH   4   5
ATOM      5  C   UNL     1       2.523  22.876  27.125  1.00  0.00     0.006 C 
BRANCH   5   6
ATOM      6  C   UNL     1       3.663  22.162  26.387  1.00  0.00     0.053 C 
BRANCH   6   7
ATOM      7  C   UNL     1       4.977  22.853  26.590  1.00  0.00     0.041 C 
ATOM      8  O   UNL     1       5.021  24.103  26.729  1.00  0.00    -0.550 OA
ATOM      9  O   UNL     1       6.155  22.118  26.595  1.00  0.00    -0.550 OA
ENDBRANCH   6   7
ENDBRANCH   5   6
ENDBRANCH   4   5
ENDBRANCH   3   4
ENDBRANCH   2   3
ENDBRANCH   1   2
BRANCH   1  10
ATOM     10  C   UNL     1       0.558  25.803  25.999  1.00  0.00     0.000 C 
BRANCH  10  11
ATOM     11  C   UNL     1       1.085  25.737  24.551  1.00  0.00    -0.000 C 
BRANCH  11  12
ATOM     12  C   UNL     1       2.321  24.841  24.346  1.00  0.00    -0.000 C 
BRANCH  12  13
ATOM     13  C   UNL     1       2.749  24.746  22.871  1.00  0.00    -0.000 C 
BRANCH  13  14
ATOM     14  C   UNL     1       1.871  23.775  22.064  1.00  0.00    -0.000 C 
BRANCH  14  15
ATOM     15  C   UNL     1       1.525  22.499  22.845  1.00  0.00    -0.003 C 
ATOM     16  C   UNL     1       1.227  21.340  21.900  1.00  0.00     0.004 C 
ENDBRANCH  14  15
ENDBRANCH  13  14
ENDBRANCH  12  13
ENDBRANCH  11  12
ENDBRANCH  10  11
ENDBRANCH   1  10
TORSDOF 12
ENDMDL
MODEL 7
REMARK VINA RESULT:    -3.415      2.991      6.951
REMARK INTER + INTRA:          -6.594
REMARK INTER:                  -5.815
REMARK INTRA:                  -0.779
REMARK UNBOUND:                -0.784
REMARK SMILES CCCCCCCCCCCCCC(=O)[O-]
REMARK SMILES IDX 8 1 9 2 10 3 11 4 12 5 13 6 14 7 15 8 16 9 7 10 6 11 5 12
REMARK SMILES IDX 4 13 3 14 2 15 1 16
REMARK H PARENT
REMARK Flexibility Score: inf
ROOT
ATOM      1  C   UNL     1       1.975  23.469  21.871  1.00  0.00     0.000 C 
ENDROOT
BRANCH   1   2
ATOM      2  C   UNL     1       2.464  24.755  22.561  1.00  0.00     0.000 C 
BRANCH   2   3
ATOM      3  C   UNL     1       2.091  26.026  21.780  1.00  0.00     0.000 C 
BRANCH   3   4
ATOM      4  C   UNL     1       1.134  26.941  22.559  1.00  0.00     0.000 C 
BRANCH   4   5
ATOM      5  C   UNL     1       0.882  28.279  21.845  1.00  0.00     0.006 C 
BRANCH   5   6
ATOM      6  C   UNL     1      -0.391  28.248  20.990  1.00  0.00     0.053 C 
BRANCH   6   7
ATOM      7  C   UNL     1      -0.684  29.584  20.378  1.00  0.00     0.041 C 
ATOM      8  O   UNL     1       0.256  30.316  19.974  1.00  0.00    -0.550 OA
ATOM      9  O   UNL     1      -1.996  30.032  20.282  1.00  0.00    -0.550 OA
ENDBRANCH   6   7
ENDBRANCH   5   6
ENDBRANCH   4   5
ENDBRANCH   3   4
ENDBRANCH   2   3
ENDBRANCH   1   2
BRANCH   1  10
ATOM     10  C   UNL     1       1.386  22.408  22.821  1.00  0.00     0.000 C 
BRANCH  10  11
ATOM     11  C   UNL     1       1.890  22.477  24.277  1.00  0.00    -0.000 C 
BRANCH  11  12
ATOM     12  C   UNL     1       0.940  23.176  25.266  1.00  0.00    -0.000 C 
BRANCH  12  13
ATOM     13  C   UNL     1       1.681  23.824  26.447  1.00  0.00    -0.000 C 
BRANCH  13  14
ATOM     14  C   UNL     1       2.892  22.997  26.909  1.00  0.00    -0.000 C 
BRANCH  14  15
ATOM     15  C   UNL     1       4.180  23.828  26.998  1.00  0.00    -0.003 C 
ATOM     16  C   UNL     1       4.830  23.983  25.627  1.00  0.00     0.004 C 
ENDBRANCH  14  15
ENDBRANCH  13  14
ENDBRANCH  12  13
ENDBRANCH  11  12
ENDBRANCH  10  11
ENDBRANCH   1  10
TORSDOF 12
ENDMDL
MODEL 8
REMARK VINA RESULT:    -3.226      2.915      6.773
REMARK INTER + INTRA:          -6.273
REMARK INTER:                  -5.265
REMARK INTRA:                  -1.007
REMARK UNBOUND:                -0.784
REMARK SMILES CCCCCCCCCCCCCC(=O)[O-]
REMARK SMILES IDX 8 1 9 2 10 3 11 4 12 5 13 6 14 7 15 8 16 9 7 10 6 11 5 12
REMARK SMILES IDX 4 13 3 14 2 15 1 16
REMARK H PARENT
REMARK Flexibility Score: inf
ROOT
ATOM      1  C   UNL     1       1.500  23.006  22.373  1.00  0.00     0.000 C 
ENDROOT
BRANCH   1   2
ATOM      2  C   UNL     1       2.595  24.002  21.956  1.00  0.00     0.000 C 
BRANCH   2   3
ATOM      3  C   UNL     1       2.383  25.403  22.553  1.00  0.00     0.000 C 
BRANCH   3   4
ATOM      4  C   UNL     1       1.721  26.374  21.564  1.00  0.00     0.000 C 
BRANCH   4   5
ATOM      5  C   UNL     1       0.901  27.469  22.268  1.00  0.00     0.006 C 
BRANCH   5   6
ATOM      6  C   UNL     1       1.009  28.822  21.554  1.00  0.00     0.053 C 
BRANCH   6   7
ATOM      7  C   UNL     1      -0.194  29.101  20.706  1.00  0.00     0.041 C 
ATOM      8  O   UNL     1      -1.142  28.275  20.659  1.00  0.00    -0.550 OA
ATOM      9  O   UNL     1      -0.253  30.262  19.944  1.00  0.00    -0.550 OA
ENDBRANCH   6   7
ENDBRANCH   5   6
ENDBRANCH   4   5
ENDBRANCH   3   4
ENDBRANCH   2   3
ENDBRANCH   1   2
BRANCH   1  10
ATOM     10  C   UNL     1       1.621  22.475  23.815  1.00  0.00     0.000 C 
BRANCH  10  11
ATOM     11  C   UNL     1       1.034  23.395  24.905  1.00  0.00    -0.000 C 
BRANCH  11  12
ATOM     12  C   UNL     1       2.052  23.924  25.932  1.00  0.00    -0.000 C 
BRANCH  12  13
ATOM     13  C   UNL     1       3.377  23.143  25.912  1.00  0.00    -0.000 C 
BRANCH  13  14
ATOM     14  C   UNL     1       4.541  23.941  26.523  1.00  0.00    -0.000 C 
BRANCH  14  15
ATOM     15  C   UNL     1       5.809  23.896  25.659  1.00  0.00    -0.003 C 
ATOM     16  C   UNL     1       5.489  24.192  24.197  1.00  0.00     0.004 C 
ENDBRANCH  14  15
ENDBRANCH  13  14
ENDBRANCH  12  13
ENDBRANCH  11  12
ENDBRANCH  10  11
ENDBRANCH   1  10
TORSDOF 12
ENDMDL
