MODEL 1
REMARK VINA RESULT:    -5.304      0.000      0.000
REMARK INTER + INTRA:          -6.011
REMARK INTER:                  -5.770
REMARK INTRA:                  -0.242
REMARK UNBOUND:                -0.242
REMARK SMILES C[C@@H]1[C@H]2C3=CC[C@H]4[C@]5(C)CC[C@@H](O)C(C)(C)[C@@H]5CC[C@@]4(C)[C@@]3(C)CC[C@@]2(C(=O)[O-])CC[C@@H]1C
REMARK SMILES IDX 26 1 30 2 25 3 3 4 31 5 24 6 4 7 2 8 32 9 22 10 5 11 1 12
REMARK SMILES IDX 33 13 23 14 20 15 6 16 7 17 19 18 21 19 8 20 18 21 17 22
REMARK SMILES IDX 10 23 9 24 14 25 11 26 12 27 15 28 16 29 27 30 28 31 29 32
REMARK SMILES IDX 13 33
REMARK H PARENT 13 34
REMARK Flexibility Score: inf
ROOT
ATOM      1  C   UNL     1      88.321  89.573  91.416  1.00  0.00     0.017 C 
ATOM      2  C   UNL     1      89.506  88.708  90.875  1.00  0.00     0.014 C 
ATOM      3  C   UNL     1      88.821  91.077  91.454  1.00  0.00     0.014 C 
ATOM      4  C   UNL     1      87.723  89.114  92.850  1.00  0.00     0.030 C 
ATOM      5  C   UNL     1      90.414  88.135  91.951  1.00  0.00     0.004 C 
ATOM      6  C   UNL     1      87.972  92.166  92.215  1.00  0.00     0.013 C 
ATOM      7  C   UNL     1      87.312  90.359  93.707  1.00  0.00    -0.063 C 
ATOM      8  C   UNL     1      88.585  88.052  93.656  1.00  0.00    -0.003 C 
ATOM      9  C   UNL     1      89.610  87.208  92.852  1.00  0.00    -0.011 C 
ATOM     10  C   UNL     1      86.751  91.617  93.018  1.00  0.00    -0.006 C 
ATOM     11  C   UNL     1      87.687  90.469  95.000  1.00  0.00    -0.027 C 
ATOM     12  C   UNL     1      87.684  87.134  94.518  1.00  0.00     0.008 C 
ATOM     13  C   UNL     1      89.005  85.995  92.104  1.00  0.00     0.008 C 
ATOM     14  C   UNL     1      85.610  91.257  91.992  1.00  0.00     0.017 C 
ATOM     15  C   UNL     1      86.154  92.658  94.114  1.00  0.00    -0.020 C 
ATOM     16  C   UNL     1      88.160  91.779  95.534  1.00  0.00     0.032 C 
ATOM     17  C   UNL     1      87.174  92.956  95.309  1.00  0.00     0.006 C 
ATOM     18  C   UNL     1      85.631  93.963  93.437  1.00  0.00     0.008 C 
ATOM     19  C   UNL     1      84.876  91.998  94.767  1.00  0.00     0.012 C 
ATOM     20  C   UNL     1      87.799  94.445  95.542  1.00  0.00    -0.025 C 
ATOM     21  C   UNL     1      85.703  95.187  94.327  1.00  0.00     0.005 C 
ATOM     22  C   UNL     1      87.185  95.541  94.570  1.00  0.00     0.003 C 
ATOM     23  C   UNL     1      87.497  94.843  97.031  1.00  0.00     0.010 C 
ATOM     24  C   UNL     1      89.353  94.425  95.373  1.00  0.00     0.012 C 
ATOM     25  C   UNL     1      87.405  97.077  94.999  1.00  0.00    -0.006 C 
ATOM     26  C   UNL     1      87.856  96.281  97.405  1.00  0.00     0.033 C 
ATOM     27  C   UNL     1      87.114  97.288  96.520  1.00  0.00     0.120 C 
ATOM     28  C   UNL     1      86.451  98.039  94.220  1.00  0.00     0.014 C 
ATOM     29  C   UNL     1      88.855  97.552  94.647  1.00  0.00     0.014 C 
ENDROOT
BRANCH   1  30
ATOM     30  C   UNL     1      87.278  89.407  90.304  1.00  0.00     0.048 C 
ATOM     31  O   UNL     1      86.489  88.417  90.291  1.00  0.00    -0.550 OA
ATOM     32  O   UNL     1      87.267  90.265  89.209  1.00  0.00    -0.550 OA
ENDBRANCH   1  30
BRANCH  27  33
ATOM     33  O   UNL     1      87.487  98.587  96.928  1.00  0.00    -0.393 OA
ATOM     34  H   UNL     1      86.682  99.167  96.803  1.00  0.00     0.210 HD
ENDBRANCH  27  33
TORSDOF 2
ENDMDL
MODEL 2
REMARK VINA RESULT:    -5.154      2.091      3.528
REMARK INTER + INTRA:          -5.847
REMARK INTER:                  -5.618
REMARK INTRA:                  -0.229
REMARK UNBOUND:                -0.242
REMARK SMILES C[C@@H]1[C@H]2C3=CC[C@H]4[C@]5(C)CC[C@@H](O)C(C)(C)[C@@H]5CC[C@@]4(C)[C@@]3(C)CC[C@@]2(C(=O)[O-])CC[C@@H]1C
REMARK SMILES IDX 26 1 30 2 25 3 3 4 31 5 24 6 4 7 2 8 32 9 22 10 5 11 1 12
REMARK SMILES IDX 33 13 23 14 20 15 6 16 7 17 19 18 21 19 8 20 18 21 17 22
REMARK SMILES IDX 10 23 9 24 14 25 11 26 12 27 15 28 16 29 27 30 28 31 29 32
REMARK SMILES IDX 13 33
REMARK H PARENT 13 34
REMARK Flexibility Score: inf
ROOT
ATOM      1  C   UNL     1      91.555  88.509  91.490  1.00  0.00     0.017 C 
ATOM      2  C   UNL     1      92.610  87.447  91.944  1.00  0.00     0.014 C 
ATOM      3  C   UNL     1      91.567  89.669  92.570  1.00  0.00     0.014 C 
ATOM      4  C   UNL     1      90.057  87.942  91.251  1.00  0.00     0.030 C 
ATOM      5  C   UNL     1      92.051  86.331  92.811  1.00  0.00     0.004 C 
ATOM      6  C   UNL     1      90.423  90.754  92.567  1.00  0.00     0.013 C 
ATOM      7  C   UNL     1      88.985  88.985  91.715  1.00  0.00    -0.063 C 
ATOM      8  C   UNL     1      89.775  86.472  91.782  1.00  0.00    -0.003 C 
ATOM      9  C   UNL     1      91.004  85.554  92.025  1.00  0.00    -0.011 C 
ATOM     10  C   UNL     1      89.260  90.493  91.559  1.00  0.00    -0.006 C 
ATOM     11  C   UNL     1      87.945  88.617  92.495  1.00  0.00    -0.027 C 
ATOM     12  C   UNL     1      88.723  85.749  90.905  1.00  0.00     0.008 C 
ATOM     13  C   UNL     1      91.567  84.875  90.753  1.00  0.00     0.008 C 
ATOM     14  C   UNL     1      89.774  90.843  90.112  1.00  0.00     0.017 C 
ATOM     15  C   UNL     1      87.916  91.358  91.856  1.00  0.00    -0.020 C 
ATOM     16  C   UNL     1      87.515  89.485  93.629  1.00  0.00     0.032 C 
ATOM     17  C   UNL     1      87.205  90.952  93.230  1.00  0.00     0.006 C 
ATOM     18  C   UNL     1      88.191  92.891  91.757  1.00  0.00     0.008 C 
ATOM     19  C   UNL     1      86.878  91.056  90.705  1.00  0.00     0.012 C 
ATOM     20  C   UNL     1      87.092  92.005  94.472  1.00  0.00    -0.025 C 
ATOM     21  C   UNL     1      87.285  93.734  92.630  1.00  0.00     0.005 C 
ATOM     22  C   UNL     1      87.619  93.458  94.111  1.00  0.00     0.003 C 
ATOM     23  C   UNL     1      85.574  92.086  94.868  1.00  0.00     0.010 C 
ATOM     24  C   UNL     1      87.869  91.473  95.720  1.00  0.00     0.012 C 
ATOM     25  C   UNL     1      87.161  94.648  95.094  1.00  0.00    -0.006 C 
ATOM     26  C   UNL     1      85.230  93.151  95.909  1.00  0.00     0.033 C 
ATOM     27  C   UNL     1      85.637  94.549  95.429  1.00  0.00     0.120 C 
ATOM     28  C   UNL     1      87.390  96.053  94.452  1.00  0.00     0.014 C 
ATOM     29  C   UNL     1      88.012  94.645  96.408  1.00  0.00     0.014 C 
ENDROOT
BRANCH   1  30
ATOM     30  C   UNL     1      92.167  89.020  90.180  1.00  0.00     0.048 C 
ATOM     31  O   UNL     1      92.016  88.383  89.096  1.00  0.00    -0.550 OA
ATOM     32  O   UNL     1      93.020  90.120  90.178  1.00  0.00    -0.550 OA
ENDBRANCH   1  30
BRANCH  27  33
ATOM     33  O   UNL     1      85.283  95.476  96.433  1.00  0.00    -0.393 OA
ATOM     34  H   UNL     1      84.289  95.419  96.536  1.00  0.00     0.210 HD
ENDBRANCH  27  33
TORSDOF 2
ENDMDL
MODEL 3
REMARK VINA RESULT:    -5.111     10.755     14.550
REMARK INTER + INTRA:          -5.801
REMARK INTER:                  -5.559
REMARK INTRA:                  -0.242
REMARK UNBOUND:                -0.242
REMARK SMILES C[C@@H]1[C@H]2C3=CC[C@H]4[C@]5(C)CC[C@@H](O)C(C)(C)[C@@H]5CC[C@@]4(C)[C@@]3(C)CC[C@@]2(C(=O)[O-])CC[C@@H]1C
REMARK SMILES IDX 26 1 30 2 25 3 3 4 31 5 24 6 4 7 2 8 32 9 22 10 5 11 1 12
REMARK SMILES IDX 33 13 23 14 20 15 6 16 7 17 19 18 21 19 8 20 18 21 17 22
REMARK SMILES IDX 10 23 9 24 14 25 11 26 12 27 15 28 16 29 27 30 28 31 29 32
REMARK SMILES IDX 13 33
REMARK H PARENT 13 34
REMARK Flexibility Score: inf
ROOT
ATOM      1  C   UNL     1      96.474  88.809  96.315  1.00  0.00     0.017 C 
ATOM      2  C   UNL     1      94.949  88.993  96.023  1.00  0.00     0.014 C 
ATOM      3  C   UNL     1      97.250  89.172  94.981  1.00  0.00     0.014 C 
ATOM      4  C   UNL     1      96.905  87.350  96.870  1.00  0.00     0.030 C 
ATOM      5  C   UNL     1      94.240  87.736  95.545  1.00  0.00     0.004 C 
ATOM      6  C   UNL     1      98.781  88.818  94.845  1.00  0.00     0.013 C 
ATOM      7  C   UNL     1      98.294  86.920  96.288  1.00  0.00    -0.063 C 
ATOM      8  C   UNL     1      95.801  86.213  96.771  1.00  0.00    -0.003 C 
ATOM      9  C   UNL     1      94.323  86.665  96.624  1.00  0.00    -0.011 C 
ATOM     10  C   UNL     1      99.378  87.979  96.019  1.00  0.00    -0.006 C 
ATOM     11  C   UNL     1      98.477  85.690  95.759  1.00  0.00    -0.027 C 
ATOM     12  C   UNL     1      95.943  85.188  97.924  1.00  0.00     0.008 C 
ATOM     13  C   UNL     1      93.635  87.073  97.950  1.00  0.00     0.008 C 
ATOM     14  C   UNL     1      99.575  88.935  97.256  1.00  0.00     0.017 C 
ATOM     15  C   UNL     1     100.802  87.274  95.675  1.00  0.00    -0.020 C 
ATOM     16  C   UNL     1      99.262  85.524  94.502  1.00  0.00     0.032 C 
ATOM     17  C   UNL     1     100.682  86.148  94.548  1.00  0.00     0.006 C 
ATOM     18  C   UNL     1     101.898  88.334  95.346  1.00  0.00     0.008 C 
ATOM     19  C   UNL     1     101.315  86.551  96.982  1.00  0.00     0.012 C 
ATOM     20  C   UNL     1     101.419  86.311  93.101  1.00  0.00    -0.025 C 
ATOM     21  C   UNL     1     102.972  87.832  94.402  1.00  0.00     0.005 C 
ATOM     22  C   UNL     1     102.345  87.597  93.012  1.00  0.00     0.003 C 
ATOM     23  C   UNL     1     102.294  85.024  92.883  1.00  0.00     0.010 C 
ATOM     24  C   UNL     1     100.367  86.356  91.946  1.00  0.00     0.012 C 
ATOM     25  C   UNL     1     103.428  87.616  91.820  1.00  0.00    -0.006 C 
ATOM     26  C   UNL     1     103.202  85.056  91.654  1.00  0.00     0.033 C 
ATOM     27  C   UNL     1     104.169  86.244  91.707  1.00  0.00     0.120 C 
ATOM     28  C   UNL     1     104.525  88.703  92.049  1.00  0.00     0.014 C 
ATOM     29  C   UNL     1     102.751  87.986  90.457  1.00  0.00     0.014 C 
ENDROOT
BRANCH   1  30
ATOM     30  C   UNL     1      96.726  89.897  97.367  1.00  0.00     0.048 C 
ATOM     31  O   UNL     1      96.528  89.674  98.598  1.00  0.00    -0.550 OA
ATOM     32  O   UNL     1      97.044  91.195  96.982  1.00  0.00    -0.550 OA
ENDBRANCH   1  30
BRANCH  27  33
ATOM     33  O   UNL     1     104.977  86.203  90.550  1.00  0.00    -0.393 OA
ATOM     34  H   UNL     1     104.353  86.170  89.769  1.00  0.00     0.210 HD
ENDBRANCH  27  33
TORSDOF 2
ENDMDL
MODEL 4
REMARK VINA RESULT:    -5.036      2.354      7.957
REMARK INTER + INTRA:          -5.719
REMARK INTER:                  -5.476
REMARK INTRA:                  -0.242
REMARK UNBOUND:                -0.242
REMARK SMILES C[C@@H]1[C@H]2C3=CC[C@H]4[C@]5(C)CC[C@@H](O)C(C)(C)[C@@H]5CC[C@@]4(C)[C@@]3(C)CC[C@@]2(C(=O)[O-])CC[C@@H]1C
REMARK SMILES IDX 26 1 30 2 25 3 3 4 31 5 24 6 4 7 2 8 32 9 22 10 5 11 1 12
REMARK SMILES IDX 33 13 23 14 20 15 6 16 7 17 19 18 21 19 8 20 18 21 17 22
REMARK SMILES IDX 10 23 9 24 14 25 11 26 12 27 15 28 16 29 27 30 28 31 29 32
REMARK SMILES IDX 13 33
REMARK H PARENT 13 34
REMARK Flexibility Score: inf
ROOT
ATOM      1  C   UNL     1      87.818  95.135  93.753  1.00  0.00     0.017 C 
ATOM      2  C   UNL     1      86.920  96.121  92.936  1.00  0.00     0.014 C 
ATOM      3  C   UNL     1      88.375  94.057  92.733  1.00  0.00     0.014 C 
ATOM      4  C   UNL     1      87.100  94.430  95.022  1.00  0.00     0.030 C 
ATOM      5  C   UNL     1      85.448  95.745  92.889  1.00  0.00     0.004 C 
ATOM      6  C   UNL     1      89.081  92.756  93.275  1.00  0.00     0.013 C 
ATOM      7  C   UNL     1      87.584  92.949  95.185  1.00  0.00    -0.063 C 
ATOM      8  C   UNL     1      85.522  94.589  95.107  1.00  0.00    -0.003 C 
ATOM      9  C   UNL     1      84.878  95.749  94.301  1.00  0.00    -0.011 C 
ATOM     10  C   UNL     1      89.032  92.569  94.825  1.00  0.00    -0.006 C 
ATOM     11  C   UNL     1      86.701  91.944  95.372  1.00  0.00    -0.027 C 
ATOM     12  C   UNL     1      85.037  94.615  96.577  1.00  0.00     0.008 C 
ATOM     13  C   UNL     1      84.951  97.134  94.990  1.00  0.00     0.008 C 
ATOM     14  C   UNL     1      90.072  93.559  95.473  1.00  0.00     0.017 C 
ATOM     15  C   UNL     1      89.373  91.059  95.323  1.00  0.00    -0.020 C 
ATOM     16  C   UNL     1      86.883  90.646  94.660  1.00  0.00     0.032 C 
ATOM     17  C   UNL     1      88.274  89.991  94.869  1.00  0.00     0.006 C 
ATOM     18  C   UNL     1      90.819  90.638  94.916  1.00  0.00     0.008 C 
ATOM     19  C   UNL     1      89.378  91.057  96.902  1.00  0.00     0.012 C 
ATOM     20  C   UNL     1      88.639  88.783  93.834  1.00  0.00    -0.025 C 
ATOM     21  C   UNL     1      90.989  89.146  94.712  1.00  0.00     0.005 C 
ATOM     22  C   UNL     1      90.183  88.718  93.467  1.00  0.00     0.003 C 
ATOM     23  C   UNL     1      88.213  87.439  94.527  1.00  0.00     0.010 C 
ATOM     24  C   UNL     1      87.805  88.911  92.518  1.00  0.00     0.012 C 
ATOM     25  C   UNL     1      90.705  87.338  92.821  1.00  0.00    -0.006 C 
ATOM     26  C   UNL     1      88.626  86.167  93.787  1.00  0.00     0.033 C 
ATOM     27  C   UNL     1      90.146  86.102  93.597  1.00  0.00     0.120 C 
ATOM     28  C   UNL     1      92.262  87.230  92.864  1.00  0.00     0.014 C 
ATOM     29  C   UNL     1      90.322  87.253  91.305  1.00  0.00     0.014 C 
ENDROOT
BRANCH   1  30
ATOM     30  C   UNL     1      88.961  96.052  94.205  1.00  0.00     0.048 C 
ATOM     31  O   UNL     1      88.870  96.735  95.268  1.00  0.00    -0.550 OA
ATOM     32  O   UNL     1      90.066  96.263  93.387  1.00  0.00    -0.550 OA
ENDBRANCH   1  30
BRANCH  27  33
ATOM     33  O   UNL     1      90.450  84.903  92.918  1.00  0.00    -0.393 OA
ATOM     34  H   UNL     1      90.540  84.194  93.618  1.00  0.00     0.210 HD
ENDBRANCH  27  33
TORSDOF 2
ENDMDL
MODEL 5
REMARK VINA RESULT:    -5.033      4.546      7.970
REMARK INTER + INTRA:          -5.716
REMARK INTER:                  -5.473
REMARK INTRA:                  -0.243
REMARK UNBOUND:                -0.242
REMARK SMILES C[C@@H]1[C@H]2C3=CC[C@H]4[C@]5(C)CC[C@@H](O)C(C)(C)[C@@H]5CC[C@@]4(C)[C@@]3(C)CC[C@@]2(C(=O)[O-])CC[C@@H]1C
REMARK SMILES IDX 26 1 30 2 25 3 3 4 31 5 24 6 4 7 2 8 32 9 22 10 5 11 1 12
REMARK SMILES IDX 33 13 23 14 20 15 6 16 7 17 19 18 21 19 8 20 18 21 17 22
REMARK SMILES IDX 10 23 9 24 14 25 11 26 12 27 15 28 16 29 27 30 28 31 29 32
REMARK SMILES IDX 13 33
REMARK H PARENT 13 34
REMARK Flexibility Score: inf
ROOT
ATOM      1  C   UNL     1      91.358  89.460  98.860  1.00  0.00     0.017 C 
ATOM      2  C   UNL     1      90.980  89.113 100.338  1.00  0.00     0.014 C 
ATOM      3  C   UNL     1      90.030  89.942  98.141  1.00  0.00     0.014 C 
ATOM      4  C   UNL     1      92.080  88.272  98.030  1.00  0.00     0.030 C 
ATOM      5  C   UNL     1      90.603  87.659 100.569  1.00  0.00     0.004 C 
ATOM      6  C   UNL     1      90.000  90.096  96.572  1.00  0.00     0.013 C 
ATOM      7  C   UNL     1      91.608  88.269  96.536  1.00  0.00    -0.063 C 
ATOM      8  C   UNL     1      92.049  86.834  98.702  1.00  0.00    -0.003 C 
ATOM      9  C   UNL     1      91.790  86.767 100.232  1.00  0.00    -0.011 C 
ATOM     10  C   UNL     1      91.280  89.598  95.830  1.00  0.00    -0.006 C 
ATOM     11  C   UNL     1      91.219  87.126  95.930  1.00  0.00    -0.027 C 
ATOM     12  C   UNL     1      93.307  86.011  98.329  1.00  0.00     0.008 C 
ATOM     13  C   UNL     1      93.034  87.038 101.112  1.00  0.00     0.008 C 
ATOM     14  C   UNL     1      92.418  90.665  96.042  1.00  0.00     0.017 C 
ATOM     15  C   UNL     1      91.075  89.367  94.234  1.00  0.00    -0.020 C 
ATOM     16  C   UNL     1      90.022  87.120  95.041  1.00  0.00     0.032 C 
ATOM     17  C   UNL     1      90.066  88.173  93.902  1.00  0.00     0.006 C 
ATOM     18  C   UNL     1      90.687  90.695  93.511  1.00  0.00     0.008 C 
ATOM     19  C   UNL     1      92.472  88.962  93.617  1.00  0.00     0.012 C 
ATOM     20  C   UNL     1      88.645  88.445  93.147  1.00  0.00    -0.025 C 
ATOM     21  C   UNL     1      89.850  90.492  92.265  1.00  0.00     0.005 C 
ATOM     22  C   UNL     1      88.465  89.951  92.676  1.00  0.00     0.003 C 
ATOM     23  C   UNL     1      88.601  87.500  91.894  1.00  0.00     0.010 C 
ATOM     24  C   UNL     1      87.445  88.050  94.068  1.00  0.00     0.012 C 
ATOM     25  C   UNL     1      87.327  90.220  91.569  1.00  0.00    -0.006 C 
ATOM     26  C   UNL     1      87.417  87.722  90.952  1.00  0.00     0.033 C 
ATOM     27  C   UNL     1      87.391  89.160  90.422  1.00  0.00     0.120 C 
ATOM     28  C   UNL     1      87.492  91.621  90.897  1.00  0.00     0.014 C 
ATOM     29  C   UNL     1      85.905  90.236  92.223  1.00  0.00     0.014 C 
ENDROOT
BRANCH   1  30
ATOM     30  C   UNL     1      92.302  90.655  99.049  1.00  0.00     0.048 C 
ATOM     31  O   UNL     1      93.538  90.483  99.263  1.00  0.00    -0.550 OA
ATOM     32  O   UNL     1      91.799  91.949  99.130  1.00  0.00    -0.550 OA
ENDBRANCH   1  30
BRANCH  27  33
ATOM     33  O   UNL     1      86.281  89.287  89.558  1.00  0.00    -0.393 OA
ATOM     34  H   UNL     1      85.797  90.117  89.837  1.00  0.00     0.210 HD
ENDBRANCH  27  33
TORSDOF 2
ENDMDL
MODEL 6
REMARK VINA RESULT:    -5.023      6.381      9.866
REMARK INTER + INTRA:          -5.705
REMARK INTER:                  -5.465
REMARK INTRA:                  -0.241
REMARK UNBOUND:                -0.242
REMARK SMILES C[C@@H]1[C@H]2C3=CC[C@H]4[C@]5(C)CC[C@@H](O)C(C)(C)[C@@H]5CC[C@@]4(C)[C@@]3(C)CC[C@@]2(C(=O)[O-])CC[C@@H]1C
REMARK SMILES IDX 26 1 30 2 25 3 3 4 31 5 24 6 4 7 2 8 32 9 22 10 5 11 1 12
REMARK SMILES IDX 33 13 23 14 20 15 6 16 7 17 19 18 21 19 8 20 18 21 17 22
REMARK SMILES IDX 10 23 9 24 14 25 11 26 12 27 15 28 16 29 27 30 28 31 29 32
REMARK SMILES IDX 13 33
REMARK H PARENT 13 34
REMARK Flexibility Score: inf
ROOT
ATOM      1  C   UNL     1      95.255  87.801  98.667  1.00  0.00     0.017 C 
ATOM      2  C   UNL     1      96.813  87.891  98.777  1.00  0.00     0.014 C 
ATOM      3  C   UNL     1      94.929  86.917  97.393  1.00  0.00     0.014 C 
ATOM      4  C   UNL     1      94.479  89.221  98.615  1.00  0.00     0.030 C 
ATOM      5  C   UNL     1      97.427  89.092  98.075  1.00  0.00     0.004 C 
ATOM      6  C   UNL     1      93.456  86.865  96.833  1.00  0.00     0.013 C 
ATOM      7  C   UNL     1      93.249  89.148  97.648  1.00  0.00    -0.063 C 
ATOM      8  C   UNL     1      95.386  90.503  98.385  1.00  0.00    -0.003 C 
ATOM      9  C   UNL     1      96.899  90.373  98.705  1.00  0.00    -0.011 C 
ATOM     10  C   UNL     1      92.447  87.840  97.518  1.00  0.00    -0.006 C 
ATOM     11  C   UNL     1      93.032  90.109  96.723  1.00  0.00    -0.027 C 
ATOM     12  C   UNL     1      94.788  91.749  99.086  1.00  0.00     0.008 C 
ATOM     13  C   UNL     1      97.259  90.516 100.204  1.00  0.00     0.008 C 
ATOM     14  C   UNL     1      92.071  87.247  98.928  1.00  0.00     0.017 C 
ATOM     15  C   UNL     1      91.080  88.083  96.674  1.00  0.00    -0.020 C 
ATOM     16  C   UNL     1      92.598  89.738  95.345  1.00  0.00     0.032 C 
ATOM     17  C   UNL     1      91.328  88.848  95.293  1.00  0.00     0.006 C 
ATOM     18  C   UNL     1      90.283  86.754  96.485  1.00  0.00     0.008 C 
ATOM     19  C   UNL     1      90.132  89.006  97.537  1.00  0.00     0.012 C 
ATOM     20  C   UNL     1      91.038  88.128  93.857  1.00  0.00    -0.025 C 
ATOM     21  C   UNL     1      89.439  86.719  95.227  1.00  0.00     0.005 C 
ATOM     22  C   UNL     1      90.373  86.693  94.000  1.00  0.00     0.003 C 
ATOM     23  C   UNL     1      90.072  89.072  93.056  1.00  0.00     0.010 C 
ATOM     24  C   UNL     1      92.356  88.001  93.026  1.00  0.00     0.012 C 
ATOM     25  C   UNL     1      89.666  86.101  92.680  1.00  0.00    -0.006 C 
ATOM     26  C   UNL     1      89.542  88.496  91.742  1.00  0.00     0.033 C 
ATOM     27  C   UNL     1      88.785  87.183  91.976  1.00  0.00     0.120 C 
ATOM     28  C   UNL     1      88.722  84.902  93.015  1.00  0.00     0.014 C 
ATOM     29  C   UNL     1      90.731  85.529  91.685  1.00  0.00     0.014 C 
ENDROOT
BRANCH   1  30
ATOM     30  C   UNL     1      94.896  87.021  99.938  1.00  0.00     0.048 C 
ATOM     31  O   UNL     1      94.692  87.619 101.036  1.00  0.00    -0.550 OA
ATOM     32  O   UNL     1      94.922  85.630  99.948  1.00  0.00    -0.550 OA
ENDBRANCH   1  30
BRANCH  27  33
ATOM     33  O   UNL     1      88.321  86.719  90.726  1.00  0.00    -0.393 OA
ATOM     34  H   UNL     1      89.059  86.169  90.335  1.00  0.00     0.210 HD
ENDBRANCH  27  33
TORSDOF 2
ENDMDL
MODEL 7
REMARK VINA RESULT:    -5.001      3.768      7.777
REMARK INTER + INTRA:          -5.681
REMARK INTER:                  -5.440
REMARK INTRA:                  -0.241
REMARK UNBOUND:                -0.242
REMARK SMILES C[C@@H]1[C@H]2C3=CC[C@H]4[C@]5(C)CC[C@@H](O)C(C)(C)[C@@H]5CC[C@@]4(C)[C@@]3(C)CC[C@@]2(C(=O)[O-])CC[C@@H]1C
REMARK SMILES IDX 26 1 30 2 25 3 3 4 31 5 24 6 4 7 2 8 32 9 22 10 5 11 1 12
REMARK SMILES IDX 33 13 23 14 20 15 6 16 7 17 19 18 21 19 8 20 18 21 17 22
REMARK SMILES IDX 10 23 9 24 14 25 11 26 12 27 15 28 16 29 27 30 28 31 29 32
REMARK SMILES IDX 13 33
REMARK H PARENT 13 34
REMARK Flexibility Score: inf
ROOT
ATOM      1  C   UNL     1      88.172  94.975  89.082  1.00  0.00     0.017 C 
ATOM      2  C   UNL     1      89.119  95.840  88.187  1.00  0.00     0.014 C 
ATOM      3  C   UNL     1      89.092  94.174  90.095  1.00  0.00     0.014 C 
ATOM      4  C   UNL     1      87.174  93.982  88.280  1.00  0.00     0.030 C 
ATOM      5  C   UNL     1      89.558  95.169  86.896  1.00  0.00     0.004 C 
ATOM      6  C   UNL     1      88.479  92.996  90.945  1.00  0.00     0.013 C 
ATOM      7  C   UNL     1      86.996  92.630  89.050  1.00  0.00    -0.063 C 
ATOM      8  C   UNL     1      87.477  93.791  86.733  1.00  0.00    -0.003 C 
ATOM      9  C   UNL     1      88.337  94.878  86.035  1.00  0.00    -0.011 C 
ATOM     10  C   UNL     1      87.008  92.613  90.590  1.00  0.00    -0.006 C 
ATOM     11  C   UNL     1      87.105  91.444  88.411  1.00  0.00    -0.027 C 
ATOM     12  C   UNL     1      86.176  93.531  85.933  1.00  0.00     0.008 C 
ATOM     13  C   UNL     1      87.560  96.151  85.619  1.00  0.00     0.008 C 
ATOM     14  C   UNL     1      86.055  93.714  91.190  1.00  0.00     0.017 C 
ATOM     15  C   UNL     1      86.544  91.161  91.154  1.00  0.00    -0.020 C 
ATOM     16  C   UNL     1      87.835  90.312  89.051  1.00  0.00     0.032 C 
ATOM     17  C   UNL     1      87.330  89.948  90.472  1.00  0.00     0.006 C 
ATOM     18  C   UNL     1      86.603  91.109  92.713  1.00  0.00     0.008 C 
ATOM     19  C   UNL     1      85.018  90.965  90.799  1.00  0.00     0.012 C 
ATOM     20  C   UNL     1      88.320  88.982  91.338  1.00  0.00    -0.025 C 
ATOM     21  C   UNL     1      86.860  89.725  93.271  1.00  0.00     0.005 C 
ATOM     22  C   UNL     1      88.293  89.292  92.895  1.00  0.00     0.003 C 
ATOM     23  C   UNL     1      87.849  87.503  91.094  1.00  0.00     0.010 C 
ATOM     24  C   UNL     1      89.791  89.091  90.821  1.00  0.00     0.012 C 
ATOM     25  C   UNL     1      88.880  88.145  93.861  1.00  0.00    -0.006 C 
ATOM     26  C   UNL     1      88.547  86.449  91.954  1.00  0.00     0.033 C 
ATOM     27  C   UNL     1      88.355  86.733  93.448  1.00  0.00     0.120 C 
ATOM     28  C   UNL     1      88.455  88.366  95.348  1.00  0.00     0.014 C 
ATOM     29  C   UNL     1      90.445  88.168  93.866  1.00  0.00     0.014 C 
ENDROOT
BRANCH   1  30
ATOM     30  C   UNL     1      87.387  96.051  89.842  1.00  0.00     0.048 C 
ATOM     31  O   UNL     1      86.355  96.585  89.338  1.00  0.00    -0.550 OA
ATOM     32  O   UNL     1      87.869  96.566  91.041  1.00  0.00    -0.550 OA
ENDBRANCH   1  30
BRANCH  27  33
ATOM     33  O   UNL     1      89.015  85.718  94.174  1.00  0.00    -0.393 OA
ATOM     34  H   UNL     1      89.947  86.044  94.335  1.00  0.00     0.210 HD
ENDBRANCH  27  33
TORSDOF 2
ENDMDL
MODEL 8
REMARK VINA RESULT:    -4.998      1.326      8.174
REMARK INTER + INTRA:          -5.677
REMARK INTER:                  -5.436
REMARK INTRA:                  -0.242
REMARK UNBOUND:                -0.242
REMARK SMILES C[C@@H]1[C@H]2C3=CC[C@H]4[C@]5(C)CC[C@@H](O)C(C)(C)[C@@H]5CC[C@@]4(C)[C@@]3(C)CC[C@@]2(C(=O)[O-])CC[C@@H]1C
REMARK SMILES IDX 26 1 30 2 25 3 3 4 31 5 24 6 4 7 2 8 32 9 22 10 5 11 1 12
REMARK SMILES IDX 33 13 23 14 20 15 6 16 7 17 19 18 21 19 8 20 18 21 17 22
REMARK SMILES IDX 10 23 9 24 14 25 11 26 12 27 15 28 16 29 27 30 28 31 29 32
REMARK SMILES IDX 13 33
REMARK H PARENT 13 34
REMARK Flexibility Score: inf
ROOT
ATOM      1  C   UNL     1      88.477  96.264  95.175  1.00  0.00     0.017 C 
ATOM      2  C   UNL     1      89.167  97.626  94.833  1.00  0.00     0.014 C 
ATOM      3  C   UNL     1      89.351  95.121  94.511  1.00  0.00     0.014 C 
ATOM      4  C   UNL     1      86.921  96.146  94.740  1.00  0.00     0.030 C 
ATOM      5  C   UNL     1      88.657  98.293  93.566  1.00  0.00     0.004 C 
ATOM      6  C   UNL     1      88.781  93.653  94.421  1.00  0.00     0.013 C 
ATOM      7  C   UNL     1      86.591  94.698  94.241  1.00  0.00    -0.063 C 
ATOM      8  C   UNL     1      86.378  97.284  93.776  1.00  0.00    -0.003 C 
ATOM      9  C   UNL     1      87.177  98.614  93.721  1.00  0.00    -0.011 C 
ATOM     10  C   UNL     1      87.297  93.485  94.874  1.00  0.00    -0.006 C 
ATOM     11  C   UNL     1      85.911  94.496  93.090  1.00  0.00    -0.027 C 
ATOM     12  C   UNL     1      84.875  97.564  94.025  1.00  0.00     0.008 C 
ATOM     13  C   UNL     1      86.878  99.597  94.879  1.00  0.00     0.008 C 
ATOM     14  C   UNL     1      87.254  93.544  96.448  1.00  0.00     0.017 C 
ATOM     15  C   UNL     1      86.606  92.097  94.387  1.00  0.00    -0.020 C 
ATOM     16  C   UNL     1      86.332  93.416  92.152  1.00  0.00     0.032 C 
ATOM     17  C   UNL     1      86.434  92.010  92.801  1.00  0.00     0.006 C 
ATOM     18  C   UNL     1      87.344  90.855  94.977  1.00  0.00     0.008 C 
ATOM     19  C   UNL     1      85.152  92.034  95.002  1.00  0.00     0.012 C 
ATOM     20  C   UNL     1      87.231  90.891  91.919  1.00  0.00    -0.025 C 
ATOM     21  C   UNL     1      87.250  89.616  94.109  1.00  0.00     0.005 C 
ATOM     22  C   UNL     1      88.044  89.857  92.808  1.00  0.00     0.003 C 
ATOM     23  C   UNL     1      86.154  90.118  91.076  1.00  0.00     0.010 C 
ATOM     24  C   UNL     1      88.207  91.575  90.908  1.00  0.00     0.012 C 
ATOM     25  C   UNL     1      88.494  88.491  92.082  1.00  0.00    -0.006 C 
ATOM     26  C   UNL     1      86.679  88.908  90.303  1.00  0.00     0.033 C 
ATOM     27  C   UNL     1      87.323  87.883  91.244  1.00  0.00     0.120 C 
ATOM     28  C   UNL     1      88.924  87.400  93.113  1.00  0.00     0.014 C 
ATOM     29  C   UNL     1      89.749  88.729  91.177  1.00  0.00     0.014 C 
ENDROOT
BRANCH   1  30
ATOM     30  C   UNL     1      88.630  96.208  96.700  1.00  0.00     0.048 C 
ATOM     31  O   UNL     1      87.785  96.763  97.462  1.00  0.00    -0.550 OA
ATOM     32  O   UNL     1      89.775  95.667  97.277  1.00  0.00    -0.550 OA
ENDBRANCH   1  30
BRANCH  27  33
ATOM     33  O   UNL     1      87.774  86.797  90.464  1.00  0.00    -0.393 OA
ATOM     34  H   UNL     1      86.965  86.255  90.235  1.00  0.00     0.210 HD
ENDBRANCH  27  33
TORSDOF 2
ENDMDL
MODEL 9
REMARK VINA RESULT:    -4.892     10.972     15.447
REMARK INTER + INTRA:          -5.562
REMARK INTER:                  -5.320
REMARK INTRA:                  -0.242
REMARK UNBOUND:                -0.242
REMARK SMILES C[C@@H]1[C@H]2C3=CC[C@H]4[C@]5(C)CC[C@@H](O)C(C)(C)[C@@H]5CC[C@@]4(C)[C@@]3(C)CC[C@@]2(C(=O)[O-])CC[C@@H]1C
REMARK SMILES IDX 26 1 30 2 25 3 3 4 31 5 24 6 4 7 2 8 32 9 22 10 5 11 1 12
REMARK SMILES IDX 33 13 23 14 20 15 6 16 7 17 19 18 21 19 8 20 18 21 17 22
REMARK SMILES IDX 10 23 9 24 14 25 11 26 12 27 15 28 16 29 27 30 28 31 29 32
REMARK SMILES IDX 13 33
REMARK H PARENT 13 34
REMARK Flexibility Score: inf
ROOT
ATOM      1  C   UNL     1     100.220 102.507  93.349  1.00  0.00     0.017 C 
ATOM      2  C   UNL     1     101.336 103.024  92.383  1.00  0.00     0.014 C 
ATOM      3  C   UNL     1      98.868 102.469  92.521  1.00  0.00     0.014 C 
ATOM      4  C   UNL     1     100.046 103.346  94.723  1.00  0.00     0.030 C 
ATOM      5  C   UNL     1     101.548 104.529  92.411  1.00  0.00     0.004 C 
ATOM      6  C   UNL     1      97.496 102.266  93.271  1.00  0.00     0.013 C 
ATOM      7  C   UNL     1      98.536 103.442  95.130  1.00  0.00    -0.063 C 
ATOM      8  C   UNL     1     100.806 104.738  94.790  1.00  0.00    -0.003 C 
ATOM      9  C   UNL     1     101.987 104.954  93.805  1.00  0.00    -0.011 C 
ATOM     10  C   UNL     1      97.581 102.273  94.830  1.00  0.00    -0.006 C 
ATOM     11  C   UNL     1      97.986 104.623  95.490  1.00  0.00    -0.027 C 
ATOM     12  C   UNL     1     101.241 105.073  96.239  1.00  0.00     0.008 C 
ATOM     13  C   UNL     1     103.327 104.319  94.250  1.00  0.00     0.008 C 
ATOM     14  C   UNL     1      98.186 100.894  95.294  1.00  0.00     0.017 C 
ATOM     15  C   UNL     1      96.152 102.489  95.573  1.00  0.00    -0.020 C 
ATOM     16  C   UNL     1      96.624 104.993  95.006  1.00  0.00     0.032 C 
ATOM     17  C   UNL     1      95.528 103.938  95.312  1.00  0.00     0.006 C 
ATOM     18  C   UNL     1      95.153 101.340  95.233  1.00  0.00     0.008 C 
ATOM     19  C   UNL     1      96.390 102.374  97.130  1.00  0.00     0.012 C 
ATOM     20  C   UNL     1      94.129 104.127  94.493  1.00  0.00    -0.025 C 
ATOM     21  C   UNL     1      93.697 101.758  95.282  1.00  0.00     0.005 C 
ATOM     22  C   UNL     1      93.424 102.751  94.133  1.00  0.00     0.003 C 
ATOM     23  C   UNL     1      93.174 104.977  95.406  1.00  0.00     0.010 C 
ATOM     24  C   UNL     1      94.363 104.942  93.180  1.00  0.00     0.012 C 
ATOM     25  C   UNL     1      91.869 102.832  93.725  1.00  0.00    -0.006 C 
ATOM     26  C   UNL     1      91.743 105.125  94.889  1.00  0.00     0.033 C 
ATOM     27  C   UNL     1      91.075 103.758  94.702  1.00  0.00     0.120 C 
ATOM     28  C   UNL     1      91.182 101.430  93.776  1.00  0.00     0.014 C 
ATOM     29  C   UNL     1      91.705 103.324  92.247  1.00  0.00     0.014 C 
ENDROOT
BRANCH   1  30
ATOM     30  C   UNL     1     100.689 101.074  93.632  1.00  0.00     0.048 C 
ATOM     31  O   UNL     1     101.521 100.829  94.555  1.00  0.00    -0.550 OA
ATOM     32  O   UNL     1     100.318 100.028  92.793  1.00  0.00    -0.550 OA
ENDBRANCH   1  30
BRANCH  27  33
ATOM     33  O   UNL     1      89.761 103.974  94.233  1.00  0.00    -0.393 OA
ATOM     34  H   UNL     1      89.569 104.947  94.362  1.00  0.00     0.210 HD
ENDBRANCH  27  33
TORSDOF 2
ENDMDL
