MODEL 1
REMARK VINA RESULT:    -5.087      0.000      0.000
REMARK INTER + INTRA:         -16.153
REMARK INTER:                 -11.630
REMARK INTRA:                  -4.523
REMARK UNBOUND:                -4.523
REMARK SMILES CCCCCCCCCCCCCCCCCCCCCCCC(=O)[O-]
REMARK SMILES IDX 13 1 14 2 15 3 16 4 17 5 18 6 19 7 20 8 21 9 22 10 23 11
REMARK SMILES IDX 24 12 25 13 26 14 12 15 11 16 10 17 9 18 8 19 7 20 6 21 5 22
REMARK SMILES IDX 4 23 3 24 2 25 1 26
REMARK H PARENT
REMARK Flexibility Score: inf
ROOT
ATOM      1  C   UNL     1       2.092  54.013  20.001  1.00  0.00     0.000 C 
ENDROOT
BRANCH   1   2
ATOM      2  C   UNL     1       0.931  54.789  20.649  1.00  0.00     0.000 C 
BRANCH   2   3
ATOM      3  C   UNL     1      -0.424  54.083  20.466  1.00  0.00     0.000 C 
BRANCH   3   4
ATOM      4  C   UNL     1      -1.524  55.024  19.950  1.00  0.00     0.000 C 
BRANCH   4   5
ATOM      5  C   UNL     1      -2.453  54.346  18.925  1.00  0.00     0.000 C 
BRANCH   5   6
ATOM      6  C   UNL     1      -1.683  53.612  17.818  1.00  0.00     0.000 C 
BRANCH   6   7
ATOM      7  C   UNL     1      -2.260  52.219  17.516  1.00  0.00     0.000 C 
BRANCH   7   8
ATOM      8  C   UNL     1      -1.673  51.136  18.437  1.00  0.00     0.000 C 
BRANCH   8   9
ATOM      9  C   UNL     1      -2.599  50.813  19.623  1.00  0.00     0.000 C 
BRANCH   9  10
ATOM     10  C   UNL     1      -1.868  50.856  20.974  1.00  0.00     0.006 C 
BRANCH  10  11
ATOM     11  C   UNL     1      -2.828  50.775  22.168  1.00  0.00     0.053 C 
BRANCH  11  12
ATOM     12  C   UNL     1      -2.746  52.023  22.988  1.00  0.00     0.041 C 
ATOM     13  O   UNL     1      -2.186  52.004  24.116  1.00  0.00    -0.550 OA
ATOM     14  O   UNL     1      -3.233  53.221  22.483  1.00  0.00    -0.550 OA
ENDBRANCH  11  12
ENDBRANCH  10  11
ENDBRANCH   9  10
ENDBRANCH   8   9
ENDBRANCH   7   8
ENDBRANCH   6   7
ENDBRANCH   5   6
ENDBRANCH   4   5
ENDBRANCH   3   4
ENDBRANCH   2   3
ENDBRANCH   1   2
BRANCH   1  15
ATOM     15  C   UNL     1       1.637  52.701  19.340  1.00  0.00     0.000 C 
BRANCH  15  16
ATOM     16  C   UNL     1       2.112  52.569  17.880  1.00  0.00     0.000 C 
BRANCH  16  17
ATOM     17  C   UNL     1       1.719  53.735  16.956  1.00  0.00     0.000 C 
BRANCH  17  18
ATOM     18  C   UNL     1       2.936  54.450  16.341  1.00  0.00    -0.000 C 
BRANCH  18  19
ATOM     19  C   UNL     1       4.245  54.128  17.082  1.00  0.00    -0.000 C 
BRANCH  19  20
ATOM     20  C   UNL     1       4.942  55.384  17.626  1.00  0.00    -0.000 C 
BRANCH  20  21
ATOM     21  C   UNL     1       4.166  56.651  17.249  1.00  0.00    -0.000 C 
BRANCH  21  22
ATOM     22  C   UNL     1       3.431  57.231  18.470  1.00  0.00    -0.000 C 
BRANCH  22  23
ATOM     23  C   UNL     1       2.153  57.994  18.089  1.00  0.00    -0.000 C 
BRANCH  23  24
ATOM     24  C   UNL     1       0.901  57.105  18.105  1.00  0.00    -0.000 C 
BRANCH  24  25
ATOM     25  C   UNL     1       0.239  57.067  16.723  1.00  0.00    -0.003 C 
ATOM     26  C   UNL     1      -1.281  57.137  16.835  1.00  0.00     0.004 C 
ENDBRANCH  24  25
ENDBRANCH  23  24
ENDBRANCH  22  23
ENDBRANCH  21  22
ENDBRANCH  20  21
ENDBRANCH  19  20
ENDBRANCH  18  19
ENDBRANCH  17  18
ENDBRANCH  16  17
ENDBRANCH  15  16
ENDBRANCH   1  15
TORSDOF 22
ENDMDL
MODEL 2
REMARK VINA RESULT:    -4.971      4.057      7.705
REMARK INTER + INTRA:         -15.887
REMARK INTER:                 -11.872
REMARK INTRA:                  -4.015
REMARK UNBOUND:                -4.523
REMARK SMILES CCCCCCCCCCCCCCCCCCCCCCCC(=O)[O-]
REMARK SMILES IDX 13 1 14 2 15 3 16 4 17 5 18 6 19 7 20 8 21 9 22 10 23 11
REMARK SMILES IDX 24 12 25 13 26 14 12 15 11 16 10 17 9 18 8 19 7 20 6 21 5 22
REMARK SMILES IDX 4 23 3 24 2 25 1 26
REMARK H PARENT
REMARK Flexibility Score: inf
ROOT
ATOM      1  C   UNL     1       1.339  53.563  20.327  1.00  0.00     0.000 C 
ENDROOT
BRANCH   1   2
ATOM      2  C   UNL     1       1.061  55.054  20.587  1.00  0.00     0.000 C 
BRANCH   2   3
ATOM      3  C   UNL     1       1.675  55.965  19.508  1.00  0.00     0.000 C 
BRANCH   3   4
ATOM      4  C   UNL     1       0.668  56.365  18.419  1.00  0.00     0.000 C 
BRANCH   4   5
ATOM      5  C   UNL     1       1.351  56.804  17.110  1.00  0.00     0.000 C 
BRANCH   5   6
ATOM      6  C   UNL     1       1.805  55.618  16.248  1.00  0.00     0.000 C 
BRANCH   6   7
ATOM      7  C   UNL     1       3.336  55.517  16.137  1.00  0.00     0.000 C 
BRANCH   7   8
ATOM      8  C   UNL     1       4.051  56.502  17.076  1.00  0.00     0.000 C 
BRANCH   8   9
ATOM      9  C   UNL     1       5.402  55.957  17.573  1.00  0.00     0.000 C 
BRANCH   9  10
ATOM     10  C   UNL     1       6.587  56.847  17.164  1.00  0.00     0.006 C 
BRANCH  10  11
ATOM     11  C   UNL     1       7.616  57.015  18.290  1.00  0.00     0.053 C 
BRANCH  11  12
ATOM     12  C   UNL     1       7.969  58.459  18.461  1.00  0.00     0.041 C 
ATOM     13  O   UNL     1       7.431  59.138  19.375  1.00  0.00    -0.550 OA
ATOM     14  O   UNL     1       8.936  59.040  17.650  1.00  0.00    -0.550 OA
ENDBRANCH  11  12
ENDBRANCH  10  11
ENDBRANCH   9  10
ENDBRANCH   8   9
ENDBRANCH   7   8
ENDBRANCH   6   7
ENDBRANCH   5   6
ENDBRANCH   4   5
ENDBRANCH   3   4
ENDBRANCH   2   3
ENDBRANCH   1   2
BRANCH   1  15
ATOM     15  C   UNL     1       2.381  53.335  19.219  1.00  0.00     0.000 C 
BRANCH  15  16
ATOM     16  C   UNL     1       1.822  52.537  18.026  1.00  0.00     0.000 C 
BRANCH  16  17
ATOM     17  C   UNL     1       0.340  52.135  18.143  1.00  0.00     0.000 C 
BRANCH  17  18
ATOM     18  C   UNL     1      -0.579  52.955  17.222  1.00  0.00    -0.000 C 
BRANCH  18  19
ATOM     19  C   UNL     1      -1.991  53.134  17.805  1.00  0.00    -0.000 C 
BRANCH  19  20
ATOM     20  C   UNL     1      -2.394  54.610  17.940  1.00  0.00    -0.000 C 
BRANCH  20  21
ATOM     21  C   UNL     1      -2.569  55.001  19.412  1.00  0.00    -0.000 C 
BRANCH  21  22
ATOM     22  C   UNL     1      -3.163  53.837  20.224  1.00  0.00    -0.000 C 
BRANCH  22  23
ATOM     23  C   UNL     1      -2.270  53.413  21.399  1.00  0.00    -0.000 C 
BRANCH  23  24
ATOM     24  C   UNL     1      -1.892  51.925  21.353  1.00  0.00    -0.000 C 
BRANCH  24  25
ATOM     25  C   UNL     1      -2.926  51.122  20.556  1.00  0.00    -0.003 C 
ATOM     26  C   UNL     1      -2.283  49.923  19.865  1.00  0.00     0.004 C 
ENDBRANCH  24  25
ENDBRANCH  23  24
ENDBRANCH  22  23
ENDBRANCH  21  22
ENDBRANCH  20  21
ENDBRANCH  19  20
ENDBRANCH  18  19
ENDBRANCH  17  18
ENDBRANCH  16  17
ENDBRANCH  15  16
ENDBRANCH   1  15
TORSDOF 22
ENDMDL
MODEL 3
REMARK VINA RESULT:    -4.956      4.100      7.894
REMARK INTER + INTRA:         -15.852
REMARK INTER:                 -12.513
REMARK INTRA:                  -3.339
REMARK UNBOUND:                -4.523
REMARK SMILES CCCCCCCCCCCCCCCCCCCCCCCC(=O)[O-]
REMARK SMILES IDX 13 1 14 2 15 3 16 4 17 5 18 6 19 7 20 8 21 9 22 10 23 11
REMARK SMILES IDX 24 12 25 13 26 14 12 15 11 16 10 17 9 18 8 19 7 20 6 21 5 22
REMARK SMILES IDX 4 23 3 24 2 25 1 26
REMARK H PARENT
REMARK Flexibility Score: inf
ROOT
ATOM      1  C   UNL     1       3.199  53.667  19.820  1.00  0.00     0.000 C 
ENDROOT
BRANCH   1   2
ATOM      2  C   UNL     1       2.189  52.731  19.132  1.00  0.00     0.000 C 
BRANCH   2   3
ATOM      3  C   UNL     1       2.434  52.614  17.617  1.00  0.00     0.000 C 
BRANCH   3   4
ATOM      4  C   UNL     1       1.423  53.417  16.784  1.00  0.00     0.000 C 
BRANCH   4   5
ATOM      5  C   UNL     1       1.921  54.837  16.453  1.00  0.00     0.000 C 
BRANCH   5   6
ATOM      6  C   UNL     1       3.175  54.837  15.568  1.00  0.00     0.000 C 
BRANCH   6   7
ATOM      7  C   UNL     1       4.356  55.584  16.211  1.00  0.00     0.000 C 
BRANCH   7   8
ATOM      8  C   UNL     1       3.932  56.370  17.462  1.00  0.00     0.000 C 
BRANCH   8   9
ATOM      9  C   UNL     1       5.113  57.110  18.115  1.00  0.00     0.000 C 
BRANCH   9  10
ATOM     10  C   UNL     1       6.423  56.948  17.327  1.00  0.00     0.006 C 
BRANCH  10  11
ATOM     11  C   UNL     1       7.665  57.001  18.226  1.00  0.00     0.053 C 
BRANCH  11  12
ATOM     12  C   UNL     1       8.150  58.409  18.361  1.00  0.00     0.041 C 
ATOM     13  O   UNL     1       7.624  59.182  19.204  1.00  0.00    -0.550 OA
ATOM     14  O   UNL     1       9.225  58.851  17.600  1.00  0.00    -0.550 OA
ENDBRANCH  11  12
ENDBRANCH  10  11
ENDBRANCH   9  10
ENDBRANCH   8   9
ENDBRANCH   7   8
ENDBRANCH   6   7
ENDBRANCH   5   6
ENDBRANCH   4   5
ENDBRANCH   3   4
ENDBRANCH   2   3
ENDBRANCH   1   2
BRANCH   1  15
ATOM     15  C   UNL     1       2.526  54.685  20.758  1.00  0.00     0.000 C 
BRANCH  15  16
ATOM     16  C   UNL     1       1.498  55.576  20.036  1.00  0.00     0.000 C 
BRANCH  16  17
ATOM     17  C   UNL     1       0.024  55.215  20.291  1.00  0.00     0.000 C 
BRANCH  17  18
ATOM     18  C   UNL     1      -0.958  56.188  19.615  1.00  0.00    -0.000 C 
BRANCH  18  19
ATOM     19  C   UNL     1      -1.113  55.917  18.109  1.00  0.00    -0.000 C 
BRANCH  19  20
ATOM     20  C   UNL     1      -2.555  55.559  17.717  1.00  0.00    -0.000 C 
BRANCH  20  21
ATOM     21  C   UNL     1      -2.886  54.111  18.100  1.00  0.00    -0.000 C 
BRANCH  21  22
ATOM     22  C   UNL     1      -2.015  53.119  17.310  1.00  0.00    -0.000 C 
BRANCH  22  23
ATOM     23  C   UNL     1      -2.334  51.653  17.638  1.00  0.00    -0.000 C 
BRANCH  23  24
ATOM     24  C   UNL     1      -2.622  51.426  19.130  1.00  0.00    -0.000 C 
BRANCH  24  25
ATOM     25  C   UNL     1      -1.403  51.791  19.985  1.00  0.00    -0.003 C 
ATOM     26  C   UNL     1      -1.825  52.409  21.314  1.00  0.00     0.004 C 
ENDBRANCH  24  25
ENDBRANCH  23  24
ENDBRANCH  22  23
ENDBRANCH  21  22
ENDBRANCH  20  21
ENDBRANCH  19  20
ENDBRANCH  18  19
ENDBRANCH  17  18
ENDBRANCH  16  17
ENDBRANCH  15  16
ENDBRANCH   1  15
TORSDOF 22
ENDMDL
MODEL 4
REMARK VINA RESULT:    -4.920      4.322      8.172
REMARK INTER + INTRA:         -15.770
REMARK INTER:                 -12.467
REMARK INTRA:                  -3.304
REMARK UNBOUND:                -4.523
REMARK SMILES CCCCCCCCCCCCCCCCCCCCCCCC(=O)[O-]
REMARK SMILES IDX 13 1 14 2 15 3 16 4 17 5 18 6 19 7 20 8 21 9 22 10 23 11
REMARK SMILES IDX 24 12 25 13 26 14 12 15 11 16 10 17 9 18 8 19 7 20 6 21 5 22
REMARK SMILES IDX 4 23 3 24 2 25 1 26
REMARK H PARENT
REMARK Flexibility Score: inf
ROOT
ATOM      1  C   UNL     1      -3.038  55.642  17.828  1.00  0.00     0.000 C 
ENDROOT
BRANCH   1   2
ATOM      2  C   UNL     1      -1.995  56.664  17.341  1.00  0.00     0.000 C 
BRANCH   2   3
ATOM      3  C   UNL     1      -0.570  56.322  17.814  1.00  0.00     0.000 C 
BRANCH   3   4
ATOM      4  C   UNL     1       0.517  57.066  17.024  1.00  0.00     0.000 C 
BRANCH   4   5
ATOM      5  C   UNL     1       1.916  56.917  17.654  1.00  0.00     0.000 C 
BRANCH   5   6
ATOM      6  C   UNL     1       2.782  55.871  16.939  1.00  0.00     0.000 C 
BRANCH   6   7
ATOM      7  C   UNL     1       4.167  55.703  17.587  1.00  0.00     0.000 C 
BRANCH   7   8
ATOM      8  C   UNL     1       5.308  55.973  16.592  1.00  0.00     0.000 C 
BRANCH   8   9
ATOM      9  C   UNL     1       6.233  57.110  17.059  1.00  0.00     0.000 C 
BRANCH   9  10
ATOM     10  C   UNL     1       7.281  56.641  18.081  1.00  0.00     0.006 C 
BRANCH  10  11
ATOM     11  C   UNL     1       8.660  57.271  17.845  1.00  0.00     0.053 C 
BRANCH  11  12
ATOM     12  C   UNL     1       8.621  58.736  18.143  1.00  0.00     0.041 C 
ATOM     13  O   UNL     1       7.874  59.177  19.057  1.00  0.00    -0.550 OA
ATOM     14  O   UNL     1       9.453  59.609  17.454  1.00  0.00    -0.550 OA
ENDBRANCH  11  12
ENDBRANCH  10  11
ENDBRANCH   9  10
ENDBRANCH   8   9
ENDBRANCH   7   8
ENDBRANCH   6   7
ENDBRANCH   5   6
ENDBRANCH   4   5
ENDBRANCH   3   4
ENDBRANCH   2   3
ENDBRANCH   1   2
BRANCH   1  15
ATOM     15  C   UNL     1      -3.414  55.832  19.307  1.00  0.00     0.000 C 
BRANCH  15  16
ATOM     16  C   UNL     1      -3.461  54.504  20.088  1.00  0.00     0.000 C 
BRANCH  16  17
ATOM     17  C   UNL     1      -2.091  53.952  20.524  1.00  0.00     0.000 C 
BRANCH  17  18
ATOM     18  C   UNL     1      -1.916  52.458  20.200  1.00  0.00    -0.000 C 
BRANCH  18  19
ATOM     19  C   UNL     1      -2.488  52.082  18.822  1.00  0.00    -0.000 C 
BRANCH  19  20
ATOM     20  C   UNL     1      -1.508  52.373  17.675  1.00  0.00    -0.000 C 
BRANCH  20  21
ATOM     21  C   UNL     1      -0.112  51.823  17.991  1.00  0.00    -0.000 C 
BRANCH  21  22
ATOM     22  C   UNL     1       0.959  52.916  17.837  1.00  0.00    -0.000 C 
BRANCH  22  23
ATOM     23  C   UNL     1       2.336  52.479  18.359  1.00  0.00    -0.000 C 
BRANCH  23  24
ATOM     24  C   UNL     1       2.675  53.088  19.728  1.00  0.00    -0.000 C 
BRANCH  24  25
ATOM     25  C   UNL     1       1.602  54.094  20.160  1.00  0.00    -0.003 C 
ATOM     26  C   UNL     1       2.213  55.250  20.946  1.00  0.00     0.004 C 
ENDBRANCH  24  25
ENDBRANCH  23  24
ENDBRANCH  22  23
ENDBRANCH  21  22
ENDBRANCH  20  21
ENDBRANCH  19  20
ENDBRANCH  18  19
ENDBRANCH  17  18
ENDBRANCH  16  17
ENDBRANCH  15  16
ENDBRANCH   1  15
TORSDOF 22
ENDMDL
MODEL 5
REMARK VINA RESULT:    -4.869      1.895      3.955
REMARK INTER + INTRA:         -15.653
REMARK INTER:                 -11.741
REMARK INTRA:                  -3.912
REMARK UNBOUND:                -4.523
REMARK SMILES CCCCCCCCCCCCCCCCCCCCCCCC(=O)[O-]
REMARK SMILES IDX 13 1 14 2 15 3 16 4 17 5 18 6 19 7 20 8 21 9 22 10 23 11
REMARK SMILES IDX 24 12 25 13 26 14 12 15 11 16 10 17 9 18 8 19 7 20 6 21 5 22
REMARK SMILES IDX 4 23 3 24 2 25 1 26
REMARK H PARENT
REMARK Flexibility Score: inf
ROOT
ATOM      1  C   UNL     1       1.867  55.151  20.680  1.00  0.00     0.000 C 
ENDROOT
BRANCH   1   2
ATOM      2  C   UNL     1       2.514  53.757  20.583  1.00  0.00     0.000 C 
BRANCH   2   3
ATOM      3  C   UNL     1       3.112  53.481  19.192  1.00  0.00     0.000 C 
BRANCH   3   4
ATOM      4  C   UNL     1       2.510  52.237  18.519  1.00  0.00     0.000 C 
BRANCH   4   5
ATOM      5  C   UNL     1       1.021  52.038  18.860  1.00  0.00     0.000 C 
BRANCH   5   6
ATOM      6  C   UNL     1       0.090  52.398  17.694  1.00  0.00     0.000 C 
BRANCH   6   7
ATOM      7  C   UNL     1      -1.229  51.608  17.721  1.00  0.00     0.000 C 
BRANCH   7   8
ATOM      8  C   UNL     1      -2.451  52.527  17.880  1.00  0.00     0.000 C 
BRANCH   8   9
ATOM      9  C   UNL     1      -2.083  53.885  18.504  1.00  0.00     0.000 C 
BRANCH   9  10
ATOM     10  C   UNL     1      -2.669  54.069  19.913  1.00  0.00     0.006 C 
BRANCH  10  11
ATOM     11  C   UNL     1      -1.638  53.808  21.020  1.00  0.00     0.053 C 
BRANCH  11  12
ATOM     12  C   UNL     1      -2.032  52.612  21.827  1.00  0.00     0.041 C 
ATOM     13  O   UNL     1      -2.267  51.513  21.257  1.00  0.00    -0.550 OA
ATOM     14  O   UNL     1      -2.081  52.692  23.212  1.00  0.00    -0.550 OA
ENDBRANCH  11  12
ENDBRANCH  10  11
ENDBRANCH   9  10
ENDBRANCH   8   9
ENDBRANCH   7   8
ENDBRANCH   6   7
ENDBRANCH   5   6
ENDBRANCH   4   5
ENDBRANCH   3   4
ENDBRANCH   2   3
ENDBRANCH   1   2
BRANCH   1  15
ATOM     15  C   UNL     1       2.022  55.972  19.388  1.00  0.00     0.000 C 
BRANCH  15  16
ATOM     16  C   UNL     1       0.670  56.372  18.767  1.00  0.00     0.000 C 
BRANCH  16  17
ATOM     17  C   UNL     1       0.438  55.875  17.328  1.00  0.00     0.000 C 
BRANCH  17  18
ATOM     18  C   UNL     1       1.636  56.142  16.400  1.00  0.00    -0.000 C 
BRANCH  18  19
ATOM     19  C   UNL     1       2.231  54.848  15.819  1.00  0.00    -0.000 C 
BRANCH  19  20
ATOM     20  C   UNL     1       3.766  54.822  15.882  1.00  0.00    -0.000 C 
BRANCH  20  21
ATOM     21  C   UNL     1       4.315  56.130  16.462  1.00  0.00    -0.000 C 
BRANCH  21  22
ATOM     22  C   UNL     1       5.342  55.852  17.573  1.00  0.00    -0.000 C 
BRANCH  22  23
ATOM     23  C   UNL     1       6.200  57.080  17.913  1.00  0.00    -0.000 C 
BRANCH  23  24
ATOM     24  C   UNL     1       7.479  57.165  17.067  1.00  0.00    -0.000 C 
BRANCH  24  25
ATOM     25  C   UNL     1       8.626  57.791  17.869  1.00  0.00    -0.003 C 
ATOM     26  C   UNL     1       8.137  58.969  18.706  1.00  0.00     0.004 C 
ENDBRANCH  24  25
ENDBRANCH  23  24
ENDBRANCH  22  23
ENDBRANCH  21  22
ENDBRANCH  20  21
ENDBRANCH  19  20
ENDBRANCH  18  19
ENDBRANCH  17  18
ENDBRANCH  16  17
ENDBRANCH  15  16
ENDBRANCH   1  15
TORSDOF 22
ENDMDL
MODEL 6
REMARK VINA RESULT:    -4.804      5.350      9.076
REMARK INTER + INTRA:         -15.506
REMARK INTER:                 -12.262
REMARK INTRA:                  -3.244
REMARK UNBOUND:                -4.523
REMARK SMILES CCCCCCCCCCCCCCCCCCCCCCCC(=O)[O-]
REMARK SMILES IDX 13 1 14 2 15 3 16 4 17 5 18 6 19 7 20 8 21 9 22 10 23 11
REMARK SMILES IDX 24 12 25 13 26 14 12 15 11 16 10 17 9 18 8 19 7 20 6 21 5 22
REMARK SMILES IDX 4 23 3 24 2 25 1 26
REMARK H PARENT
REMARK Flexibility Score: inf
ROOT
ATOM      1  C   UNL     1       1.875  53.391  16.506  1.00  0.00     0.000 C 
ENDROOT
BRANCH   1   2
ATOM      2  C   UNL     1       1.609  54.897  16.687  1.00  0.00     0.000 C 
BRANCH   2   3
ATOM      3  C   UNL     1       2.890  55.740  16.559  1.00  0.00     0.000 C 
BRANCH   3   4
ATOM      4  C   UNL     1       3.000  56.828  17.639  1.00  0.00     0.000 C 
BRANCH   4   5
ATOM      5  C   UNL     1       4.453  57.074  18.089  1.00  0.00     0.000 C 
BRANCH   5   6
ATOM      6  C   UNL     1       5.484  56.632  17.041  1.00  0.00     0.000 C 
BRANCH   6   7
ATOM      7  C   UNL     1       6.934  56.816  17.519  1.00  0.00     0.000 C 
BRANCH   7   8
ATOM      8  C   UNL     1       7.051  57.891  18.612  1.00  0.00     0.000 C 
BRANCH   8   9
ATOM      9  C   UNL     1       8.226  58.853  18.361  1.00  0.00     0.000 C 
BRANCH   9  10
ATOM     10  C   UNL     1       9.337  58.222  17.506  1.00  0.00     0.006 C 
BRANCH  10  11
ATOM     11  C   UNL     1       9.877  59.180  16.436  1.00  0.00     0.053 C 
BRANCH  11  12
ATOM     12  C   UNL     1      10.585  58.417  15.363  1.00  0.00     0.041 C 
ATOM     13  O   UNL     1      10.748  57.173  15.472  1.00  0.00    -0.550 OA
ATOM     14  O   UNL     1      11.012  59.068  14.212  1.00  0.00    -0.550 OA
ENDBRANCH  11  12
ENDBRANCH  10  11
ENDBRANCH   9  10
ENDBRANCH   8   9
ENDBRANCH   7   8
ENDBRANCH   6   7
ENDBRANCH   5   6
ENDBRANCH   4   5
ENDBRANCH   3   4
ENDBRANCH   2   3
ENDBRANCH   1   2
BRANCH   1  15
ATOM     15  C   UNL     1       2.037  52.649  17.843  1.00  0.00     0.000 C 
BRANCH  15  16
ATOM     16  C   UNL     1       3.502  52.578  18.315  1.00  0.00     0.000 C 
BRANCH  16  17
ATOM     17  C   UNL     1       3.855  53.499  19.498  1.00  0.00     0.000 C 
BRANCH  17  18
ATOM     18  C   UNL     1       2.690  53.677  20.487  1.00  0.00    -0.000 C 
BRANCH  18  19
ATOM     19  C   UNL     1       2.219  55.138  20.587  1.00  0.00    -0.000 C 
BRANCH  19  20
ATOM     20  C   UNL     1       0.739  55.311  20.211  1.00  0.00    -0.000 C 
BRANCH  20  21
ATOM     21  C   UNL     1      -0.082  54.088  20.637  1.00  0.00    -0.000 C 
BRANCH  21  22
ATOM     22  C   UNL     1      -1.478  54.110  19.989  1.00  0.00    -0.000 C 
BRANCH  22  23
ATOM     23  C   UNL     1      -1.448  53.752  18.496  1.00  0.00    -0.000 C 
BRANCH  23  24
ATOM     24  C   UNL     1      -2.625  54.354  17.715  1.00  0.00    -0.000 C 
BRANCH  24  25
ATOM     25  C   UNL     1      -3.182  55.590  18.432  1.00  0.00    -0.003 C 
ATOM     26  C   UNL     1      -3.014  56.845  17.581  1.00  0.00     0.004 C 
ENDBRANCH  24  25
ENDBRANCH  23  24
ENDBRANCH  22  23
ENDBRANCH  21  22
ENDBRANCH  20  21
ENDBRANCH  19  20
ENDBRANCH  18  19
ENDBRANCH  17  18
ENDBRANCH  16  17
ENDBRANCH  15  16
ENDBRANCH   1  15
TORSDOF 22
ENDMDL
MODEL 7
REMARK VINA RESULT:    -4.802      5.260      9.272
REMARK INTER + INTRA:         -15.501
REMARK INTER:                 -12.503
REMARK INTRA:                  -2.998
REMARK UNBOUND:                -4.523
REMARK SMILES CCCCCCCCCCCCCCCCCCCCCCCC(=O)[O-]
REMARK SMILES IDX 13 1 14 2 15 3 16 4 17 5 18 6 19 7 20 8 21 9 22 10 23 11
REMARK SMILES IDX 24 12 25 13 26 14 12 15 11 16 10 17 9 18 8 19 7 20 6 21 5 22
REMARK SMILES IDX 4 23 3 24 2 25 1 26
REMARK H PARENT
REMARK Flexibility Score: inf
ROOT
ATOM      1  C   UNL     1       2.010  53.049  18.652  1.00  0.00     0.000 C 
ENDROOT
BRANCH   1   2
ATOM      2  C   UNL     1       1.837  53.383  17.159  1.00  0.00     0.000 C 
BRANCH   2   3
ATOM      3  C   UNL     1       2.143  54.859  16.847  1.00  0.00     0.000 C 
BRANCH   3   4
ATOM      4  C   UNL     1       2.995  55.039  15.581  1.00  0.00     0.000 C 
BRANCH   4   5
ATOM      5  C   UNL     1       4.507  55.054  15.879  1.00  0.00     0.000 C 
BRANCH   5   6
ATOM      6  C   UNL     1       4.853  55.822  17.163  1.00  0.00     0.000 C 
BRANCH   6   7
ATOM      7  C   UNL     1       5.977  56.850  16.955  1.00  0.00     0.000 C 
BRANCH   7   8
ATOM      8  C   UNL     1       7.091  56.712  18.006  1.00  0.00     0.000 C 
BRANCH   8   9
ATOM      9  C   UNL     1       7.832  58.039  18.249  1.00  0.00     0.000 C 
BRANCH   9  10
ATOM     10  C   UNL     1       8.761  58.421  17.086  1.00  0.00     0.006 C 
BRANCH  10  11
ATOM     11  C   UNL     1      10.043  59.120  17.559  1.00  0.00     0.053 C 
BRANCH  11  12
ATOM     12  C   UNL     1      11.247  58.338  17.142  1.00  0.00     0.041 C 
ATOM     13  O   UNL     1      12.121  58.865  16.404  1.00  0.00    -0.550 OA
ATOM     14  O   UNL     1      11.437  57.046  17.617  1.00  0.00    -0.550 OA
ENDBRANCH  11  12
ENDBRANCH  10  11
ENDBRANCH   9  10
ENDBRANCH   8   9
ENDBRANCH   7   8
ENDBRANCH   6   7
ENDBRANCH   5   6
ENDBRANCH   4   5
ENDBRANCH   3   4
ENDBRANCH   2   3
ENDBRANCH   1   2
BRANCH   1  15
ATOM     15  C   UNL     1       2.866  54.084  19.400  1.00  0.00     0.000 C 
BRANCH  15  16
ATOM     16  C   UNL     1       2.204  54.583  20.699  1.00  0.00     0.000 C 
BRANCH  16  17
ATOM     17  C   UNL     1       0.682  54.799  20.617  1.00  0.00     0.000 C 
BRANCH  17  18
ATOM     18  C   UNL     1       0.294  56.005  19.744  1.00  0.00    -0.000 C 
BRANCH  18  19
ATOM     19  C   UNL     1      -1.200  56.010  19.377  1.00  0.00    -0.000 C 
BRANCH  19  20
ATOM     20  C   UNL     1      -1.468  55.438  17.976  1.00  0.00    -0.000 C 
BRANCH  20  21
ATOM     21  C   UNL     1      -2.453  54.265  18.039  1.00  0.00    -0.000 C 
BRANCH  21  22
ATOM     22  C   UNL     1      -1.809  52.975  17.503  1.00  0.00    -0.000 C 
BRANCH  22  23
ATOM     23  C   UNL     1      -2.070  51.759  18.404  1.00  0.00    -0.000 C 
BRANCH  23  24
ATOM     24  C   UNL     1      -1.393  51.879  19.777  1.00  0.00    -0.000 C 
BRANCH  24  25
ATOM     25  C   UNL     1      -2.434  51.877  20.903  1.00  0.00    -0.003 C 
ATOM     26  C   UNL     1      -2.267  53.089  21.813  1.00  0.00     0.004 C 
ENDBRANCH  24  25
ENDBRANCH  23  24
ENDBRANCH  22  23
ENDBRANCH  21  22
ENDBRANCH  20  21
ENDBRANCH  19  20
ENDBRANCH  18  19
ENDBRANCH  17  18
ENDBRANCH  16  17
ENDBRANCH  15  16
ENDBRANCH   1  15
TORSDOF 22
ENDMDL
MODEL 8
REMARK VINA RESULT:    -4.785      3.136      7.076
REMARK INTER + INTRA:         -15.463
REMARK INTER:                 -11.646
REMARK INTRA:                  -3.817
REMARK UNBOUND:                -4.523
REMARK SMILES CCCCCCCCCCCCCCCCCCCCCCCC(=O)[O-]
REMARK SMILES IDX 13 1 14 2 15 3 16 4 17 5 18 6 19 7 20 8 21 9 22 10 23 11
REMARK SMILES IDX 24 12 25 13 26 14 12 15 11 16 10 17 9 18 8 19 7 20 6 21 5 22
REMARK SMILES IDX 4 23 3 24 2 25 1 26
REMARK H PARENT
REMARK Flexibility Score: inf
ROOT
ATOM      1  C   UNL     1      -0.498  56.038  17.607  1.00  0.00     0.000 C 
ENDROOT
BRANCH   1   2
ATOM      2  C   UNL     1       0.406  56.375  18.807  1.00  0.00     0.000 C 
BRANCH   2   3
ATOM      3  C   UNL     1      -0.018  55.636  20.089  1.00  0.00     0.000 C 
BRANCH   3   4
ATOM      4  C   UNL     1       0.796  54.357  20.340  1.00  0.00     0.000 C 
BRANCH   4   5
ATOM      5  C   UNL     1       2.286  54.644  20.607  1.00  0.00     0.000 C 
BRANCH   5   6
ATOM      6  C   UNL     1       3.213  53.569  20.023  1.00  0.00     0.000 C 
BRANCH   6   7
ATOM      7  C   UNL     1       2.550  52.762  18.894  1.00  0.00     0.000 C 
BRANCH   7   8
ATOM      8  C   UNL     1       3.140  53.101  17.516  1.00  0.00     0.000 C 
BRANCH   8   9
ATOM      9  C   UNL     1       2.132  53.835  16.613  1.00  0.00     0.000 C 
BRANCH   9  10
ATOM     10  C   UNL     1       2.670  55.177  16.092  1.00  0.00     0.006 C 
BRANCH  10  11
ATOM     11  C   UNL     1       4.204  55.224  16.057  1.00  0.00     0.053 C 
BRANCH  11  12
ATOM     12  C   UNL     1       4.709  56.341  16.914  1.00  0.00     0.041 C 
ATOM     13  O   UNL     1       4.012  56.771  17.871  1.00  0.00    -0.550 OA
ATOM     14  O   UNL     1       5.976  56.868  16.695  1.00  0.00    -0.550 OA
ENDBRANCH  11  12
ENDBRANCH  10  11
ENDBRANCH   9  10
ENDBRANCH   8   9
ENDBRANCH   7   8
ENDBRANCH   6   7
ENDBRANCH   5   6
ENDBRANCH   4   5
ENDBRANCH   3   4
ENDBRANCH   2   3
ENDBRANCH   1   2
BRANCH   1  15
ATOM     15  C   UNL     1      -1.918  56.610  17.751  1.00  0.00     0.000 C 
BRANCH  15  16
ATOM     16  C   UNL     1      -3.009  55.522  17.706  1.00  0.00     0.000 C 
BRANCH  16  17
ATOM     17  C   UNL     1      -2.634  54.190  18.380  1.00  0.00     0.000 C 
BRANCH  17  18
ATOM     18  C   UNL     1      -2.305  53.078  17.369  1.00  0.00    -0.000 C 
BRANCH  18  19
ATOM     19  C   UNL     1      -1.036  52.294  17.747  1.00  0.00    -0.000 C 
BRANCH  19  20
ATOM     20  C   UNL     1      -1.349  50.956  18.433  1.00  0.00    -0.000 C 
BRANCH  20  21
ATOM     21  C   UNL     1      -0.827  50.941  19.875  1.00  0.00    -0.000 C 
BRANCH  21  22
ATOM     22  C   UNL     1      -1.976  51.137  20.879  1.00  0.00    -0.000 C 
BRANCH  22  23
ATOM     23  C   UNL     1      -1.930  52.504  21.578  1.00  0.00    -0.000 C 
BRANCH  23  24
ATOM     24  C   UNL     1      -3.323  53.122  21.770  1.00  0.00    -0.000 C 
BRANCH  24  25
ATOM     25  C   UNL     1      -4.284  52.117  22.416  1.00  0.00    -0.003 C 
ATOM     26  C   UNL     1      -4.705  52.572  23.810  1.00  0.00     0.004 C 
ENDBRANCH  24  25
ENDBRANCH  23  24
ENDBRANCH  22  23
ENDBRANCH  21  22
ENDBRANCH  20  21
ENDBRANCH  19  20
ENDBRANCH  18  19
ENDBRANCH  17  18
ENDBRANCH  16  17
ENDBRANCH  15  16
ENDBRANCH   1  15
TORSDOF 22
ENDMDL
MODEL 9
REMARK VINA RESULT:    -4.778      3.372      7.393
REMARK INTER + INTRA:         -15.446
REMARK INTER:                 -11.197
REMARK INTRA:                  -4.250
REMARK UNBOUND:                -4.523
REMARK SMILES CCCCCCCCCCCCCCCCCCCCCCCC(=O)[O-]
REMARK SMILES IDX 13 1 14 2 15 3 16 4 17 5 18 6 19 7 20 8 21 9 22 10 23 11
REMARK SMILES IDX 24 12 25 13 26 14 12 15 11 16 10 17 9 18 8 19 7 20 6 21 5 22
REMARK SMILES IDX 4 23 3 24 2 25 1 26
REMARK H PARENT
REMARK Flexibility Score: inf
ROOT
ATOM      1  C   UNL     1      -0.046  54.395  20.450  1.00  0.00     0.000 C 
ENDROOT
BRANCH   1   2
ATOM      2  C   UNL     1       1.422  54.755  20.743  1.00  0.00     0.000 C 
BRANCH   2   3
ATOM      3  C   UNL     1       2.404  53.689  20.227  1.00  0.00     0.000 C 
BRANCH   3   4
ATOM      4  C   UNL     1       1.720  52.609  19.374  1.00  0.00     0.000 C 
BRANCH   4   5
ATOM      5  C   UNL     1       2.181  52.632  17.904  1.00  0.00     0.000 C 
BRANCH   5   6
ATOM      6  C   UNL     1       1.240  53.439  16.998  1.00  0.00     0.000 C 
BRANCH   6   7
ATOM      7  C   UNL     1       1.904  54.704  16.428  1.00  0.00     0.000 C 
BRANCH   7   8
ATOM      8  C   UNL     1       1.197  55.988  16.891  1.00  0.00     0.000 C 
BRANCH   8   9
ATOM      9  C   UNL     1       2.144  56.932  17.655  1.00  0.00     0.000 C 
BRANCH   9  10
ATOM     10  C   UNL     1       3.444  56.240  18.095  1.00  0.00     0.006 C 
BRANCH  10  11
ATOM     11  C   UNL     1       4.669  57.157  17.983  1.00  0.00     0.053 C 
BRANCH  11  12
ATOM     12  C   UNL     1       5.591  56.664  16.914  1.00  0.00     0.041 C 
ATOM     13  O   UNL     1       6.766  57.111  16.836  1.00  0.00    -0.550 OA
ATOM     14  O   UNL     1       5.175  55.668  16.040  1.00  0.00    -0.550 OA
ENDBRANCH  11  12
ENDBRANCH  10  11
ENDBRANCH   9  10
ENDBRANCH   8   9
ENDBRANCH   7   8
ENDBRANCH   6   7
ENDBRANCH   5   6
ENDBRANCH   4   5
ENDBRANCH   3   4
ENDBRANCH   2   3
ENDBRANCH   1   2
BRANCH   1  15
ATOM     15  C   UNL     1      -0.843  55.570  19.859  1.00  0.00     0.000 C 
BRANCH  15  16
ATOM     16  C   UNL     1      -1.803  55.137  18.734  1.00  0.00     0.000 C 
BRANCH  16  17
ATOM     17  C   UNL     1      -2.443  53.749  18.918  1.00  0.00     0.000 C 
BRANCH  17  18
ATOM     18  C   UNL     1      -2.299  52.853  17.675  1.00  0.00    -0.000 C 
BRANCH  18  19
ATOM     19  C   UNL     1      -1.687  51.480  18.006  1.00  0.00    -0.000 C 
BRANCH  19  20
ATOM     20  C   UNL     1      -1.676  51.186  19.514  1.00  0.00    -0.000 C 
BRANCH  20  21
ATOM     21  C   UNL     1      -2.934  50.417  19.934  1.00  0.00    -0.000 C 
BRANCH  21  22
ATOM     22  C   UNL     1      -3.488  50.952  21.266  1.00  0.00    -0.000 C 
BRANCH  22  23
ATOM     23  C   UNL     1      -2.408  51.607  22.140  1.00  0.00    -0.000 C 
BRANCH  23  24
ATOM     24  C   UNL     1      -2.735  53.064  22.498  1.00  0.00    -0.000 C 
BRANCH  24  25
ATOM     25  C   UNL     1      -4.090  53.163  23.208  1.00  0.00    -0.003 C 
ATOM     26  C   UNL     1      -5.124  53.862  22.331  1.00  0.00     0.004 C 
ENDBRANCH  24  25
ENDBRANCH  23  24
ENDBRANCH  22  23
ENDBRANCH  21  22
ENDBRANCH  20  21
ENDBRANCH  19  20
ENDBRANCH  18  19
ENDBRANCH  17  18
ENDBRANCH  16  17
ENDBRANCH  15  16
ENDBRANCH   1  15
TORSDOF 22
ENDMDL
