MODEL 1
REMARK VINA RESULT:    -3.955      0.000      0.000
REMARK INTER + INTRA:          -9.662
REMARK INTER:                  -7.654
REMARK INTRA:                  -2.008
REMARK UNBOUND:                -2.008
REMARK SMILES CCCCCCCCCCCCCCCCCC(=O)[O-]
REMARK SMILES IDX 10 1 11 2 12 3 13 4 14 5 15 6 16 7 17 8 18 9 19 10 20 11
REMARK SMILES IDX 9 12 8 13 7 14 6 15 5 16 4 17 3 18 2 19 1 20
REMARK H PARENT
REMARK Flexibility Score: inf
ROOT
ATOM      1  C   UNL     1      26.636  31.607  36.956  1.00  0.00     0.000 C 
ENDROOT
BRANCH   1   2
ATOM      2  C   UNL     1      28.173  31.686  36.992  1.00  0.00     0.000 C 
BRANCH   2   3
ATOM      3  C   UNL     1      28.697  33.113  36.779  1.00  0.00     0.000 C 
BRANCH   3   4
ATOM      4  C   UNL     1      29.666  33.170  35.591  1.00  0.00     0.000 C 
BRANCH   4   5
ATOM      5  C   UNL     1      29.300  32.122  34.532  1.00  0.00     0.000 C 
BRANCH   5   6
ATOM      6  C   UNL     1      30.512  31.246  34.182  1.00  0.00     0.000 C 
BRANCH   6   7
ATOM      7  C   UNL     1      30.116  29.796  33.861  1.00  0.00     0.006 C 
BRANCH   7   8
ATOM      8  C   UNL     1      30.340  28.847  35.045  1.00  0.00     0.053 C 
BRANCH   8   9
ATOM      9  C   UNL     1      30.299  27.422  34.588  1.00  0.00     0.041 C 
ATOM     10  O   UNL     1      30.712  27.113  33.439  1.00  0.00    -0.550 OA
ATOM     11  O   UNL     1      29.844  26.429  35.449  1.00  0.00    -0.550 OA
ENDBRANCH   8   9
ENDBRANCH   7   8
ENDBRANCH   6   7
ENDBRANCH   5   6
ENDBRANCH   4   5
ENDBRANCH   3   4
ENDBRANCH   2   3
ENDBRANCH   1   2
BRANCH   1  12
ATOM     12  C   UNL     1      25.909  32.967  37.019  1.00  0.00     0.000 C 
BRANCH  12  13
ATOM     13  C   UNL     1      24.983  33.268  35.824  1.00  0.00    -0.000 C 
BRANCH  13  14
ATOM     14  C   UNL     1      25.749  33.424  34.502  1.00  0.00    -0.000 C 
BRANCH  14  15
ATOM     15  C   UNL     1      26.503  34.762  34.454  1.00  0.00    -0.000 C 
BRANCH  15  16
ATOM     16  C   UNL     1      26.623  35.331  33.028  1.00  0.00    -0.000 C 
BRANCH  16  17
ATOM     17  C   UNL     1      27.888  34.900  32.261  1.00  0.00    -0.000 C 
BRANCH  17  18
ATOM     18  C   UNL     1      27.580  34.026  31.034  1.00  0.00    -0.000 C 
BRANCH  18  19
ATOM     19  C   UNL     1      26.082  33.707  30.951  1.00  0.00    -0.003 C 
ATOM     20  C   UNL     1      25.411  34.496  29.831  1.00  0.00     0.004 C 
ENDBRANCH  18  19
ENDBRANCH  17  18
ENDBRANCH  16  17
ENDBRANCH  15  16
ENDBRANCH  14  15
ENDBRANCH  13  14
ENDBRANCH  12  13
ENDBRANCH   1  12
TORSDOF 16
ENDMDL
MODEL 2
REMARK VINA RESULT:    -3.798      2.983      6.273
REMARK INTER + INTRA:          -9.358
REMARK INTER:                  -7.318
REMARK INTRA:                  -2.040
REMARK UNBOUND:                -2.008
REMARK SMILES CCCCCCCCCCCCCCCCCC(=O)[O-]
REMARK SMILES IDX 10 1 11 2 12 3 13 4 14 5 15 6 16 7 17 8 18 9 19 10 20 11
REMARK SMILES IDX 9 12 8 13 7 14 6 15 5 16 4 17 3 18 2 19 1 20
REMARK H PARENT
REMARK Flexibility Score: inf
ROOT
ATOM      1  C   UNL     1      26.856  31.711  36.278  1.00  0.00     0.000 C 
ENDROOT
BRANCH   1   2
ATOM      2  C   UNL     1      25.740  32.648  36.775  1.00  0.00     0.000 C 
BRANCH   2   3
ATOM      3  C   UNL     1      24.931  33.268  35.627  1.00  0.00     0.000 C 
BRANCH   3   4
ATOM      4  C   UNL     1      25.817  33.498  34.395  1.00  0.00     0.000 C 
BRANCH   4   5
ATOM      5  C   UNL     1      26.394  34.919  34.390  1.00  0.00     0.000 C 
BRANCH   5   6
ATOM      6  C   UNL     1      26.866  35.317  32.983  1.00  0.00     0.000 C 
BRANCH   6   7
ATOM      7  C   UNL     1      27.663  34.198  32.293  1.00  0.00     0.006 C 
BRANCH   7   8
ATOM      8  C   UNL     1      27.392  34.124  30.785  1.00  0.00     0.053 C 
BRANCH   8   9
ATOM      9  C   UNL     1      25.941  33.860  30.527  1.00  0.00     0.041 C 
ATOM     10  O   UNL     1      25.335  32.963  31.171  1.00  0.00    -0.550 OA
ATOM     11  O   UNL     1      25.247  34.636  29.605  1.00  0.00    -0.550 OA
ENDBRANCH   8   9
ENDBRANCH   7   8
ENDBRANCH   6   7
ENDBRANCH   5   6
ENDBRANCH   4   5
ENDBRANCH   3   4
ENDBRANCH   2   3
ENDBRANCH   1   2
BRANCH   1  12
ATOM     12  C   UNL     1      28.152  31.738  37.115  1.00  0.00     0.000 C 
BRANCH  12  13
ATOM     13  C   UNL     1      29.022  32.997  36.931  1.00  0.00    -0.000 C 
BRANCH  13  14
ATOM     14  C   UNL     1      29.539  33.159  35.493  1.00  0.00    -0.000 C 
BRANCH  14  15
ATOM     15  C   UNL     1      30.593  32.092  35.162  1.00  0.00    -0.000 C 
BRANCH  15  16
ATOM     16  C   UNL     1      30.169  31.172  34.002  1.00  0.00    -0.000 C 
BRANCH  16  17
ATOM     17  C   UNL     1      29.455  29.875  34.429  1.00  0.00    -0.000 C 
BRANCH  17  18
ATOM     18  C   UNL     1      30.157  28.605  33.922  1.00  0.00    -0.000 C 
BRANCH  18  19
ATOM     19  C   UNL     1      30.618  27.730  35.093  1.00  0.00    -0.003 C 
ATOM     20  C   UNL     1      30.281  28.377  36.433  1.00  0.00     0.004 C 
ENDBRANCH  18  19
ENDBRANCH  17  18
ENDBRANCH  16  17
ENDBRANCH  15  16
ENDBRANCH  14  15
ENDBRANCH  13  14
ENDBRANCH  12  13
ENDBRANCH   1  12
TORSDOF 16
ENDMDL
MODEL 3
REMARK VINA RESULT:    -3.723      1.275      2.014
REMARK INTER + INTRA:          -9.214
REMARK INTER:                  -7.349
REMARK INTRA:                  -1.865
REMARK UNBOUND:                -2.008
REMARK SMILES CCCCCCCCCCCCCCCCCC(=O)[O-]
REMARK SMILES IDX 10 1 11 2 12 3 13 4 14 5 15 6 16 7 17 8 18 9 19 10 20 11
REMARK SMILES IDX 9 12 8 13 7 14 6 15 5 16 4 17 3 18 2 19 1 20
REMARK H PARENT
REMARK Flexibility Score: inf
ROOT
ATOM      1  C   UNL     1      25.679  33.393  37.066  1.00  0.00     0.000 C 
ENDROOT
BRANCH   1   2
ATOM      2  C   UNL     1      26.219  31.951  37.060  1.00  0.00     0.000 C 
BRANCH   2   3
ATOM      3  C   UNL     1      27.751  31.891  37.125  1.00  0.00     0.000 C 
BRANCH   3   4
ATOM      4  C   UNL     1      28.370  32.214  35.759  1.00  0.00     0.000 C 
BRANCH   4   5
ATOM      5  C   UNL     1      29.411  33.334  35.877  1.00  0.00     0.000 C 
BRANCH   5   6
ATOM      6  C   UNL     1      30.786  32.863  35.378  1.00  0.00     0.000 C 
BRANCH   6   7
ATOM      7  C   UNL     1      30.838  31.344  35.147  1.00  0.00     0.006 C 
BRANCH   7   8
ATOM      8  C   UNL     1      30.956  30.977  33.662  1.00  0.00     0.053 C 
BRANCH   8   9
ATOM      9  C   UNL     1      30.234  29.697  33.380  1.00  0.00     0.041 C 
ATOM     10  O   UNL     1      29.502  29.174  34.263  1.00  0.00    -0.550 OA
ATOM     11  O   UNL     1      30.334  29.103  32.127  1.00  0.00    -0.550 OA
ENDBRANCH   8   9
ENDBRANCH   7   8
ENDBRANCH   6   7
ENDBRANCH   5   6
ENDBRANCH   4   5
ENDBRANCH   3   4
ENDBRANCH   2   3
ENDBRANCH   1   2
BRANCH   1  12
ATOM     12  C   UNL     1      24.856  33.788  35.822  1.00  0.00     0.000 C 
BRANCH  12  13
ATOM     13  C   UNL     1      25.671  33.948  34.524  1.00  0.00    -0.000 C 
BRANCH  13  14
ATOM     14  C   UNL     1      26.499  35.242  34.497  1.00  0.00    -0.000 C 
BRANCH  14  15
ATOM     15  C   UNL     1      26.880  35.624  33.058  1.00  0.00    -0.000 C 
BRANCH  15  16
ATOM     16  C   UNL     1      28.237  35.039  32.623  1.00  0.00    -0.000 C 
BRANCH  16  17
ATOM     17  C   UNL     1      28.148  33.768  31.757  1.00  0.00    -0.000 C 
BRANCH  17  18
ATOM     18  C   UNL     1      27.390  33.989  30.438  1.00  0.00    -0.000 C 
BRANCH  18  19
ATOM     19  C   UNL     1      25.922  33.569  30.573  1.00  0.00    -0.003 C 
ATOM     20  C   UNL     1      25.009  34.479  29.756  1.00  0.00     0.004 C 
ENDBRANCH  18  19
ENDBRANCH  17  18
ENDBRANCH  16  17
ENDBRANCH  15  16
ENDBRANCH  14  15
ENDBRANCH  13  14
ENDBRANCH  12  13
ENDBRANCH   1  12
TORSDOF 16
ENDMDL
MODEL 4
REMARK VINA RESULT:    -3.562      2.976      5.722
REMARK INTER + INTRA:          -8.901
REMARK INTER:                  -7.304
REMARK INTRA:                  -1.598
REMARK UNBOUND:                -2.008
REMARK SMILES CCCCCCCCCCCCCCCCCC(=O)[O-]
REMARK SMILES IDX 10 1 11 2 12 3 13 4 14 5 15 6 16 7 17 8 18 9 19 10 20 11
REMARK SMILES IDX 9 12 8 13 7 14 6 15 5 16 4 17 3 18 2 19 1 20
REMARK H PARENT
REMARK Flexibility Score: inf
ROOT
ATOM      1  C   UNL     1      24.749  33.245  36.156  1.00  0.00     0.000 C 
ENDROOT
BRANCH   1   2
ATOM      2  C   UNL     1      25.189  33.461  34.697  1.00  0.00     0.000 C 
BRANCH   2   3
ATOM      3  C   UNL     1      26.524  34.211  34.585  1.00  0.00     0.000 C 
BRANCH   3   4
ATOM      4  C   UNL     1      26.334  35.566  33.891  1.00  0.00     0.000 C 
BRANCH   4   5
ATOM      5  C   UNL     1      27.373  35.766  32.781  1.00  0.00     0.000 C 
BRANCH   5   6
ATOM      6  C   UNL     1      28.343  34.577  32.714  1.00  0.00     0.000 C 
BRANCH   6   7
ATOM      7  C   UNL     1      28.011  33.611  31.565  1.00  0.00     0.006 C 
BRANCH   7   8
ATOM      8  C   UNL     1      27.244  34.293  30.424  1.00  0.00     0.053 C 
BRANCH   8   9
ATOM      9  C   UNL     1      25.790  33.948  30.491  1.00  0.00     0.041 C 
ATOM     10  O   UNL     1      24.979  34.456  29.672  1.00  0.00    -0.550 OA
ATOM     11  O   UNL     1      25.336  33.030  31.432  1.00  0.00    -0.550 OA
ENDBRANCH   8   9
ENDBRANCH   7   8
ENDBRANCH   6   7
ENDBRANCH   5   6
ENDBRANCH   4   5
ENDBRANCH   3   4
ENDBRANCH   2   3
ENDBRANCH   1   2
BRANCH   1  12
ATOM     12  C   UNL     1      25.877  32.830  37.125  1.00  0.00     0.000 C 
BRANCH  12  13
ATOM     13  C   UNL     1      26.742  31.645  36.651  1.00  0.00    -0.000 C 
BRANCH  13  14
ATOM     14  C   UNL     1      28.200  31.746  37.124  1.00  0.00    -0.000 C 
BRANCH  14  15
ATOM     15  C   UNL     1      28.773  33.146  36.856  1.00  0.00    -0.000 C 
BRANCH  15  16
ATOM     16  C   UNL     1      30.031  33.118  35.969  1.00  0.00    -0.000 C 
BRANCH  16  17
ATOM     17  C   UNL     1      30.412  31.727  35.425  1.00  0.00    -0.000 C 
BRANCH  17  18
ATOM     18  C   UNL     1      29.936  31.493  33.982  1.00  0.00    -0.000 C 
BRANCH  18  19
ATOM     19  C   UNL     1      30.350  30.102  33.488  1.00  0.00    -0.003 C 
ATOM     20  C   UNL     1      29.852  29.010  34.431  1.00  0.00     0.004 C 
ENDBRANCH  18  19
ENDBRANCH  17  18
ENDBRANCH  16  17
ENDBRANCH  15  16
ENDBRANCH  14  15
ENDBRANCH  13  14
ENDBRANCH  12  13
ENDBRANCH   1  12
TORSDOF 16
ENDMDL
MODEL 5
REMARK VINA RESULT:    -2.949      3.123      6.487
REMARK INTER + INTRA:          -7.714
REMARK INTER:                  -6.695
REMARK INTRA:                  -1.019
REMARK UNBOUND:                -2.008
REMARK SMILES CCCCCCCCCCCCCCCCCC(=O)[O-]
REMARK SMILES IDX 10 1 11 2 12 3 13 4 14 5 15 6 16 7 17 8 18 9 19 10 20 11
REMARK SMILES IDX 9 12 8 13 7 14 6 15 5 16 4 17 3 18 2 19 1 20
REMARK H PARENT
REMARK Flexibility Score: inf
ROOT
ATOM      1  C   UNL     1      26.230  32.081  37.124  1.00  0.00     0.000 C 
ENDROOT
BRANCH   1   2
ATOM      2  C   UNL     1      26.292  33.619  37.106  1.00  0.00     0.000 C 
BRANCH   2   3
ATOM      3  C   UNL     1      25.444  34.233  35.983  1.00  0.00     0.000 C 
BRANCH   3   4
ATOM      4  C   UNL     1      24.467  33.201  35.406  1.00  0.00     0.000 C 
BRANCH   4   5
ATOM      5  C   UNL     1      25.022  32.577  34.119  1.00  0.00     0.000 C 
BRANCH   5   6
ATOM      6  C   UNL     1      25.973  33.548  33.403  1.00  0.00     0.000 C 
BRANCH   6   7
ATOM      7  C   UNL     1      25.761  33.563  31.881  1.00  0.00     0.006 C 
BRANCH   7   8
ATOM      8  C   UNL     1      26.619  34.622  31.176  1.00  0.00     0.053 C 
BRANCH   8   9
ATOM      9  C   UNL     1      27.346  35.460  32.180  1.00  0.00     0.041 C 
ATOM     10  O   UNL     1      28.463  35.086  32.627  1.00  0.00    -0.550 OA
ATOM     11  O   UNL     1      26.811  36.676  32.590  1.00  0.00    -0.550 OA
ENDBRANCH   8   9
ENDBRANCH   7   8
ENDBRANCH   6   7
ENDBRANCH   5   6
ENDBRANCH   4   5
ENDBRANCH   3   4
ENDBRANCH   2   3
ENDBRANCH   1   2
BRANCH   1  12
ATOM     12  C   UNL     1      27.600  31.371  37.125  1.00  0.00     0.000 C 
BRANCH  12  13
ATOM     13  C   UNL     1      28.123  30.958  35.735  1.00  0.00    -0.000 C 
BRANCH  13  14
ATOM     14  C   UNL     1      28.797  32.116  34.984  1.00  0.00    -0.000 C 
BRANCH  14  15
ATOM     15  C   UNL     1      30.314  32.122  35.226  1.00  0.00    -0.000 C 
BRANCH  15  16
ATOM     16  C   UNL     1      30.913  30.706  35.307  1.00  0.00    -0.000 C 
BRANCH  16  17
ATOM     17  C   UNL     1      30.690  29.834  34.057  1.00  0.00    -0.000 C 
BRANCH  17  18
ATOM     18  C   UNL     1      31.067  28.360  34.275  1.00  0.00    -0.000 C 
BRANCH  18  19
ATOM     19  C   UNL     1      30.100  27.686  35.255  1.00  0.00    -0.003 C 
ATOM     20  C   UNL     1      30.054  26.177  35.036  1.00  0.00     0.004 C 
ENDBRANCH  18  19
ENDBRANCH  17  18
ENDBRANCH  16  17
ENDBRANCH  15  16
ENDBRANCH  14  15
ENDBRANCH  13  14
ENDBRANCH  12  13
ENDBRANCH   1  12
TORSDOF 16
ENDMDL
MODEL 6
REMARK VINA RESULT:    -2.873      0.964      1.776
REMARK INTER + INTRA:          -7.569
REMARK INTER:                  -6.744
REMARK INTRA:                  -0.825
REMARK UNBOUND:                -2.008
REMARK SMILES CCCCCCCCCCCCCCCCCC(=O)[O-]
REMARK SMILES IDX 10 1 11 2 12 3 13 4 14 5 15 6 16 7 17 8 18 9 19 10 20 11
REMARK SMILES IDX 9 12 8 13 7 14 6 15 5 16 4 17 3 18 2 19 1 20
REMARK H PARENT
REMARK Flexibility Score: inf
ROOT
ATOM      1  C   UNL     1      28.241  32.724  37.050  1.00  0.00     0.000 C 
ENDROOT
BRANCH   1   2
ATOM      2  C   UNL     1      28.971  33.036  35.731  1.00  0.00     0.000 C 
BRANCH   2   3
ATOM      3  C   UNL     1      30.483  32.781  35.815  1.00  0.00     0.000 C 
BRANCH   3   4
ATOM      4  C   UNL     1      30.784  31.278  35.858  1.00  0.00     0.000 C 
BRANCH   4   5
ATOM      5  C   UNL     1      30.181  30.561  34.643  1.00  0.00     0.000 C 
BRANCH   5   6
ATOM      6  C   UNL     1      29.646  29.174  35.031  1.00  0.00     0.000 C 
BRANCH   6   7
ATOM      7  C   UNL     1      30.313  28.622  36.301  1.00  0.00     0.006 C 
BRANCH   7   8
ATOM      8  C   UNL     1      30.470  27.097  36.270  1.00  0.00     0.053 C 
BRANCH   8   9
ATOM      9  C   UNL     1      30.307  26.582  34.874  1.00  0.00     0.041 C 
ATOM     10  O   UNL     1      29.405  25.743  34.609  1.00  0.00    -0.550 OA
ATOM     11  O   UNL     1      31.124  27.063  33.856  1.00  0.00    -0.550 OA
ENDBRANCH   8   9
ENDBRANCH   7   8
ENDBRANCH   6   7
ENDBRANCH   5   6
ENDBRANCH   4   5
ENDBRANCH   3   4
ENDBRANCH   2   3
ENDBRANCH   1   2
BRANCH   1  12
ATOM     12  C   UNL     1      26.783  32.244  36.892  1.00  0.00     0.000 C 
BRANCH  12  13
ATOM     13  C   UNL     1      25.794  33.314  36.390  1.00  0.00    -0.000 C 
BRANCH  13  14
ATOM     14  C   UNL     1      25.052  32.888  35.114  1.00  0.00    -0.000 C 
BRANCH  14  15
ATOM     15  C   UNL     1      25.625  33.600  33.879  1.00  0.00    -0.000 C 
BRANCH  15  16
ATOM     16  C   UNL     1      26.632  34.707  34.239  1.00  0.00    -0.000 C 
BRANCH  16  17
ATOM     17  C   UNL     1      27.416  35.286  33.045  1.00  0.00    -0.000 C 
BRANCH  17  18
ATOM     18  C   UNL     1      26.575  35.383  31.763  1.00  0.00    -0.000 C 
BRANCH  18  19
ATOM     19  C   UNL     1      27.009  34.324  30.742  1.00  0.00    -0.003 C 
ATOM     20  C   UNL     1      25.823  33.481  30.283  1.00  0.00     0.004 C 
ENDBRANCH  18  19
ENDBRANCH  17  18
ENDBRANCH  16  17
ENDBRANCH  15  16
ENDBRANCH  14  15
ENDBRANCH  13  14
ENDBRANCH  12  13
ENDBRANCH   1  12
TORSDOF 16
ENDMDL
MODEL 7
REMARK VINA RESULT:    -2.839      1.287      2.703
REMARK INTER + INTRA:          -7.503
REMARK INTER:                  -5.646
REMARK INTRA:                  -1.857
REMARK UNBOUND:                -2.008
REMARK SMILES CCCCCCCCCCCCCCCCCC(=O)[O-]
REMARK SMILES IDX 10 1 11 2 12 3 13 4 14 5 15 6 16 7 17 8 18 9 19 10 20 11
REMARK SMILES IDX 9 12 8 13 7 14 6 15 5 16 4 17 3 18 2 19 1 20
REMARK H PARENT
REMARK Flexibility Score: inf
ROOT
ATOM      1  C   UNL     1      24.870  34.008  35.644  1.00  0.00     0.000 C 
ENDROOT
BRANCH   1   2
ATOM      2  C   UNL     1      26.098  33.784  36.544  1.00  0.00     0.000 C 
BRANCH   2   3
ATOM      3  C   UNL     1      26.374  32.298  36.812  1.00  0.00     0.000 C 
BRANCH   3   4
ATOM      4  C   UNL     1      27.767  31.899  36.307  1.00  0.00     0.000 C 
BRANCH   4   5
ATOM      5  C   UNL     1      28.674  33.128  36.169  1.00  0.00     0.000 C 
BRANCH   5   6
ATOM      6  C   UNL     1      29.794  32.873  35.148  1.00  0.00     0.000 C 
BRANCH   6   7
ATOM      7  C   UNL     1      30.225  31.399  35.106  1.00  0.00     0.006 C 
BRANCH   7   8
ATOM      8  C   UNL     1      30.451  30.891  33.676  1.00  0.00     0.053 C 
BRANCH   8   9
ATOM      9  C   UNL     1      30.074  29.446  33.568  1.00  0.00     0.041 C 
ATOM     10  O   UNL     1      29.723  28.804  34.594  1.00  0.00    -0.550 OA
ATOM     11  O   UNL     1      30.068  28.820  32.327  1.00  0.00    -0.550 OA
ENDBRANCH   8   9
ENDBRANCH   7   8
ENDBRANCH   6   7
ENDBRANCH   5   6
ENDBRANCH   4   5
ENDBRANCH   3   4
ENDBRANCH   2   3
ENDBRANCH   1   2
BRANCH   1  12
ATOM     12  C   UNL     1      24.395  32.763  34.864  1.00  0.00     0.000 C 
BRANCH  12  13
ATOM     13  C   UNL     1      25.142  32.496  33.542  1.00  0.00    -0.000 C 
BRANCH  13  14
ATOM     14  C   UNL     1      24.868  33.569  32.477  1.00  0.00    -0.000 C 
BRANCH  14  15
ATOM     15  C   UNL     1      25.568  33.224  31.153  1.00  0.00    -0.000 C 
BRANCH  15  16
ATOM     16  C   UNL     1      26.728  34.182  30.823  1.00  0.00    -0.000 C 
BRANCH  16  17
ATOM     17  C   UNL     1      28.054  33.868  31.543  1.00  0.00    -0.000 C 
BRANCH  17  18
ATOM     18  C   UNL     1      28.497  34.984  32.503  1.00  0.00    -0.000 C 
BRANCH  18  19
ATOM     19  C   UNL     1      27.336  35.427  33.401  1.00  0.00    -0.003 C 
ATOM     20  C   UNL     1      26.746  36.753  32.930  1.00  0.00     0.004 C 
ENDBRANCH  18  19
ENDBRANCH  17  18
ENDBRANCH  16  17
ENDBRANCH  15  16
ENDBRANCH  14  15
ENDBRANCH  13  14
ENDBRANCH  12  13
ENDBRANCH   1  12
TORSDOF 16
ENDMDL
MODEL 8
REMARK VINA RESULT:    -2.794      2.832      4.811
REMARK INTER + INTRA:          -7.415
REMARK INTER:                  -5.736
REMARK INTRA:                  -1.679
REMARK UNBOUND:                -2.008
REMARK SMILES CCCCCCCCCCCCCCCCCC(=O)[O-]
REMARK SMILES IDX 10 1 11 2 12 3 13 4 14 5 15 6 16 7 17 8 18 9 19 10 20 11
REMARK SMILES IDX 9 12 8 13 7 14 6 15 5 16 4 17 3 18 2 19 1 20
REMARK H PARENT
REMARK Flexibility Score: inf
ROOT
ATOM      1  C   UNL     1      25.187  33.207  32.129  1.00  0.00     0.000 C 
ENDROOT
BRANCH   1   2
ATOM      2  C   UNL     1      25.653  32.829  33.547  1.00  0.00     0.000 C 
BRANCH   2   3
ATOM      3  C   UNL     1      24.891  33.587  34.643  1.00  0.00     0.000 C 
BRANCH   3   4
ATOM      4  C   UNL     1      25.737  33.703  35.917  1.00  0.00     0.000 C 
BRANCH   4   5
ATOM      5  C   UNL     1      26.625  32.466  36.103  1.00  0.00     0.000 C 
BRANCH   5   6
ATOM      6  C   UNL     1      27.769  32.753  37.088  1.00  0.00     0.000 C 
BRANCH   6   7
ATOM      7  C   UNL     1      29.055  33.207  36.378  1.00  0.00     0.006 C 
BRANCH   7   8
ATOM      8  C   UNL     1      29.118  32.742  34.917  1.00  0.00     0.053 C 
BRANCH   8   9
ATOM      9  C   UNL     1      29.858  31.446  34.812  1.00  0.00     0.041 C 
ATOM     10  O   UNL     1      31.082  31.436  34.513  1.00  0.00    -0.550 OA
ATOM     11  O   UNL     1      29.206  30.249  35.088  1.00  0.00    -0.550 OA
ENDBRANCH   8   9
ENDBRANCH   7   8
ENDBRANCH   6   7
ENDBRANCH   5   6
ENDBRANCH   4   5
ENDBRANCH   3   4
ENDBRANCH   2   3
ENDBRANCH   1   2
BRANCH   1  12
ATOM     12  C   UNL     1      26.223  33.980  31.285  1.00  0.00     0.000 C 
BRANCH  12  13
ATOM     13  C   UNL     1      27.647  34.019  31.874  1.00  0.00    -0.000 C 
BRANCH  13  14
ATOM     14  C   UNL     1      28.080  35.433  32.291  1.00  0.00    -0.000 C 
BRANCH  14  15
ATOM     15  C   UNL     1      27.077  36.050  33.278  1.00  0.00    -0.000 C 
BRANCH  15  16
ATOM     16  C   UNL     1      26.654  37.478  32.887  1.00  0.00    -0.000 C 
BRANCH  16  17
ATOM     17  C   UNL     1      27.008  38.566  33.918  1.00  0.00    -0.000 C 
BRANCH  17  18
ATOM     18  C   UNL     1      26.725  39.990  33.413  1.00  0.00    -0.000 C 
BRANCH  18  19
ATOM     19  C   UNL     1      25.518  40.598  34.136  1.00  0.00    -0.003 C 
ATOM     20  C   UNL     1      25.099  41.919  33.498  1.00  0.00     0.004 C 
ENDBRANCH  18  19
ENDBRANCH  17  18
ENDBRANCH  16  17
ENDBRANCH  15  16
ENDBRANCH  14  15
ENDBRANCH  13  14
ENDBRANCH  12  13
ENDBRANCH   1  12
TORSDOF 16
ENDMDL
