MODEL 1
REMARK VINA RESULT:    -4.156      0.000      0.000
REMARK INTER + INTRA:          -7.856
REMARK INTER:                  -7.072
REMARK INTRA:                  -0.785
REMARK UNBOUND:                -0.785
REMARK SMILES CCCCCCCCCCCCCC(=O)[O-]
REMARK SMILES IDX 8 1 9 2 10 3 11 4 12 5 13 6 14 7 15 8 16 9 7 10 6 11 5 12
REMARK SMILES IDX 4 13 3 14 2 15 1 16
REMARK H PARENT
REMARK Flexibility Score: inf
ROOT
ATOM      1  C   UNL     1     121.238 110.718 113.856  1.00  0.00     0.000 C 
ENDROOT
BRANCH   1   2
ATOM      2  C   UNL     1     120.769 110.106 112.527  1.00  0.00     0.000 C 
BRANCH   2   3
ATOM      3  C   UNL     1     119.565 110.847 111.922  1.00  0.00     0.000 C 
BRANCH   3   4
ATOM      4  C   UNL     1     119.094 110.224 110.596  1.00  0.00     0.000 C 
BRANCH   4   5
ATOM      5  C   UNL     1     120.245 109.578 109.807  1.00  0.00     0.006 C 
BRANCH   5   6
ATOM      6  C   UNL     1     119.973 109.524 108.298  1.00  0.00     0.053 C 
BRANCH   6   7
ATOM      7  C   UNL     1     120.692 110.634 107.598  1.00  0.00     0.041 C 
ATOM      8  O   UNL     1     121.679 110.383 106.858  1.00  0.00    -0.550 OA
ATOM      9  O   UNL     1     120.240 111.942 107.722  1.00  0.00    -0.550 OA
ENDBRANCH   6   7
ENDBRANCH   5   6
ENDBRANCH   4   5
ENDBRANCH   3   4
ENDBRANCH   2   3
ENDBRANCH   1   2
BRANCH   1  10
ATOM     10  C   UNL     1     120.687 112.139 114.030  1.00  0.00     0.000 C 
BRANCH  10  11
ATOM     11  C   UNL     1     120.675 112.547 115.511  1.00  0.00    -0.000 C 
BRANCH  11  12
ATOM     12  C   UNL     1     120.617 111.343 116.467  1.00  0.00    -0.000 C 
BRANCH  12  13
ATOM     13  C   UNL     1     119.743 111.543 117.720  1.00  0.00    -0.000 C 
BRANCH  13  14
ATOM     14  C   UNL     1     119.223 112.984 117.863  1.00  0.00    -0.000 C 
BRANCH  14  15
ATOM     15  C   UNL     1     117.719 113.099 117.564  1.00  0.00    -0.003 C 
ATOM     16  C   UNL     1     117.335 114.454 116.971  1.00  0.00     0.004 C 
ENDBRANCH  14  15
ENDBRANCH  13  14
ENDBRANCH  12  13
ENDBRANCH  11  12
ENDBRANCH  10  11
ENDBRANCH   1  10
TORSDOF 12
ENDMDL
MODEL 2
REMARK VINA RESULT:    -4.063      4.109      9.028
REMARK INTER + INTRA:          -7.697
REMARK INTER:                  -7.187
REMARK INTRA:                  -0.510
REMARK UNBOUND:                -0.785
REMARK SMILES CCCCCCCCCCCCCC(=O)[O-]
REMARK SMILES IDX 8 1 9 2 10 3 11 4 12 5 13 6 14 7 15 8 16 9 7 10 6 11 5 12
REMARK SMILES IDX 4 13 3 14 2 15 1 16
REMARK H PARENT
REMARK Flexibility Score: inf
ROOT
ATOM      1  C   UNL     1     119.192 110.371 111.739  1.00  0.00     0.000 C 
ENDROOT
BRANCH   1   2
ATOM      2  C   UNL     1     120.582 110.018 112.290  1.00  0.00     0.000 C 
BRANCH   2   3
ATOM      3  C   UNL     1     121.413 111.261 112.648  1.00  0.00     0.000 C 
BRANCH   3   4
ATOM      4  C   UNL     1     120.777 112.091 113.779  1.00  0.00     0.000 C 
BRANCH   4   5
ATOM      5  C   UNL     1     120.794 111.355 115.129  1.00  0.00     0.006 C 
BRANCH   5   6
ATOM      6  C   UNL     1     120.607 112.303 116.322  1.00  0.00     0.053 C 
BRANCH   6   7
ATOM      7  C   UNL     1     120.092 111.552 117.509  1.00  0.00     0.041 C 
ATOM      8  O   UNL     1     120.816 110.698 118.082  1.00  0.00    -0.550 OA
ATOM      9  O   UNL     1     118.828 111.833 118.014  1.00  0.00    -0.550 OA
ENDBRANCH   6   7
ENDBRANCH   5   6
ENDBRANCH   4   5
ENDBRANCH   3   4
ENDBRANCH   2   3
ENDBRANCH   1   2
BRANCH   1  10
ATOM     10  C   UNL     1     119.269 110.743 110.253  1.00  0.00     0.000 C 
BRANCH  10  11
ATOM     11  C   UNL     1     119.951 109.631 109.442  1.00  0.00    -0.000 C 
BRANCH  11  12
ATOM     12  C   UNL     1     120.124 109.990 107.955  1.00  0.00    -0.000 C 
BRANCH  12  13
ATOM     13  C   UNL     1     119.674 108.901 106.963  1.00  0.00    -0.000 C 
BRANCH  13  14
ATOM     14  C   UNL     1     120.849 108.089 106.393  1.00  0.00    -0.000 C 
BRANCH  14  15
ATOM     15  C   UNL     1     120.400 106.746 105.793  1.00  0.00    -0.003 C 
ATOM     16  C   UNL     1     120.430 106.739 104.265  1.00  0.00     0.004 C 
ENDBRANCH  14  15
ENDBRANCH  13  14
ENDBRANCH  12  13
ENDBRANCH  11  12
ENDBRANCH  10  11
ENDBRANCH   1  10
TORSDOF 12
ENDMDL
MODEL 3
REMARK VINA RESULT:    -4.046      3.347      5.026
REMARK INTER + INTRA:          -7.670
REMARK INTER:                  -5.756
REMARK INTRA:                  -1.914
REMARK UNBOUND:                -0.785
REMARK SMILES CCCCCCCCCCCCCC(=O)[O-]
REMARK SMILES IDX 8 1 9 2 10 3 11 4 12 5 13 6 14 7 15 8 16 9 7 10 6 11 5 12
REMARK SMILES IDX 4 13 3 14 2 15 1 16
REMARK H PARENT
REMARK Flexibility Score: inf
ROOT
ATOM      1  C   UNL     1     119.068 110.321 111.402  1.00  0.00     0.000 C 
ENDROOT
BRANCH   1   2
ATOM      2  C   UNL     1     119.403 110.021 109.932  1.00  0.00     0.000 C 
BRANCH   2   3
ATOM      3  C   UNL     1     119.544 111.295 109.083  1.00  0.00     0.000 C 
BRANCH   3   4
ATOM      4  C   UNL     1     120.073 111.004 107.667  1.00  0.00     0.000 C 
BRANCH   4   5
ATOM      5  C   UNL     1     120.283 109.502 107.414  1.00  0.00     0.006 C 
BRANCH   5   6
ATOM      6  C   UNL     1     121.666 109.188 106.828  1.00  0.00     0.053 C 
BRANCH   6   7
ATOM      7  C   UNL     1     121.933 107.717 106.881  1.00  0.00     0.041 C 
ATOM      8  O   UNL     1     121.978 107.042 105.820  1.00  0.00    -0.550 OA
ATOM      9  O   UNL     1     122.184 107.099 108.100  1.00  0.00    -0.550 OA
ENDBRANCH   6   7
ENDBRANCH   5   6
ENDBRANCH   4   5
ENDBRANCH   3   4
ENDBRANCH   2   3
ENDBRANCH   1   2
BRANCH   1  10
ATOM     10  C   UNL     1     120.227 109.919 112.322  1.00  0.00     0.000 C 
BRANCH  10  11
ATOM     11  C   UNL     1     120.724 111.122 113.138  1.00  0.00    -0.000 C 
BRANCH  11  12
ATOM     12  C   UNL     1     120.257 112.472 112.566  1.00  0.00    -0.000 C 
BRANCH  12  13
ATOM     13  C   UNL     1     121.292 113.206 111.692  1.00  0.00    -0.000 C 
BRANCH  13  14
ATOM     14  C   UNL     1     122.634 112.460 111.599  1.00  0.00    -0.000 C 
BRANCH  14  15
ATOM     15  C   UNL     1     122.946 111.987 110.170  1.00  0.00    -0.003 C 
ATOM     16  C   UNL     1     123.120 110.471 110.072  1.00  0.00     0.004 C 
ENDBRANCH  14  15
ENDBRANCH  13  14
ENDBRANCH  12  13
ENDBRANCH  11  12
ENDBRANCH  10  11
ENDBRANCH   1  10
TORSDOF 12
ENDMDL
MODEL 4
REMARK VINA RESULT:    -4.026      5.724      7.550
REMARK INTER + INTRA:          -7.635
REMARK INTER:                  -5.988
REMARK INTRA:                  -1.647
REMARK UNBOUND:                -0.785
REMARK SMILES CCCCCCCCCCCCCC(=O)[O-]
REMARK SMILES IDX 8 1 9 2 10 3 11 4 12 5 13 6 14 7 15 8 16 9 7 10 6 11 5 12
REMARK SMILES IDX 4 13 3 14 2 15 1 16
REMARK H PARENT
REMARK Flexibility Score: inf
ROOT
ATOM      1  C   UNL     1     122.168 113.251 117.559  1.00  0.00     0.000 C 
ENDROOT
BRANCH   1   2
ATOM      2  C   UNL     1     122.094 112.078 116.570  1.00  0.00     0.000 C 
BRANCH   2   3
ATOM      3  C   UNL     1     120.699 111.433 116.515  1.00  0.00     0.000 C 
BRANCH   3   4
ATOM      4  C   UNL     1     119.999 111.424 117.886  1.00  0.00     0.000 C 
BRANCH   4   5
ATOM      5  C   UNL     1     118.625 112.112 117.850  1.00  0.00     0.006 C 
BRANCH   5   6
ATOM      6  C   UNL     1     118.718 113.607 117.517  1.00  0.00     0.053 C 
BRANCH   6   7
ATOM      7  C   UNL     1     117.406 114.111 117.006  1.00  0.00     0.041 C 
ATOM      8  O   UNL     1     117.350 115.183 116.348  1.00  0.00    -0.550 OA
ATOM      9  O   UNL     1     116.249 113.370 117.212  1.00  0.00    -0.550 OA
ENDBRANCH   6   7
ENDBRANCH   5   6
ENDBRANCH   4   5
ENDBRANCH   3   4
ENDBRANCH   2   3
ENDBRANCH   1   2
BRANCH   1  10
ATOM     10  C   UNL     1     123.389 113.118 118.478  1.00  0.00     0.000 C 
BRANCH  10  11
ATOM     11  C   UNL     1     122.974 113.158 119.956  1.00  0.00    -0.000 C 
BRANCH  11  12
ATOM     12  C   UNL     1     122.368 111.832 120.448  1.00  0.00    -0.000 C 
BRANCH  12  13
ATOM     13  C   UNL     1     123.317 110.620 120.397  1.00  0.00    -0.000 C 
BRANCH  13  14
ATOM     14  C   UNL     1     122.947 109.616 119.293  1.00  0.00    -0.000 C 
BRANCH  14  15
ATOM     15  C   UNL     1     124.009 109.543 118.183  1.00  0.00    -0.003 C 
ATOM     16  C   UNL     1     125.418 109.848 118.691  1.00  0.00     0.004 C 
ENDBRANCH  14  15
ENDBRANCH  13  14
ENDBRANCH  12  13
ENDBRANCH  11  12
ENDBRANCH  10  11
ENDBRANCH   1  10
TORSDOF 12
ENDMDL
MODEL 5
REMARK VINA RESULT:    -3.964      1.571      2.449
REMARK INTER + INTRA:          -7.530
REMARK INTER:                  -6.729
REMARK INTRA:                  -0.800
REMARK UNBOUND:                -0.785
REMARK SMILES CCCCCCCCCCCCCC(=O)[O-]
REMARK SMILES IDX 8 1 9 2 10 3 11 4 12 5 13 6 14 7 15 8 16 9 7 10 6 11 5 12
REMARK SMILES IDX 4 13 3 14 2 15 1 16
REMARK H PARENT
REMARK Flexibility Score: inf
ROOT
ATOM      1  C   UNL     1     120.413 110.053 112.487  1.00  0.00     0.000 C 
ENDROOT
BRANCH   1   2
ATOM      2  C   UNL     1     119.252 110.747 111.757  1.00  0.00     0.000 C 
BRANCH   2   3
ATOM      3  C   UNL     1     118.883 110.055 110.435  1.00  0.00     0.000 C 
BRANCH   3   4
ATOM      4  C   UNL     1     120.119 109.700 109.589  1.00  0.00     0.000 C 
BRANCH   4   5
ATOM      5  C   UNL     1     120.140 110.436 108.240  1.00  0.00     0.006 C 
BRANCH   5   6
ATOM      6  C   UNL     1     121.130 109.818 107.243  1.00  0.00     0.053 C 
BRANCH   6   7
ATOM      7  C   UNL     1     120.721 108.421 106.901  1.00  0.00     0.041 C 
ATOM      8  O   UNL     1     121.539 107.472 107.028  1.00  0.00    -0.550 OA
ATOM      9  O   UNL     1     119.420 108.156 106.491  1.00  0.00    -0.550 OA
ENDBRANCH   6   7
ENDBRANCH   5   6
ENDBRANCH   4   5
ENDBRANCH   3   4
ENDBRANCH   2   3
ENDBRANCH   1   2
BRANCH   1  10
ATOM     10  C   UNL     1     121.033 110.982 113.538  1.00  0.00     0.000 C 
BRANCH  10  11
ATOM     11  C   UNL     1     120.845 112.456 113.150  1.00  0.00    -0.000 C 
BRANCH  11  12
ATOM     12  C   UNL     1     120.056 113.259 114.200  1.00  0.00    -0.000 C 
BRANCH  12  13
ATOM     13  C   UNL     1     120.533 113.082 115.654  1.00  0.00    -0.000 C 
BRANCH  13  14
ATOM     14  C   UNL     1     119.439 113.405 116.686  1.00  0.00    -0.000 C 
BRANCH  14  15
ATOM     15  C   UNL     1     119.305 112.316 117.762  1.00  0.00    -0.003 C 
ATOM     16  C   UNL     1     120.080 111.044 117.418  1.00  0.00     0.004 C 
ENDBRANCH  14  15
ENDBRANCH  13  14
ENDBRANCH  12  13
ENDBRANCH  11  12
ENDBRANCH  10  11
ENDBRANCH   1  10
TORSDOF 12
ENDMDL
MODEL 6
REMARK VINA RESULT:    -3.952      5.179      7.489
REMARK INTER + INTRA:          -7.509
REMARK INTER:                  -6.066
REMARK INTRA:                  -1.444
REMARK UNBOUND:                -0.785
REMARK SMILES CCCCCCCCCCCCCC(=O)[O-]
REMARK SMILES IDX 8 1 9 2 10 3 11 4 12 5 13 6 14 7 15 8 16 9 7 10 6 11 5 12
REMARK SMILES IDX 4 13 3 14 2 15 1 16
REMARK H PARENT
REMARK Flexibility Score: inf
ROOT
ATOM      1  C   UNL     1     121.256 113.245 109.195  1.00  0.00     0.000 C 
ENDROOT
BRANCH   1   2
ATOM      2  C   UNL     1     122.580 112.694 108.646  1.00  0.00     0.000 C 
BRANCH   2   3
ATOM      3  C   UNL     1     122.585 112.576 107.113  1.00  0.00     0.000 C 
BRANCH   3   4
ATOM      4  C   UNL     1     121.178 112.720 106.506  1.00  0.00     0.000 C 
BRANCH   4   5
ATOM      5  C   UNL     1     121.110 113.816 105.429  1.00  0.00     0.006 C 
BRANCH   5   6
ATOM      6  C   UNL     1     120.124 114.937 105.786  1.00  0.00     0.053 C 
BRANCH   6   7
ATOM      7  C   UNL     1     120.702 116.271 105.437  1.00  0.00     0.041 C 
ATOM      8  O   UNL     1     121.876 116.564 105.786  1.00  0.00    -0.550 OA
ATOM      9  O   UNL     1     119.964 117.173 104.681  1.00  0.00    -0.550 OA
ENDBRANCH   6   7
ENDBRANCH   5   6
ENDBRANCH   4   5
ENDBRANCH   3   4
ENDBRANCH   2   3
ENDBRANCH   1   2
BRANCH   1  10
ATOM     10  C   UNL     1     120.630 112.270 110.200  1.00  0.00     0.000 C 
BRANCH  10  11
ATOM     11  C   UNL     1     119.516 111.442 109.542  1.00  0.00    -0.000 C 
BRANCH  11  12
ATOM     12  C   UNL     1     119.621 109.938 109.852  1.00  0.00    -0.000 C 
BRANCH  12  13
ATOM     13  C   UNL     1     120.938 109.270 109.414  1.00  0.00    -0.000 C 
BRANCH  13  14
ATOM     14  C   UNL     1     121.113 109.236 107.886  1.00  0.00    -0.000 C 
BRANCH  14  15
ATOM     15  C   UNL     1     119.847 108.753 107.159  1.00  0.00    -0.003 C 
ATOM     16  C   UNL     1     120.136 107.661 106.129  1.00  0.00     0.004 C 
ENDBRANCH  14  15
ENDBRANCH  13  14
ENDBRANCH  12  13
ENDBRANCH  11  12
ENDBRANCH  10  11
ENDBRANCH   1  10
TORSDOF 12
ENDMDL
MODEL 7
REMARK VINA RESULT:    -3.928      1.109      2.528
REMARK INTER + INTRA:          -7.467
REMARK INTER:                  -6.687
REMARK INTRA:                  -0.781
REMARK UNBOUND:                -0.785
REMARK SMILES CCCCCCCCCCCCCC(=O)[O-]
REMARK SMILES IDX 8 1 9 2 10 3 11 4 12 5 13 6 14 7 15 8 16 9 7 10 6 11 5 12
REMARK SMILES IDX 4 13 3 14 2 15 1 16
REMARK H PARENT
REMARK Flexibility Score: inf
ROOT
ATOM      1  C   UNL     1     119.557 110.903 111.848  1.00  0.00     0.000 C 
ENDROOT
BRANCH   1   2
ATOM      2  C   UNL     1     119.088 110.222 110.554  1.00  0.00     0.000 C 
BRANCH   2   3
ATOM      3  C   UNL     1     120.240 109.563 109.778  1.00  0.00     0.000 C 
BRANCH   3   4
ATOM      4  C   UNL     1     120.020 109.596 108.254  1.00  0.00     0.000 C 
BRANCH   4   5
ATOM      5  C   UNL     1     119.961 111.030 107.700  1.00  0.00     0.006 C 
BRANCH   5   6
ATOM      6  C   UNL     1     121.283 111.789 107.875  1.00  0.00     0.053 C 
BRANCH   6   7
ATOM      7  C   UNL     1     121.984 111.926 106.561  1.00  0.00     0.041 C 
ATOM      8  O   UNL     1     122.715 110.995 106.132  1.00  0.00    -0.550 OA
ATOM      9  O   UNL     1     121.790 113.061 105.784  1.00  0.00    -0.550 OA
ENDBRANCH   6   7
ENDBRANCH   5   6
ENDBRANCH   4   5
ENDBRANCH   3   4
ENDBRANCH   2   3
ENDBRANCH   1   2
BRANCH   1  10
ATOM     10  C   UNL     1     120.587 110.037 112.582  1.00  0.00     0.000 C 
BRANCH  10  11
ATOM     11  C   UNL     1     121.237 110.813 113.738  1.00  0.00    -0.000 C 
BRANCH  11  12
ATOM     12  C   UNL     1     120.615 112.204 113.953  1.00  0.00    -0.000 C 
BRANCH  12  13
ATOM     13  C   UNL     1     120.554 112.674 115.419  1.00  0.00    -0.000 C 
BRANCH  13  14
ATOM     14  C   UNL     1     120.590 111.510 116.423  1.00  0.00    -0.000 C 
BRANCH  14  15
ATOM     15  C   UNL     1     120.165 111.938 117.837  1.00  0.00    -0.003 C 
ATOM     16  C   UNL     1     118.715 112.415 117.901  1.00  0.00     0.004 C 
ENDBRANCH  14  15
ENDBRANCH  13  14
ENDBRANCH  12  13
ENDBRANCH  11  12
ENDBRANCH  10  11
ENDBRANCH   1  10
TORSDOF 12
ENDMDL
MODEL 8
REMARK VINA RESULT:    -3.912      3.671      5.446
REMARK INTER + INTRA:          -7.442
REMARK INTER:                  -5.327
REMARK INTRA:                  -2.115
REMARK UNBOUND:                -0.785
REMARK SMILES CCCCCCCCCCCCCC(=O)[O-]
REMARK SMILES IDX 8 1 9 2 10 3 11 4 12 5 13 6 14 7 15 8 16 9 7 10 6 11 5 12
REMARK SMILES IDX 4 13 3 14 2 15 1 16
REMARK H PARENT
REMARK Flexibility Score: inf
ROOT
ATOM      1  C   UNL     1     119.251 110.348 110.212  1.00  0.00     0.000 C 
ENDROOT
BRANCH   1   2
ATOM      2  C   UNL     1     120.274 109.329 109.687  1.00  0.00     0.000 C 
BRANCH   2   3
ATOM      3  C   UNL     1     120.802 109.683 108.287  1.00  0.00     0.000 C 
BRANCH   3   4
ATOM      4  C   UNL     1     120.160 110.962 107.720  1.00  0.00     0.000 C 
BRANCH   4   5
ATOM      5  C   UNL     1     121.193 111.908 107.086  1.00  0.00     0.006 C 
BRANCH   5   6
ATOM      6  C   UNL     1     120.862 113.389 107.320  1.00  0.00     0.053 C 
BRANCH   6   7
ATOM      7  C   UNL     1     120.898 114.142 106.028  1.00  0.00     0.041 C 
ATOM      8  O   UNL     1     121.571 113.705 105.058  1.00  0.00    -0.550 OA
ATOM      9  O   UNL     1     120.146 115.300 105.877  1.00  0.00    -0.550 OA
ENDBRANCH   6   7
ENDBRANCH   5   6
ENDBRANCH   4   5
ENDBRANCH   3   4
ENDBRANCH   2   3
ENDBRANCH   1   2
BRANCH   1  10
ATOM     10  C   UNL     1     119.360 110.500 111.734  1.00  0.00     0.000 C 
BRANCH  10  11
ATOM     11  C   UNL     1     120.160 111.758 112.106  1.00  0.00    -0.000 C 
BRANCH  11  12
ATOM     12  C   UNL     1     120.154 112.825 110.997  1.00  0.00    -0.000 C 
BRANCH  12  13
ATOM     13  C   UNL     1     121.443 113.661 110.887  1.00  0.00    -0.000 C 
BRANCH  13  14
ATOM     14  C   UNL     1     122.700 112.883 111.312  1.00  0.00    -0.000 C 
BRANCH  14  15
ATOM     15  C   UNL     1     123.360 112.143 110.137  1.00  0.00    -0.003 C 
ATOM     16  C   UNL     1     123.608 110.664 110.432  1.00  0.00     0.004 C 
ENDBRANCH  14  15
ENDBRANCH  13  14
ENDBRANCH  12  13
ENDBRANCH  11  12
ENDBRANCH  10  11
ENDBRANCH   1  10
TORSDOF 12
ENDMDL
MODEL 9
REMARK VINA RESULT:    -3.899      3.720      5.651
REMARK INTER + INTRA:          -7.419
REMARK INTER:                  -5.652
REMARK INTRA:                  -1.767
REMARK UNBOUND:                -0.785
REMARK SMILES CCCCCCCCCCCCCC(=O)[O-]
REMARK SMILES IDX 8 1 9 2 10 3 11 4 12 5 13 6 14 7 15 8 16 9 7 10 6 11 5 12
REMARK SMILES IDX 4 13 3 14 2 15 1 16
REMARK H PARENT
REMARK Flexibility Score: inf
ROOT
ATOM      1  C   UNL     1     121.077 109.477 108.579  1.00  0.00     0.000 C 
ENDROOT
BRANCH   1   2
ATOM      2  C   UNL     1     119.973 110.216 107.806  1.00  0.00     0.000 C 
BRANCH   2   3
ATOM      3  C   UNL     1     120.429 111.589 107.285  1.00  0.00     0.000 C 
BRANCH   3   4
ATOM      4  C   UNL     1     121.948 111.653 107.041  1.00  0.00     0.000 C 
BRANCH   4   5
ATOM      5  C   UNL     1     122.452 113.092 106.843  1.00  0.00     0.006 C 
BRANCH   5   6
ATOM      6  C   UNL     1     122.196 113.621 105.425  1.00  0.00     0.053 C 
BRANCH   6   7
ATOM      7  C   UNL     1     121.377 114.871 105.475  1.00  0.00     0.041 C 
ATOM      8  O   UNL     1     120.238 114.863 106.011  1.00  0.00    -0.550 OA
ATOM      9  O   UNL     1     121.893 116.061 104.975  1.00  0.00    -0.550 OA
ENDBRANCH   6   7
ENDBRANCH   5   6
ENDBRANCH   4   5
ENDBRANCH   3   4
ENDBRANCH   2   3
ENDBRANCH   1   2
BRANCH   1  10
ATOM     10  C   UNL     1     120.744 109.402 110.074  1.00  0.00     0.000 C 
BRANCH  10  11
ATOM     11  C   UNL     1     119.316 109.899 110.346  1.00  0.00    -0.000 C 
BRANCH  11  12
ATOM     12  C   UNL     1     119.157 110.544 111.734  1.00  0.00    -0.000 C 
BRANCH  12  13
ATOM     13  C   UNL     1     120.328 111.441 112.177  1.00  0.00    -0.000 C 
BRANCH  13  14
ATOM     14  C   UNL     1     120.169 112.902 111.724  1.00  0.00    -0.000 C 
BRANCH  14  15
ATOM     15  C   UNL     1     121.071 113.249 110.529  1.00  0.00    -0.003 C 
ATOM     16  C   UNL     1     122.467 112.636 110.642  1.00  0.00     0.004 C 
ENDBRANCH  14  15
ENDBRANCH  13  14
ENDBRANCH  12  13
ENDBRANCH  11  12
ENDBRANCH  10  11
ENDBRANCH   1  10
TORSDOF 12
ENDMDL
