MODEL 1
REMARK VINA RESULT:    -3.654      0.000      0.000
REMARK INTER + INTRA:         -13.057
REMARK INTER:                  -8.354
REMARK INTRA:                  -4.703
REMARK UNBOUND:                -4.703
REMARK SMILES CCCCCCCCCCCCCCCCCCCCCCCC(=O)[O-]
REMARK SMILES IDX 13 1 14 2 15 3 16 4 17 5 18 6 19 7 20 8 21 9 22 10 23 11
REMARK SMILES IDX 24 12 25 13 26 14 12 15 11 16 10 17 9 18 8 19 7 20 6 21 5 22
REMARK SMILES IDX 4 23 3 24 2 25 1 26
REMARK H PARENT
REMARK Flexibility Score: inf
ROOT
ATOM      1  C   UNL     1     173.304 169.860 154.059  1.00  0.00     0.000 C 
ENDROOT
BRANCH   1   2
ATOM      2  C   UNL     1     173.191 171.073 154.997  1.00  0.00     0.000 C 
BRANCH   2   3
ATOM      3  C   UNL     1     172.351 172.211 154.392  1.00  0.00     0.000 C 
BRANCH   3   4
ATOM      4  C   UNL     1     173.151 173.514 154.207  1.00  0.00     0.000 C 
BRANCH   4   5
ATOM      5  C   UNL     1     174.669 173.386 154.433  1.00  0.00     0.000 C 
BRANCH   5   6
ATOM      6  C   UNL     1     175.480 173.493 153.130  1.00  0.00     0.000 C 
BRANCH   6   7
ATOM      7  C   UNL     1     174.732 174.257 152.022  1.00  0.00     0.000 C 
BRANCH   7   8
ATOM      8  C   UNL     1     174.928 173.709 150.594  1.00  0.00     0.000 C 
BRANCH   8   9
ATOM      9  C   UNL     1     173.635 173.523 149.783  1.00  0.00     0.000 C 
BRANCH   9  10
ATOM     10  C   UNL     1     172.400 174.116 150.484  1.00  0.00     0.006 C 
BRANCH  10  11
ATOM     11  C   UNL     1     171.380 173.038 150.869  1.00  0.00     0.053 C 
BRANCH  11  12
ATOM     12  C   UNL     1     170.226 173.615 151.629  1.00  0.00     0.041 C 
ATOM     13  O   UNL     1     169.314 172.866 152.066  1.00  0.00    -0.550 OA
ATOM     14  O   UNL     1     170.138 174.989 151.822  1.00  0.00    -0.550 OA
ENDBRANCH  11  12
ENDBRANCH  10  11
ENDBRANCH   9  10
ENDBRANCH   8   9
ENDBRANCH   7   8
ENDBRANCH   6   7
ENDBRANCH   5   6
ENDBRANCH   4   5
ENDBRANCH   3   4
ENDBRANCH   2   3
ENDBRANCH   1   2
BRANCH   1  15
ATOM     15  C   UNL     1     174.671 169.782 153.354  1.00  0.00     0.000 C 
BRANCH  15  16
ATOM     16  C   UNL     1     174.594 170.172 151.862  1.00  0.00     0.000 C 
BRANCH  16  17
ATOM     17  C   UNL     1     173.173 170.098 151.269  1.00  0.00     0.000 C 
BRANCH  17  18
ATOM     18  C   UNL     1     173.113 169.891 149.744  1.00  0.00    -0.000 C 
BRANCH  18  19
ATOM     19  C   UNL     1     172.077 168.853 149.264  1.00  0.00    -0.000 C 
BRANCH  19  20
ATOM     20  C   UNL     1     172.664 167.544 148.709  1.00  0.00    -0.000 C 
BRANCH  20  21
ATOM     21  C   UNL     1     174.193 167.464 148.858  1.00  0.00    -0.000 C 
BRANCH  21  22
ATOM     22  C   UNL     1     174.630 166.753 150.153  1.00  0.00    -0.000 C 
BRANCH  22  23
ATOM     23  C   UNL     1     173.565 165.839 150.792  1.00  0.00    -0.000 C 
BRANCH  23  24
ATOM     24  C   UNL     1     173.145 166.222 152.224  1.00  0.00    -0.000 C 
BRANCH  24  25
ATOM     25  C   UNL     1     171.751 166.866 152.337  1.00  0.00    -0.003 C 
ATOM     26  C   UNL     1     171.199 166.841 153.762  1.00  0.00     0.004 C 
ENDBRANCH  24  25
ENDBRANCH  23  24
ENDBRANCH  22  23
ENDBRANCH  21  22
ENDBRANCH  20  21
ENDBRANCH  19  20
ENDBRANCH  18  19
ENDBRANCH  17  18
ENDBRANCH  16  17
ENDBRANCH  15  16
ENDBRANCH   1  15
TORSDOF 22
ENDMDL
MODEL 2
REMARK VINA RESULT:    -3.651      4.947      9.176
REMARK INTER + INTRA:         -13.050
REMARK INTER:                 -10.720
REMARK INTRA:                  -2.330
REMARK UNBOUND:                -4.703
REMARK SMILES CCCCCCCCCCCCCCCCCCCCCCCC(=O)[O-]
REMARK SMILES IDX 13 1 14 2 15 3 16 4 17 5 18 6 19 7 20 8 21 9 22 10 23 11
REMARK SMILES IDX 24 12 25 13 26 14 12 15 11 16 10 17 9 18 8 19 7 20 6 21 5 22
REMARK SMILES IDX 4 23 3 24 2 25 1 26
REMARK H PARENT
REMARK Flexibility Score: inf
ROOT
ATOM      1  C   UNL     1     175.107 169.485 150.125  1.00  0.00     0.000 C 
ENDROOT
BRANCH   1   2
ATOM      2  C   UNL     1     173.781 168.708 150.094  1.00  0.00     0.000 C 
BRANCH   2   3
ATOM      3  C   UNL     1     173.870 167.417 149.262  1.00  0.00     0.000 C 
BRANCH   3   4
ATOM      4  C   UNL     1     174.801 166.362 149.891  1.00  0.00     0.000 C 
BRANCH   4   5
ATOM      5  C   UNL     1     174.105 165.346 150.814  1.00  0.00     0.000 C 
BRANCH   5   6
ATOM      6  C   UNL     1     175.049 164.752 151.873  1.00  0.00     0.000 C 
BRANCH   6   7
ATOM      7  C   UNL     1     175.962 163.649 151.307  1.00  0.00     0.000 C 
BRANCH   7   8
ATOM      8  C   UNL     1     175.710 162.232 151.862  1.00  0.00     0.000 C 
BRANCH   8   9
ATOM      9  C   UNL     1     175.860 161.094 150.839  1.00  0.00     0.000 C 
BRANCH   9  10
ATOM     10  C   UNL     1     174.546 160.772 150.107  1.00  0.00     0.006 C 
BRANCH  10  11
ATOM     11  C   UNL     1     174.252 159.267 150.079  1.00  0.00     0.053 C 
BRANCH  11  12
ATOM     12  C   UNL     1     173.203 158.890 151.079  1.00  0.00     0.041 C 
ATOM     13  O   UNL     1     171.982 158.970 150.779  1.00  0.00    -0.550 OA
ATOM     14  O   UNL     1     173.571 158.487 152.356  1.00  0.00    -0.550 OA
ENDBRANCH  11  12
ENDBRANCH  10  11
ENDBRANCH   9  10
ENDBRANCH   8   9
ENDBRANCH   7   8
ENDBRANCH   6   7
ENDBRANCH   5   6
ENDBRANCH   4   5
ENDBRANCH   3   4
ENDBRANCH   2   3
ENDBRANCH   1   2
BRANCH   1  15
ATOM     15  C   UNL     1     174.924 170.953 150.551  1.00  0.00     0.000 C 
BRANCH  15  16
ATOM     16  C   UNL     1     173.470 171.444 150.384  1.00  0.00     0.000 C 
BRANCH  16  17
ATOM     17  C   UNL     1     173.346 172.956 150.111  1.00  0.00     0.000 C 
BRANCH  17  18
ATOM     18  C   UNL     1     174.670 173.671 149.785  1.00  0.00    -0.000 C 
BRANCH  18  19
ATOM     19  C   UNL     1     175.354 174.363 150.982  1.00  0.00    -0.000 C 
BRANCH  19  20
ATOM     20  C   UNL     1     174.616 174.237 152.326  1.00  0.00    -0.000 C 
BRANCH  20  21
ATOM     21  C   UNL     1     175.416 173.448 153.375  1.00  0.00    -0.000 C 
BRANCH  21  22
ATOM     22  C   UNL     1     174.594 172.321 154.030  1.00  0.00    -0.000 C 
BRANCH  22  23
ATOM     23  C   UNL     1     175.378 171.413 154.998  1.00  0.00    -0.000 C 
BRANCH  23  24
ATOM     24  C   UNL     1     174.896 169.950 155.063  1.00  0.00    -0.000 C 
BRANCH  24  25
ATOM     25  C   UNL     1     175.259 169.096 153.835  1.00  0.00    -0.003 C 
ATOM     26  C   UNL     1     174.325 167.902 153.645  1.00  0.00     0.004 C 
ENDBRANCH  24  25
ENDBRANCH  23  24
ENDBRANCH  22  23
ENDBRANCH  21  22
ENDBRANCH  20  21
ENDBRANCH  19  20
ENDBRANCH  18  19
ENDBRANCH  17  18
ENDBRANCH  16  17
ENDBRANCH  15  16
ENDBRANCH   1  15
TORSDOF 22
ENDMDL
MODEL 3
REMARK VINA RESULT:    -3.619      5.375      9.750
REMARK INTER + INTRA:         -12.977
REMARK INTER:                 -10.748
REMARK INTRA:                  -2.228
REMARK UNBOUND:                -4.703
REMARK SMILES CCCCCCCCCCCCCCCCCCCCCCCC(=O)[O-]
REMARK SMILES IDX 13 1 14 2 15 3 16 4 17 5 18 6 19 7 20 8 21 9 22 10 23 11
REMARK SMILES IDX 24 12 25 13 26 14 12 15 11 16 10 17 9 18 8 19 7 20 6 21 5 22
REMARK SMILES IDX 4 23 3 24 2 25 1 26
REMARK H PARENT
REMARK Flexibility Score: inf
ROOT
ATOM      1  C   UNL     1     173.157 168.375 149.787  1.00  0.00     0.000 C 
ENDROOT
BRANCH   1   2
ATOM      2  C   UNL     1     173.257 166.860 149.543  1.00  0.00     0.000 C 
BRANCH   2   3
ATOM      3  C   UNL     1     174.444 166.219 150.281  1.00  0.00     0.000 C 
BRANCH   3   4
ATOM      4  C   UNL     1     174.069 164.905 150.994  1.00  0.00     0.000 C 
BRANCH   4   5
ATOM      5  C   UNL     1     175.226 164.212 151.735  1.00  0.00     0.000 C 
BRANCH   5   6
ATOM      6  C   UNL     1     175.157 162.677 151.654  1.00  0.00     0.000 C 
BRANCH   6   7
ATOM      7  C   UNL     1     175.979 162.104 150.485  1.00  0.00     0.000 C 
BRANCH   7   8
ATOM      8  C   UNL     1     175.396 160.836 149.826  1.00  0.00     0.000 C 
BRANCH   8   9
ATOM      9  C   UNL     1     173.907 160.578 150.111  1.00  0.00     0.000 C 
BRANCH   9  10
ATOM     10  C   UNL     1     173.627 159.134 150.563  1.00  0.00     0.006 C 
BRANCH  10  11
ATOM     11  C   UNL     1     172.851 159.082 151.885  1.00  0.00     0.053 C 
BRANCH  11  12
ATOM     12  C   UNL     1     171.767 158.049 151.848  1.00  0.00     0.041 C 
ATOM     13  O   UNL     1     171.820 157.045 152.606  1.00  0.00    -0.550 OA
ATOM     14  O   UNL     1     170.717 158.174 150.947  1.00  0.00    -0.550 OA
ENDBRANCH  11  12
ENDBRANCH  10  11
ENDBRANCH   9  10
ENDBRANCH   8   9
ENDBRANCH   7   8
ENDBRANCH   6   7
ENDBRANCH   5   6
ENDBRANCH   4   5
ENDBRANCH   3   4
ENDBRANCH   2   3
ENDBRANCH   1   2
BRANCH   1  15
ATOM     15  C   UNL     1     174.451 168.966 150.379  1.00  0.00     0.000 C 
BRANCH  15  16
ATOM     16  C   UNL     1     174.519 170.502 150.244  1.00  0.00     0.000 C 
BRANCH  16  17
ATOM     17  C   UNL     1     173.143 171.177 150.079  1.00  0.00     0.000 C 
BRANCH  17  18
ATOM     18  C   UNL     1     173.167 172.717 150.073  1.00  0.00    -0.000 C 
BRANCH  18  19
ATOM     19  C   UNL     1     174.536 173.350 149.745  1.00  0.00    -0.000 C 
BRANCH  19  20
ATOM     20  C   UNL     1     175.105 174.285 150.826  1.00  0.00    -0.000 C 
BRANCH  20  21
ATOM     21  C   UNL     1     174.327 174.211 152.150  1.00  0.00    -0.000 C 
BRANCH  21  22
ATOM     22  C   UNL     1     175.250 174.132 153.381  1.00  0.00    -0.000 C 
BRANCH  22  23
ATOM     23  C   UNL     1     175.344 172.743 154.043  1.00  0.00    -0.000 C 
BRANCH  23  24
ATOM     24  C   UNL     1     174.318 171.706 153.544  1.00  0.00    -0.000 C 
BRANCH  24  25
ATOM     25  C   UNL     1     174.568 170.266 154.028  1.00  0.00    -0.003 C 
ATOM     26  C   UNL     1     173.337 169.371 153.892  1.00  0.00     0.004 C 
ENDBRANCH  24  25
ENDBRANCH  23  24
ENDBRANCH  22  23
ENDBRANCH  21  22
ENDBRANCH  20  21
ENDBRANCH  19  20
ENDBRANCH  18  19
ENDBRANCH  17  18
ENDBRANCH  16  17
ENDBRANCH  15  16
ENDBRANCH   1  15
TORSDOF 22
ENDMDL
MODEL 4
REMARK VINA RESULT:    -3.610      1.502      3.919
REMARK INTER + INTRA:         -12.956
REMARK INTER:                  -8.887
REMARK INTRA:                  -4.069
REMARK UNBOUND:                -4.703
REMARK SMILES CCCCCCCCCCCCCCCCCCCCCCCC(=O)[O-]
REMARK SMILES IDX 13 1 14 2 15 3 16 4 17 5 18 6 19 7 20 8 21 9 22 10 23 11
REMARK SMILES IDX 24 12 25 13 26 14 12 15 11 16 10 17 9 18 8 19 7 20 6 21 5 22
REMARK SMILES IDX 4 23 3 24 2 25 1 26
REMARK H PARENT
REMARK Flexibility Score: inf
ROOT
ATOM      1  C   UNL     1     173.358 174.102 152.372  1.00  0.00     0.000 C 
ENDROOT
BRANCH   1   2
ATOM      2  C   UNL     1     174.869 174.126 152.090  1.00  0.00     0.000 C 
BRANCH   2   3
ATOM      3  C   UNL     1     175.188 174.217 150.588  1.00  0.00     0.000 C 
BRANCH   3   4
ATOM      4  C   UNL     1     174.545 173.082 149.768  1.00  0.00     0.000 C 
BRANCH   4   5
ATOM      5  C   UNL     1     174.955 171.659 150.190  1.00  0.00     0.000 C 
BRANCH   5   6
ATOM      6  C   UNL     1     173.764 170.688 150.261  1.00  0.00     0.000 C 
BRANCH   6   7
ATOM      7  C   UNL     1     172.420 171.367 149.941  1.00  0.00     0.000 C 
BRANCH   7   8
ATOM      8  C   UNL     1     171.343 171.249 151.039  1.00  0.00     0.000 C 
BRANCH   8   9
ATOM      9  C   UNL     1     170.332 172.408 151.089  1.00  0.00     0.000 C 
BRANCH   9  10
ATOM     10  C   UNL     1     169.488 172.407 152.376  1.00  0.00     0.006 C 
BRANCH  10  11
ATOM     11  C   UNL     1     169.244 173.825 152.908  1.00  0.00     0.053 C 
BRANCH  11  12
ATOM     12  C   UNL     1     167.894 174.339 152.511  1.00  0.00     0.041 C 
ATOM     13  O   UNL     1     167.153 173.659 151.754  1.00  0.00    -0.550 OA
ATOM     14  O   UNL     1     167.470 175.589 152.947  1.00  0.00    -0.550 OA
ENDBRANCH  11  12
ENDBRANCH  10  11
ENDBRANCH   9  10
ENDBRANCH   8   9
ENDBRANCH   7   8
ENDBRANCH   6   7
ENDBRANCH   5   6
ENDBRANCH   4   5
ENDBRANCH   3   4
ENDBRANCH   2   3
ENDBRANCH   1   2
BRANCH   1  15
ATOM     15  C   UNL     1     173.037 173.869 153.860  1.00  0.00     0.000 C 
BRANCH  15  16
ATOM     16  C   UNL     1     172.835 172.377 154.199  1.00  0.00     0.000 C 
BRANCH  16  17
ATOM     17  C   UNL     1     174.134 171.642 154.585  1.00  0.00     0.000 C 
BRANCH  17  18
ATOM     18  C   UNL     1     174.408 170.346 153.800  1.00  0.00    -0.000 C 
BRANCH  18  19
ATOM     19  C   UNL     1     173.183 169.432 153.592  1.00  0.00    -0.000 C 
BRANCH  19  20
ATOM     20  C   UNL     1     173.497 167.935 153.429  1.00  0.00    -0.000 C 
BRANCH  20  21
ATOM     21  C   UNL     1     174.549 167.661 152.342  1.00  0.00    -0.000 C 
BRANCH  21  22
ATOM     22  C   UNL     1     174.581 166.185 151.901  1.00  0.00    -0.000 C 
BRANCH  22  23
ATOM     23  C   UNL     1     174.447 165.950 150.383  1.00  0.00    -0.000 C 
BRANCH  23  24
ATOM     24  C   UNL     1     174.562 167.214 149.509  1.00  0.00    -0.000 C 
BRANCH  24  25
ATOM     25  C   UNL     1     173.345 167.489 148.608  1.00  0.00    -0.003 C 
ATOM     26  C   UNL     1     172.024 167.488 149.377  1.00  0.00     0.004 C 
ENDBRANCH  24  25
ENDBRANCH  23  24
ENDBRANCH  22  23
ENDBRANCH  21  22
ENDBRANCH  20  21
ENDBRANCH  19  20
ENDBRANCH  18  19
ENDBRANCH  17  18
ENDBRANCH  16  17
ENDBRANCH  15  16
ENDBRANCH   1  15
TORSDOF 22
ENDMDL
MODEL 5
REMARK VINA RESULT:    -3.577      2.855      6.699
REMARK INTER + INTRA:         -12.882
REMARK INTER:                  -8.438
REMARK INTRA:                  -4.444
REMARK UNBOUND:                -4.703
REMARK SMILES CCCCCCCCCCCCCCCCCCCCCCCC(=O)[O-]
REMARK SMILES IDX 13 1 14 2 15 3 16 4 17 5 18 6 19 7 20 8 21 9 22 10 23 11
REMARK SMILES IDX 24 12 25 13 26 14 12 15 11 16 10 17 9 18 8 19 7 20 6 21 5 22
REMARK SMILES IDX 4 23 3 24 2 25 1 26
REMARK H PARENT
REMARK Flexibility Score: inf
ROOT
ATOM      1  C   UNL     1     173.324 172.744 150.145  1.00  0.00     0.000 C 
ENDROOT
BRANCH   1   2
ATOM      2  C   UNL     1     173.516 171.219 150.119  1.00  0.00     0.000 C 
BRANCH   2   3
ATOM      3  C   UNL     1     174.998 170.809 150.138  1.00  0.00     0.000 C 
BRANCH   3   4
ATOM      4  C   UNL     1     175.203 169.314 150.449  1.00  0.00     0.000 C 
BRANCH   4   5
ATOM      5  C   UNL     1     175.188 168.384 149.222  1.00  0.00     0.000 C 
BRANCH   5   6
ATOM      6  C   UNL     1     174.115 167.286 149.314  1.00  0.00     0.000 C 
BRANCH   6   7
ATOM      7  C   UNL     1     172.692 167.819 149.066  1.00  0.00     0.000 C 
BRANCH   7   8
ATOM      8  C   UNL     1     171.660 167.481 150.161  1.00  0.00     0.000 C 
BRANCH   8   9
ATOM      9  C   UNL     1     171.605 168.471 151.336  1.00  0.00     0.000 C 
BRANCH   9  10
ATOM     10  C   UNL     1     171.835 167.794 152.699  1.00  0.00     0.006 C 
BRANCH  10  11
ATOM     11  C   UNL     1     173.285 167.939 153.180  1.00  0.00     0.053 C 
BRANCH  11  12
ATOM     12  C   UNL     1     174.085 166.704 152.901  1.00  0.00     0.041 C 
ATOM     13  O   UNL     1     175.342 166.761 152.845  1.00  0.00    -0.550 OA
ATOM     14  O   UNL     1     173.441 165.496 152.665  1.00  0.00    -0.550 OA
ENDBRANCH  11  12
ENDBRANCH  10  11
ENDBRANCH   9  10
ENDBRANCH   8   9
ENDBRANCH   7   8
ENDBRANCH   6   7
ENDBRANCH   5   6
ENDBRANCH   4   5
ENDBRANCH   3   4
ENDBRANCH   2   3
ENDBRANCH   1   2
BRANCH   1  15
ATOM     15  C   UNL     1     174.644 173.511 149.939  1.00  0.00     0.000 C 
BRANCH  15  16
ATOM     16  C   UNL     1     175.034 174.364 151.165  1.00  0.00     0.000 C 
BRANCH  16  17
ATOM     17  C   UNL     1     174.327 173.945 152.469  1.00  0.00     0.000 C 
BRANCH  17  18
ATOM     18  C   UNL     1     175.210 173.184 153.475  1.00  0.00    -0.000 C 
BRANCH  18  19
ATOM     19  C   UNL     1     174.829 171.706 153.695  1.00  0.00    -0.000 C 
BRANCH  19  20
ATOM     20  C   UNL     1     174.263 171.371 155.085  1.00  0.00    -0.000 C 
BRANCH  20  21
ATOM     21  C   UNL     1     172.806 171.828 155.263  1.00  0.00    -0.000 C 
BRANCH  21  22
ATOM     22  C   UNL     1     171.871 171.283 154.167  1.00  0.00    -0.000 C 
BRANCH  22  23
ATOM     23  C   UNL     1     170.991 172.339 153.469  1.00  0.00    -0.000 C 
BRANCH  23  24
ATOM     24  C   UNL     1     170.455 171.935 152.081  1.00  0.00    -0.000 C 
BRANCH  24  25
ATOM     25  C   UNL     1     169.498 172.954 151.437  1.00  0.00    -0.003 C 
ATOM     26  C   UNL     1     170.203 174.240 151.004  1.00  0.00     0.004 C 
ENDBRANCH  24  25
ENDBRANCH  23  24
ENDBRANCH  22  23
ENDBRANCH  21  22
ENDBRANCH  20  21
ENDBRANCH  19  20
ENDBRANCH  18  19
ENDBRANCH  17  18
ENDBRANCH  16  17
ENDBRANCH  15  16
ENDBRANCH   1  15
TORSDOF 22
ENDMDL
MODEL 6
REMARK VINA RESULT:    -3.575      4.425      6.896
REMARK INTER + INTRA:         -12.877
REMARK INTER:                 -10.073
REMARK INTRA:                  -2.804
REMARK UNBOUND:                -4.703
REMARK SMILES CCCCCCCCCCCCCCCCCCCCCCCC(=O)[O-]
REMARK SMILES IDX 13 1 14 2 15 3 16 4 17 5 18 6 19 7 20 8 21 9 22 10 23 11
REMARK SMILES IDX 24 12 25 13 26 14 12 15 11 16 10 17 9 18 8 19 7 20 6 21 5 22
REMARK SMILES IDX 4 23 3 24 2 25 1 26
REMARK H PARENT
REMARK Flexibility Score: inf
ROOT
ATOM      1  C   UNL     1     175.382 163.829 151.180  1.00  0.00     0.000 C 
ENDROOT
BRANCH   1   2
ATOM      2  C   UNL     1     174.115 164.670 150.957  1.00  0.00     0.000 C 
BRANCH   2   3
ATOM      3  C   UNL     1     174.381 166.181 151.071  1.00  0.00     0.000 C 
BRANCH   3   4
ATOM      4  C   UNL     1     174.626 166.851 149.705  1.00  0.00     0.000 C 
BRANCH   4   5
ATOM      5  C   UNL     1     174.704 168.389 149.738  1.00  0.00     0.000 C 
BRANCH   5   6
ATOM      6  C   UNL     1     174.805 168.954 151.165  1.00  0.00     0.000 C 
BRANCH   6   7
ATOM      7  C   UNL     1     174.357 170.424 151.257  1.00  0.00     0.000 C 
BRANCH   7   8
ATOM      8  C   UNL     1     174.872 171.344 150.132  1.00  0.00     0.000 C 
BRANCH   8   9
ATOM      9  C   UNL     1     174.197 172.724 150.056  1.00  0.00     0.000 C 
BRANCH   9  10
ATOM     10  C   UNL     1     174.930 173.793 150.885  1.00  0.00     0.006 C 
BRANCH  10  11
ATOM     11  C   UNL     1     174.119 174.231 152.111  1.00  0.00     0.053 C 
BRANCH  11  12
ATOM     12  C   UNL     1     174.817 173.879 153.389  1.00  0.00     0.041 C 
ATOM     13  O   UNL     1     174.645 174.580 154.421  1.00  0.00    -0.550 OA
ATOM     14  O   UNL     1     175.689 172.798 153.431  1.00  0.00    -0.550 OA
ENDBRANCH  11  12
ENDBRANCH  10  11
ENDBRANCH   9  10
ENDBRANCH   8   9
ENDBRANCH   7   8
ENDBRANCH   6   7
ENDBRANCH   5   6
ENDBRANCH   4   5
ENDBRANCH   3   4
ENDBRANCH   2   3
ENDBRANCH   1   2
BRANCH   1  15
ATOM     15  C   UNL     1     175.239 162.390 150.650  1.00  0.00     0.000 C 
BRANCH  15  16
ATOM     16  C   UNL     1     175.973 161.356 151.531  1.00  0.00     0.000 C 
BRANCH  16  17
ATOM     17  C   UNL     1     175.420 159.922 151.406  1.00  0.00     0.000 C 
BRANCH  17  18
ATOM     18  C   UNL     1     174.663 159.626 150.099  1.00  0.00    -0.000 C 
BRANCH  18  19
ATOM     19  C   UNL     1     173.589 158.523 150.198  1.00  0.00    -0.000 C 
BRANCH  19  20
ATOM     20  C   UNL     1     172.135 159.021 150.250  1.00  0.00    -0.000 C 
BRANCH  20  21
ATOM     21  C   UNL     1     172.024 160.552 150.160  1.00  0.00    -0.000 C 
BRANCH  21  22
ATOM     22  C   UNL     1     171.155 161.154 151.280  1.00  0.00    -0.000 C 
BRANCH  22  23
ATOM     23  C   UNL     1     171.895 162.097 152.251  1.00  0.00    -0.000 C 
BRANCH  23  24
ATOM     24  C   UNL     1     172.705 161.395 153.359  1.00  0.00    -0.000 C 
BRANCH  24  25
ATOM     25  C   UNL     1     172.159 160.021 153.785  1.00  0.00    -0.003 C 
ATOM     26  C   UNL     1     173.254 159.069 154.267  1.00  0.00     0.004 C 
ENDBRANCH  24  25
ENDBRANCH  23  24
ENDBRANCH  22  23
ENDBRANCH  21  22
ENDBRANCH  20  21
ENDBRANCH  19  20
ENDBRANCH  18  19
ENDBRANCH  17  18
ENDBRANCH  16  17
ENDBRANCH  15  16
ENDBRANCH   1  15
TORSDOF 22
ENDMDL
MODEL 7
REMARK VINA RESULT:    -3.566      6.463     10.995
REMARK INTER + INTRA:         -12.855
REMARK INTER:                  -9.356
REMARK INTRA:                  -3.499
REMARK UNBOUND:                -4.703
REMARK SMILES CCCCCCCCCCCCCCCCCCCCCCCC(=O)[O-]
REMARK SMILES IDX 13 1 14 2 15 3 16 4 17 5 18 6 19 7 20 8 21 9 22 10 23 11
REMARK SMILES IDX 24 12 25 13 26 14 12 15 11 16 10 17 9 18 8 19 7 20 6 21 5 22
REMARK SMILES IDX 4 23 3 24 2 25 1 26
REMARK H PARENT
REMARK Flexibility Score: inf
ROOT
ATOM      1  C   UNL     1     174.451 162.322 153.818  1.00  0.00     0.000 C 
ENDROOT
BRANCH   1   2
ATOM      2  C   UNL     1     175.742 161.953 153.068  1.00  0.00     0.000 C 
BRANCH   2   3
ATOM      3  C   UNL     1     175.957 162.805 151.806  1.00  0.00     0.000 C 
BRANCH   3   4
ATOM      4  C   UNL     1     175.758 162.007 150.502  1.00  0.00     0.000 C 
BRANCH   4   5
ATOM      5  C   UNL     1     176.027 160.495 150.616  1.00  0.00     0.000 C 
BRANCH   5   6
ATOM      6  C   UNL     1     174.979 159.642 149.881  1.00  0.00     0.000 C 
BRANCH   6   7
ATOM      7  C   UNL     1     173.944 159.016 150.835  1.00  0.00     0.000 C 
BRANCH   7   8
ATOM      8  C   UNL     1     172.714 158.385 150.152  1.00  0.00     0.000 C 
BRANCH   8   9
ATOM      9  C   UNL     1     171.381 159.109 150.409  1.00  0.00     0.000 C 
BRANCH   9  10
ATOM     10  C   UNL     1     170.448 158.324 151.349  1.00  0.00     0.006 C 
BRANCH  10  11
ATOM     11  C   UNL     1     170.566 158.793 152.805  1.00  0.00     0.053 C 
BRANCH  11  12
ATOM     12  C   UNL     1     171.361 157.831 153.632  1.00  0.00     0.041 C 
ATOM     13  O   UNL     1     171.665 156.699 153.173  1.00  0.00    -0.550 OA
ATOM     14  O   UNL     1     171.735 158.170 154.926  1.00  0.00    -0.550 OA
ENDBRANCH  11  12
ENDBRANCH  10  11
ENDBRANCH   9  10
ENDBRANCH   8   9
ENDBRANCH   7   8
ENDBRANCH   6   7
ENDBRANCH   5   6
ENDBRANCH   4   5
ENDBRANCH   3   4
ENDBRANCH   2   3
ENDBRANCH   1   2
BRANCH   1  15
ATOM     15  C   UNL     1     173.244 161.479 153.369  1.00  0.00     0.000 C 
BRANCH  15  16
ATOM     16  C   UNL     1     172.101 162.339 152.788  1.00  0.00     0.000 C 
BRANCH  16  17
ATOM     17  C   UNL     1     172.255 162.654 151.287  1.00  0.00     0.000 C 
BRANCH  17  18
ATOM     18  C   UNL     1     172.473 164.141 150.951  1.00  0.00    -0.000 C 
BRANCH  18  19
ATOM     19  C   UNL     1     172.948 165.017 152.129  1.00  0.00    -0.000 C 
BRANCH  19  20
ATOM     20  C   UNL     1     174.037 166.047 151.786  1.00  0.00    -0.000 C 
BRANCH  20  21
ATOM     21  C   UNL     1     174.437 166.023 150.301  1.00  0.00    -0.000 C 
BRANCH  21  22
ATOM     22  C   UNL     1     174.668 167.432 149.722  1.00  0.00    -0.000 C 
BRANCH  22  23
ATOM     23  C   UNL     1     174.708 168.570 150.761  1.00  0.00    -0.000 C 
BRANCH  23  24
ATOM     24  C   UNL     1     175.588 169.777 150.379  1.00  0.00    -0.000 C 
BRANCH  24  25
ATOM     25  C   UNL     1     174.821 171.097 150.178  1.00  0.00    -0.003 C 
ATOM     26  C   UNL     1     174.707 171.920 151.460  1.00  0.00     0.004 C 
ENDBRANCH  24  25
ENDBRANCH  23  24
ENDBRANCH  22  23
ENDBRANCH  21  22
ENDBRANCH  20  21
ENDBRANCH  19  20
ENDBRANCH  18  19
ENDBRANCH  17  18
ENDBRANCH  16  17
ENDBRANCH  15  16
ENDBRANCH   1  15
TORSDOF 22
ENDMDL
MODEL 8
REMARK VINA RESULT:    -3.560      1.740      4.546
REMARK INTER + INTRA:         -12.842
REMARK INTER:                  -8.533
REMARK INTRA:                  -4.309
REMARK UNBOUND:                -4.703
REMARK SMILES CCCCCCCCCCCCCCCCCCCCCCCC(=O)[O-]
REMARK SMILES IDX 13 1 14 2 15 3 16 4 17 5 18 6 19 7 20 8 21 9 22 10 23 11
REMARK SMILES IDX 24 12 25 13 26 14 12 15 11 16 10 17 9 18 8 19 7 20 6 21 5 22
REMARK SMILES IDX 4 23 3 24 2 25 1 26
REMARK H PARENT
REMARK Flexibility Score: inf
ROOT
ATOM      1  C   UNL     1     174.607 167.717 151.512  1.00  0.00     0.000 C 
ENDROOT
BRANCH   1   2
ATOM      2  C   UNL     1     175.134 169.155 151.643  1.00  0.00     0.000 C 
BRANCH   2   3
ATOM      3  C   UNL     1     175.492 169.780 150.284  1.00  0.00     0.000 C 
BRANCH   3   4
ATOM      4  C   UNL     1     174.898 171.189 150.096  1.00  0.00     0.000 C 
BRANCH   4   5
ATOM      5  C   UNL     1     174.736 172.007 151.390  1.00  0.00     0.000 C 
BRANCH   5   6
ATOM      6  C   UNL     1     174.560 173.513 151.131  1.00  0.00     0.000 C 
BRANCH   6   7
ATOM      7  C   UNL     1     173.303 173.834 150.302  1.00  0.00     0.000 C 
BRANCH   7   8
ATOM      8  C   UNL     1     172.171 174.548 151.069  1.00  0.00     0.000 C 
BRANCH   8   9
ATOM      9  C   UNL     1     170.777 173.919 150.910  1.00  0.00     0.000 C 
BRANCH   9  10
ATOM     10  C   UNL     1     169.833 174.257 152.078  1.00  0.00     0.006 C 
BRANCH  10  11
ATOM     11  C   UNL     1     168.370 173.932 151.752  1.00  0.00     0.053 C 
BRANCH  11  12
ATOM     12  C   UNL     1     167.434 174.541 152.749  1.00  0.00     0.041 C 
ATOM     13  O   UNL     1     166.858 175.632 152.497  1.00  0.00    -0.550 OA
ATOM     14  O   UNL     1     167.226 173.923 153.977  1.00  0.00    -0.550 OA
ENDBRANCH  11  12
ENDBRANCH  10  11
ENDBRANCH   9  10
ENDBRANCH   8   9
ENDBRANCH   7   8
ENDBRANCH   6   7
ENDBRANCH   5   6
ENDBRANCH   4   5
ENDBRANCH   3   4
ENDBRANCH   2   3
ENDBRANCH   1   2
BRANCH   1  15
ATOM     15  C   UNL     1     174.562 167.234 150.050  1.00  0.00     0.000 C 
BRANCH  15  16
ATOM     16  C   UNL     1     173.142 166.822 149.604  1.00  0.00     0.000 C 
BRANCH  16  17
ATOM     17  C   UNL     1     172.525 167.754 148.542  1.00  0.00     0.000 C 
BRANCH  17  18
ATOM     18  C   UNL     1     172.081 169.133 149.063  1.00  0.00    -0.000 C 
BRANCH  18  19
ATOM     19  C   UNL     1     171.277 169.110 150.380  1.00  0.00    -0.000 C 
BRANCH  19  20
ATOM     20  C   UNL     1     171.270 170.429 151.170  1.00  0.00    -0.000 C 
BRANCH  20  21
ATOM     21  C   UNL     1     171.826 170.274 152.596  1.00  0.00    -0.000 C 
BRANCH  21  22
ATOM     22  C   UNL     1     171.393 171.418 153.533  1.00  0.00    -0.000 C 
BRANCH  22  23
ATOM     23  C   UNL     1     172.436 171.831 154.591  1.00  0.00    -0.000 C 
BRANCH  23  24
ATOM     24  C   UNL     1     172.919 173.292 154.502  1.00  0.00    -0.000 C 
BRANCH  24  25
ATOM     25  C   UNL     1     174.414 173.497 154.808  1.00  0.00    -0.003 C 
ATOM     26  C   UNL     1     175.156 172.184 155.052  1.00  0.00     0.004 C 
ENDBRANCH  24  25
ENDBRANCH  23  24
ENDBRANCH  22  23
ENDBRANCH  21  22
ENDBRANCH  20  21
ENDBRANCH  19  20
ENDBRANCH  18  19
ENDBRANCH  17  18
ENDBRANCH  16  17
ENDBRANCH  15  16
ENDBRANCH   1  15
TORSDOF 22
ENDMDL
MODEL 9
REMARK VINA RESULT:    -3.550      5.051      9.212
REMARK INTER + INTRA:         -12.819
REMARK INTER:                  -9.850
REMARK INTRA:                  -2.970
REMARK UNBOUND:                -4.703
REMARK SMILES CCCCCCCCCCCCCCCCCCCCCCCC(=O)[O-]
REMARK SMILES IDX 13 1 14 2 15 3 16 4 17 5 18 6 19 7 20 8 21 9 22 10 23 11
REMARK SMILES IDX 24 12 25 13 26 14 12 15 11 16 10 17 9 18 8 19 7 20 6 21 5 22
REMARK SMILES IDX 4 23 3 24 2 25 1 26
REMARK H PARENT
REMARK Flexibility Score: inf
ROOT
ATOM      1  C   UNL     1     174.455 169.560 150.699  1.00  0.00     0.000 C 
ENDROOT
BRANCH   1   2
ATOM      2  C   UNL     1     175.063 168.947 151.971  1.00  0.00     0.000 C 
BRANCH   2   3
ATOM      3  C   UNL     1     174.544 167.526 152.249  1.00  0.00     0.000 C 
BRANCH   3   4
ATOM      4  C   UNL     1     173.928 166.858 151.005  1.00  0.00     0.000 C 
BRANCH   4   5
ATOM      5  C   UNL     1     174.620 165.559 150.552  1.00  0.00     0.000 C 
BRANCH   5   6
ATOM      6  C   UNL     1     174.991 164.636 151.725  1.00  0.00     0.000 C 
BRANCH   6   7
ATOM      7  C   UNL     1     175.767 163.384 151.277  1.00  0.00     0.000 C 
BRANCH   7   8
ATOM      8  C   UNL     1     174.900 162.227 150.738  1.00  0.00     0.000 C 
BRANCH   8   9
ATOM      9  C   UNL     1     175.627 161.250 149.798  1.00  0.00     0.000 C 
BRANCH   9  10
ATOM     10  C   UNL     1     175.685 159.818 150.357  1.00  0.00     0.006 C 
BRANCH  10  11
ATOM     11  C   UNL     1     174.882 159.670 151.655  1.00  0.00     0.053 C 
BRANCH  11  12
ATOM     12  C   UNL     1     173.621 158.892 151.438  1.00  0.00     0.041 C 
ATOM     13  O   UNL     1     172.932 158.511 152.421  1.00  0.00    -0.550 OA
ATOM     14  O   UNL     1     173.225 158.552 150.150  1.00  0.00    -0.550 OA
ENDBRANCH  11  12
ENDBRANCH  10  11
ENDBRANCH   9  10
ENDBRANCH   8   9
ENDBRANCH   7   8
ENDBRANCH   6   7
ENDBRANCH   5   6
ENDBRANCH   4   5
ENDBRANCH   3   4
ENDBRANCH   2   3
ENDBRANCH   1   2
BRANCH   1  15
ATOM     15  C   UNL     1     175.101 170.906 150.323  1.00  0.00     0.000 C 
BRANCH  15  16
ATOM     16  C   UNL     1     174.060 172.027 150.115  1.00  0.00     0.000 C 
BRANCH  16  17
ATOM     17  C   UNL     1     174.642 173.450 150.221  1.00  0.00     0.000 C 
BRANCH  17  18
ATOM     18  C   UNL     1     174.277 174.212 151.508  1.00  0.00    -0.000 C 
BRANCH  18  19
ATOM     19  C   UNL     1     175.375 174.235 152.591  1.00  0.00    -0.000 C 
BRANCH  19  20
ATOM     20  C   UNL     1     174.997 173.573 153.927  1.00  0.00    -0.000 C 
BRANCH  20  21
ATOM     21  C   UNL     1     174.901 172.041 153.829  1.00  0.00    -0.000 C 
BRANCH  21  22
ATOM     22  C   UNL     1     173.569 171.491 154.374  1.00  0.00    -0.000 C 
BRANCH  22  23
ATOM     23  C   UNL     1     172.343 172.399 154.152  1.00  0.00    -0.000 C 
BRANCH  23  24
ATOM     24  C   UNL     1     171.527 172.102 152.878  1.00  0.00    -0.000 C 
BRANCH  24  25
ATOM     25  C   UNL     1     171.442 170.613 152.499  1.00  0.00    -0.003 C 
ATOM     26  C   UNL     1     170.857 170.387 151.105  1.00  0.00     0.004 C 
ENDBRANCH  24  25
ENDBRANCH  23  24
ENDBRANCH  22  23
ENDBRANCH  21  22
ENDBRANCH  20  21
ENDBRANCH  19  20
ENDBRANCH  18  19
ENDBRANCH  17  18
ENDBRANCH  16  17
ENDBRANCH  15  16
ENDBRANCH   1  15
TORSDOF 22
ENDMDL
