MODEL 1
REMARK VINA RESULT:    -4.760      0.000      0.000
REMARK INTER + INTRA:          -7.784
REMARK INTER:                  -6.847
REMARK INTRA:                  -0.937
REMARK UNBOUND:                -0.937
REMARK SMILES O=c1cc(-c2ccc(O)c(O)c2)oc2cc(O[C@@H]3O[C@@H](CO)[C@@H](O)[C@H](O)[C@H]3O)cc(O)c12
REMARK SMILES IDX 17 1 16 2 4 3 3 4 13 5 2 6 14 7 1 8 32 9 15 10 30 11 29 12
REMARK SMILES IDX 5 13 6 14 7 15 8 16 12 17 10 18 9 19 11 21 31 23 18 25 27 26
REMARK SMILES IDX 19 27 25 28 20 29 23 30 28 31 26 33 21 35 22 36 24 38
REMARK H PARENT 9 20 11 22 31 24 28 32 26 34 22 37 24 39
REMARK Flexibility Score: inf
ROOT
ATOM      1  O   UNL     1     -26.331  47.534  41.266  1.00  0.00    -0.462 OA
ENDROOT
BRANCH   1   2
ATOM      2  C   UNL     1     -26.237  48.932  41.089  1.00  0.00     0.130 A 
ATOM      3  C   UNL     1     -25.829  52.928  43.501  1.00  0.00     0.138 A 
ATOM      4  C   UNL     1     -25.316  53.657  42.421  1.00  0.00     0.100 A 
ATOM      5  O   UNL     1     -26.366  51.744  43.297  1.00  0.00    -0.456 OA
ATOM      6  C   UNL     1     -25.003  52.947  41.243  1.00  0.00     0.197 A 
ATOM      7  C   UNL     1     -26.227  51.083  42.157  1.00  0.00     0.146 A 
ATOM      8  O   UNL     1     -24.242  53.472  40.381  1.00  0.00    -0.289 OA
ATOM      9  C   UNL     1     -25.437  51.584  41.108  1.00  0.00     0.107 A 
ATOM     10  C   UNL     1     -26.805  49.839  41.998  1.00  0.00     0.094 A 
ATOM     11  C   UNL     1     -25.013  50.779  40.044  1.00  0.00     0.134 A 
ATOM     12  C   UNL     1     -25.489  49.455  40.015  1.00  0.00     0.093 A 
BRANCH   3  13
ATOM     13  C   UNL     1     -25.714  53.439  44.861  1.00  0.00     0.021 A 
ATOM     14  C   UNL     1     -24.799  52.826  45.708  1.00  0.00     0.016 A 
ATOM     15  C   UNL     1     -24.735  53.159  47.057  1.00  0.00     0.051 A 
ATOM     16  C   UNL     1     -25.575  54.175  47.568  1.00  0.00     0.157 A 
ATOM     17  C   UNL     1     -26.644  54.350  45.364  1.00  0.00     0.062 A 
ATOM     18  C   UNL     1     -26.519  54.791  46.719  1.00  0.00     0.158 A 
BRANCH  16  19
ATOM     19  O   UNL     1     -25.458  54.564  48.903  1.00  0.00    -0.504 OA
ATOM     20  H   UNL     1     -25.503  53.877  49.648  1.00  0.00     0.293 HD
ENDBRANCH  16  19
BRANCH  18  21
ATOM     21  O   UNL     1     -27.253  55.877  47.189  1.00  0.00    -0.504 OA
ATOM     22  H   UNL     1     -27.284  56.123  48.184  1.00  0.00     0.293 HD
ENDBRANCH  18  21
ENDBRANCH   3  13
BRANCH  11  23
ATOM     23  O   UNL     1     -24.307  51.297  38.955  1.00  0.00    -0.507 OA
ATOM     24  H   UNL     1     -24.424  52.248  38.610  1.00  0.00     0.293 HD
ENDBRANCH  11  23
ENDBRANCH   1   2
BRANCH   1  25
ATOM     25  C   UNL     1     -27.446  46.624  40.970  1.00  0.00     0.339 C 
ATOM     26  C   UNL     1     -28.869  46.900  41.622  1.00  0.00     0.214 C 
ATOM     27  O   UNL     1     -27.510  46.407  39.567  1.00  0.00    -0.332 OA
ATOM     28  C   UNL     1     -29.995  46.428  40.633  1.00  0.00     0.180 C 
ATOM     29  C   UNL     1     -28.227  45.232  39.231  1.00  0.00     0.179 C 
ATOM     30  C   UNL     1     -29.633  45.080  39.980  1.00  0.00     0.177 C 
BRANCH  26  31
ATOM     31  O   UNL     1     -28.999  46.251  42.898  1.00  0.00    -0.384 OA
ATOM     32  H   UNL     1     -29.806  46.581  43.393  1.00  0.00     0.211 HD
ENDBRANCH  26  31
BRANCH  28  33
ATOM     33  O   UNL     1     -30.125  47.360  39.593  1.00  0.00    -0.387 OA
ATOM     34  H   UNL     1     -29.226  47.552  39.190  1.00  0.00     0.211 HD
ENDBRANCH  28  33
BRANCH  29  35
ATOM     35  C   UNL     1     -27.270  43.992  39.109  1.00  0.00     0.191 C 
BRANCH  35  36
ATOM     36  O   UNL     1     -27.979  42.791  38.857  1.00  0.00    -0.394 OA
ATOM     37  H   UNL     1     -28.850  42.763  39.368  1.00  0.00     0.210 HD
ENDBRANCH  35  36
ENDBRANCH  29  35
BRANCH  30  38
ATOM     38  O   UNL     1     -29.697  44.025  40.891  1.00  0.00    -0.387 OA
ATOM     39  H   UNL     1     -30.426  44.171  41.544  1.00  0.00     0.211 HD
ENDBRANCH  30  38
ENDBRANCH   1  25
TORSDOF 11
ENDMDL
MODEL 2
REMARK VINA RESULT:    -4.740      1.790      2.814
REMARK INTER + INTRA:          -7.755
REMARK INTER:                  -6.717
REMARK INTRA:                  -1.038
REMARK UNBOUND:                -0.937
REMARK SMILES O=c1cc(-c2ccc(O)c(O)c2)oc2cc(O[C@@H]3O[C@@H](CO)[C@@H](O)[C@H](O)[C@H]3O)cc(O)c12
REMARK SMILES IDX 17 1 16 2 4 3 3 4 13 5 2 6 14 7 1 8 32 9 15 10 30 11 29 12
REMARK SMILES IDX 5 13 6 14 7 15 8 16 12 17 10 18 9 19 11 21 31 23 18 25 27 26
REMARK SMILES IDX 19 27 25 28 20 29 23 30 28 31 26 33 21 35 22 36 24 38
REMARK H PARENT 9 20 11 22 31 24 28 32 26 34 22 37 24 39
REMARK Flexibility Score: inf
ROOT
ATOM      1  O   UNL     1     -25.291  48.044  39.706  1.00  0.00    -0.462 OA
ENDROOT
BRANCH   1   2
ATOM      2  C   UNL     1     -24.745  49.346  39.703  1.00  0.00     0.130 A 
ATOM      3  C   UNL     1     -24.736  53.337  42.159  1.00  0.00     0.138 A 
ATOM      4  C   UNL     1     -23.527  53.795  41.621  1.00  0.00     0.100 A 
ATOM      5  O   UNL     1     -25.353  52.313  41.608  1.00  0.00    -0.456 OA
ATOM      6  C   UNL     1     -22.802  52.910  40.795  1.00  0.00     0.197 A 
ATOM      7  C   UNL     1     -24.772  51.524  40.717  1.00  0.00     0.146 A 
ATOM      8  O   UNL     1     -21.579  53.131  40.565  1.00  0.00    -0.289 OA
ATOM      9  C   UNL     1     -23.426  51.695  40.349  1.00  0.00     0.107 A 
ATOM     10  C   UNL     1     -25.462  50.457  40.176  1.00  0.00     0.094 A 
ATOM     11  C   UNL     1     -22.705  50.703  39.675  1.00  0.00     0.134 A 
ATOM     12  C   UNL     1     -23.411  49.547  39.293  1.00  0.00     0.093 A 
BRANCH   3  13
ATOM     13  C   UNL     1     -25.286  53.941  43.366  1.00  0.00     0.021 A 
ATOM     14  C   UNL     1     -26.274  53.242  44.047  1.00  0.00     0.016 A 
ATOM     15  C   UNL     1     -26.949  53.816  45.120  1.00  0.00     0.051 A 
ATOM     16  C   UNL     1     -26.588  55.109  45.563  1.00  0.00     0.157 A 
ATOM     17  C   UNL     1     -25.001  55.267  43.696  1.00  0.00     0.062 A 
ATOM     18  C   UNL     1     -25.598  55.833  44.866  1.00  0.00     0.158 A 
BRANCH  16  19
ATOM     19  O   UNL     1     -27.211  55.654  46.686  1.00  0.00    -0.504 OA
ATOM     20  H   UNL     1     -26.733  56.339  47.263  1.00  0.00     0.293 HD
ENDBRANCH  16  19
BRANCH  18  21
ATOM     21  O   UNL     1     -25.155  57.049  45.378  1.00  0.00    -0.504 OA
ATOM     22  H   UNL     1     -25.729  57.899  45.338  1.00  0.00     0.293 HD
ENDBRANCH  18  21
ENDBRANCH   3  13
BRANCH  11  23
ATOM     23  O   UNL     1     -21.396  50.908  39.227  1.00  0.00    -0.507 OA
ATOM     24  H   UNL     1     -21.101  50.750  38.265  1.00  0.00     0.293 HD
ENDBRANCH  11  23
ENDBRANCH   1   2
BRANCH   1  25
ATOM     25  C   UNL     1     -26.694  47.616  39.595  1.00  0.00     0.339 C 
ATOM     26  C   UNL     1     -27.428  47.717  38.190  1.00  0.00     0.214 C 
ATOM     27  O   UNL     1     -26.841  46.343  40.209  1.00  0.00    -0.332 OA
ATOM     28  C   UNL     1     -28.474  46.551  38.064  1.00  0.00     0.180 C 
ATOM     29  C   UNL     1     -28.185  46.058  40.553  1.00  0.00     0.179 C 
ATOM     30  C   UNL     1     -29.240  46.346  39.385  1.00  0.00     0.177 C 
BRANCH  26  31
ATOM     31  O   UNL     1     -28.061  48.996  38.017  1.00  0.00    -0.384 OA
ATOM     32  H   UNL     1     -27.750  49.444  37.175  1.00  0.00     0.211 HD
ENDBRANCH  26  31
BRANCH  28  33
ATOM     33  O   UNL     1     -27.803  45.349  37.794  1.00  0.00    -0.387 OA
ATOM     34  H   UNL     1     -28.217  44.600  38.318  1.00  0.00     0.211 HD
ENDBRANCH  28  33
BRANCH  29  35
ATOM     35  C   UNL     1     -28.509  46.508  42.023  1.00  0.00     0.191 C 
BRANCH  35  36
ATOM     36  O   UNL     1     -29.894  46.438  42.313  1.00  0.00    -0.394 OA
ATOM     37  H   UNL     1     -30.293  47.359  42.430  1.00  0.00     0.210 HD
ENDBRANCH  35  36
ENDBRANCH  29  35
BRANCH  30  38
ATOM     38  O   UNL     1     -30.125  47.395  39.643  1.00  0.00    -0.387 OA
ATOM     39  H   UNL     1     -30.102  48.058  38.910  1.00  0.00     0.211 HD
ENDBRANCH  30  38
ENDBRANCH   1  25
TORSDOF 11
ENDMDL
MODEL 3
REMARK VINA RESULT:    -4.723      1.884      9.779
REMARK INTER + INTRA:          -7.730
REMARK INTER:                  -6.960
REMARK INTRA:                  -0.770
REMARK UNBOUND:                -0.937
REMARK SMILES O=c1cc(-c2ccc(O)c(O)c2)oc2cc(O[C@@H]3O[C@@H](CO)[C@@H](O)[C@H](O)[C@H]3O)cc(O)c12
REMARK SMILES IDX 17 1 16 2 4 3 3 4 13 5 2 6 14 7 1 8 32 9 15 10 30 11 29 12
REMARK SMILES IDX 5 13 6 14 7 15 8 16 12 17 10 18 9 19 11 21 31 23 18 25 27 26
REMARK SMILES IDX 19 27 25 28 20 29 23 30 28 31 26 33 21 35 22 36 24 38
REMARK H PARENT 9 20 11 22 31 24 28 32 26 34 22 37 24 39
REMARK Flexibility Score: inf
ROOT
ATOM      1  O   UNL     1     -26.595  54.947  44.941  1.00  0.00    -0.462 OA
ENDROOT
BRANCH   1   2
ATOM      2  C   UNL     1     -25.820  54.165  44.056  1.00  0.00     0.130 A 
ATOM      3  C   UNL     1     -25.988  50.240  41.503  1.00  0.00     0.138 A 
ATOM      4  C   UNL     1     -24.966  50.632  40.630  1.00  0.00     0.100 A 
ATOM      5  O   UNL     1     -26.194  50.912  42.616  1.00  0.00    -0.456 OA
ATOM      6  C   UNL     1     -24.478  51.951  40.745  1.00  0.00     0.197 A 
ATOM      7  C   UNL     1     -25.650  52.098  42.846  1.00  0.00     0.146 A 
ATOM      8  O   UNL     1     -23.818  52.458  39.794  1.00  0.00    -0.289 OA
ATOM      9  C   UNL     1     -24.863  52.746  41.879  1.00  0.00     0.107 A 
ATOM     10  C   UNL     1     -25.906  52.764  44.028  1.00  0.00     0.094 A 
ATOM     11  C   UNL     1     -24.552  54.108  41.961  1.00  0.00     0.134 A 
ATOM     12  C   UNL     1     -24.987  54.795  43.110  1.00  0.00     0.093 A 
BRANCH   3  13
ATOM     13  C   UNL     1     -26.873  49.134  41.158  1.00  0.00     0.021 A 
ATOM     14  C   UNL     1     -27.589  49.223  39.971  1.00  0.00     0.016 A 
ATOM     15  C   UNL     1     -28.559  48.280  39.646  1.00  0.00     0.051 A 
ATOM     16  C   UNL     1     -28.785  47.182  40.508  1.00  0.00     0.157 A 
ATOM     17  C   UNL     1     -27.167  48.137  42.089  1.00  0.00     0.062 A 
ATOM     18  C   UNL     1     -28.075  47.094  41.724  1.00  0.00     0.158 A 
BRANCH  16  19
ATOM     19  O   UNL     1     -29.703  46.196  40.145  1.00  0.00    -0.504 OA
ATOM     20  H   UNL     1     -30.631  46.445  39.821  1.00  0.00     0.293 HD
ENDBRANCH  16  19
BRANCH  18  21
ATOM     21  O   UNL     1     -28.204  45.950  42.507  1.00  0.00    -0.504 OA
ATOM     22  H   UNL     1     -27.466  45.646  43.151  1.00  0.00     0.293 HD
ENDBRANCH  18  21
ENDBRANCH   3  13
BRANCH  11  23
ATOM     23  O   UNL     1     -23.694  54.732  41.051  1.00  0.00    -0.507 OA
ATOM     24  H   UNL     1     -22.903  55.311  41.330  1.00  0.00     0.293 HD
ENDBRANCH  11  23
ENDBRANCH   1   2
BRANCH   1  25
ATOM     25  C   UNL     1     -26.173  55.754  46.095  1.00  0.00     0.339 C 
ATOM     26  C   UNL     1     -26.660  55.344  47.551  1.00  0.00     0.214 C 
ATOM     27  O   UNL     1     -24.772  55.976  46.019  1.00  0.00    -0.332 OA
ATOM     28  C   UNL     1     -25.549  55.721  48.596  1.00  0.00     0.180 C 
ATOM     29  C   UNL     1     -24.354  57.084  46.798  1.00  0.00     0.179 C 
ATOM     30  C   UNL     1     -24.939  57.101  48.287  1.00  0.00     0.177 C 
BRANCH  26  31
ATOM     31  O   UNL     1     -27.912  55.968  47.882  1.00  0.00    -0.384 OA
ATOM     32  H   UNL     1     -28.137  55.838  48.851  1.00  0.00     0.211 HD
ENDBRANCH  26  31
BRANCH  28  33
ATOM     33  O   UNL     1     -24.503  54.789  48.522  1.00  0.00    -0.387 OA
ATOM     34  H   UNL     1     -23.716  55.194  48.049  1.00  0.00     0.211 HD
ENDBRANCH  28  33
BRANCH  29  35
ATOM     35  C   UNL     1     -24.339  58.407  45.951  1.00  0.00     0.191 C 
BRANCH  35  36
ATOM     36  O   UNL     1     -25.565  59.113  46.037  1.00  0.00    -0.394 OA
ATOM     37  H   UNL     1     -26.322  58.504  46.314  1.00  0.00     0.210 HD
ENDBRANCH  35  36
ENDBRANCH  29  35
BRANCH  30  38
ATOM     38  O   UNL     1     -25.836  58.138  48.550  1.00  0.00    -0.387 OA
ATOM     39  H   UNL     1     -25.579  58.955  48.053  1.00  0.00     0.211 HD
ENDBRANCH  30  38
ENDBRANCH   1  25
TORSDOF 11
ENDMDL
MODEL 4
REMARK VINA RESULT:    -4.711      2.091      3.439
REMARK INTER + INTRA:          -7.713
REMARK INTER:                  -6.640
REMARK INTRA:                  -1.073
REMARK UNBOUND:                -0.937
REMARK SMILES O=c1cc(-c2ccc(O)c(O)c2)oc2cc(O[C@@H]3O[C@@H](CO)[C@@H](O)[C@H](O)[C@H]3O)cc(O)c12
REMARK SMILES IDX 17 1 16 2 4 3 3 4 13 5 2 6 14 7 1 8 32 9 15 10 30 11 29 12
REMARK SMILES IDX 5 13 6 14 7 15 8 16 12 17 10 18 9 19 11 21 31 23 18 25 27 26
REMARK SMILES IDX 19 27 25 28 20 29 23 30 28 31 26 33 21 35 22 36 24 38
REMARK H PARENT 9 20 11 22 31 24 28 32 26 34 22 37 24 39
REMARK Flexibility Score: inf
ROOT
ATOM      1  O   UNL     1     -26.194  48.208  41.790  1.00  0.00    -0.462 OA
ENDROOT
BRANCH   1   2
ATOM      2  C   UNL     1     -26.091  49.592  41.532  1.00  0.00     0.130 A 
ATOM      3  C   UNL     1     -25.686  53.720  43.712  1.00  0.00     0.138 A 
ATOM      4  C   UNL     1     -25.158  54.383  42.597  1.00  0.00     0.100 A 
ATOM      5  O   UNL     1     -26.227  52.528  43.571  1.00  0.00    -0.456 OA
ATOM      6  C   UNL     1     -24.837  53.604  41.465  1.00  0.00     0.197 A 
ATOM      7  C   UNL     1     -26.081  51.802  42.474  1.00  0.00     0.146 A 
ATOM      8  O   UNL     1     -24.065  54.073  40.583  1.00  0.00    -0.289 OA
ATOM      9  C   UNL     1     -25.277  52.237  41.406  1.00  0.00     0.107 A 
ATOM     10  C   UNL     1     -26.663  50.553  42.381  1.00  0.00     0.094 A 
ATOM     11  C   UNL     1     -24.847  51.370  40.394  1.00  0.00     0.134 A 
ATOM     12  C   UNL     1     -25.329  50.048  40.438  1.00  0.00     0.093 A 
BRANCH   3  13
ATOM     13  C   UNL     1     -25.582  54.309  45.041  1.00  0.00     0.021 A 
ATOM     14  C   UNL     1     -24.374  54.179  45.715  1.00  0.00     0.016 A 
ATOM     15  C   UNL     1     -24.243  54.584  47.039  1.00  0.00     0.051 A 
ATOM     16  C   UNL     1     -25.339  55.188  47.697  1.00  0.00     0.157 A 
ATOM     17  C   UNL     1     -26.716  54.779  45.706  1.00  0.00     0.062 A 
ATOM     18  C   UNL     1     -26.574  55.309  47.027  1.00  0.00     0.158 A 
BRANCH  16  19
ATOM     19  O   UNL     1     -25.186  55.665  49.000  1.00  0.00    -0.504 OA
ATOM     20  H   UNL     1     -25.438  56.619  49.236  1.00  0.00     0.293 HD
ENDBRANCH  16  19
BRANCH  18  21
ATOM     21  O   UNL     1     -27.610  56.018  47.628  1.00  0.00    -0.504 OA
ATOM     22  H   UNL     1     -27.704  56.086  48.648  1.00  0.00     0.293 HD
ENDBRANCH  18  21
ENDBRANCH   3  13
BRANCH  11  23
ATOM     23  O   UNL     1     -24.126  51.820  39.284  1.00  0.00    -0.507 OA
ATOM     24  H   UNL     1     -24.461  51.736  38.326  1.00  0.00     0.293 HD
ENDBRANCH  11  23
ENDBRANCH   1   2
BRANCH   1  25
ATOM     25  C   UNL     1     -26.747  47.510  42.959  1.00  0.00     0.339 C 
ATOM     26  C   UNL     1     -27.717  46.271  42.738  1.00  0.00     0.214 C 
ATOM     27  O   UNL     1     -25.698  47.237  43.878  1.00  0.00    -0.332 OA
ATOM     28  C   UNL     1     -27.521  45.241  43.908  1.00  0.00     0.180 C 
ATOM     29  C   UNL     1     -26.175  46.992  45.189  1.00  0.00     0.179 C 
ATOM     30  C   UNL     1     -27.394  45.959  45.266  1.00  0.00     0.177 C 
BRANCH  26  31
ATOM     31  O   UNL     1     -29.090  46.687  42.642  1.00  0.00    -0.384 OA
ATOM     32  H   UNL     1     -29.244  47.245  41.824  1.00  0.00     0.211 HD
ENDBRANCH  26  31
BRANCH  28  33
ATOM     33  O   UNL     1     -26.327  44.532  43.711  1.00  0.00    -0.387 OA
ATOM     34  H   UNL     1     -26.348  43.675  44.233  1.00  0.00     0.211 HD
ENDBRANCH  28  33
BRANCH  29  35
ATOM     35  C   UNL     1     -26.217  48.311  46.041  1.00  0.00     0.191 C 
BRANCH  35  36
ATOM     36  O   UNL     1     -27.076  48.199  47.163  1.00  0.00    -0.394 OA
ATOM     37  H   UNL     1     -27.702  47.412  47.069  1.00  0.00     0.210 HD
ENDBRANCH  35  36
ENDBRANCH  29  35
BRANCH  30  38
ATOM     38  O   UNL     1     -28.606  46.516  45.677  1.00  0.00    -0.387 OA
ATOM     39  H   UNL     1     -28.864  46.172  46.567  1.00  0.00     0.211 HD
ENDBRANCH  30  38
ENDBRANCH   1  25
TORSDOF 11
ENDMDL
MODEL 5
REMARK VINA RESULT:    -4.696      5.220      8.752
REMARK INTER + INTRA:          -7.692
REMARK INTER:                  -6.562
REMARK INTRA:                  -1.130
REMARK UNBOUND:                -0.937
REMARK SMILES O=c1cc(-c2ccc(O)c(O)c2)oc2cc(O[C@@H]3O[C@@H](CO)[C@@H](O)[C@H](O)[C@H]3O)cc(O)c12
REMARK SMILES IDX 17 1 16 2 4 3 3 4 13 5 2 6 14 7 1 8 32 9 15 10 30 11 29 12
REMARK SMILES IDX 5 13 6 14 7 15 8 16 12 17 10 18 9 19 11 21 31 23 18 25 27 26
REMARK SMILES IDX 19 27 25 28 20 29 23 30 28 31 26 33 21 35 22 36 24 38
REMARK H PARENT 9 20 11 22 31 24 28 32 26 34 22 37 24 39
REMARK Flexibility Score: inf
ROOT
ATOM      1  O   UNL     1     -26.826  48.830  33.094  1.00  0.00    -0.462 OA
ENDROOT
BRANCH   1   2
ATOM      2  C   UNL     1     -27.194  47.879  34.071  1.00  0.00     0.130 A 
ATOM      3  C   UNL     1     -27.284  47.216  38.709  1.00  0.00     0.138 A 
ATOM      4  C   UNL     1     -28.270  46.223  38.659  1.00  0.00     0.100 A 
ATOM      5  O   UNL     1     -26.685  47.602  37.601  1.00  0.00    -0.456 OA
ATOM      6  C   UNL     1     -28.887  45.976  37.415  1.00  0.00     0.197 A 
ATOM      7  C   UNL     1     -27.136  47.284  36.397  1.00  0.00     0.146 A 
ATOM      8  O   UNL     1     -29.987  45.355  37.375  1.00  0.00    -0.289 OA
ATOM      9  C   UNL     1     -28.329  46.560  36.226  1.00  0.00     0.107 A 
ATOM     10  C   UNL     1     -26.476  47.722  35.267  1.00  0.00     0.094 A 
ATOM     11  C   UNL     1     -28.991  46.493  34.994  1.00  0.00     0.134 A 
ATOM     12  C   UNL     1     -28.361  47.109  33.896  1.00  0.00     0.093 A 
BRANCH   3  13
ATOM     13  C   UNL     1     -26.959  47.875  39.967  1.00  0.00     0.021 A 
ATOM     14  C   UNL     1     -26.888  47.089  41.111  1.00  0.00     0.016 A 
ATOM     15  C   UNL     1     -26.728  47.663  42.367  1.00  0.00     0.051 A 
ATOM     16  C   UNL     1     -26.579  49.065  42.483  1.00  0.00     0.157 A 
ATOM     17  C   UNL     1     -26.948  49.267  40.064  1.00  0.00     0.062 A 
ATOM     18  C   UNL     1     -26.666  49.872  41.329  1.00  0.00     0.158 A 
BRANCH  16  19
ATOM     19  O   UNL     1     -26.341  49.634  43.734  1.00  0.00    -0.504 OA
ATOM     20  H   UNL     1     -26.170  50.630  43.826  1.00  0.00     0.293 HD
ENDBRANCH  16  19
BRANCH  18  21
ATOM     21  O   UNL     1     -26.392  51.233  41.426  1.00  0.00    -0.504 OA
ATOM     22  H   UNL     1     -26.557  51.879  40.647  1.00  0.00     0.293 HD
ENDBRANCH  18  21
ENDBRANCH   3  13
BRANCH  11  23
ATOM     23  O   UNL     1     -30.125  45.699  34.800  1.00  0.00    -0.507 OA
ATOM     24  H   UNL     1     -30.899  45.964  34.193  1.00  0.00     0.293 HD
ENDBRANCH  11  23
ENDBRANCH   1   2
BRANCH   1  25
ATOM     25  C   UNL     1     -27.278  50.218  32.918  1.00  0.00     0.339 C 
ATOM     26  C   UNL     1     -28.600  50.504  32.083  1.00  0.00     0.214 C 
ATOM     27  O   UNL     1     -27.263  50.875  34.177  1.00  0.00    -0.332 OA
ATOM     28  C   UNL     1     -29.323  51.768  32.671  1.00  0.00     0.180 C 
ATOM     29  C   UNL     1     -27.239  52.286  34.052  1.00  0.00     0.179 C 
ATOM     30  C   UNL     1     -28.311  52.876  33.021  1.00  0.00     0.177 C 
BRANCH  26  31
ATOM     31  O   UNL     1     -28.313  50.677  30.686  1.00  0.00    -0.384 OA
ATOM     32  H   UNL     1     -27.448  51.167  30.550  1.00  0.00     0.211 HD
ENDBRANCH  26  31
BRANCH  28  33
ATOM     33  O   UNL     1     -29.973  51.422  33.864  1.00  0.00    -0.387 OA
ATOM     34  H   UNL     1     -30.959  51.328  33.702  1.00  0.00     0.211 HD
ENDBRANCH  28  33
BRANCH  29  35
ATOM     35  C   UNL     1     -25.767  52.837  34.047  1.00  0.00     0.191 C 
BRANCH  35  36
ATOM     36  O   UNL     1     -25.719  54.237  33.836  1.00  0.00    -0.394 OA
ATOM     37  H   UNL     1     -26.374  54.525  33.122  1.00  0.00     0.210 HD
ENDBRANCH  35  36
ENDBRANCH  29  35
BRANCH  30  38
ATOM     38  O   UNL     1     -27.760  53.460  31.878  1.00  0.00    -0.387 OA
ATOM     39  H   UNL     1     -27.678  54.439  31.992  1.00  0.00     0.211 HD
ENDBRANCH  30  38
ENDBRANCH   1  25
TORSDOF 11
ENDMDL
MODEL 6
REMARK VINA RESULT:    -4.693      2.793      5.086
REMARK INTER + INTRA:          -7.687
REMARK INTER:                  -6.691
REMARK INTRA:                  -0.996
REMARK UNBOUND:                -0.937
REMARK SMILES O=c1cc(-c2ccc(O)c(O)c2)oc2cc(O[C@@H]3O[C@@H](CO)[C@@H](O)[C@H](O)[C@H]3O)cc(O)c12
REMARK SMILES IDX 17 1 16 2 4 3 3 4 13 5 2 6 14 7 1 8 32 9 15 10 30 11 29 12
REMARK SMILES IDX 5 13 6 14 7 15 8 16 12 17 10 18 9 19 11 21 31 23 18 25 27 26
REMARK SMILES IDX 19 27 25 28 20 29 23 30 28 31 26 33 21 35 22 36 24 38
REMARK H PARENT 9 20 11 22 31 24 28 32 26 34 22 37 24 39
REMARK Flexibility Score: inf
ROOT
ATOM      1  O   UNL     1     -25.721  49.371  40.326  1.00  0.00    -0.462 OA
ENDROOT
BRANCH   1   2
ATOM      2  C   UNL     1     -25.456  50.370  41.288  1.00  0.00     0.130 A 
ATOM      3  C   UNL     1     -24.616  54.963  41.686  1.00  0.00     0.138 A 
ATOM      4  C   UNL     1     -24.999  55.029  43.031  1.00  0.00     0.100 A 
ATOM      5  O   UNL     1     -24.426  53.792  41.114  1.00  0.00    -0.456 OA
ATOM      6  C   UNL     1     -25.574  53.876  43.604  1.00  0.00     0.197 A 
ATOM      7  C   UNL     1     -24.819  52.655  41.668  1.00  0.00     0.146 A 
ATOM      8  O   UNL     1     -26.233  53.975  44.678  1.00  0.00    -0.289 OA
ATOM      9  C   UNL     1     -25.526  52.634  42.883  1.00  0.00     0.107 A 
ATOM     10  C   UNL     1     -24.604  51.454  41.022  1.00  0.00     0.094 A 
ATOM     11  C   UNL     1     -26.226  51.503  43.320  1.00  0.00     0.134 A 
ATOM     12  C   UNL     1     -26.119  50.341  42.532  1.00  0.00     0.093 A 
BRANCH   3  13
ATOM     13  C   UNL     1     -24.490  56.178  40.891  1.00  0.00     0.021 A 
ATOM     14  C   UNL     1     -23.950  57.301  41.505  1.00  0.00     0.016 A 
ATOM     15  C   UNL     1     -23.932  58.533  40.860  1.00  0.00     0.051 A 
ATOM     16  C   UNL     1     -24.420  58.638  39.537  1.00  0.00     0.157 A 
ATOM     17  C   UNL     1     -25.098  56.280  39.638  1.00  0.00     0.062 A 
ATOM     18  C   UNL     1     -24.985  57.507  38.911  1.00  0.00     0.158 A 
BRANCH  16  19
ATOM     19  O   UNL     1     -24.331  59.855  38.861  1.00  0.00    -0.504 OA
ATOM     20  H   UNL     1     -23.445  60.176  38.485  1.00  0.00     0.293 HD
ENDBRANCH  16  19
BRANCH  18  21
ATOM     21  O   UNL     1     -25.345  57.578  37.569  1.00  0.00    -0.504 OA
ATOM     22  H   UNL     1     -26.274  57.894  37.270  1.00  0.00     0.293 HD
ENDBRANCH  18  21
ENDBRANCH   3  13
BRANCH  11  23
ATOM     23  O   UNL     1     -26.851  51.450  44.569  1.00  0.00    -0.507 OA
ATOM     24  H   UNL     1     -27.601  52.079  44.848  1.00  0.00     0.293 HD
ENDBRANCH  11  23
ENDBRANCH   1   2
BRANCH   1  25
ATOM     25  C   UNL     1     -26.925  48.549  40.135  1.00  0.00     0.339 C 
ATOM     26  C   UNL     1     -27.659  48.561  38.725  1.00  0.00     0.214 C 
ATOM     27  O   UNL     1     -26.675  47.237  40.620  1.00  0.00    -0.332 OA
ATOM     28  C   UNL     1     -28.297  47.151  38.459  1.00  0.00     0.180 C 
ATOM     29  C   UNL     1     -27.868  46.524  40.897  1.00  0.00     0.179 C 
ATOM     30  C   UNL     1     -28.962  46.592  39.731  1.00  0.00     0.177 C 
BRANCH  26  31
ATOM     31  O   UNL     1     -28.652  49.598  38.657  1.00  0.00    -0.384 OA
ATOM     32  H   UNL     1     -28.976  49.852  39.572  1.00  0.00     0.211 HD
ENDBRANCH  26  31
BRANCH  28  33
ATOM     33  O   UNL     1     -27.291  46.244  38.095  1.00  0.00    -0.387 OA
ATOM     34  H   UNL     1     -26.444  46.738  37.886  1.00  0.00     0.211 HD
ENDBRANCH  28  33
BRANCH  29  35
ATOM     35  C   UNL     1     -28.310  46.705  42.393  1.00  0.00     0.191 C 
BRANCH  35  36
ATOM     36  O   UNL     1     -29.632  46.246  42.621  1.00  0.00    -0.394 OA
ATOM     37  H   UNL     1     -30.169  46.231  41.765  1.00  0.00     0.210 HD
ENDBRANCH  35  36
ENDBRANCH  29  35
BRANCH  30  38
ATOM     38  O   UNL     1     -30.125  47.290  40.063  1.00  0.00    -0.387 OA
ATOM     39  H   UNL     1     -30.807  47.188  39.354  1.00  0.00     0.211 HD
ENDBRANCH  30  38
ENDBRANCH   1  25
TORSDOF 11
ENDMDL
MODEL 7
REMARK VINA RESULT:    -4.655      7.430      9.094
REMARK INTER + INTRA:          -7.633
REMARK INTER:                  -6.594
REMARK INTRA:                  -1.038
REMARK UNBOUND:                -0.937
REMARK SMILES O=c1cc(-c2ccc(O)c(O)c2)oc2cc(O[C@@H]3O[C@@H](CO)[C@@H](O)[C@H](O)[C@H]3O)cc(O)c12
REMARK SMILES IDX 17 1 16 2 4 3 3 4 13 5 2 6 14 7 1 8 32 9 15 10 30 11 29 12
REMARK SMILES IDX 5 13 6 14 7 15 8 16 12 17 10 18 9 19 11 21 31 23 18 25 27 26
REMARK SMILES IDX 19 27 25 28 20 29 23 30 28 31 26 33 21 35 22 36 24 38
REMARK H PARENT 9 20 11 22 31 24 28 32 26 34 22 37 24 39
REMARK Flexibility Score: inf
ROOT
ATOM      1  O   UNL     1     -26.916  53.440  32.656  1.00  0.00    -0.462 OA
ENDROOT
BRANCH   1   2
ATOM      2  C   UNL     1     -27.420  54.660  33.160  1.00  0.00     0.130 A 
ATOM      3  C   UNL     1     -26.938  57.641  36.743  1.00  0.00     0.138 A 
ATOM      4  C   UNL     1     -27.488  58.730  36.055  1.00  0.00     0.100 A 
ATOM      5  O   UNL     1     -27.057  56.425  36.250  1.00  0.00    -0.456 OA
ATOM      6  C   UNL     1     -27.769  58.562  34.683  1.00  0.00     0.197 A 
ATOM      7  C   UNL     1     -27.453  56.194  35.007  1.00  0.00     0.146 A 
ATOM      8  O   UNL     1     -27.939  59.578  33.952  1.00  0.00    -0.289 OA
ATOM      9  C   UNL     1     -27.712  57.245  34.110  1.00  0.00     0.107 A 
ATOM     10  C   UNL     1     -27.553  54.900  34.537  1.00  0.00     0.094 A 
ATOM     11  C   UNL     1     -27.811  57.040  32.729  1.00  0.00     0.134 A 
ATOM     12  C   UNL     1     -27.732  55.710  32.273  1.00  0.00     0.093 A 
BRANCH   3  13
ATOM     13  C   UNL     1     -26.176  57.846  37.968  1.00  0.00     0.021 A 
ATOM     14  C   UNL     1     -25.889  59.154  38.340  1.00  0.00     0.016 A 
ATOM     15  C   UNL     1     -25.045  59.425  39.412  1.00  0.00     0.051 A 
ATOM     16  C   UNL     1     -24.512  58.358  40.172  1.00  0.00     0.157 A 
ATOM     17  C   UNL     1     -25.560  56.774  38.616  1.00  0.00     0.062 A 
ATOM     18  C   UNL     1     -24.785  57.028  39.791  1.00  0.00     0.158 A 
BRANCH  16  19
ATOM     19  O   UNL     1     -23.729  58.631  41.294  1.00  0.00    -0.504 OA
ATOM     20  H   UNL     1     -23.174  57.902  41.729  1.00  0.00     0.293 HD
ENDBRANCH  16  19
BRANCH  18  21
ATOM     21  O   UNL     1     -24.369  55.984  40.612  1.00  0.00    -0.504 OA
ATOM     22  H   UNL     1     -25.020  55.272  40.961  1.00  0.00     0.293 HD
ENDBRANCH  18  21
ENDBRANCH   3  13
BRANCH  11  23
ATOM     23  O   UNL     1     -28.160  58.066  31.847  1.00  0.00    -0.507 OA
ATOM     24  H   UNL     1     -28.209  59.047  32.117  1.00  0.00     0.293 HD
ENDBRANCH  11  23
ENDBRANCH   1   2
BRANCH   1  25
ATOM     25  C   UNL     1     -27.422  52.072  32.834  1.00  0.00     0.339 C 
ATOM     26  C   UNL     1     -28.954  51.766  32.540  1.00  0.00     0.214 C 
ATOM     27  O   UNL     1     -26.541  51.162  32.191  1.00  0.00    -0.332 OA
ATOM     28  C   UNL     1     -29.095  50.301  31.990  1.00  0.00     0.180 C 
ATOM     29  C   UNL     1     -26.679  49.838  32.674  1.00  0.00     0.179 C 
ATOM     30  C   UNL     1     -28.192  49.324  32.767  1.00  0.00     0.177 C 
BRANCH  26  31
ATOM     31  O   UNL     1     -29.763  51.956  33.712  1.00  0.00    -0.384 OA
ATOM     32  H   UNL     1     -30.593  51.394  33.676  1.00  0.00     0.211 HD
ENDBRANCH  26  31
BRANCH  28  33
ATOM     33  O   UNL     1     -28.677  50.262  30.652  1.00  0.00    -0.387 OA
ATOM     34  H   UNL     1     -27.707  50.508  30.588  1.00  0.00     0.211 HD
ENDBRANCH  28  33
BRANCH  29  35
ATOM     35  C   UNL     1     -25.684  49.551  33.855  1.00  0.00     0.191 C 
BRANCH  35  36
ATOM     36  O   UNL     1     -26.227  49.912  35.113  1.00  0.00    -0.394 OA
ATOM     37  H   UNL     1     -25.665  49.557  35.873  1.00  0.00     0.210 HD
ENDBRANCH  35  36
ENDBRANCH  29  35
BRANCH  30  38
ATOM     38  O   UNL     1     -28.655  49.107  34.067  1.00  0.00    -0.387 OA
ATOM     39  H   UNL     1     -29.473  49.636  34.238  1.00  0.00     0.211 HD
ENDBRANCH  30  38
ENDBRANCH   1  25
TORSDOF 11
ENDMDL
MODEL 8
REMARK VINA RESULT:    -4.644      1.391      2.138
REMARK INTER + INTRA:          -7.618
REMARK INTER:                  -6.659
REMARK INTRA:                  -0.958
REMARK UNBOUND:                -0.937
REMARK SMILES O=c1cc(-c2ccc(O)c(O)c2)oc2cc(O[C@@H]3O[C@@H](CO)[C@@H](O)[C@H](O)[C@H]3O)cc(O)c12
REMARK SMILES IDX 17 1 16 2 4 3 3 4 13 5 2 6 14 7 1 8 32 9 15 10 30 11 29 12
REMARK SMILES IDX 5 13 6 14 7 15 8 16 12 17 10 18 9 19 11 21 31 23 18 25 27 26
REMARK SMILES IDX 19 27 25 28 20 29 23 30 28 31 26 33 21 35 22 36 24 38
REMARK H PARENT 9 20 11 22 31 24 28 32 26 34 22 37 24 39
REMARK Flexibility Score: inf
ROOT
ATOM      1  O   UNL     1     -25.847  48.767  40.786  1.00  0.00    -0.462 OA
ENDROOT
BRANCH   1   2
ATOM      2  C   UNL     1     -25.634  50.162  40.810  1.00  0.00     0.130 A 
ATOM      3  C   UNL     1     -25.426  53.804  43.752  1.00  0.00     0.138 A 
ATOM      4  C   UNL     1     -24.677  54.606  42.882  1.00  0.00     0.100 A 
ATOM      5  O   UNL     1     -25.990  52.701  43.305  1.00  0.00    -0.456 OA
ATOM      6  C   UNL     1     -24.198  54.012  41.695  1.00  0.00     0.197 A 
ATOM      7  C   UNL     1     -25.686  52.167  42.132  1.00  0.00     0.146 A 
ATOM      8  O   UNL     1     -23.259  54.566  41.055  1.00  0.00    -0.289 OA
ATOM      9  C   UNL     1     -24.685  52.716  41.312  1.00  0.00     0.107 A 
ATOM     10  C   UNL     1     -26.301  51.003  41.715  1.00  0.00     0.094 A 
ATOM     11  C   UNL     1     -24.124  52.006  40.243  1.00  0.00     0.134 A 
ATOM     12  C   UNL     1     -24.669  50.740  39.961  1.00  0.00     0.093 A 
BRANCH   3  13
ATOM     13  C   UNL     1     -25.532  54.142  45.165  1.00  0.00     0.021 A 
ATOM     14  C   UNL     1     -24.630  53.551  46.042  1.00  0.00     0.016 A 
ATOM     15  C   UNL     1     -24.759  53.710  47.418  1.00  0.00     0.051 A 
ATOM     16  C   UNL     1     -25.789  54.529  47.935  1.00  0.00     0.157 A 
ATOM     17  C   UNL     1     -26.635  54.846  45.652  1.00  0.00     0.062 A 
ATOM     18  C   UNL     1     -26.719  55.118  47.053  1.00  0.00     0.158 A 
BRANCH  16  19
ATOM     19  O   UNL     1     -25.872  54.750  49.311  1.00  0.00    -0.504 OA
ATOM     20  H   UNL     1     -26.222  54.028  49.932  1.00  0.00     0.293 HD
ENDBRANCH  16  19
BRANCH  18  21
ATOM     21  O   UNL     1     -27.651  56.025  47.551  1.00  0.00    -0.504 OA
ATOM     22  H   UNL     1     -28.399  55.740  48.192  1.00  0.00     0.293 HD
ENDBRANCH  18  21
ENDBRANCH   3  13
BRANCH  11  23
ATOM     23  O   UNL     1     -23.197  52.584  39.371  1.00  0.00    -0.507 OA
ATOM     24  H   UNL     1     -23.073  53.590  39.269  1.00  0.00     0.293 HD
ENDBRANCH  11  23
ENDBRANCH   1   2
BRANCH   1  25
ATOM     25  C   UNL     1     -26.996  48.002  40.281  1.00  0.00     0.339 C 
ATOM     26  C   UNL     1     -27.598  48.356  38.853  1.00  0.00     0.214 C 
ATOM     27  O   UNL     1     -26.741  46.614  40.448  1.00  0.00    -0.332 OA
ATOM     28  C   UNL     1     -28.155  47.048  38.185  1.00  0.00     0.180 C 
ATOM     29  C   UNL     1     -27.926  45.837  40.421  1.00  0.00     0.179 C 
ATOM     30  C   UNL     1     -28.911  46.178  39.208  1.00  0.00     0.177 C 
BRANCH  26  31
ATOM     31  O   UNL     1     -28.620  49.362  38.947  1.00  0.00    -0.384 OA
ATOM     32  H   UNL     1     -29.507  48.958  39.185  1.00  0.00     0.211 HD
ENDBRANCH  26  31
BRANCH  28  33
ATOM     33  O   UNL     1     -27.086  46.275  37.707  1.00  0.00    -0.387 OA
ATOM     34  H   UNL     1     -27.435  45.497  37.179  1.00  0.00     0.211 HD
ENDBRANCH  28  33
BRANCH  29  35
ATOM     35  C   UNL     1     -28.510  45.631  41.865  1.00  0.00     0.191 C 
BRANCH  35  36
ATOM     36  O   UNL     1     -29.442  46.639  42.215  1.00  0.00    -0.394 OA
ATOM     37  H   UNL     1     -29.615  47.265  41.442  1.00  0.00     0.210 HD
ENDBRANCH  35  36
ENDBRANCH  29  35
BRANCH  30  38
ATOM     38  O   UNL     1     -30.125  46.755  39.586  1.00  0.00    -0.387 OA
ATOM     39  H   UNL     1     -29.990  47.397  40.326  1.00  0.00     0.211 HD
ENDBRANCH  30  38
ENDBRANCH   1  25
TORSDOF 11
ENDMDL
MODEL 9
REMARK VINA RESULT:    -4.635      4.070      6.711
REMARK INTER + INTRA:          -7.604
REMARK INTER:                  -6.471
REMARK INTRA:                  -1.133
REMARK UNBOUND:                -0.937
REMARK SMILES O=c1cc(-c2ccc(O)c(O)c2)oc2cc(O[C@@H]3O[C@@H](CO)[C@@H](O)[C@H](O)[C@H]3O)cc(O)c12
REMARK SMILES IDX 17 1 16 2 4 3 3 4 13 5 2 6 14 7 1 8 32 9 15 10 30 11 29 12
REMARK SMILES IDX 5 13 6 14 7 15 8 16 12 17 10 18 9 19 11 21 31 23 18 25 27 26
REMARK SMILES IDX 19 27 25 28 20 29 23 30 28 31 26 33 21 35 22 36 24 38
REMARK H PARENT 9 20 11 22 31 24 28 32 26 34 22 37 24 39
REMARK Flexibility Score: inf
ROOT
ATOM      1  O   UNL     1     -26.871  47.804  35.624  1.00  0.00    -0.462 OA
ENDROOT
BRANCH   1   2
ATOM      2  C   UNL     1     -26.906  47.521  37.007  1.00  0.00     0.130 A 
ATOM      3  C   UNL     1     -26.390  49.562  41.194  1.00  0.00     0.138 A 
ATOM      4  C   UNL     1     -27.110  48.580  41.885  1.00  0.00     0.100 A 
ATOM      5  O   UNL     1     -26.010  49.345  39.951  1.00  0.00    -0.456 OA
ATOM      6  C   UNL     1     -27.766  47.591  41.121  1.00  0.00     0.197 A 
ATOM      7  C   UNL     1     -26.485  48.346  39.223  1.00  0.00     0.146 A 
ATOM      8  O   UNL     1     -28.683  46.902  41.649  1.00  0.00    -0.289 OA
ATOM      9  C   UNL     1     -27.481  47.485  39.717  1.00  0.00     0.107 A 
ATOM     10  C   UNL     1     -26.060  48.168  37.922  1.00  0.00     0.094 A 
ATOM     11  C   UNL     1     -28.221  46.643  38.878  1.00  0.00     0.134 A 
ATOM     12  C   UNL     1     -27.866  46.624  37.517  1.00  0.00     0.093 A 
BRANCH   3  13
ATOM     13  C   UNL     1     -26.113  50.852  41.813  1.00  0.00     0.021 A 
ATOM     14  C   UNL     1     -26.420  51.002  43.160  1.00  0.00     0.016 A 
ATOM     15  C   UNL     1     -26.322  52.242  43.784  1.00  0.00     0.051 A 
ATOM     16  C   UNL     1     -25.850  53.357  43.055  1.00  0.00     0.157 A 
ATOM     17  C   UNL     1     -25.773  51.960  41.037  1.00  0.00     0.062 A 
ATOM     18  C   UNL     1     -25.553  53.218  41.683  1.00  0.00     0.158 A 
BRANCH  16  19
ATOM     19  O   UNL     1     -25.678  54.583  43.699  1.00  0.00    -0.504 OA
ATOM     20  H   UNL     1     -25.099  55.308  43.288  1.00  0.00     0.293 HD
ENDBRANCH  16  19
BRANCH  18  21
ATOM     21  O   UNL     1     -24.969  54.280  40.999  1.00  0.00    -0.504 OA
ATOM     22  H   UNL     1     -24.635  54.189  40.033  1.00  0.00     0.293 HD
ENDBRANCH  18  21
ENDBRANCH   3  13
BRANCH  11  23
ATOM     23  O   UNL     1     -29.146  45.721  39.378  1.00  0.00    -0.507 OA
ATOM     24  H   UNL     1     -28.896  44.776  39.666  1.00  0.00     0.293 HD
ENDBRANCH  11  23
ENDBRANCH   1   2
BRANCH   1  25
ATOM     25  C   UNL     1     -26.935  49.098  34.929  1.00  0.00     0.339 C 
ATOM     26  C   UNL     1     -25.589  49.890  34.636  1.00  0.00     0.214 C 
ATOM     27  O   UNL     1     -27.766  48.970  33.784  1.00  0.00    -0.332 OA
ATOM     28  C   UNL     1     -25.739  50.691  33.293  1.00  0.00     0.180 C 
ATOM     29  C   UNL     1     -28.248  50.219  33.321  1.00  0.00     0.179 C 
ATOM     30  C   UNL     1     -27.126  51.353  33.191  1.00  0.00     0.177 C 
BRANCH  26  31
ATOM     31  O   UNL     1     -25.247  50.766  35.723  1.00  0.00    -0.384 OA
ATOM     32  H   UNL     1     -25.932  50.724  36.454  1.00  0.00     0.211 HD
ENDBRANCH  26  31
BRANCH  28  33
ATOM     33  O   UNL     1     -25.630  49.808  32.209  1.00  0.00    -0.387 OA
ATOM     34  H   UNL     1     -25.520  50.325  31.356  1.00  0.00     0.211 HD
ENDBRANCH  28  33
BRANCH  29  35
ATOM     35  C   UNL     1     -29.640  50.570  33.960  1.00  0.00     0.191 C 
BRANCH  35  36
ATOM     36  O   UNL     1     -30.125  51.830  33.531  1.00  0.00    -0.394 OA
ATOM     37  H   UNL     1     -29.409  52.356  33.050  1.00  0.00     0.210 HD
ENDBRANCH  35  36
ENDBRANCH  29  35
BRANCH  30  38
ATOM     38  O   UNL     1     -27.264  52.415  34.086  1.00  0.00    -0.387 OA
ATOM     39  H   UNL     1     -26.396  52.631  34.508  1.00  0.00     0.211 HD
ENDBRANCH  30  38
ENDBRANCH   1  25
TORSDOF 11
ENDMDL
