MODEL 1
REMARK VINA RESULT:    -3.666      0.000      0.000
REMARK INTER + INTRA:          -4.576
REMARK INTER:                  -4.309
REMARK INTRA:                  -0.267
REMARK UNBOUND:                -0.267
REMARK SMILES O=C([O-])C=Cc1ccc(O)c(O)c1
REMARK SMILES IDX 6 1 13 2 7 3 11 4 8 5 9 6 5 7 4 8 2 9 1 10 3 11 12 12 10 14
REMARK H PARENT 12 13 10 15
REMARK Flexibility Score: inf
ROOT
ATOM      1  C   UNL     1       0.776  22.269   3.565  1.00  0.00    -0.022 A 
ATOM      2  C   UNL     1       1.248  23.544   3.212  1.00  0.00     0.058 A 
ATOM      3  C   UNL     1      -0.603  22.018   3.544  1.00  0.00     0.012 A 
ATOM      4  C   UNL     1       0.356  24.541   2.790  1.00  0.00     0.157 A 
ATOM      5  C   UNL     1      -1.494  23.009   3.124  1.00  0.00     0.051 A 
ATOM      6  C   UNL     1      -1.022  24.269   2.742  1.00  0.00     0.157 A 
ENDROOT
BRANCH   1   7
ATOM      7  C   UNL     1       1.693  21.223   4.061  1.00  0.00     0.010 C 
ATOM      8  C   UNL     1       2.107  21.090   5.331  1.00  0.00     0.025 C 
BRANCH   8   9
ATOM      9  C   UNL     1       1.876  22.066   6.412  1.00  0.00     0.064 C 
ATOM     10  O   UNL     1       2.733  22.964   6.623  1.00  0.00    -0.545 OA
ATOM     11  O   UNL     1       0.702  22.063   7.157  1.00  0.00    -0.545 OA
ENDBRANCH   8   9
ENDBRANCH   1   7
BRANCH   4  12
ATOM     12  O   UNL     1       0.833  25.799   2.424  1.00  0.00    -0.504 OA
ATOM     13  H   UNL     1       0.217  26.602   2.359  1.00  0.00     0.293 HD
ENDBRANCH   4  12
BRANCH   6  14
ATOM     14  O   UNL     1      -1.935  25.238   2.326  1.00  0.00    -0.504 OA
ATOM     15  H   UNL     1      -2.724  25.513   2.898  1.00  0.00     0.293 HD
ENDBRANCH   6  14
TORSDOF 4
ENDMDL
MODEL 2
REMARK VINA RESULT:    -3.150      1.854      2.330
REMARK INTER + INTRA:          -3.969
REMARK INTER:                  -3.687
REMARK INTRA:                  -0.282
REMARK UNBOUND:                -0.267
REMARK SMILES O=C([O-])C=Cc1ccc(O)c(O)c1
REMARK SMILES IDX 6 1 13 2 7 3 11 4 8 5 9 6 5 7 4 8 2 9 1 10 3 11 12 12 10 14
REMARK H PARENT 12 13 10 15
REMARK Flexibility Score: inf
ROOT
ATOM      1  C   UNL     1      -0.109  22.754   5.188  1.00  0.00    -0.022 A 
ATOM      2  C   UNL     1      -0.398  23.950   4.511  1.00  0.00     0.058 A 
ATOM      3  C   UNL     1      -0.728  21.565   4.777  1.00  0.00     0.012 A 
ATOM      4  C   UNL     1      -1.255  23.949   3.401  1.00  0.00     0.157 A 
ATOM      5  C   UNL     1      -1.582  21.561   3.670  1.00  0.00     0.051 A 
ATOM      6  C   UNL     1      -1.846  22.746   2.977  1.00  0.00     0.157 A 
ENDROOT
BRANCH   1   7
ATOM      7  C   UNL     1       0.749  22.742   6.391  1.00  0.00     0.010 C 
ATOM      8  C   UNL     1       2.091  22.702   6.387  1.00  0.00     0.025 C 
BRANCH   8   9
ATOM      9  C   UNL     1       2.936  22.469   5.202  1.00  0.00     0.064 C 
ATOM     10  O   UNL     1       3.062  21.298   4.756  1.00  0.00    -0.545 OA
ATOM     11  O   UNL     1       3.540  23.520   4.521  1.00  0.00    -0.545 OA
ENDBRANCH   8   9
ENDBRANCH   1   7
BRANCH   4  12
ATOM     12  O   UNL     1      -1.525  25.137   2.723  1.00  0.00    -0.504 OA
ATOM     13  H   UNL     1      -2.260  25.766   3.026  1.00  0.00     0.293 HD
ENDBRANCH   4  12
BRANCH   6  14
ATOM     14  O   UNL     1      -2.701  22.711   1.875  1.00  0.00    -0.504 OA
ATOM     15  H   UNL     1      -2.646  21.979   1.176  1.00  0.00     0.293 HD
ENDBRANCH   6  14
TORSDOF 4
ENDMDL
MODEL 3
REMARK VINA RESULT:    -3.129      0.864      2.103
REMARK INTER + INTRA:          -3.944
REMARK INTER:                  -3.660
REMARK INTRA:                  -0.285
REMARK UNBOUND:                -0.267
REMARK SMILES O=C([O-])C=Cc1ccc(O)c(O)c1
REMARK SMILES IDX 6 1 13 2 7 3 11 4 8 5 9 6 5 7 4 8 2 9 1 10 3 11 12 12 10 14
REMARK H PARENT 12 13 10 15
REMARK Flexibility Score: inf
ROOT
ATOM      1  C   UNL     1       1.010  22.388   3.368  1.00  0.00    -0.022 A 
ATOM      2  C   UNL     1      -0.346  22.029   3.301  1.00  0.00     0.058 A 
ATOM      3  C   UNL     1       1.400  23.674   2.969  1.00  0.00     0.012 A 
ATOM      4  C   UNL     1      -1.310  22.962   2.891  1.00  0.00     0.157 A 
ATOM      5  C   UNL     1       0.442  24.606   2.560  1.00  0.00     0.051 A 
ATOM      6  C   UNL     1      -0.912  24.259   2.523  1.00  0.00     0.157 A 
ENDROOT
BRANCH   1   7
ATOM      7  C   UNL     1       2.045  21.404   3.747  1.00  0.00     0.010 C 
ATOM      8  C   UNL     1       2.469  21.165   4.998  1.00  0.00     0.025 C 
BRANCH   8   9
ATOM      9  C   UNL     1       2.121  21.966   6.186  1.00  0.00     0.064 C 
ATOM     10  O   UNL     1       1.293  21.507   7.016  1.00  0.00    -0.545 OA
ATOM     11  O   UNL     1       2.738  23.184   6.449  1.00  0.00    -0.545 OA
ENDBRANCH   8   9
ENDBRANCH   1   7
BRANCH   4  12
ATOM     12  O   UNL     1      -2.656  22.604   2.844  1.00  0.00    -0.504 OA
ATOM     13  H   UNL     1      -2.958  21.651   3.009  1.00  0.00     0.293 HD
ENDBRANCH   4  12
BRANCH   6  14
ATOM     14  O   UNL     1      -1.845  25.211   2.114  1.00  0.00    -0.504 OA
ATOM     15  H   UNL     1      -2.718  25.355   2.608  1.00  0.00     0.293 HD
ENDBRANCH   6  14
TORSDOF 4
ENDMDL
MODEL 4
REMARK VINA RESULT:    -3.110      1.911      2.627
REMARK INTER + INTRA:          -3.922
REMARK INTER:                  -3.640
REMARK INTRA:                  -0.282
REMARK UNBOUND:                -0.267
REMARK SMILES O=C([O-])C=Cc1ccc(O)c(O)c1
REMARK SMILES IDX 6 1 13 2 7 3 11 4 8 5 9 6 5 7 4 8 2 9 1 10 3 11 12 12 10 14
REMARK H PARENT 12 13 10 15
REMARK Flexibility Score: inf
ROOT
ATOM      1  C   UNL     1       2.040  23.152   2.983  1.00  0.00    -0.022 A 
ATOM      2  C   UNL     1       0.863  22.573   3.486  1.00  0.00     0.058 A 
ATOM      3  C   UNL     1       1.968  24.380   2.311  1.00  0.00     0.012 A 
ATOM      4  C   UNL     1      -0.365  23.239   3.366  1.00  0.00     0.157 A 
ATOM      5  C   UNL     1       0.745  25.047   2.191  1.00  0.00     0.051 A 
ATOM      6  C   UNL     1      -0.422  24.485   2.719  1.00  0.00     0.157 A 
ENDROOT
BRANCH   1   7
ATOM      7  C   UNL     1       3.334  22.442   3.053  1.00  0.00     0.010 C 
ATOM      8  C   UNL     1       4.227  22.551   4.049  1.00  0.00     0.025 C 
BRANCH   8   9
ATOM      9  C   UNL     1       4.167  23.534   5.147  1.00  0.00     0.064 C 
ATOM     10  O   UNL     1       4.828  24.602   5.054  1.00  0.00    -0.545 OA
ATOM     11  O   UNL     1       3.343  23.343   6.251  1.00  0.00    -0.545 OA
ENDBRANCH   8   9
ENDBRANCH   1   7
BRANCH   4  12
ATOM     12  O   UNL     1      -1.527  22.667   3.883  1.00  0.00    -0.504 OA
ATOM     13  H   UNL     1      -2.373  23.210   4.013  1.00  0.00     0.293 HD
ENDBRANCH   4  12
BRANCH   6  14
ATOM     14  O   UNL     1      -1.627  25.175   2.585  1.00  0.00    -0.504 OA
ATOM     15  H   UNL     1      -1.674  26.099   2.171  1.00  0.00     0.293 HD
ENDBRANCH   6  14
TORSDOF 4
ENDMDL
MODEL 5
REMARK VINA RESULT:    -3.069      2.607      5.130
REMARK INTER + INTRA:          -3.874
REMARK INTER:                  -3.600
REMARK INTRA:                  -0.274
REMARK UNBOUND:                -0.267
REMARK SMILES O=C([O-])C=Cc1ccc(O)c(O)c1
REMARK SMILES IDX 6 1 13 2 7 3 11 4 8 5 9 6 5 7 4 8 2 9 1 10 3 11 12 12 10 14
REMARK H PARENT 12 13 10 15
REMARK Flexibility Score: inf
ROOT
ATOM      1  C   UNL     1       3.242  22.180   5.222  1.00  0.00    -0.022 A 
ATOM      2  C   UNL     1       3.777  22.024   6.511  1.00  0.00     0.058 A 
ATOM      3  C   UNL     1       3.599  23.302   4.461  1.00  0.00     0.012 A 
ATOM      4  C   UNL     1       4.701  22.951   7.014  1.00  0.00     0.157 A 
ATOM      5  C   UNL     1       4.520  24.227   4.960  1.00  0.00     0.051 A 
ATOM      6  C   UNL     1       5.078  24.056   6.231  1.00  0.00     0.157 A 
ENDROOT
BRANCH   1   7
ATOM      7  C   UNL     1       2.228  21.243   4.694  1.00  0.00     0.010 C 
ATOM      8  C   UNL     1       0.899  21.398   4.798  1.00  0.00     0.025 C 
BRANCH   8   9
ATOM      9  C   UNL     1       0.218  22.420   5.614  1.00  0.00     0.064 C 
ATOM     10  O   UNL     1      -0.375  23.371   5.041  1.00  0.00    -0.545 OA
ATOM     11  O   UNL     1       0.154  22.319   7.000  1.00  0.00    -0.545 OA
ENDBRANCH   8   9
ENDBRANCH   1   7
BRANCH   4  12
ATOM     12  O   UNL     1       5.242  22.781   8.288  1.00  0.00    -0.504 OA
ATOM     13  H   UNL     1       5.277  21.870   8.732  1.00  0.00     0.293 HD
ENDBRANCH   4  12
BRANCH   6  14
ATOM     14  O   UNL     1       5.996  24.994   6.701  1.00  0.00    -0.504 OA
ATOM     15  H   UNL     1       5.706  25.893   7.069  1.00  0.00     0.293 HD
ENDBRANCH   6  14
TORSDOF 4
ENDMDL
MODEL 6
REMARK VINA RESULT:    -2.942      2.595      3.927
REMARK INTER + INTRA:          -3.726
REMARK INTER:                  -3.467
REMARK INTRA:                  -0.258
REMARK UNBOUND:                -0.267
REMARK SMILES O=C([O-])C=Cc1ccc(O)c(O)c1
REMARK SMILES IDX 6 1 13 2 7 3 11 4 8 5 9 6 5 7 4 8 2 9 1 10 3 11 12 12 10 14
REMARK H PARENT 12 13 10 15
REMARK Flexibility Score: inf
ROOT
ATOM      1  C   UNL     1       2.701  21.604   5.616  1.00  0.00    -0.022 A 
ATOM      2  C   UNL     1       1.826  22.538   5.038  1.00  0.00     0.058 A 
ATOM      3  C   UNL     1       2.313  20.930   6.783  1.00  0.00     0.012 A 
ATOM      4  C   UNL     1       0.555  22.758   5.589  1.00  0.00     0.157 A 
ATOM      5  C   UNL     1       1.047  21.147   7.334  1.00  0.00     0.051 A 
ATOM      6  C   UNL     1       0.163  22.054   6.741  1.00  0.00     0.157 A 
ENDROOT
BRANCH   1   7
ATOM      7  C   UNL     1       4.063  21.396   5.082  1.00  0.00     0.010 C 
ATOM      8  C   UNL     1       5.138  22.142   5.382  1.00  0.00     0.025 C 
BRANCH   8   9
ATOM      9  C   UNL     1       5.116  23.406   6.141  1.00  0.00     0.064 C 
ATOM     10  O   UNL     1       5.121  24.499   5.517  1.00  0.00    -0.545 OA
ATOM     11  O   UNL     1       5.018  23.420   7.528  1.00  0.00    -0.545 OA
ENDBRANCH   8   9
ENDBRANCH   1   7
BRANCH   4  12
ATOM     12  O   UNL     1      -0.315  23.673   5.000  1.00  0.00    -0.504 OA
ATOM     13  H   UNL     1      -1.321  23.546   5.033  1.00  0.00     0.293 HD
ENDBRANCH   4  12
BRANCH   6  14
ATOM     14  O   UNL     1      -1.094  22.247   7.312  1.00  0.00    -0.504 OA
ATOM     15  H   UNL     1      -1.936  21.858   6.903  1.00  0.00     0.293 HD
ENDBRANCH   6  14
TORSDOF 4
ENDMDL
MODEL 7
REMARK VINA RESULT:    -2.932      2.112      4.901
REMARK INTER + INTRA:          -3.713
REMARK INTER:                  -3.451
REMARK INTRA:                  -0.262
REMARK UNBOUND:                -0.267
REMARK SMILES O=C([O-])C=Cc1ccc(O)c(O)c1
REMARK SMILES IDX 6 1 13 2 7 3 11 4 8 5 9 6 5 7 4 8 2 9 1 10 3 11 12 12 10 14
REMARK H PARENT 12 13 10 15
REMARK Flexibility Score: inf
ROOT
ATOM      1  C   UNL     1       2.555  21.955   5.097  1.00  0.00    -0.022 A 
ATOM      2  C   UNL     1       3.337  23.116   4.974  1.00  0.00     0.058 A 
ATOM      3  C   UNL     1       2.737  21.119   6.207  1.00  0.00     0.012 A 
ATOM      4  C   UNL     1       4.253  23.465   5.976  1.00  0.00     0.157 A 
ATOM      5  C   UNL     1       3.650  21.465   7.208  1.00  0.00     0.051 A 
ATOM      6  C   UNL     1       4.406  22.636   7.101  1.00  0.00     0.157 A 
ENDROOT
BRANCH   1   7
ATOM      7  C   UNL     1       1.623  21.543   4.027  1.00  0.00     0.010 C 
ATOM      8  C   UNL     1       0.375  22.010   3.862  1.00  0.00     0.025 C 
BRANCH   8   9
ATOM      9  C   UNL     1      -0.352  22.865   4.818  1.00  0.00     0.064 C 
ATOM     10  O   UNL     1      -0.670  24.035   4.479  1.00  0.00    -0.545 OA
ATOM     11  O   UNL     1      -0.756  22.387   6.060  1.00  0.00    -0.545 OA
ENDBRANCH   8   9
ENDBRANCH   1   7
BRANCH   4  12
ATOM     12  O   UNL     1       5.014  24.627   5.857  1.00  0.00    -0.504 OA
ATOM     13  H   UNL     1       5.364  25.119   6.672  1.00  0.00     0.293 HD
ENDBRANCH   4  12
BRANCH   6  14
ATOM     14  O   UNL     1       5.307  22.956   8.117  1.00  0.00    -0.504 OA
ATOM     15  H   UNL     1       6.276  23.181   7.925  1.00  0.00     0.293 HD
ENDBRANCH   6  14
TORSDOF 4
ENDMDL
MODEL 8
REMARK VINA RESULT:    -2.853     23.641     24.544
REMARK INTER + INTRA:          -3.620
REMARK INTER:                  -3.494
REMARK INTRA:                  -0.126
REMARK UNBOUND:                -0.267
REMARK SMILES O=C([O-])C=Cc1ccc(O)c(O)c1
REMARK SMILES IDX 6 1 13 2 7 3 11 4 8 5 9 6 5 7 4 8 2 9 1 10 3 11 12 12 10 14
REMARK H PARENT 12 13 10 15
REMARK Flexibility Score: inf
ROOT
ATOM      1  C   UNL     1     -10.735  40.391  18.097  1.00  0.00    -0.022 A 
ATOM      2  C   UNL     1      -9.733  40.000  17.193  1.00  0.00     0.058 A 
ATOM      3  C   UNL     1     -11.985  40.792  17.606  1.00  0.00     0.012 A 
ATOM      4  C   UNL     1      -9.995  39.959  15.816  1.00  0.00     0.157 A 
ATOM      5  C   UNL     1     -12.249  40.752  16.234  1.00  0.00     0.051 A 
ATOM      6  C   UNL     1     -11.262  40.333  15.336  1.00  0.00     0.157 A 
ENDROOT
BRANCH   1   7
ATOM      7  C   UNL     1     -10.462  40.490  19.546  1.00  0.00     0.010 C 
ATOM      8  C   UNL     1     -10.825  39.585  20.469  1.00  0.00     0.025 C 
BRANCH   8   9
ATOM      9  C   UNL     1     -11.717  38.435  20.234  1.00  0.00     0.064 C 
ATOM     10  O   UNL     1     -11.276  37.269  20.404  1.00  0.00    -0.545 OA
ATOM     11  O   UNL     1     -13.055  38.610  19.898  1.00  0.00    -0.545 OA
ENDBRANCH   8   9
ENDBRANCH   1   7
BRANCH   4  12
ATOM     12  O   UNL     1      -9.002  39.554  14.925  1.00  0.00    -0.504 OA
ATOM     13  H   UNL     1      -8.063  39.932  14.970  1.00  0.00     0.293 HD
ENDBRANCH   4  12
BRANCH   6  14
ATOM     14  O   UNL     1     -11.555  40.301  13.973  1.00  0.00    -0.504 OA
ATOM     15  H   UNL     1     -12.401  40.713  13.595  1.00  0.00     0.293 HD
ENDBRANCH   6  14
TORSDOF 4
ENDMDL
