MODEL 1
REMARK VINA RESULT:    -8.887      0.000      0.000
REMARK INTER + INTRA:         -11.003
REMARK INTER:                 -10.705
REMARK INTRA:                  -0.298
REMARK UNBOUND:                -0.298
REMARK SMILES O=c1c(O)c(-c2ccc(O)c(O)c2)oc2cc(O)cc(O)c12
REMARK SMILES IDX 5 1 3 2 2 3 1 4 22 5 20 6 19 7 17 8 16 9 15 10 14 11 6 12
REMARK SMILES IDX 7 13 8 14 9 15 13 16 11 17 10 18 12 20 4 22 21 24 18 26
REMARK H PARENT 10 19 12 21 4 23 21 25 18 27
REMARK Flexibility Score: inf
ROOT
ATOM      1  C   UNL     1     137.342 -17.900  79.595  1.00  0.00     0.180 A 
ATOM      2  C   UNL     1     138.453 -18.339  78.854  1.00  0.00     0.208 A 
ATOM      3  C   UNL     1     139.663 -17.635  78.958  1.00  0.00     0.238 A 
ATOM      4  O   UNL     1     140.638 -18.000  78.252  1.00  0.00    -0.285 OA
ATOM      5  C   UNL     1     139.751 -16.510  79.813  1.00  0.00     0.111 A 
ATOM      6  C   UNL     1     140.938 -15.746  80.027  1.00  0.00     0.134 A 
ATOM      7  C   UNL     1     140.877 -14.576  80.793  1.00  0.00     0.093 A 
ATOM      8  C   UNL     1     139.687 -14.177  81.408  1.00  0.00     0.123 A 
ATOM      9  C   UNL     1     138.537 -14.949  81.253  1.00  0.00     0.094 A 
ATOM     10  C   UNL     1     138.559 -16.103  80.465  1.00  0.00     0.146 A 
ATOM     11  O   UNL     1     137.438 -16.803  80.337  1.00  0.00    -0.452 OA
ENDROOT
BRANCH   1  12
ATOM     12  C   UNL     1     136.041 -18.606  79.556  1.00  0.00     0.025 A 
ATOM     13  C   UNL     1     135.734 -19.544  80.555  1.00  0.00     0.016 A 
ATOM     14  C   UNL     1     134.521 -20.236  80.526  1.00  0.00     0.051 A 
ATOM     15  C   UNL     1     133.604 -20.016  79.494  1.00  0.00     0.157 A 
ATOM     16  C   UNL     1     135.127 -18.400  78.507  1.00  0.00     0.062 A 
ATOM     17  C   UNL     1     133.910 -19.097  78.476  1.00  0.00     0.158 A 
BRANCH  15  18
ATOM     18  O   UNL     1     132.401 -20.720  79.493  1.00  0.00    -0.504 OA
ATOM     19  H   UNL     1     132.301 -21.617  79.952  1.00  0.00     0.293 HD
ENDBRANCH  15  18
BRANCH  17  20
ATOM     20  O   UNL     1     133.007 -18.882  77.436  1.00  0.00    -0.504 OA
ATOM     21  H   UNL     1     132.378 -19.612  77.119  1.00  0.00     0.293 HD
ENDBRANCH  17  20
ENDBRANCH   1  12
BRANCH   2  22
ATOM     22  O   UNL     1     138.338 -19.439  77.999  1.00  0.00    -0.502 OA
ATOM     23  H   UNL     1     139.094 -19.742  77.398  1.00  0.00     0.293 HD
ENDBRANCH   2  22
BRANCH   6  24
ATOM     24  O   UNL     1     142.197 -16.104  79.535  1.00  0.00    -0.507 OA
ATOM     25  H   UNL     1     142.661 -15.651  78.762  1.00  0.00     0.293 HD
ENDBRANCH   6  24
BRANCH   8  26
ATOM     26  O   UNL     1     139.639 -13.020  82.181  1.00  0.00    -0.508 OA
ATOM     27  H   UNL     1     140.404 -12.758  82.791  1.00  0.00     0.293 HD
ENDBRANCH   8  26
TORSDOF 6
ENDMDL
MODEL 2
REMARK VINA RESULT:    -7.503      3.015      6.228
REMARK INTER + INTRA:          -9.336
REMARK INTER:                  -9.023
REMARK INTRA:                  -0.314
REMARK UNBOUND:                -0.298
REMARK SMILES O=c1c(O)c(-c2ccc(O)c(O)c2)oc2cc(O)cc(O)c12
REMARK SMILES IDX 5 1 3 2 2 3 1 4 22 5 20 6 19 7 17 8 16 9 15 10 14 11 6 12
REMARK SMILES IDX 7 13 8 14 9 15 13 16 11 17 10 18 12 20 4 22 21 24 18 26
REMARK H PARENT 10 19 12 21 4 23 21 25 18 27
REMARK Flexibility Score: inf
ROOT
ATOM      1  C   UNL     1     139.032 -19.532  78.708  1.00  0.00     0.180 A 
ATOM      2  C   UNL     1     137.796 -20.020  78.252  1.00  0.00     0.208 A 
ATOM      3  C   UNL     1     136.616 -19.569  78.866  1.00  0.00     0.238 A 
ATOM      4  O   UNL     1     135.517 -20.050  78.489  1.00  0.00    -0.285 OA
ATOM      5  C   UNL     1     136.688 -18.625  79.919  1.00  0.00     0.111 A 
ATOM      6  C   UNL     1     135.555 -18.069  80.587  1.00  0.00     0.134 A 
ATOM      7  C   UNL     1     135.747 -17.244  81.701  1.00  0.00     0.093 A 
ATOM      8  C   UNL     1     137.031 -16.900  82.131  1.00  0.00     0.123 A 
ATOM      9  C   UNL     1     138.143 -17.390  81.449  1.00  0.00     0.094 A 
ATOM     10  C   UNL     1     137.983 -18.245  80.356  1.00  0.00     0.146 A 
ATOM     11  O   UNL     1     139.069 -18.697  79.741  1.00  0.00    -0.452 OA
ENDROOT
BRANCH   1  12
ATOM     12  C   UNL     1     140.316 -19.940  78.093  1.00  0.00     0.025 A 
ATOM     13  C   UNL     1     140.865 -19.165  77.059  1.00  0.00     0.016 A 
ATOM     14  C   UNL     1     142.064 -19.543  76.451  1.00  0.00     0.051 A 
ATOM     15  C   UNL     1     142.725 -20.707  76.854  1.00  0.00     0.157 A 
ATOM     16  C   UNL     1     140.971 -21.122  78.484  1.00  0.00     0.062 A 
ATOM     17  C   UNL     1     142.175 -21.504  77.872  1.00  0.00     0.158 A 
BRANCH  15  18
ATOM     18  O   UNL     1     143.922 -21.058  76.230  1.00  0.00    -0.504 OA
ATOM     19  H   UNL     1     143.979 -21.233  75.235  1.00  0.00     0.293 HD
ENDBRANCH  15  18
BRANCH  17  20
ATOM     20  O   UNL     1     142.821 -22.673  78.269  1.00  0.00    -0.504 OA
ATOM     21  H   UNL     1     142.729 -23.037  79.211  1.00  0.00     0.293 HD
ENDBRANCH  17  20
ENDBRANCH   1  12
BRANCH   2  22
ATOM     22  O   UNL     1     137.750 -20.967  77.225  1.00  0.00    -0.502 OA
ATOM     23  H   UNL     1     137.142 -21.777  77.259  1.00  0.00     0.293 HD
ENDBRANCH   2  22
BRANCH   6  24
ATOM     24  O   UNL     1     134.232 -18.275  80.183  1.00  0.00    -0.507 OA
ATOM     25  H   UNL     1     133.947 -18.910  79.452  1.00  0.00     0.293 HD
ENDBRANCH   6  24
BRANCH   8  26
ATOM     26  O   UNL     1     137.213 -16.065  83.230  1.00  0.00    -0.508 OA
ATOM     27  H   UNL     1     136.961 -15.084  83.199  1.00  0.00     0.293 HD
ENDBRANCH   8  26
TORSDOF 6
ENDMDL
MODEL 3
REMARK VINA RESULT:    -7.229      3.779      6.213
REMARK INTER + INTRA:          -9.006
REMARK INTER:                  -8.862
REMARK INTRA:                  -0.144
REMARK UNBOUND:                -0.298
REMARK SMILES O=c1c(O)c(-c2ccc(O)c(O)c2)oc2cc(O)cc(O)c12
REMARK SMILES IDX 5 1 3 2 2 3 1 4 22 5 20 6 19 7 17 8 16 9 15 10 14 11 6 12
REMARK SMILES IDX 7 13 8 14 9 15 13 16 11 17 10 18 12 20 4 22 21 24 18 26
REMARK H PARENT 10 19 12 21 4 23 21 25 18 27
REMARK Flexibility Score: inf
ROOT
ATOM      1  C   UNL     1     134.021 -18.986  76.956  1.00  0.00     0.180 A 
ATOM      2  C   UNL     1     133.306 -19.441  78.077  1.00  0.00     0.208 A 
ATOM      3  C   UNL     1     134.016 -19.914  79.193  1.00  0.00     0.238 A 
ATOM      4  O   UNL     1     133.370 -20.370  80.171  1.00  0.00    -0.285 OA
ATOM      5  C   UNL     1     135.431 -19.912  79.178  1.00  0.00     0.111 A 
ATOM      6  C   UNL     1     136.253 -20.331  80.268  1.00  0.00     0.134 A 
ATOM      7  C   UNL     1     137.640 -20.410  80.096  1.00  0.00     0.093 A 
ATOM      8  C   UNL     1     138.241 -20.022  78.896  1.00  0.00     0.123 A 
ATOM      9  C   UNL     1     137.452 -19.556  77.847  1.00  0.00     0.094 A 
ATOM     10  C   UNL     1     136.062 -19.500  77.977  1.00  0.00     0.146 A 
ATOM     11  O   UNL     1     135.347 -19.058  76.948  1.00  0.00    -0.452 OA
ENDROOT
BRANCH   1  12
ATOM     12  C   UNL     1     133.343 -18.450  75.754  1.00  0.00     0.025 A 
ATOM     13  C   UNL     1     133.580 -19.044  74.504  1.00  0.00     0.016 A 
ATOM     14  C   UNL     1     132.967 -18.542  73.354  1.00  0.00     0.051 A 
ATOM     15  C   UNL     1     132.123 -17.430  73.430  1.00  0.00     0.157 A 
ATOM     16  C   UNL     1     132.510 -17.319  75.826  1.00  0.00     0.062 A 
ATOM     17  C   UNL     1     131.896 -16.811  74.672  1.00  0.00     0.158 A 
BRANCH  15  18
ATOM     18  O   UNL     1     131.524 -16.952  72.266  1.00  0.00    -0.504 OA
ATOM     19  H   UNL     1     130.667 -16.412  72.284  1.00  0.00     0.293 HD
ENDBRANCH  15  18
BRANCH  17  20
ATOM     20  O   UNL     1     131.066 -15.694  74.753  1.00  0.00    -0.504 OA
ATOM     21  H   UNL     1     130.785 -15.306  75.646  1.00  0.00     0.293 HD
ENDBRANCH  17  20
ENDBRANCH   1  12
BRANCH   2  22
ATOM     22  O   UNL     1     131.908 -19.454  78.061  1.00  0.00    -0.502 OA
ATOM     23  H   UNL     1     131.373 -20.314  78.043  1.00  0.00     0.293 HD
ENDBRANCH   2  22
BRANCH   6  24
ATOM     24  O   UNL     1     135.762 -20.653  81.537  1.00  0.00    -0.507 OA
ATOM     25  H   UNL     1     135.288 -21.513  81.768  1.00  0.00     0.293 HD
ENDBRANCH   6  24
BRANCH   8  26
ATOM     26  O   UNL     1     139.623 -20.089  78.739  1.00  0.00    -0.508 OA
ATOM     27  H   UNL     1     140.210 -19.271  78.854  1.00  0.00     0.293 HD
ENDBRANCH   8  26
TORSDOF 6
ENDMDL
MODEL 4
REMARK VINA RESULT:    -6.902      2.707      5.178
REMARK INTER + INTRA:          -8.613
REMARK INTER:                  -8.443
REMARK INTRA:                  -0.170
REMARK UNBOUND:                -0.298
REMARK SMILES O=c1c(O)c(-c2ccc(O)c(O)c2)oc2cc(O)cc(O)c12
REMARK SMILES IDX 5 1 3 2 2 3 1 4 22 5 20 6 19 7 17 8 16 9 15 10 14 11 6 12
REMARK SMILES IDX 7 13 8 14 9 15 13 16 11 17 10 18 12 20 4 22 21 24 18 26
REMARK H PARENT 10 19 12 21 4 23 21 25 18 27
REMARK Flexibility Score: inf
ROOT
ATOM      1  C   UNL     1     139.413 -17.985  78.854  1.00  0.00     0.180 A 
ATOM      2  C   UNL     1     138.045 -17.845  78.564  1.00  0.00     0.208 A 
ATOM      3  C   UNL     1     137.361 -16.713  79.036  1.00  0.00     0.238 A 
ATOM      4  O   UNL     1     136.125 -16.620  78.820  1.00  0.00    -0.285 OA
ATOM      5  C   UNL     1     138.056 -15.729  79.780  1.00  0.00     0.111 A 
ATOM      6  C   UNL     1     137.473 -14.524  80.273  1.00  0.00     0.134 A 
ATOM      7  C   UNL     1     138.222 -13.685  81.107  1.00  0.00     0.093 A 
ATOM      8  C   UNL     1     139.554 -13.975  81.412  1.00  0.00     0.123 A 
ATOM      9  C   UNL     1     140.151 -15.119  80.887  1.00  0.00     0.094 A 
ATOM     10  C   UNL     1     139.417 -15.993  80.081  1.00  0.00     0.146 A 
ATOM     11  O   UNL     1     140.022 -17.077  79.609  1.00  0.00    -0.452 OA
ENDROOT
BRANCH   1  12
ATOM     12  C   UNL     1     140.207 -19.137  78.369  1.00  0.00     0.025 A 
ATOM     13  C   UNL     1     139.946 -20.419  78.877  1.00  0.00     0.016 A 
ATOM     14  C   UNL     1     140.696 -21.517  78.449  1.00  0.00     0.051 A 
ATOM     15  C   UNL     1     141.728 -21.350  77.521  1.00  0.00     0.157 A 
ATOM     16  C   UNL     1     141.259 -18.966  77.451  1.00  0.00     0.062 A 
ATOM     17  C   UNL     1     142.016 -20.067  77.022  1.00  0.00     0.158 A 
BRANCH  15  18
ATOM     18  O   UNL     1     142.459 -22.464  77.111  1.00  0.00    -0.504 OA
ATOM     19  H   UNL     1     142.232 -22.975  76.266  1.00  0.00     0.293 HD
ENDBRANCH  15  18
BRANCH  17  20
ATOM     20  O   UNL     1     143.052 -19.891  76.107  1.00  0.00    -0.504 OA
ATOM     21  H   UNL     1     143.248 -20.578  75.388  1.00  0.00     0.293 HD
ENDBRANCH  17  20
ENDBRANCH   1  12
BRANCH   2  22
ATOM     22  O   UNL     1     137.373 -18.839  77.847  1.00  0.00    -0.502 OA
ATOM     23  H   UNL     1     136.982 -18.676  76.927  1.00  0.00     0.293 HD
ENDBRANCH   2  22
BRANCH   6  24
ATOM     24  O   UNL     1     136.180 -14.094  79.955  1.00  0.00    -0.507 OA
ATOM     25  H   UNL     1     135.359 -14.287  80.508  1.00  0.00     0.293 HD
ENDBRANCH   6  24
BRANCH   8  26
ATOM     26  O   UNL     1     140.297 -13.127  82.230  1.00  0.00    -0.508 OA
ATOM     27  H   UNL     1     140.223 -13.165  83.240  1.00  0.00     0.293 HD
ENDBRANCH   8  26
TORSDOF 6
ENDMDL
MODEL 5
REMARK VINA RESULT:    -6.845      2.748      6.637
REMARK INTER + INTRA:          -8.543
REMARK INTER:                  -8.617
REMARK INTRA:                   0.074
REMARK UNBOUND:                -0.298
REMARK SMILES O=c1c(O)c(-c2ccc(O)c(O)c2)oc2cc(O)cc(O)c12
REMARK SMILES IDX 5 1 3 2 2 3 1 4 22 5 20 6 19 7 17 8 16 9 15 10 14 11 6 12
REMARK SMILES IDX 7 13 8 14 9 15 13 16 11 17 10 18 12 20 4 22 21 24 18 26
REMARK H PARENT 10 19 12 21 4 23 21 25 18 27
REMARK Flexibility Score: inf
ROOT
ATOM      1  C   UNL     1     139.207 -19.399  78.779  1.00  0.00     0.180 A 
ATOM      2  C   UNL     1     139.289 -18.065  79.213  1.00  0.00     0.208 A 
ATOM      3  C   UNL     1     138.139 -17.444  79.726  1.00  0.00     0.238 A 
ATOM      4  O   UNL     1     138.205 -16.233  80.062  1.00  0.00    -0.285 OA
ATOM      5  C   UNL     1     136.926 -18.168  79.811  1.00  0.00     0.111 A 
ATOM      6  C   UNL     1     135.709 -17.652  80.350  1.00  0.00     0.134 A 
ATOM      7  C   UNL     1     134.538 -18.413  80.265  1.00  0.00     0.093 A 
ATOM      8  C   UNL     1     134.552 -19.700  79.719  1.00  0.00     0.123 A 
ATOM      9  C   UNL     1     135.747 -20.236  79.244  1.00  0.00     0.094 A 
ATOM     10  C   UNL     1     136.925 -19.485  79.284  1.00  0.00     0.146 A 
ATOM     11  O   UNL     1     138.040 -20.031  78.811  1.00  0.00    -0.452 OA
ENDROOT
BRANCH   1  12
ATOM     12  C   UNL     1     140.383 -20.129  78.251  1.00  0.00     0.025 A 
ATOM     13  C   UNL     1     140.679 -21.410  78.745  1.00  0.00     0.016 A 
ATOM     14  C   UNL     1     141.795 -22.108  78.276  1.00  0.00     0.051 A 
ATOM     15  C   UNL     1     142.639 -21.534  77.321  1.00  0.00     0.157 A 
ATOM     16  C   UNL     1     141.244 -19.544  77.306  1.00  0.00     0.062 A 
ATOM     17  C   UNL     1     142.366 -20.243  76.836  1.00  0.00     0.158 A 
BRANCH  15  18
ATOM     18  O   UNL     1     143.744 -22.255  76.870  1.00  0.00    -0.504 OA
ATOM     19  H   UNL     1     144.616 -22.281  77.384  1.00  0.00     0.293 HD
ENDBRANCH  15  18
BRANCH  17  20
ATOM     20  O   UNL     1     143.211 -19.659  75.894  1.00  0.00    -0.504 OA
ATOM     21  H   UNL     1     142.953 -18.811  75.402  1.00  0.00     0.293 HD
ENDBRANCH  17  20
ENDBRANCH   1  12
BRANCH   2  22
ATOM     22  O   UNL     1     140.491 -17.362  79.100  1.00  0.00    -0.502 OA
ATOM     23  H   UNL     1     140.645 -16.658  78.387  1.00  0.00     0.293 HD
ENDBRANCH   2  22
BRANCH   6  24
ATOM     24  O   UNL     1     135.605 -16.417  80.998  1.00  0.00    -0.507 OA
ATOM     25  H   UNL     1     136.332 -16.001  81.561  1.00  0.00     0.293 HD
ENDBRANCH   6  24
BRANCH   8  26
ATOM     26  O   UNL     1     133.385 -20.457  79.653  1.00  0.00    -0.508 OA
ATOM     27  H   UNL     1     132.635 -20.334  80.323  1.00  0.00     0.293 HD
ENDBRANCH   8  26
TORSDOF 6
ENDMDL
MODEL 6
REMARK VINA RESULT:    -6.843      1.441      7.145
REMARK INTER + INTRA:          -8.541
REMARK INTER:                  -8.548
REMARK INTRA:                   0.007
REMARK UNBOUND:                -0.298
REMARK SMILES O=c1c(O)c(-c2ccc(O)c(O)c2)oc2cc(O)cc(O)c12
REMARK SMILES IDX 5 1 3 2 2 3 1 4 22 5 20 6 19 7 17 8 16 9 15 10 14 11 6 12
REMARK SMILES IDX 7 13 8 14 9 15 13 16 11 17 10 18 12 20 4 22 21 24 18 26
REMARK H PARENT 10 19 12 21 4 23 21 25 18 27
REMARK Flexibility Score: inf
ROOT
ATOM      1  C   UNL     1     137.911 -17.411  79.862  1.00  0.00     0.180 A 
ATOM      2  C   UNL     1     137.267 -17.865  81.026  1.00  0.00     0.208 A 
ATOM      3  C   UNL     1     136.044 -18.545  80.908  1.00  0.00     0.238 A 
ATOM      4  O   UNL     1     135.447 -18.901  81.956  1.00  0.00    -0.285 OA
ATOM      5  C   UNL     1     135.489 -18.776  79.627  1.00  0.00     0.111 A 
ATOM      6  C   UNL     1     134.276 -19.490  79.386  1.00  0.00     0.134 A 
ATOM      7  C   UNL     1     133.753 -19.545  78.088  1.00  0.00     0.093 A 
ATOM      8  C   UNL     1     134.433 -18.970  77.012  1.00  0.00     0.123 A 
ATOM      9  C   UNL     1     135.648 -18.323  77.228  1.00  0.00     0.094 A 
ATOM     10  C   UNL     1     136.176 -18.220  78.517  1.00  0.00     0.146 A 
ATOM     11  O   UNL     1     137.332 -17.586  78.680  1.00  0.00    -0.452 OA
ENDROOT
BRANCH   1  12
ATOM     12  C   UNL     1     139.214 -16.710  79.905  1.00  0.00     0.025 A 
ATOM     13  C   UNL     1     140.284 -17.191  79.133  1.00  0.00     0.016 A 
ATOM     14  C   UNL     1     141.527 -16.557  79.175  1.00  0.00     0.051 A 
ATOM     15  C   UNL     1     141.728 -15.444  79.997  1.00  0.00     0.157 A 
ATOM     16  C   UNL     1     139.422 -15.602  80.747  1.00  0.00     0.062 A 
ATOM     17  C   UNL     1     140.671 -14.966  80.792  1.00  0.00     0.158 A 
BRANCH  15  18
ATOM     18  O   UNL     1     142.979 -14.830  80.015  1.00  0.00    -0.504 OA
ATOM     19  H   UNL     1     143.608 -14.865  79.223  1.00  0.00     0.293 HD
ENDBRANCH  15  18
BRANCH  17  20
ATOM     20  O   UNL     1     140.867 -13.865  81.624  1.00  0.00    -0.504 OA
ATOM     21  H   UNL     1     141.783 -13.449  81.746  1.00  0.00     0.293 HD
ENDBRANCH  17  20
ENDBRANCH   1  12
BRANCH   2  22
ATOM     22  O   UNL     1     137.822 -17.606  82.282  1.00  0.00    -0.502 OA
ATOM     23  H   UNL     1     138.718 -17.984  82.569  1.00  0.00     0.293 HD
ENDBRANCH   2  22
BRANCH   6  24
ATOM     24  O   UNL     1     133.565 -20.178  80.375  1.00  0.00    -0.507 OA
ATOM     25  H   UNL     1     132.816 -20.828  80.195  1.00  0.00     0.293 HD
ENDBRANCH   6  24
BRANCH   8  26
ATOM     26  O   UNL     1     133.914 -19.044  75.722  1.00  0.00    -0.508 OA
ATOM     27  H   UNL     1     132.915 -19.030  75.550  1.00  0.00     0.293 HD
ENDBRANCH   8  26
TORSDOF 6
ENDMDL
MODEL 7
REMARK VINA RESULT:    -6.712      3.002      5.721
REMARK INTER + INTRA:          -8.384
REMARK INTER:                  -8.453
REMARK INTRA:                   0.069
REMARK UNBOUND:                -0.298
REMARK SMILES O=c1c(O)c(-c2ccc(O)c(O)c2)oc2cc(O)cc(O)c12
REMARK SMILES IDX 5 1 3 2 2 3 1 4 22 5 20 6 19 7 17 8 16 9 15 10 14 11 6 12
REMARK SMILES IDX 7 13 8 14 9 15 13 16 11 17 10 18 12 20 4 22 21 24 18 26
REMARK H PARENT 10 19 12 21 4 23 21 25 18 27
REMARK Flexibility Score: inf
ROOT
ATOM      1  C   UNL     1     133.926 -18.740  77.221  1.00  0.00     0.180 A 
ATOM      2  C   UNL     1     133.437 -19.453  78.329  1.00  0.00     0.208 A 
ATOM      3  C   UNL     1     134.320 -19.782  79.371  1.00  0.00     0.238 A 
ATOM      4  O   UNL     1     133.889 -20.467  80.334  1.00  0.00    -0.285 OA
ATOM      5  C   UNL     1     135.675 -19.381  79.297  1.00  0.00     0.111 A 
ATOM      6  C   UNL     1     136.649 -19.624  80.313  1.00  0.00     0.134 A 
ATOM      7  C   UNL     1     137.989 -19.297  80.078  1.00  0.00     0.093 A 
ATOM      8  C   UNL     1     138.381 -18.675  78.889  1.00  0.00     0.123 A 
ATOM      9  C   UNL     1     137.429 -18.379  77.917  1.00  0.00     0.094 A 
ATOM     10  C   UNL     1     136.089 -18.726  78.109  1.00  0.00     0.146 A 
ATOM     11  O   UNL     1     135.216 -18.435  77.152  1.00  0.00    -0.452 OA
ENDROOT
BRANCH   1  12
ATOM     12  C   UNL     1     133.051 -18.335  76.097  1.00  0.00     0.025 A 
ATOM     13  C   UNL     1     131.804 -17.748  76.368  1.00  0.00     0.016 A 
ATOM     14  C   UNL     1     130.954 -17.378  75.324  1.00  0.00     0.051 A 
ATOM     15  C   UNL     1     131.326 -17.602  73.995  1.00  0.00     0.157 A 
ATOM     16  C   UNL     1     133.415 -18.579  74.760  1.00  0.00     0.062 A 
ATOM     17  C   UNL     1     132.562 -18.210  73.710  1.00  0.00     0.158 A 
BRANCH  15  18
ATOM     18  O   UNL     1     130.459 -17.219  72.973  1.00  0.00    -0.504 OA
ATOM     19  H   UNL     1     129.453 -17.300  73.062  1.00  0.00     0.293 HD
ENDBRANCH  15  18
BRANCH  17  20
ATOM     20  O   UNL     1     132.933 -18.448  72.389  1.00  0.00    -0.504 OA
ATOM     21  H   UNL     1     132.378 -19.038  71.779  1.00  0.00     0.293 HD
ENDBRANCH  17  20
ENDBRANCH   1  12
BRANCH   2  22
ATOM     22  O   UNL     1     132.100 -19.859  78.370  1.00  0.00    -0.502 OA
ATOM     23  H   UNL     1     131.828 -20.834  78.380  1.00  0.00     0.293 HD
ENDBRANCH   2  22
BRANCH   6  24
ATOM     24  O   UNL     1     136.348 -20.157  81.571  1.00  0.00    -0.507 OA
ATOM     25  H   UNL     1     136.039 -21.104  81.734  1.00  0.00     0.293 HD
ENDBRANCH   6  24
BRANCH   8  26
ATOM     26  O   UNL     1     139.715 -18.338  78.670  1.00  0.00    -0.508 OA
ATOM     27  H   UNL     1     140.039 -18.016  77.765  1.00  0.00     0.293 HD
ENDBRANCH   8  26
TORSDOF 6
ENDMDL
