MODEL 1
REMARK VINA RESULT:     1.733      0.000      0.000
REMARK INTER + INTRA:           2.353
REMARK INTER:                   2.948
REMARK INTRA:                  -0.596
REMARK UNBOUND:                -0.596
REMARK SMILES CCCCCCCCCCCCCC(=O)[O-]
REMARK SMILES IDX 8 1 9 2 10 3 11 4 12 5 13 6 14 7 15 8 16 9 7 10 6 11 5 12
REMARK SMILES IDX 4 13 3 14 2 15 1 16
REMARK H PARENT
REMARK Flexibility Score: inf
ROOT
ATOM      1  C   UNL     1     104.343 106.161 107.187  1.00  0.00     0.000 C 
ENDROOT
BRANCH   1   2
ATOM      2  C   UNL     1     104.651 104.654 107.180  1.00  0.00     0.000 C 
BRANCH   2   3
ATOM      3  C   UNL     1     103.369 103.795 107.186  1.00  0.00     0.000 C 
BRANCH   3   4
ATOM      4  C   UNL     1     103.618 102.315 107.536  1.00  0.00     0.000 C 
BRANCH   4   5
ATOM      5  C   UNL     1     103.400 101.952 109.017  1.00  0.00     0.006 C 
BRANCH   5   6
ATOM      6  C   UNL     1     103.105 103.157 109.925  1.00  0.00     0.053 C 
BRANCH   6   7
ATOM      7  C   UNL     1     103.596 102.938 111.322  1.00  0.00     0.041 C 
ATOM      8  O   UNL     1     103.981 103.914 112.019  1.00  0.00    -0.550 OA
ATOM      9  O   UNL     1     103.658 101.653 111.844  1.00  0.00    -0.550 OA
ENDBRANCH   6   7
ENDBRANCH   5   6
ENDBRANCH   4   5
ENDBRANCH   3   4
ENDBRANCH   2   3
ENDBRANCH   1   2
BRANCH   1  10
ATOM     10  C   UNL     1     104.661 106.837 105.844  1.00  0.00     0.000 C 
BRANCH  10  11
ATOM     11  C   UNL     1     104.722 105.835 104.680  1.00  0.00    -0.000 C 
BRANCH  11  12
ATOM     12  C   UNL     1     104.593 106.554 103.330  1.00  0.00    -0.000 C 
BRANCH  12  13
ATOM     13  C   UNL     1     104.281 105.596 102.165  1.00  0.00    -0.000 C 
BRANCH  13  14
ATOM     14  C   UNL     1     104.573 104.111 102.449  1.00  0.00    -0.000 C 
BRANCH  14  15
ATOM     15  C   UNL     1     103.314 103.234 102.398  1.00  0.00    -0.003 C 
ATOM     16  C   UNL     1     103.662 101.760 102.585  1.00  0.00     0.004 C 
ENDBRANCH  14  15
ENDBRANCH  13  14
ENDBRANCH  12  13
ENDBRANCH  11  12
ENDBRANCH  10  11
ENDBRANCH   1  10
TORSDOF 12
ENDMDL
MODEL 2
REMARK VINA RESULT:     1.779      3.148      4.669
REMARK INTER + INTRA:           2.431
REMARK INTER:                   2.977
REMARK INTRA:                  -0.546
REMARK UNBOUND:                -0.596
REMARK SMILES CCCCCCCCCCCCCC(=O)[O-]
REMARK SMILES IDX 8 1 9 2 10 3 11 4 12 5 13 6 14 7 15 8 16 9 7 10 6 11 5 12
REMARK SMILES IDX 4 13 3 14 2 15 1 16
REMARK H PARENT
REMARK Flexibility Score: inf
ROOT
ATOM      1  C   UNL     1     104.348 105.751 102.548  1.00  0.00     0.000 C 
ENDROOT
BRANCH   1   2
ATOM      2  C   UNL     1     104.641 104.258 102.319  1.00  0.00     0.000 C 
BRANCH   2   3
ATOM      3  C   UNL     1     103.358 103.401 102.341  1.00  0.00     0.000 C 
BRANCH   3   4
ATOM      4  C   UNL     1     103.563 101.994 102.938  1.00  0.00     0.000 C 
BRANCH   4   5
ATOM      5  C   UNL     1     103.271 101.880 104.446  1.00  0.00     0.006 C 
BRANCH   5   6
ATOM      6  C   UNL     1     103.581 103.156 105.246  1.00  0.00     0.053 C 
BRANCH   6   7
ATOM      7  C   UNL     1     103.637 102.892 106.719  1.00  0.00     0.041 C 
ATOM      8  O   UNL     1     103.669 103.851 107.535  1.00  0.00    -0.550 OA
ATOM      9  O   UNL     1     103.688 101.587 107.190  1.00  0.00    -0.550 OA
ENDBRANCH   6   7
ENDBRANCH   5   6
ENDBRANCH   4   5
ENDBRANCH   3   4
ENDBRANCH   2   3
ENDBRANCH   1   2
BRANCH   1  10
ATOM     10  C   UNL     1     104.445 106.578 101.256  1.00  0.00     0.000 C 
BRANCH  10  11
ATOM     11  C   UNL     1     104.746 105.712 100.023  1.00  0.00    -0.000 C 
BRANCH  11  12
ATOM     12  C   UNL     1     104.500 106.498  98.727  1.00  0.00    -0.000 C 
BRANCH  12  13
ATOM     13  C   UNL     1     104.405 105.594  97.484  1.00  0.00    -0.000 C 
BRANCH  13  14
ATOM     14  C   UNL     1     104.619 104.094  97.753  1.00  0.00    -0.000 C 
BRANCH  14  15
ATOM     15  C   UNL     1     103.313 103.288  97.715  1.00  0.00    -0.003 C 
ATOM     16  C   UNL     1     103.584 101.793  97.860  1.00  0.00     0.004 C 
ENDBRANCH  14  15
ENDBRANCH  13  14
ENDBRANCH  12  13
ENDBRANCH  11  12
ENDBRANCH  10  11
ENDBRANCH   1  10
TORSDOF 12
ENDMDL
MODEL 3
REMARK VINA RESULT:     1.814      3.283      4.539
REMARK INTER + INTRA:           2.492
REMARK INTER:                   3.086
REMARK INTRA:                  -0.595
REMARK UNBOUND:                -0.596
REMARK SMILES CCCCCCCCCCCCCC(=O)[O-]
REMARK SMILES IDX 8 1 9 2 10 3 11 4 12 5 13 6 14 7 15 8 16 9 7 10 6 11 5 12
REMARK SMILES IDX 4 13 3 14 2 15 1 16
REMARK H PARENT
REMARK Flexibility Score: inf
ROOT
ATOM      1  C   UNL     1     104.434 104.930 102.719  1.00  0.00     0.000 C 
ENDROOT
BRANCH   1   2
ATOM      2  C   UNL     1     103.873 103.557 102.313  1.00  0.00     0.000 C 
BRANCH   2   3
ATOM      3  C   UNL     1     103.543 102.676 103.537  1.00  0.00     0.000 C 
BRANCH   3   4
ATOM      4  C   UNL     1     103.178 103.482 104.799  1.00  0.00     0.000 C 
BRANCH   4   5
ATOM      5  C   UNL     1     103.705 102.893 106.121  1.00  0.00     0.006 C 
BRANCH   5   6
ATOM      6  C   UNL     1     103.616 103.852 107.319  1.00  0.00     0.053 C 
BRANCH   6   7
ATOM      7  C   UNL     1     104.563 105.004 107.185  1.00  0.00     0.041 C 
ATOM      8  O   UNL     1     105.802 104.800 107.098  1.00  0.00    -0.550 OA
ATOM      9  O   UNL     1     104.078 106.306 107.189  1.00  0.00    -0.550 OA
ENDBRANCH   6   7
ENDBRANCH   5   6
ENDBRANCH   4   5
ENDBRANCH   3   4
ENDBRANCH   2   3
ENDBRANCH   1   2
BRANCH   1  10
ATOM     10  C   UNL     1     104.434 105.936 101.557  1.00  0.00     0.000 C 
BRANCH  10  11
ATOM     11  C   UNL     1     104.596 105.256 100.188  1.00  0.00    -0.000 C 
BRANCH  11  12
ATOM     12  C   UNL     1     104.629 106.296  99.059  1.00  0.00    -0.000 C 
BRANCH  12  13
ATOM     13  C   UNL     1     104.230 105.713  97.692  1.00  0.00    -0.000 C 
BRANCH  13  14
ATOM     14  C   UNL     1     104.534 104.215  97.510  1.00  0.00    -0.000 C 
BRANCH  14  15
ATOM     15  C   UNL     1     103.297 103.326  97.706  1.00  0.00    -0.003 C 
ATOM     16  C   UNL     1     103.680 101.849  97.739  1.00  0.00     0.004 C 
ENDBRANCH  14  15
ENDBRANCH  13  14
ENDBRANCH  12  13
ENDBRANCH  11  12
ENDBRANCH  10  11
ENDBRANCH   1  10
TORSDOF 12
ENDMDL
MODEL 4
REMARK VINA RESULT:     1.817      5.533      8.832
REMARK INTER + INTRA:           2.497
REMARK INTER:                   3.188
REMARK INTRA:                  -0.691
REMARK UNBOUND:                -0.596
REMARK SMILES CCCCCCCCCCCCCC(=O)[O-]
REMARK SMILES IDX 8 1 9 2 10 3 11 4 12 5 13 6 14 7 15 8 16 9 7 10 6 11 5 12
REMARK SMILES IDX 4 13 3 14 2 15 1 16
REMARK H PARENT
REMARK Flexibility Score: inf
ROOT
ATOM      1  C   UNL     1     104.249 104.960 102.680  1.00  0.00     0.000 C 
ENDROOT
BRANCH   1   2
ATOM      2  C   UNL     1     104.604 105.900 101.515  1.00  0.00     0.000 C 
BRANCH   2   3
ATOM      3  C   UNL     1     104.699 105.151 100.169  1.00  0.00     0.000 C 
BRANCH   3   4
ATOM      4  C   UNL     1     104.639 106.079  98.939  1.00  0.00     0.000 C 
BRANCH   4   5
ATOM      5  C   UNL     1     104.042 105.439  97.671  1.00  0.00     0.006 C 
BRANCH   5   6
ATOM      6  C   UNL     1     104.511 103.999  97.411  1.00  0.00     0.053 C 
BRANCH   6   7
ATOM      7  C   UNL     1     103.436 102.999  97.708  1.00  0.00     0.041 C 
ATOM      8  O   UNL     1     102.232 103.362  97.774  1.00  0.00    -0.550 OA
ATOM      9  O   UNL     1     103.768 101.671  97.944  1.00  0.00    -0.550 OA
ENDBRANCH   6   7
ENDBRANCH   5   6
ENDBRANCH   4   5
ENDBRANCH   3   4
ENDBRANCH   2   3
ENDBRANCH   1   2
BRANCH   1  10
ATOM     10  C   UNL     1     103.825 103.561 102.204  1.00  0.00     0.000 C 
BRANCH  10  11
ATOM     11  C   UNL     1     103.484 102.620 103.371  1.00  0.00    -0.000 C 
BRANCH  11  12
ATOM     12  C   UNL     1     103.164 103.418 104.643  1.00  0.00    -0.000 C 
BRANCH  12  13
ATOM     13  C   UNL     1     103.497 102.649 105.935  1.00  0.00    -0.000 C 
BRANCH  13  14
ATOM     14  C   UNL     1     103.635 103.523 107.194  1.00  0.00    -0.000 C 
BRANCH  14  15
ATOM     15  C   UNL     1     104.757 104.565 107.079  1.00  0.00    -0.003 C 
ATOM     16  C   UNL     1     104.222 105.977 107.296  1.00  0.00     0.004 C 
ENDBRANCH  14  15
ENDBRANCH  13  14
ENDBRANCH  12  13
ENDBRANCH  11  12
ENDBRANCH  10  11
ENDBRANCH   1  10
TORSDOF 12
ENDMDL
MODEL 5
REMARK VINA RESULT:     1.831      1.514      3.460
REMARK INTER + INTRA:           2.520
REMARK INTER:                   3.084
REMARK INTRA:                  -0.564
REMARK UNBOUND:                -0.596
REMARK SMILES CCCCCCCCCCCCCC(=O)[O-]
REMARK SMILES IDX 8 1 9 2 10 3 11 4 12 5 13 6 14 7 15 8 16 9 7 10 6 11 5 12
REMARK SMILES IDX 4 13 3 14 2 15 1 16
REMARK H PARENT
REMARK Flexibility Score: inf
ROOT
ATOM      1  C   UNL     1     103.616 102.249 107.316  1.00  0.00     0.000 C 
ENDROOT
BRANCH   1   2
ATOM      2  C   UNL     1     103.353 103.759 107.177  1.00  0.00     0.000 C 
BRANCH   2   3
ATOM      3  C   UNL     1     104.661 104.576 107.124  1.00  0.00     0.000 C 
BRANCH   3   4
ATOM      4  C   UNL     1     104.472 106.070 107.457  1.00  0.00     0.000 C 
BRANCH   4   5
ATOM      5  C   UNL     1     104.544 106.415 108.957  1.00  0.00     0.006 C 
BRANCH   5   6
ATOM      6  C   UNL     1     104.878 105.219 109.863  1.00  0.00     0.053 C 
BRANCH   6   7
ATOM      7  C   UNL     1     104.353 105.408 111.253  1.00  0.00     0.041 C 
ATOM      8  O   UNL     1     104.332 106.555 111.773  1.00  0.00    -0.550 OA
ATOM      9  O   UNL     1     103.917 104.312 111.987  1.00  0.00    -0.550 OA
ENDBRANCH   6   7
ENDBRANCH   5   6
ENDBRANCH   4   5
ENDBRANCH   3   4
ENDBRANCH   2   3
ENDBRANCH   1   2
BRANCH   1  10
ATOM     10  C   UNL     1     103.571 101.514 105.967  1.00  0.00     0.000 C 
BRANCH  10  11
ATOM     11  C   UNL     1     103.236 102.452 104.796  1.00  0.00    -0.000 C 
BRANCH  11  12
ATOM     12  C   UNL     1     103.390 101.727 103.451  1.00  0.00    -0.000 C 
BRANCH  12  13
ATOM     13  C   UNL     1     103.731 102.679 102.290  1.00  0.00    -0.000 C 
BRANCH  13  14
ATOM     14  C   UNL     1     103.451 104.167 102.567  1.00  0.00    -0.000 C 
BRANCH  14  15
ATOM     15  C   UNL     1     104.654 105.069 102.257  1.00  0.00    -0.003 C 
ATOM     16  C   UNL     1     104.363 106.522 102.625  1.00  0.00     0.004 C 
ENDBRANCH  14  15
ENDBRANCH  13  14
ENDBRANCH  12  13
ENDBRANCH  11  12
ENDBRANCH  10  11
ENDBRANCH   1  10
TORSDOF 12
ENDMDL
MODEL 6
REMARK VINA RESULT:     1.847      3.761      6.890
REMARK INTER + INTRA:           2.547
REMARK INTER:                   3.148
REMARK INTRA:                  -0.601
REMARK UNBOUND:                -0.596
REMARK SMILES CCCCCCCCCCCCCC(=O)[O-]
REMARK SMILES IDX 8 1 9 2 10 3 11 4 12 5 13 6 14 7 15 8 16 9 7 10 6 11 5 12
REMARK SMILES IDX 4 13 3 14 2 15 1 16
REMARK H PARENT
REMARK Flexibility Score: inf
ROOT
ATOM      1  C   UNL     1     104.324 105.964 107.122  1.00  0.00     0.000 C 
ENDROOT
BRANCH   1   2
ATOM      2  C   UNL     1     104.583 104.450 107.201  1.00  0.00     0.000 C 
BRANCH   2   3
ATOM      3  C   UNL     1     103.273 103.633 107.217  1.00  0.00     0.000 C 
BRANCH   3   4
ATOM      4  C   UNL     1     103.481 102.126 106.972  1.00  0.00     0.000 C 
BRANCH   4   5
ATOM      5  C   UNL     1     103.560 101.714 105.490  1.00  0.00     0.006 C 
BRANCH   5   6
ATOM      6  C   UNL     1     103.132 102.814 104.506  1.00  0.00     0.053 C 
BRANCH   6   7
ATOM      7  C   UNL     1     103.484 102.468 103.092  1.00  0.00     0.041 C 
ATOM      8  O   UNL     1     103.602 101.263 102.745  1.00  0.00    -0.550 OA
ATOM      9  O   UNL     1     103.713 103.477 102.166  1.00  0.00    -0.550 OA
ENDBRANCH   6   7
ENDBRANCH   5   6
ENDBRANCH   4   5
ENDBRANCH   3   4
ENDBRANCH   2   3
ENDBRANCH   1   2
BRANCH   1  10
ATOM     10  C   UNL     1     104.706 106.698 108.418  1.00  0.00     0.000 C 
BRANCH  10  11
ATOM     11  C   UNL     1     104.756 105.759 109.634  1.00  0.00    -0.000 C 
BRANCH  11  12
ATOM     12  C   UNL     1     104.481 106.530 110.933  1.00  0.00    -0.000 C 
BRANCH  12  13
ATOM     13  C   UNL     1     104.393 105.614 112.168  1.00  0.00    -0.000 C 
BRANCH  13  14
ATOM     14  C   UNL     1     104.594 104.115 111.882  1.00  0.00    -0.000 C 
BRANCH  14  15
ATOM     15  C   UNL     1     103.281 103.320 111.910  1.00  0.00    -0.003 C 
ATOM     16  C   UNL     1     103.546 101.827 112.088  1.00  0.00     0.004 C 
ENDBRANCH  14  15
ENDBRANCH  13  14
ENDBRANCH  12  13
ENDBRANCH  11  12
ENDBRANCH  10  11
ENDBRANCH   1  10
TORSDOF 12
ENDMDL
MODEL 7
REMARK VINA RESULT:     1.859      3.257      5.872
REMARK INTER + INTRA:           2.567
REMARK INTER:                   3.328
REMARK INTRA:                  -0.761
REMARK UNBOUND:                -0.596
REMARK SMILES CCCCCCCCCCCCCC(=O)[O-]
REMARK SMILES IDX 8 1 9 2 10 3 11 4 12 5 13 6 14 7 15 8 16 9 7 10 6 11 5 12
REMARK SMILES IDX 4 13 3 14 2 15 1 16
REMARK H PARENT
REMARK Flexibility Score: inf
ROOT
ATOM      1  C   UNL     1     103.622 102.302 102.394  1.00  0.00     0.000 C 
ENDROOT
BRANCH   1   2
ATOM      2  C   UNL     1     103.440 103.818 102.201  1.00  0.00     0.000 C 
BRANCH   2   3
ATOM      3  C   UNL     1     104.740 104.602 102.477  1.00  0.00     0.000 C 
BRANCH   3   4
ATOM      4  C   UNL     1     104.505 106.088 102.817  1.00  0.00     0.000 C 
BRANCH   4   5
ATOM      5  C   UNL     1     104.543 106.423 104.320  1.00  0.00     0.006 C 
BRANCH   5   6
ATOM      6  C   UNL     1     104.717 105.200 105.235  1.00  0.00     0.053 C 
BRANCH   6   7
ATOM      7  C   UNL     1     104.296 105.491 106.643  1.00  0.00     0.041 C 
ATOM      8  O   UNL     1     104.299 106.674 107.075  1.00  0.00    -0.550 OA
ATOM      9  O   UNL     1     103.930 104.451 107.487  1.00  0.00    -0.550 OA
ENDBRANCH   6   7
ENDBRANCH   5   6
ENDBRANCH   4   5
ENDBRANCH   3   4
ENDBRANCH   2   3
ENDBRANCH   1   2
BRANCH   1  10
ATOM     10  C   UNL     1     103.518 101.521 101.074  1.00  0.00     0.000 C 
BRANCH  10  11
ATOM     11  C   UNL     1     103.177 102.425  99.879  1.00  0.00    -0.000 C 
BRANCH  11  12
ATOM     12  C   UNL     1     103.568 101.754  98.555  1.00  0.00    -0.000 C 
BRANCH  12  13
ATOM     13  C   UNL     1     103.649 102.745  97.379  1.00  0.00    -0.000 C 
BRANCH  13  14
ATOM     14  C   UNL     1     103.431 104.221  97.757  1.00  0.00    -0.000 C 
BRANCH  14  15
ATOM     15  C   UNL     1     104.731 105.039  97.748  1.00  0.00    -0.003 C 
ATOM     16  C   UNL     1     104.439 106.536  97.796  1.00  0.00     0.004 C 
ENDBRANCH  14  15
ENDBRANCH  13  14
ENDBRANCH  12  13
ENDBRANCH  11  12
ENDBRANCH  10  11
ENDBRANCH   1  10
TORSDOF 12
ENDMDL
MODEL 8
REMARK VINA RESULT:     1.876      1.312      2.421
REMARK INTER + INTRA:           2.596
REMARK INTER:                   3.429
REMARK INTRA:                  -0.832
REMARK UNBOUND:                -0.596
REMARK SMILES CCCCCCCCCCCCCC(=O)[O-]
REMARK SMILES IDX 8 1 9 2 10 3 11 4 12 5 13 6 14 7 15 8 16 9 7 10 6 11 5 12
REMARK SMILES IDX 4 13 3 14 2 15 1 16
REMARK H PARENT
REMARK Flexibility Score: inf
ROOT
ATOM      1  C   UNL     1     103.630 103.338 106.700  1.00  0.00     0.000 C 
ENDROOT
BRANCH   1   2
ATOM      2  C   UNL     1     103.371 102.377 107.874  1.00  0.00     0.000 C 
BRANCH   2   3
ATOM      3  C   UNL     1     103.359 103.107 109.234  1.00  0.00     0.000 C 
BRANCH   3   4
ATOM      4  C   UNL     1     103.474 102.160 110.445  1.00  0.00     0.000 C 
BRANCH   4   5
ATOM      5  C   UNL     1     103.742 102.859 111.791  1.00  0.00     0.006 C 
BRANCH   5   6
ATOM      6  C   UNL     1     103.307 104.332 111.835  1.00  0.00     0.053 C 
BRANCH   6   7
ATOM      7  C   UNL     1     104.477 105.256 111.986  1.00  0.00     0.041 C 
ATOM      8  O   UNL     1     105.647 104.794 112.042  1.00  0.00    -0.550 OA
ATOM      9  O   UNL     1     104.271 106.625 112.099  1.00  0.00    -0.550 OA
ENDBRANCH   6   7
ENDBRANCH   5   6
ENDBRANCH   4   5
ENDBRANCH   3   4
ENDBRANCH   2   3
ENDBRANCH   1   2
BRANCH   1  10
ATOM     10  C   UNL     1     104.078 104.733 107.164  1.00  0.00     0.000 C 
BRANCH  10  11
ATOM     11  C   UNL     1     104.418 105.663 105.989  1.00  0.00    -0.000 C 
BRANCH  11  12
ATOM     12  C   UNL     1     104.856 104.856 104.759  1.00  0.00    -0.000 C 
BRANCH  12  13
ATOM     13  C   UNL     1     104.443 105.514 103.430  1.00  0.00    -0.000 C 
BRANCH  13  14
ATOM     14  C   UNL     1     104.214 104.535 102.264  1.00  0.00    -0.000 C 
BRANCH  14  15
ATOM     15  C   UNL     1     103.145 103.477 102.573  1.00  0.00    -0.003 C 
ATOM     16  C   UNL     1     103.737 102.071 102.543  1.00  0.00     0.004 C 
ENDBRANCH  14  15
ENDBRANCH  13  14
ENDBRANCH  12  13
ENDBRANCH  11  12
ENDBRANCH  10  11
ENDBRANCH   1  10
TORSDOF 12
ENDMDL
MODEL 9
REMARK VINA RESULT:     1.901      5.662      8.783
REMARK INTER + INTRA:           2.639
REMARK INTER:                   3.251
REMARK INTRA:                  -0.612
REMARK UNBOUND:                -0.596
REMARK SMILES CCCCCCCCCCCCCC(=O)[O-]
REMARK SMILES IDX 8 1 9 2 10 3 11 4 12 5 13 6 14 7 15 8 16 9 7 10 6 11 5 12
REMARK SMILES IDX 4 13 3 14 2 15 1 16
REMARK H PARENT
REMARK Flexibility Score: inf
ROOT
ATOM      1  C   UNL     1     103.639 102.706 102.439  1.00  0.00     0.000 C 
ENDROOT
BRANCH   1   2
ATOM      2  C   UNL     1     103.309 101.912 101.164  1.00  0.00     0.000 C 
BRANCH   2   3
ATOM      3  C   UNL     1     103.250 102.815  99.913  1.00  0.00     0.000 C 
BRANCH   3   4
ATOM      4  C   UNL     1     103.471 102.055  98.590  1.00  0.00     0.000 C 
BRANCH   4   5
ATOM      5  C   UNL     1     103.876 102.938  97.394  1.00  0.00     0.006 C 
BRANCH   5   6
ATOM      6  C   UNL     1     103.389 104.392  97.491  1.00  0.00     0.053 C 
BRANCH   6   7
ATOM      7  C   UNL     1     104.520 105.347  97.716  1.00  0.00     0.041 C 
ATOM      8  O   UNL     1     105.700 104.920  97.816  1.00  0.00    -0.550 OA
ATOM      9  O   UNL     1     104.267 106.706  97.848  1.00  0.00    -0.550 OA
ENDBRANCH   6   7
ENDBRANCH   5   6
ENDBRANCH   4   5
ENDBRANCH   3   4
ENDBRANCH   2   3
ENDBRANCH   1   2
BRANCH   1  10
ATOM     10  C   UNL     1     103.412 104.217 102.272  1.00  0.00     0.000 C 
BRANCH  10  11
ATOM     11  C   UNL     1     104.711 105.027 102.413  1.00  0.00    -0.000 C 
BRANCH  11  12
ATOM     12  C   UNL     1     104.668 105.920 103.660  1.00  0.00    -0.000 C 
BRANCH  12  13
ATOM     13  C   UNL     1     104.340 105.142 104.947  1.00  0.00    -0.000 C 
BRANCH  13  14
ATOM     14  C   UNL     1     104.679 105.877 106.256  1.00  0.00    -0.000 C 
BRANCH  14  15
ATOM     15  C   UNL     1     104.481 105.002 107.502  1.00  0.00    -0.003 C 
ATOM     16  C   UNL     1     103.819 103.675 107.143  1.00  0.00     0.004 C 
ENDBRANCH  14  15
ENDBRANCH  13  14
ENDBRANCH  12  13
ENDBRANCH  11  12
ENDBRANCH  10  11
ENDBRANCH   1  10
TORSDOF 12
ENDMDL
