MODEL 1
REMARK VINA RESULT:    -8.387      0.000      0.000
REMARK INTER + INTRA:         -13.428
REMARK INTER:                 -12.309
REMARK INTRA:                  -1.119
REMARK UNBOUND:                -1.119
REMARK SMILES O=c1c(O[C@H]2O[C@H](CO)[C@H](O)[C@@H](O)[C@@H]2O)c(-c2ccc(O)c(O)c2)oc2cc(O)cc(O)c12
REMARK SMILES IDX 4 1 3 2 16 3 25 4 2 5 26 6 1 7 33 8 27 9 31 10 28 11 30 12
REMARK SMILES IDX 17 13 18 14 19 15 20 16 24 17 22 18 21 19 23 21 32 23 29 25
REMARK SMILES IDX 5 27 14 28 6 29 12 30 7 31 10 32 15 33 13 35 8 37 9 38 11 40
REMARK H PARENT 21 20 23 22 32 24 29 26 15 34 13 36 9 39 11 41
REMARK Flexibility Score: inf
ROOT
ATOM      1  O   UNL     1     -13.390 -43.264  -7.962  1.00  0.00    -0.454 OA
ENDROOT
BRANCH   1   2
ATOM      2  C   UNL     1     -12.522 -43.862  -7.044  1.00  0.00     0.214 A 
ATOM      3  C   UNL     1     -11.302 -44.429  -7.459  1.00  0.00     0.180 A 
ATOM      4  O   UNL     1     -10.383 -44.756  -6.550  1.00  0.00    -0.452 OA
ATOM      5  C   UNL     1     -12.811 -43.796  -5.676  1.00  0.00     0.239 A 
ATOM      6  C   UNL     1     -10.578 -44.617  -5.242  1.00  0.00     0.146 A 
ATOM      7  O   UNL     1     -13.950 -43.395  -5.310  1.00  0.00    -0.285 OA
ATOM      8  C   UNL     1     -11.822 -44.155  -4.740  1.00  0.00     0.111 A 
ATOM      9  C   UNL     1      -9.534 -44.918  -4.357  1.00  0.00     0.094 A 
ATOM     10  C   UNL     1     -12.003 -44.030  -3.344  1.00  0.00     0.134 A 
ATOM     11  C   UNL     1      -9.715 -44.771  -2.979  1.00  0.00     0.123 A 
ATOM     12  C   UNL     1     -10.947 -44.351  -2.476  1.00  0.00     0.093 A 
BRANCH   3  13
ATOM     13  C   UNL     1     -10.988 -44.620  -8.890  1.00  0.00     0.025 A 
ATOM     14  C   UNL     1      -9.998 -43.845  -9.517  1.00  0.00     0.016 A 
ATOM     15  C   UNL     1      -9.671 -44.064 -10.856  1.00  0.00     0.051 A 
ATOM     16  C   UNL     1     -10.336 -45.053 -11.593  1.00  0.00     0.157 A 
ATOM     17  C   UNL     1     -11.694 -45.565  -9.648  1.00  0.00     0.062 A 
ATOM     18  C   UNL     1     -11.357 -45.801 -10.986  1.00  0.00     0.158 A 
BRANCH  16  19
ATOM     19  O   UNL     1      -9.971 -45.301 -12.911  1.00  0.00    -0.504 OA
ATOM     20  H   UNL     1     -10.047 -44.589 -13.630  1.00  0.00     0.293 HD
ENDBRANCH  16  19
BRANCH  18  21
ATOM     21  O   UNL     1     -12.044 -46.789 -11.692  1.00  0.00    -0.504 OA
ATOM     22  H   UNL     1     -12.900 -46.590 -12.191  1.00  0.00     0.293 HD
ENDBRANCH  18  21
ENDBRANCH   3  13
BRANCH  10  23
ATOM     23  O   UNL     1     -13.212 -43.591  -2.815  1.00  0.00    -0.507 OA
ATOM     24  H   UNL     1     -13.693 -42.771  -3.171  1.00  0.00     0.293 HD
ENDBRANCH  10  23
BRANCH  11  25
ATOM     25  O   UNL     1      -8.653 -45.054  -2.112  1.00  0.00    -0.508 OA
ATOM     26  H   UNL     1      -8.809 -45.211  -1.122  1.00  0.00     0.293 HD
ENDBRANCH  11  25
ENDBRANCH   1   2
BRANCH   1  27
ATOM     27  C   UNL     1     -13.716 -41.875  -7.824  1.00  0.00     0.339 C 
ATOM     28  C   UNL     1     -15.002 -41.495  -8.607  1.00  0.00     0.214 C 
ATOM     29  O   UNL     1     -12.597 -41.067  -8.146  1.00  0.00    -0.332 OA
ATOM     30  C   UNL     1     -14.739 -41.260 -10.111  1.00  0.00     0.180 C 
ATOM     31  C   UNL     1     -12.300 -41.116  -9.534  1.00  0.00     0.179 C 
ATOM     32  C   UNL     1     -13.441 -40.460 -10.340  1.00  0.00     0.177 C 
BRANCH  28  33
ATOM     33  O   UNL     1     -15.611 -40.350  -8.052  1.00  0.00    -0.384 OA
ATOM     34  H   UNL     1     -15.142 -40.143  -7.197  1.00  0.00     0.211 HD
ENDBRANCH  28  33
BRANCH  30  35
ATOM     35  O   UNL     1     -14.636 -42.495 -10.773  1.00  0.00    -0.387 OA
ATOM     36  H   UNL     1     -15.438 -42.591 -11.358  1.00  0.00     0.211 HD
ENDBRANCH  30  35
BRANCH  31  37
ATOM     37  C   UNL     1     -10.946 -40.452  -9.775  1.00  0.00     0.191 C 
BRANCH  37  38
ATOM     38  O   UNL     1     -11.035 -39.524 -10.823  1.00  0.00    -0.394 OA
ATOM     39  H   UNL     1     -10.955 -38.619 -10.411  1.00  0.00     0.210 HD
ENDBRANCH  37  38
ENDBRANCH  31  37
BRANCH  32  40
ATOM     40  O   UNL     1     -13.603 -39.104 -10.008  1.00  0.00    -0.387 OA
ATOM     41  H   UNL     1     -14.005 -39.057  -9.099  1.00  0.00     0.211 HD
ENDBRANCH  32  40
ENDBRANCH   1  27
TORSDOF 12
ENDMDL
MODEL 2
REMARK VINA RESULT:    -8.346      0.981      2.199
REMARK INTER + INTRA:         -13.369
REMARK INTER:                 -12.438
REMARK INTRA:                  -0.931
REMARK UNBOUND:                -1.119
REMARK SMILES O=c1c(O[C@H]2O[C@H](CO)[C@H](O)[C@@H](O)[C@@H]2O)c(-c2ccc(O)c(O)c2)oc2cc(O)cc(O)c12
REMARK SMILES IDX 4 1 3 2 16 3 25 4 2 5 26 6 1 7 33 8 27 9 31 10 28 11 30 12
REMARK SMILES IDX 17 13 18 14 19 15 20 16 24 17 22 18 21 19 23 21 32 23 29 25
REMARK SMILES IDX 5 27 14 28 6 29 12 30 7 31 10 32 15 33 13 35 8 37 9 38 11 40
REMARK H PARENT 21 20 23 22 32 24 29 26 15 34 13 36 9 39 11 41
REMARK Flexibility Score: inf
ROOT
ATOM      1  O   UNL     1     -13.408 -43.247  -7.898  1.00  0.00    -0.454 OA
ENDROOT
BRANCH   1   2
ATOM      2  C   UNL     1     -12.504 -43.842  -7.015  1.00  0.00     0.214 A 
ATOM      3  C   UNL     1     -11.293 -44.395  -7.474  1.00  0.00     0.180 A 
ATOM      4  O   UNL     1     -10.341 -44.719  -6.598  1.00  0.00    -0.452 OA
ATOM      5  C   UNL     1     -12.746 -43.787  -5.637  1.00  0.00     0.239 A 
ATOM      6  C   UNL     1     -10.493 -44.589  -5.284  1.00  0.00     0.146 A 
ATOM      7  O   UNL     1     -13.876 -43.399  -5.230  1.00  0.00    -0.285 OA
ATOM      8  C   UNL     1     -11.723 -44.142  -4.737  1.00  0.00     0.111 A 
ATOM      9  C   UNL     1      -9.417 -44.885  -4.437  1.00  0.00     0.094 A 
ATOM     10  C   UNL     1     -11.858 -44.027  -3.335  1.00  0.00     0.134 A 
ATOM     11  C   UNL     1      -9.552 -44.748  -3.053  1.00  0.00     0.123 A 
ATOM     12  C   UNL     1     -10.771 -44.342  -2.506  1.00  0.00     0.093 A 
BRANCH   3  13
ATOM     13  C   UNL     1     -11.027 -44.574  -8.916  1.00  0.00     0.025 A 
ATOM     14  C   UNL     1     -10.112 -43.744  -9.585  1.00  0.00     0.016 A 
ATOM     15  C   UNL     1      -9.826 -43.950 -10.935  1.00  0.00     0.051 A 
ATOM     16  C   UNL     1     -10.459 -44.982 -11.642  1.00  0.00     0.157 A 
ATOM     17  C   UNL     1     -11.703 -45.566  -9.641  1.00  0.00     0.062 A 
ATOM     18  C   UNL     1     -11.407 -45.788 -10.991  1.00  0.00     0.158 A 
BRANCH  16  19
ATOM     19  O   UNL     1     -10.133 -45.215 -12.973  1.00  0.00    -0.504 OA
ATOM     20  H   UNL     1     -10.397 -46.073 -13.445  1.00  0.00     0.293 HD
ENDBRANCH  16  19
BRANCH  18  21
ATOM     21  O   UNL     1     -12.059 -46.821 -11.666  1.00  0.00    -0.504 OA
ATOM     22  H   UNL     1     -12.740 -46.638 -12.390  1.00  0.00     0.293 HD
ENDBRANCH  18  21
ENDBRANCH   3  13
BRANCH  10  23
ATOM     23  O   UNL     1     -13.053 -43.602  -2.763  1.00  0.00    -0.507 OA
ATOM     24  H   UNL     1     -13.107 -42.779  -2.171  1.00  0.00     0.293 HD
ENDBRANCH  10  23
BRANCH  11  25
ATOM     25  O   UNL     1      -8.459 -45.025  -2.224  1.00  0.00    -0.508 OA
ATOM     26  H   UNL     1      -8.476 -45.802  -1.571  1.00  0.00     0.293 HD
ENDBRANCH  11  25
ENDBRANCH   1   2
BRANCH   1  27
ATOM     27  C   UNL     1     -12.964 -42.189  -8.758  1.00  0.00     0.339 C 
ATOM     28  C   UNL     1     -12.252 -41.055  -7.972  1.00  0.00     0.214 C 
ATOM     29  O   UNL     1     -14.029 -41.732  -9.574  1.00  0.00    -0.332 OA
ATOM     30  C   UNL     1     -13.244 -40.071  -7.313  1.00  0.00     0.180 C 
ATOM     31  C   UNL     1     -15.008 -41.040  -8.814  1.00  0.00     0.179 C 
ATOM     32  C   UNL     1     -14.414 -39.728  -8.258  1.00  0.00     0.177 C 
BRANCH  28  33
ATOM     33  O   UNL     1     -11.368 -40.341  -8.807  1.00  0.00    -0.384 OA
ATOM     34  H   UNL     1     -11.843 -39.522  -9.119  1.00  0.00     0.211 HD
ENDBRANCH  28  33
BRANCH  30  35
ATOM     35  O   UNL     1     -13.761 -40.636  -6.135  1.00  0.00    -0.387 OA
ATOM     36  H   UNL     1     -14.744 -40.471  -6.128  1.00  0.00     0.211 HD
ENDBRANCH  30  35
BRANCH  31  37
ATOM     37  C   UNL     1     -16.241 -40.808  -9.686  1.00  0.00     0.191 C 
BRANCH  37  38
ATOM     38  O   UNL     1     -17.408 -41.127  -8.979  1.00  0.00    -0.394 OA
ATOM     39  H   UNL     1     -17.331 -40.689  -8.086  1.00  0.00     0.210 HD
ENDBRANCH  37  38
ENDBRANCH  31  37
BRANCH  32  40
ATOM     40  O   UNL     1     -14.010 -38.860  -9.287  1.00  0.00    -0.387 OA
ATOM     41  H   UNL     1     -14.183 -37.927  -8.987  1.00  0.00     0.211 HD
ENDBRANCH  32  40
ENDBRANCH   1  27
TORSDOF 12
ENDMDL
MODEL 3
REMARK VINA RESULT:    -8.229      3.045      7.606
REMARK INTER + INTRA:         -13.196
REMARK INTER:                 -11.953
REMARK INTRA:                  -1.243
REMARK UNBOUND:                -1.119
REMARK SMILES O=c1c(O[C@H]2O[C@H](CO)[C@H](O)[C@@H](O)[C@@H]2O)c(-c2ccc(O)c(O)c2)oc2cc(O)cc(O)c12
REMARK SMILES IDX 4 1 3 2 16 3 25 4 2 5 26 6 1 7 33 8 27 9 31 10 28 11 30 12
REMARK SMILES IDX 17 13 18 14 19 15 20 16 24 17 22 18 21 19 23 21 32 23 29 25
REMARK SMILES IDX 5 27 14 28 6 29 12 30 7 31 10 32 15 33 13 35 8 37 9 38 11 40
REMARK H PARENT 21 20 23 22 32 24 29 26 15 34 13 36 9 39 11 41
REMARK Flexibility Score: inf
ROOT
ATOM      1  O   UNL     1     -14.095 -44.751  -4.853  1.00  0.00    -0.454 OA
ENDROOT
BRANCH   1   2
ATOM      2  C   UNL     1     -13.753 -43.618  -5.596  1.00  0.00     0.214 A 
ATOM      3  C   UNL     1     -12.437 -43.118  -5.598  1.00  0.00     0.180 A 
ATOM      4  O   UNL     1     -12.078 -42.207  -6.504  1.00  0.00    -0.452 OA
ATOM      5  C   UNL     1     -14.702 -43.037  -6.446  1.00  0.00     0.239 A 
ATOM      6  C   UNL     1     -12.925 -41.701  -7.395  1.00  0.00     0.146 A 
ATOM      7  O   UNL     1     -15.906 -43.407  -6.362  1.00  0.00    -0.285 OA
ATOM      8  C   UNL     1     -14.293 -42.074  -7.388  1.00  0.00     0.111 A 
ATOM      9  C   UNL     1     -12.449 -40.801  -8.358  1.00  0.00     0.094 A 
ATOM     10  C   UNL     1     -15.171 -41.507  -8.339  1.00  0.00     0.134 A 
ATOM     11  C   UNL     1     -13.320 -40.263  -9.309  1.00  0.00     0.123 A 
ATOM     12  C   UNL     1     -14.675 -40.598  -9.286  1.00  0.00     0.093 A 
BRANCH   3  13
ATOM     13  C   UNL     1     -11.421 -43.621  -4.651  1.00  0.00     0.025 A 
ATOM     14  C   UNL     1     -10.486 -44.591  -5.051  1.00  0.00     0.016 A 
ATOM     15  C   UNL     1      -9.497 -45.026  -4.167  1.00  0.00     0.051 A 
ATOM     16  C   UNL     1      -9.432 -44.506  -2.867  1.00  0.00     0.157 A 
ATOM     17  C   UNL     1     -11.391 -43.149  -3.331  1.00  0.00     0.062 A 
ATOM     18  C   UNL     1     -10.390 -43.568  -2.447  1.00  0.00     0.158 A 
BRANCH  16  19
ATOM     19  O   UNL     1      -8.414 -44.904  -2.008  1.00  0.00    -0.504 OA
ATOM     20  H   UNL     1      -8.533 -44.899  -1.001  1.00  0.00     0.293 HD
ENDBRANCH  16  19
BRANCH  18  21
ATOM     21  O   UNL     1     -10.359 -43.035  -1.158  1.00  0.00    -0.504 OA
ATOM     22  H   UNL     1     -11.009 -43.330  -0.443  1.00  0.00     0.293 HD
ENDBRANCH  18  21
ENDBRANCH   3  13
BRANCH  10  23
ATOM     23  O   UNL     1     -16.522 -41.840  -8.355  1.00  0.00    -0.507 OA
ATOM     24  H   UNL     1     -16.979 -42.287  -7.566  1.00  0.00     0.293 HD
ENDBRANCH  10  23
BRANCH  11  25
ATOM     25  O   UNL     1     -12.823 -39.384 -10.278  1.00  0.00    -0.508 OA
ATOM     26  H   UNL     1     -12.377 -39.727 -11.123  1.00  0.00     0.293 HD
ENDBRANCH  11  25
ENDBRANCH   1   2
BRANCH   1  27
ATOM     27  C   UNL     1     -14.293 -44.636  -3.438  1.00  0.00     0.339 C 
ATOM     28  C   UNL     1     -13.817 -45.902  -2.676  1.00  0.00     0.214 C 
ATOM     29  O   UNL     1     -15.633 -44.272  -3.153  1.00  0.00    -0.332 OA
ATOM     30  C   UNL     1     -14.857 -47.044  -2.704  1.00  0.00     0.180 C 
ATOM     31  C   UNL     1     -16.534 -45.329  -3.445  1.00  0.00     0.179 C 
ATOM     32  C   UNL     1     -16.288 -46.512  -2.485  1.00  0.00     0.177 C 
BRANCH  28  33
ATOM     33  O   UNL     1     -13.497 -45.593  -1.337  1.00  0.00    -0.384 OA
ATOM     34  H   UNL     1     -12.503 -45.608  -1.253  1.00  0.00     0.211 HD
ENDBRANCH  28  33
BRANCH  30  35
ATOM     35  O   UNL     1     -14.801 -47.705  -3.944  1.00  0.00    -0.387 OA
ATOM     36  H   UNL     1     -14.207 -47.173  -4.541  1.00  0.00     0.211 HD
ENDBRANCH  30  35
BRANCH  31  37
ATOM     37  C   UNL     1     -17.964 -44.796  -3.373  1.00  0.00     0.191 C 
BRANCH  37  38
ATOM     38  O   UNL     1     -18.127 -43.711  -4.247  1.00  0.00    -0.394 OA
ATOM     39  H   UNL     1     -17.776 -44.003  -5.133  1.00  0.00     0.210 HD
ENDBRANCH  37  38
ENDBRANCH  31  37
BRANCH  32  40
ATOM     40  O   UNL     1     -16.506 -46.152  -1.145  1.00  0.00    -0.387 OA
ATOM     41  H   UNL     1     -16.301 -45.183  -1.050  1.00  0.00     0.211 HD
ENDBRANCH  32  40
ENDBRANCH   1  27
TORSDOF 12
ENDMDL
MODEL 4
REMARK VINA RESULT:    -8.091      1.600      2.971
REMARK INTER + INTRA:         -12.994
REMARK INTER:                 -11.951
REMARK INTRA:                  -1.043
REMARK UNBOUND:                -1.119
REMARK SMILES O=c1c(O[C@H]2O[C@H](CO)[C@H](O)[C@@H](O)[C@@H]2O)c(-c2ccc(O)c(O)c2)oc2cc(O)cc(O)c12
REMARK SMILES IDX 4 1 3 2 16 3 25 4 2 5 26 6 1 7 33 8 27 9 31 10 28 11 30 12
REMARK SMILES IDX 17 13 18 14 19 15 20 16 24 17 22 18 21 19 23 21 32 23 29 25
REMARK SMILES IDX 5 27 14 28 6 29 12 30 7 31 10 32 15 33 13 35 8 37 9 38 11 40
REMARK H PARENT 21 20 23 22 32 24 29 26 15 34 13 36 9 39 11 41
REMARK Flexibility Score: inf
ROOT
ATOM      1  O   UNL     1     -12.290 -41.501  -8.119  1.00  0.00    -0.454 OA
ENDROOT
BRANCH   1   2
ATOM      2  C   UNL     1     -11.664 -42.382  -7.233  1.00  0.00     0.214 A 
ATOM      3  C   UNL     1     -10.546 -43.141  -7.628  1.00  0.00     0.180 A 
ATOM      4  O   UNL     1      -9.815 -43.769  -6.707  1.00  0.00    -0.452 OA
ATOM      5  C   UNL     1     -12.078 -42.427  -5.897  1.00  0.00     0.239 A 
ATOM      6  C   UNL     1     -10.117 -43.755  -5.412  1.00  0.00     0.146 A 
ATOM      7  O   UNL     1     -13.145 -41.839  -5.567  1.00  0.00    -0.285 OA
ATOM      8  C   UNL     1     -11.288 -43.103  -4.947  1.00  0.00     0.111 A 
ATOM      9  C   UNL     1      -9.256 -44.381  -4.501  1.00  0.00     0.094 A 
ATOM     10  C   UNL     1     -11.588 -43.118  -3.567  1.00  0.00     0.134 A 
ATOM     11  C   UNL     1      -9.549 -44.373  -3.135  1.00  0.00     0.123 A 
ATOM     12  C   UNL     1     -10.718 -43.764  -2.674  1.00  0.00     0.093 A 
BRANCH   3  13
ATOM     13  C   UNL     1     -10.126 -43.214  -9.043  1.00  0.00     0.025 A 
ATOM     14  C   UNL     1     -10.341 -44.381  -9.795  1.00  0.00     0.016 A 
ATOM     15  C   UNL     1      -9.988 -44.427 -11.145  1.00  0.00     0.051 A 
ATOM     16  C   UNL     1      -9.403 -43.312 -11.761  1.00  0.00     0.157 A 
ATOM     17  C   UNL     1      -9.485 -42.122  -9.646  1.00  0.00     0.062 A 
ATOM     18  C   UNL     1      -9.145 -42.157 -11.004  1.00  0.00     0.158 A 
BRANCH  16  19
ATOM     19  O   UNL     1      -9.101 -43.346 -13.117  1.00  0.00    -0.504 OA
ATOM     20  H   UNL     1      -9.582 -42.755 -13.787  1.00  0.00     0.293 HD
ENDBRANCH  16  19
BRANCH  18  21
ATOM     21  O   UNL     1      -8.560 -41.032 -11.585  1.00  0.00    -0.504 OA
ATOM     22  H   UNL     1      -8.909 -40.100 -11.409  1.00  0.00     0.293 HD
ENDBRANCH  18  21
ENDBRANCH   3  13
BRANCH  10  23
ATOM     23  O   UNL     1     -12.733 -42.500  -3.076  1.00  0.00    -0.507 OA
ATOM     24  H   UNL     1     -13.525 -43.028  -2.722  1.00  0.00     0.293 HD
ENDBRANCH  10  23
BRANCH  11  25
ATOM     25  O   UNL     1      -8.666 -44.983  -2.237  1.00  0.00    -0.508 OA
ATOM     26  H   UNL     1      -8.131 -44.437  -1.569  1.00  0.00     0.293 HD
ENDBRANCH  11  25
ENDBRANCH   1   2
BRANCH   1  27
ATOM     27  C   UNL     1     -13.054 -42.023  -9.214  1.00  0.00     0.339 C 
ATOM     28  C   UNL     1     -13.482 -40.913 -10.211  1.00  0.00     0.214 C 
ATOM     29  O   UNL     1     -14.136 -42.804  -8.736  1.00  0.00    -0.332 OA
ATOM     30  C   UNL     1     -14.731 -40.135  -9.740  1.00  0.00     0.180 C 
ATOM     31  C   UNL     1     -15.122 -42.000  -8.106  1.00  0.00     0.179 C 
ATOM     32  C   UNL     1     -15.796 -41.080  -9.145  1.00  0.00     0.177 C 
BRANCH  28  33
ATOM     33  O   UNL     1     -13.720 -41.451 -11.493  1.00  0.00    -0.384 OA
ATOM     34  H   UNL     1     -14.707 -41.529 -11.609  1.00  0.00     0.211 HD
ENDBRANCH  28  33
BRANCH  30  35
ATOM     35  O   UNL     1     -14.363 -39.192  -8.765  1.00  0.00    -0.387 OA
ATOM     36  H   UNL     1     -13.756 -38.532  -9.199  1.00  0.00     0.211 HD
ENDBRANCH  30  35
BRANCH  31  37
ATOM     37  C   UNL     1     -16.117 -42.909  -7.386  1.00  0.00     0.191 C 
BRANCH  37  38
ATOM     38  O   UNL     1     -15.882 -42.895  -6.004  1.00  0.00    -0.394 OA
ATOM     39  H   UNL     1     -15.136 -43.535  -5.834  1.00  0.00     0.210 HD
ENDBRANCH  37  38
ENDBRANCH  31  37
BRANCH  32  40
ATOM     40  O   UNL     1     -16.452 -41.815 -10.147  1.00  0.00    -0.387 OA
ATOM     41  H   UNL     1     -16.501 -42.764  -9.850  1.00  0.00     0.211 HD
ENDBRANCH  32  40
ENDBRANCH   1  27
TORSDOF 12
ENDMDL
MODEL 5
REMARK VINA RESULT:    -8.088      3.954      8.720
REMARK INTER + INTRA:         -12.990
REMARK INTER:                 -11.536
REMARK INTRA:                  -1.454
REMARK UNBOUND:                -1.119
REMARK SMILES O=c1c(O[C@H]2O[C@H](CO)[C@H](O)[C@@H](O)[C@@H]2O)c(-c2ccc(O)c(O)c2)oc2cc(O)cc(O)c12
REMARK SMILES IDX 4 1 3 2 16 3 25 4 2 5 26 6 1 7 33 8 27 9 31 10 28 11 30 12
REMARK SMILES IDX 17 13 18 14 19 15 20 16 24 17 22 18 21 19 23 21 32 23 29 25
REMARK SMILES IDX 5 27 14 28 6 29 12 30 7 31 10 32 15 33 13 35 8 37 9 38 11 40
REMARK H PARENT 21 20 23 22 32 24 29 26 15 34 13 36 9 39 11 41
REMARK Flexibility Score: inf
ROOT
ATOM      1  O   UNL     1     -14.520 -44.618  -3.272  1.00  0.00    -0.454 OA
ENDROOT
BRANCH   1   2
ATOM      2  C   UNL     1     -14.301 -43.291  -3.650  1.00  0.00     0.214 A 
ATOM      3  C   UNL     1     -13.670 -42.380  -2.781  1.00  0.00     0.180 A 
ATOM      4  O   UNL     1     -13.241 -41.208  -3.250  1.00  0.00    -0.452 OA
ATOM      5  C   UNL     1     -14.604 -42.885  -4.955  1.00  0.00     0.239 A 
ATOM      6  C   UNL     1     -13.421 -40.824  -4.510  1.00  0.00     0.146 A 
ATOM      7  O   UNL     1     -15.271 -43.659  -5.697  1.00  0.00    -0.285 OA
ATOM      8  C   UNL     1     -14.143 -41.639  -5.420  1.00  0.00     0.111 A 
ATOM      9  C   UNL     1     -12.877 -39.607  -4.941  1.00  0.00     0.094 A 
ATOM     10  C   UNL     1     -14.329 -41.197  -6.749  1.00  0.00     0.134 A 
ATOM     11  C   UNL     1     -13.047 -39.187  -6.263  1.00  0.00     0.123 A 
ATOM     12  C   UNL     1     -13.786 -39.967  -7.154  1.00  0.00     0.093 A 
BRANCH   3  13
ATOM     13  C   UNL     1     -13.419 -42.716  -1.364  1.00  0.00     0.025 A 
ATOM     14  C   UNL     1     -14.468 -42.712  -0.429  1.00  0.00     0.016 A 
ATOM     15  C   UNL     1     -14.234 -43.078   0.897  1.00  0.00     0.051 A 
ATOM     16  C   UNL     1     -12.947 -43.443   1.313  1.00  0.00     0.157 A 
ATOM     17  C   UNL     1     -12.120 -43.021  -0.930  1.00  0.00     0.062 A 
ATOM     18  C   UNL     1     -11.884 -43.407   0.395  1.00  0.00     0.158 A 
BRANCH  16  19
ATOM     19  O   UNL     1     -12.730 -43.856   2.622  1.00  0.00    -0.504 OA
ATOM     20  H   UNL     1     -13.344 -43.576   3.379  1.00  0.00     0.293 HD
ENDBRANCH  16  19
BRANCH  18  21
ATOM     21  O   UNL     1     -10.590 -43.758   0.776  1.00  0.00    -0.504 OA
ATOM     22  H   UNL     1      -9.907 -43.064   1.047  1.00  0.00     0.293 HD
ENDBRANCH  18  21
ENDBRANCH   3  13
BRANCH  10  23
ATOM     23  O   UNL     1     -15.041 -41.963  -7.666  1.00  0.00    -0.507 OA
ATOM     24  H   UNL     1     -15.421 -41.570  -8.522  1.00  0.00     0.293 HD
ENDBRANCH  10  23
BRANCH  11  25
ATOM     25  O   UNL     1     -12.476 -37.980  -6.681  1.00  0.00    -0.508 OA
ATOM     26  H   UNL     1     -12.403 -37.744  -7.665  1.00  0.00     0.293 HD
ENDBRANCH  11  25
ENDBRANCH   1   2
BRANCH   1  27
ATOM     27  C   UNL     1     -13.400 -45.464  -2.980  1.00  0.00     0.339 C 
ATOM     28  C   UNL     1     -12.476 -45.657  -4.213  1.00  0.00     0.214 C 
ATOM     29  O   UNL     1     -13.836 -46.683  -2.402  1.00  0.00    -0.332 OA
ATOM     30  C   UNL     1     -13.001 -46.729  -5.193  1.00  0.00     0.180 C 
ATOM     31  C   UNL     1     -14.521 -47.492  -3.346  1.00  0.00     0.179 C 
ATOM     32  C   UNL     1     -13.543 -47.964  -4.444  1.00  0.00     0.177 C 
BRANCH  28  33
ATOM     33  O   UNL     1     -11.165 -45.990  -3.813  1.00  0.00    -0.384 OA
ATOM     34  H   UNL     1     -10.645 -46.210  -4.635  1.00  0.00     0.211 HD
ENDBRANCH  28  33
BRANCH  30  35
ATOM     35  O   UNL     1     -14.030 -46.187  -5.983  1.00  0.00    -0.387 OA
ATOM     36  H   UNL     1     -13.675 -46.082  -6.908  1.00  0.00     0.211 HD
ENDBRANCH  30  35
BRANCH  31  37
ATOM     37  C   UNL     1     -15.190 -48.653  -2.611  1.00  0.00     0.191 C 
BRANCH  37  38
ATOM     38  O   UNL     1     -14.314 -49.203  -1.665  1.00  0.00    -0.394 OA
ATOM     39  H   UNL     1     -14.802 -49.955  -1.227  1.00  0.00     0.210 HD
ENDBRANCH  37  38
ENDBRANCH  31  37
BRANCH  32  40
ATOM     40  O   UNL     1     -12.503 -48.747  -3.917  1.00  0.00    -0.387 OA
ATOM     41  H   UNL     1     -11.895 -48.995  -4.665  1.00  0.00     0.211 HD
ENDBRANCH  32  40
ENDBRANCH   1  27
TORSDOF 12
ENDMDL
MODEL 6
REMARK VINA RESULT:    -8.074      3.807      8.406
REMARK INTER + INTRA:         -12.969
REMARK INTER:                 -11.798
REMARK INTRA:                  -1.171
REMARK UNBOUND:                -1.119
REMARK SMILES O=c1c(O[C@H]2O[C@H](CO)[C@H](O)[C@@H](O)[C@@H]2O)c(-c2ccc(O)c(O)c2)oc2cc(O)cc(O)c12
REMARK SMILES IDX 4 1 3 2 16 3 25 4 2 5 26 6 1 7 33 8 27 9 31 10 28 11 30 12
REMARK SMILES IDX 17 13 18 14 19 15 20 16 24 17 22 18 21 19 23 21 32 23 29 25
REMARK SMILES IDX 5 27 14 28 6 29 12 30 7 31 10 32 15 33 13 35 8 37 9 38 11 40
REMARK H PARENT 21 20 23 22 32 24 29 26 15 34 13 36 9 39 11 41
REMARK Flexibility Score: inf
ROOT
ATOM      1  O   UNL     1     -13.798 -45.212  -4.192  1.00  0.00    -0.454 OA
ENDROOT
BRANCH   1   2
ATOM      2  C   UNL     1     -13.897 -43.900  -4.662  1.00  0.00     0.214 A 
ATOM      3  C   UNL     1     -13.166 -42.855  -4.065  1.00  0.00     0.180 A 
ATOM      4  O   UNL     1     -13.074 -41.677  -4.683  1.00  0.00    -0.452 OA
ATOM      5  C   UNL     1     -14.642 -43.635  -5.817  1.00  0.00     0.239 A 
ATOM      6  C   UNL     1     -13.686 -41.414  -5.834  1.00  0.00     0.146 A 
ATOM      7  O   UNL     1     -15.386 -44.540  -6.286  1.00  0.00    -0.285 OA
ATOM      8  C   UNL     1     -14.528 -42.379  -6.444  1.00  0.00     0.111 A 
ATOM      9  C   UNL     1     -13.479 -40.174  -6.453  1.00  0.00     0.094 A 
ATOM     10  C   UNL     1     -15.175 -42.065  -7.660  1.00  0.00     0.134 A 
ATOM     11  C   UNL     1     -14.105 -39.880  -7.667  1.00  0.00     0.123 A 
ATOM     12  C   UNL     1     -14.964 -40.811  -8.255  1.00  0.00     0.093 A 
BRANCH   3  13
ATOM     13  C   UNL     1     -12.447 -43.049  -2.790  1.00  0.00     0.025 A 
ATOM     14  C   UNL     1     -13.075 -42.775  -1.563  1.00  0.00     0.016 A 
ATOM     15  C   UNL     1     -12.408 -43.008  -0.360  1.00  0.00     0.051 A 
ATOM     16  C   UNL     1     -11.098 -43.507  -0.362  1.00  0.00     0.157 A 
ATOM     17  C   UNL     1     -11.115 -43.490  -2.790  1.00  0.00     0.062 A 
ATOM     18  C   UNL     1     -10.448 -43.742  -1.585  1.00  0.00     0.158 A 
BRANCH  16  19
ATOM     19  O   UNL     1     -10.457 -43.786   0.839  1.00  0.00    -0.504 OA
ATOM     20  H   UNL     1      -9.506 -44.136   0.868  1.00  0.00     0.293 HD
ENDBRANCH  16  19
BRANCH  18  21
ATOM     21  O   UNL     1      -9.143 -44.234  -1.625  1.00  0.00    -0.504 OA
ATOM     22  H   UNL     1      -8.525 -44.043  -2.400  1.00  0.00     0.293 HD
ENDBRANCH  18  21
ENDBRANCH   3  13
BRANCH  10  23
ATOM     23  O   UNL     1     -16.017 -42.981  -8.281  1.00  0.00    -0.507 OA
ATOM     24  H   UNL     1     -15.964 -43.178  -9.276  1.00  0.00     0.293 HD
ENDBRANCH  10  23
BRANCH  11  25
ATOM     25  O   UNL     1     -13.868 -38.645  -8.282  1.00  0.00    -0.508 OA
ATOM     26  H   UNL     1     -14.041 -38.508  -9.272  1.00  0.00     0.293 HD
ENDBRANCH  11  25
ENDBRANCH   1   2
BRANCH   1  27
ATOM     27  C   UNL     1     -14.943 -45.840  -3.600  1.00  0.00     0.339 C 
ATOM     28  C   UNL     1     -14.860 -45.866  -2.050  1.00  0.00     0.214 C 
ATOM     29  O   UNL     1     -15.163 -47.115  -4.177  1.00  0.00    -0.332 OA
ATOM     30  C   UNL     1     -13.981 -47.019  -1.516  1.00  0.00     0.180 C 
ATOM     31  C   UNL     1     -14.152 -48.039  -3.804  1.00  0.00     0.179 C 
ATOM     32  C   UNL     1     -14.235 -48.329  -2.290  1.00  0.00     0.177 C 
BRANCH  28  33
ATOM     33  O   UNL     1     -16.146 -45.953  -1.477  1.00  0.00    -0.384 OA
ATOM     34  H   UNL     1     -16.324 -46.914  -1.281  1.00  0.00     0.211 HD
ENDBRANCH  28  33
BRANCH  30  35
ATOM     35  O   UNL     1     -12.623 -46.675  -1.636  1.00  0.00    -0.387 OA
ATOM     36  H   UNL     1     -12.191 -47.357  -2.221  1.00  0.00     0.211 HD
ENDBRANCH  30  35
BRANCH  31  37
ATOM     37  C   UNL     1     -14.293 -49.299  -4.656  1.00  0.00     0.191 C 
BRANCH  37  38
ATOM     38  O   UNL     1     -13.301 -49.334  -5.647  1.00  0.00    -0.394 OA
ATOM     39  H   UNL     1     -13.606 -49.989  -6.334  1.00  0.00     0.210 HD
ENDBRANCH  37  38
ENDBRANCH  31  37
BRANCH  32  40
ATOM     40  O   UNL     1     -15.465 -48.908  -1.935  1.00  0.00    -0.387 OA
ATOM     41  H   UNL     1     -15.905 -49.231  -2.768  1.00  0.00     0.211 HD
ENDBRANCH  32  40
ENDBRANCH   1  27
TORSDOF 12
ENDMDL
MODEL 7
REMARK VINA RESULT:    -8.055      3.420      7.224
REMARK INTER + INTRA:         -12.941
REMARK INTER:                 -11.509
REMARK INTRA:                  -1.431
REMARK UNBOUND:                -1.119
REMARK SMILES O=c1c(O[C@H]2O[C@H](CO)[C@H](O)[C@@H](O)[C@@H]2O)c(-c2ccc(O)c(O)c2)oc2cc(O)cc(O)c12
REMARK SMILES IDX 4 1 3 2 16 3 25 4 2 5 26 6 1 7 33 8 27 9 31 10 28 11 30 12
REMARK SMILES IDX 17 13 18 14 19 15 20 16 24 17 22 18 21 19 23 21 32 23 29 25
REMARK SMILES IDX 5 27 14 28 6 29 12 30 7 31 10 32 15 33 13 35 8 37 9 38 11 40
REMARK H PARENT 21 20 23 22 32 24 29 26 15 34 13 36 9 39 11 41
REMARK Flexibility Score: inf
ROOT
ATOM      1  O   UNL     1     -13.846 -44.552  -5.210  1.00  0.00    -0.454 OA
ENDROOT
BRANCH   1   2
ATOM      2  C   UNL     1     -12.876 -45.048  -6.085  1.00  0.00     0.214 A 
ATOM      3  C   UNL     1     -12.511 -46.408  -6.072  1.00  0.00     0.180 A 
ATOM      4  O   UNL     1     -11.786 -46.907  -7.074  1.00  0.00    -0.452 OA
ATOM      5  C   UNL     1     -12.340 -44.211  -7.070  1.00  0.00     0.239 A 
ATOM      6  C   UNL     1     -11.340 -46.165  -8.083  1.00  0.00     0.146 A 
ATOM      7  O   UNL     1     -12.575 -42.972  -7.013  1.00  0.00    -0.285 OA
ATOM      8  C   UNL     1     -11.573 -44.766  -8.112  1.00  0.00     0.111 A 
ATOM      9  C   UNL     1     -10.645 -46.781  -9.133  1.00  0.00     0.094 A 
ATOM     10  C   UNL     1     -11.074 -44.002  -9.191  1.00  0.00     0.134 A 
ATOM     11  C   UNL     1     -10.175 -46.021 -10.207  1.00  0.00     0.123 A 
ATOM     12  C   UNL     1     -10.370 -44.639 -10.225  1.00  0.00     0.093 A 
BRANCH   3  13
ATOM     13  C   UNL     1     -12.961 -47.316  -4.998  1.00  0.00     0.025 A 
ATOM     14  C   UNL     1     -13.672 -48.490  -5.301  1.00  0.00     0.016 A 
ATOM     15  C   UNL     1     -14.051 -49.370  -4.286  1.00  0.00     0.051 A 
ATOM     16  C   UNL     1     -13.737 -49.085  -2.950  1.00  0.00     0.157 A 
ATOM     17  C   UNL     1     -12.703 -47.004  -3.655  1.00  0.00     0.062 A 
ATOM     18  C   UNL     1     -13.066 -47.892  -2.635  1.00  0.00     0.158 A 
BRANCH  16  19
ATOM     19  O   UNL     1     -14.072 -49.989  -1.949  1.00  0.00    -0.504 OA
ATOM     20  H   UNL     1     -14.058 -50.991  -2.107  1.00  0.00     0.293 HD
ENDBRANCH  16  19
BRANCH  18  21
ATOM     21  O   UNL     1     -12.743 -47.574  -1.315  1.00  0.00    -0.504 OA
ATOM     22  H   UNL     1     -13.453 -47.446  -0.609  1.00  0.00     0.293 HD
ENDBRANCH  18  21
ENDBRANCH   3  13
BRANCH  10  23
ATOM     23  O   UNL     1     -11.274 -42.627  -9.248  1.00  0.00    -0.507 OA
ATOM     24  H   UNL     1     -11.578 -42.158 -10.096  1.00  0.00     0.293 HD
ENDBRANCH  10  23
BRANCH  11  25
ATOM     25  O   UNL     1      -9.504 -46.657 -11.258  1.00  0.00    -0.508 OA
ATOM     26  H   UNL     1     -10.011 -47.147 -11.987  1.00  0.00     0.293 HD
ENDBRANCH  11  25
ENDBRANCH   1   2
BRANCH   1  27
ATOM     27  C   UNL     1     -15.233 -44.674  -5.550  1.00  0.00     0.339 C 
ATOM     28  C   UNL     1     -15.976 -43.313  -5.471  1.00  0.00     0.214 C 
ATOM     29  O   UNL     1     -15.843 -45.698  -4.784  1.00  0.00    -0.332 OA
ATOM     30  C   UNL     1     -16.386 -42.937  -4.030  1.00  0.00     0.180 C 
ATOM     31  C   UNL     1     -15.953 -45.333  -3.417  1.00  0.00     0.179 C 
ATOM     32  C   UNL     1     -16.940 -44.156  -3.263  1.00  0.00     0.177 C 
BRANCH  28  33
ATOM     33  O   UNL     1     -17.119 -43.313  -6.298  1.00  0.00    -0.384 OA
ATOM     34  H   UNL     1     -16.865 -42.889  -7.164  1.00  0.00     0.211 HD
ENDBRANCH  28  33
BRANCH  30  35
ATOM     35  O   UNL     1     -15.273 -42.430  -3.337  1.00  0.00    -0.387 OA
ATOM     36  H   UNL     1     -15.615 -41.895  -2.569  1.00  0.00     0.211 HD
ENDBRANCH  30  35
BRANCH  31  37
ATOM     37  C   UNL     1     -16.366 -46.561  -2.607  1.00  0.00     0.191 C 
BRANCH  37  38
ATOM     38  O   UNL     1     -15.788 -46.523  -1.330  1.00  0.00    -0.394 OA
ATOM     39  H   UNL     1     -15.200 -45.718  -1.306  1.00  0.00     0.210 HD
ENDBRANCH  37  38
ENDBRANCH  31  37
BRANCH  32  40
ATOM     40  O   UNL     1     -18.232 -44.496  -3.697  1.00  0.00    -0.387 OA
ATOM     41  H   UNL     1     -18.212 -44.576  -4.689  1.00  0.00     0.211 HD
ENDBRANCH  32  40
ENDBRANCH   1  27
TORSDOF 12
ENDMDL
MODEL 8
REMARK VINA RESULT:    -8.010      2.965      7.502
REMARK INTER + INTRA:         -12.875
REMARK INTER:                 -11.425
REMARK INTRA:                  -1.449
REMARK UNBOUND:                -1.119
REMARK SMILES O=c1c(O[C@H]2O[C@H](CO)[C@H](O)[C@@H](O)[C@@H]2O)c(-c2ccc(O)c(O)c2)oc2cc(O)cc(O)c12
REMARK SMILES IDX 4 1 3 2 16 3 25 4 2 5 26 6 1 7 33 8 27 9 31 10 28 11 30 12
REMARK SMILES IDX 17 13 18 14 19 15 20 16 24 17 22 18 21 19 23 21 32 23 29 25
REMARK SMILES IDX 5 27 14 28 6 29 12 30 7 31 10 32 15 33 13 35 8 37 9 38 11 40
REMARK H PARENT 21 20 23 22 32 24 29 26 15 34 13 36 9 39 11 41
REMARK Flexibility Score: inf
ROOT
ATOM      1  O   UNL     1     -14.189 -44.079  -4.824  1.00  0.00    -0.454 OA
ENDROOT
BRANCH   1   2
ATOM      2  C   UNL     1     -13.814 -43.062  -5.705  1.00  0.00     0.214 A 
ATOM      3  C   UNL     1     -12.486 -42.597  -5.758  1.00  0.00     0.180 A 
ATOM      4  O   UNL     1     -12.098 -41.822  -6.771  1.00  0.00    -0.452 OA
ATOM      5  C   UNL     1     -14.742 -42.575  -6.633  1.00  0.00     0.239 A 
ATOM      6  C   UNL     1     -12.925 -41.417  -7.730  1.00  0.00     0.146 A 
ATOM      7  O   UNL     1     -15.955 -42.902  -6.515  1.00  0.00    -0.285 OA
ATOM      8  C   UNL     1     -14.303 -41.752  -7.688  1.00  0.00     0.111 A 
ATOM      9  C   UNL     1     -12.420 -40.662  -8.797  1.00  0.00     0.094 A 
ATOM     10  C   UNL     1     -15.159 -41.295  -8.715  1.00  0.00     0.134 A 
ATOM     11  C   UNL     1     -13.270 -40.232  -9.820  1.00  0.00     0.123 A 
ATOM     12  C   UNL     1     -14.633 -40.529  -9.767  1.00  0.00     0.093 A 
BRANCH   3  13
ATOM     13  C   UNL     1     -11.490 -42.996  -4.743  1.00  0.00     0.025 A 
ATOM     14  C   UNL     1     -11.639 -42.609  -3.401  1.00  0.00     0.016 A 
ATOM     15  C   UNL     1     -10.722 -43.030  -2.437  1.00  0.00     0.051 A 
ATOM     16  C   UNL     1      -9.634 -43.836  -2.801  1.00  0.00     0.157 A 
ATOM     17  C   UNL     1     -10.366 -43.750  -5.114  1.00  0.00     0.062 A 
ATOM     18  C   UNL     1      -9.453 -44.190  -4.148  1.00  0.00     0.158 A 
BRANCH  16  19
ATOM     19  O   UNL     1      -8.752 -44.295  -1.829  1.00  0.00    -0.504 OA
ATOM     20  H   UNL     1      -7.994 -44.930  -2.054  1.00  0.00     0.293 HD
ENDBRANCH  16  19
BRANCH  18  21
ATOM     21  O   UNL     1      -8.379 -44.985  -4.546  1.00  0.00    -0.504 OA
ATOM     22  H   UNL     1      -8.413 -45.547  -5.385  1.00  0.00     0.293 HD
ENDBRANCH  18  21
ENDBRANCH   3  13
BRANCH  10  23
ATOM     23  O   UNL     1     -16.517 -41.595  -8.702  1.00  0.00    -0.507 OA
ATOM     24  H   UNL     1     -16.880 -42.447  -8.285  1.00  0.00     0.293 HD
ENDBRANCH  10  23
BRANCH  11  25
ATOM     25  O   UNL     1     -12.744 -39.500 -10.890  1.00  0.00    -0.508 OA
ATOM     26  H   UNL     1     -12.970 -39.733 -11.851  1.00  0.00     0.293 HD
ENDBRANCH  11  25
ENDBRANCH   1   2
BRANCH   1  27
ATOM     27  C   UNL     1     -13.803 -45.432  -5.100  1.00  0.00     0.339 C 
ATOM     28  C   UNL     1     -15.029 -46.375  -5.233  1.00  0.00     0.214 C 
ATOM     29  O   UNL     1     -12.844 -45.877  -4.156  1.00  0.00    -0.332 OA
ATOM     30  C   UNL     1     -15.580 -46.837  -3.865  1.00  0.00     0.180 C 
ATOM     31  C   UNL     1     -13.418 -46.040  -2.867  1.00  0.00     0.179 C 
ATOM     32  C   UNL     1     -14.441 -47.196  -2.888  1.00  0.00     0.177 C 
BRANCH  28  33
ATOM     33  O   UNL     1     -14.713 -47.505  -6.016  1.00  0.00    -0.384 OA
ATOM     34  H   UNL     1     -15.542 -47.778  -6.499  1.00  0.00     0.211 HD
ENDBRANCH  28  33
BRANCH  30  35
ATOM     35  O   UNL     1     -16.361 -45.814  -3.299  1.00  0.00    -0.387 OA
ATOM     36  H   UNL     1     -16.951 -46.232  -2.613  1.00  0.00     0.211 HD
ENDBRANCH  30  35
BRANCH  31  37
ATOM     37  C   UNL     1     -12.299 -46.259  -1.850  1.00  0.00     0.191 C 
BRANCH  37  38
ATOM     38  O   UNL     1     -12.779 -46.966  -0.739  1.00  0.00    -0.394 OA
ATOM     39  H   UNL     1     -12.842 -46.312   0.011  1.00  0.00     0.210 HD
ENDBRANCH  37  38
ENDBRANCH  31  37
BRANCH  32  40
ATOM     40  O   UNL     1     -13.840 -48.421  -3.223  1.00  0.00    -0.387 OA
ATOM     41  H   UNL     1     -14.553 -49.114  -3.255  1.00  0.00     0.211 HD
ENDBRANCH  32  40
ENDBRANCH   1  27
TORSDOF 12
ENDMDL
MODEL 9
REMARK VINA RESULT:    -7.889      2.930      8.415
REMARK INTER + INTRA:         -12.697
REMARK INTER:                 -11.277
REMARK INTRA:                  -1.421
REMARK UNBOUND:                -1.119
REMARK SMILES O=c1c(O[C@H]2O[C@H](CO)[C@H](O)[C@@H](O)[C@@H]2O)c(-c2ccc(O)c(O)c2)oc2cc(O)cc(O)c12
REMARK SMILES IDX 4 1 3 2 16 3 25 4 2 5 26 6 1 7 33 8 27 9 31 10 28 11 30 12
REMARK SMILES IDX 17 13 18 14 19 15 20 16 24 17 22 18 21 19 23 21 32 23 29 25
REMARK SMILES IDX 5 27 14 28 6 29 12 30 7 31 10 32 15 33 13 35 8 37 9 38 11 40
REMARK H PARENT 21 20 23 22 32 24 29 26 15 34 13 36 9 39 11 41
REMARK Flexibility Score: inf
ROOT
ATOM      1  O   UNL     1     -13.143 -44.263  -4.849  1.00  0.00    -0.454 OA
ENDROOT
BRANCH   1   2
ATOM      2  C   UNL     1     -13.891 -43.885  -5.967  1.00  0.00     0.214 A 
ATOM      3  C   UNL     1     -15.284 -43.699  -5.882  1.00  0.00     0.180 A 
ATOM      4  O   UNL     1     -15.932 -43.095  -6.879  1.00  0.00    -0.452 OA
ATOM      5  C   UNL     1     -13.235 -43.570  -7.163  1.00  0.00     0.239 A 
ATOM      6  C   UNL     1     -15.329 -42.689  -7.992  1.00  0.00     0.146 A 
ATOM      7  O   UNL     1     -12.008 -43.842  -7.278  1.00  0.00    -0.285 OA
ATOM      8  C   UNL     1     -13.948 -42.937  -8.200  1.00  0.00     0.111 A 
ATOM      9  C   UNL     1     -16.069 -41.998  -8.960  1.00  0.00     0.094 A 
ATOM     10  C   UNL     1     -13.339 -42.505  -9.399  1.00  0.00     0.134 A 
ATOM     11  C   UNL     1     -15.454 -41.555 -10.134  1.00  0.00     0.123 A 
ATOM     12  C   UNL     1     -14.103 -41.827 -10.361  1.00  0.00     0.093 A 
BRANCH   3  13
ATOM     13  C   UNL     1     -16.044 -44.111  -4.684  1.00  0.00     0.025 A 
ATOM     14  C   UNL     1     -15.891 -45.399  -4.144  1.00  0.00     0.016 A 
ATOM     15  C   UNL     1     -16.573 -45.765  -2.983  1.00  0.00     0.051 A 
ATOM     16  C   UNL     1     -17.429 -44.854  -2.349  1.00  0.00     0.157 A 
ATOM     17  C   UNL     1     -16.949 -43.223  -4.082  1.00  0.00     0.062 A 
ATOM     18  C   UNL     1     -17.622 -43.579  -2.908  1.00  0.00     0.158 A 
BRANCH  16  19
ATOM     19  O   UNL     1     -18.067 -45.206  -1.165  1.00  0.00    -0.504 OA
ATOM     20  H   UNL     1     -18.068 -44.593  -0.357  1.00  0.00     0.293 HD
ENDBRANCH  16  19
BRANCH  18  21
ATOM     21  O   UNL     1     -18.471 -42.650  -2.306  1.00  0.00    -0.504 OA
ATOM     22  H   UNL     1     -19.476 -42.739  -2.351  1.00  0.00     0.293 HD
ENDBRANCH  18  21
ENDBRANCH   3  13
BRANCH  10  23
ATOM     23  O   UNL     1     -11.989 -42.740  -9.643  1.00  0.00    -0.507 OA
ATOM     24  H   UNL     1     -11.450 -42.179 -10.295  1.00  0.00     0.293 HD
ENDBRANCH  10  23
BRANCH  11  25
ATOM     25  O   UNL     1     -16.204 -40.846 -11.079  1.00  0.00    -0.508 OA
ATOM     26  H   UNL     1     -16.528 -39.902 -10.894  1.00  0.00     0.293 HD
ENDBRANCH  11  25
ENDBRANCH   1   2
BRANCH   1  27
ATOM     27  C   UNL     1     -12.519 -43.256  -4.042  1.00  0.00     0.339 C 
ATOM     28  C   UNL     1     -10.983 -43.458  -3.937  1.00  0.00     0.214 C 
ATOM     29  O   UNL     1     -13.165 -43.157  -2.784  1.00  0.00    -0.332 OA
ATOM     30  C   UNL     1     -10.590 -44.515  -2.881  1.00  0.00     0.180 C 
ATOM     31  C   UNL     1     -12.924 -44.303  -1.982  1.00  0.00     0.179 C 
ATOM     32  C   UNL     1     -11.432 -44.372  -1.596  1.00  0.00     0.177 C 
BRANCH  28  33
ATOM     33  O   UNL     1     -10.333 -42.241  -3.647  1.00  0.00    -0.384 OA
ATOM     34  H   UNL     1     -10.434 -42.070  -2.670  1.00  0.00     0.211 HD
ENDBRANCH  28  33
BRANCH  30  35
ATOM     35  O   UNL     1     -10.777 -45.805  -3.407  1.00  0.00    -0.387 OA
ATOM     36  H   UNL     1     -11.625 -46.164  -3.026  1.00  0.00     0.211 HD
ENDBRANCH  30  35
BRANCH  31  37
ATOM     37  C   UNL     1     -13.849 -44.260  -0.766  1.00  0.00     0.191 C 
BRANCH  37  38
ATOM     38  O   UNL     1     -13.200 -44.785   0.361  1.00  0.00    -0.394 OA
ATOM     39  H   UNL     1     -12.807 -45.659   0.084  1.00  0.00     0.210 HD
ENDBRANCH  37  38
ENDBRANCH  31  37
BRANCH  32  40
ATOM     40  O   UNL     1     -11.035 -43.256  -0.839  1.00  0.00    -0.387 OA
ATOM     41  H   UNL     1     -11.555 -43.259   0.009  1.00  0.00     0.211 HD
ENDBRANCH  32  40
ENDBRANCH   1  27
TORSDOF 12
ENDMDL
