MODEL 1
REMARK VINA RESULT:    -5.521      0.000      0.000
REMARK INTER + INTRA:         -18.842
REMARK INTER:                 -13.913
REMARK INTRA:                  -4.928
REMARK UNBOUND:                -4.928
REMARK SMILES CCCCCCCCCCCCCCCCCCCCCCCCCCCC(=O)[O-]
REMARK SMILES IDX 15 1 16 2 17 3 18 4 19 5 20 6 21 7 22 8 23 9 24 10 25 11
REMARK SMILES IDX 26 12 27 13 28 14 29 15 30 16 14 17 13 18 12 19 11 20 10 21
REMARK SMILES IDX 9 22 8 23 7 24 6 25 5 26 4 27 3 28 2 29 1 30
REMARK H PARENT
REMARK Flexibility Score: inf
ROOT
ATOM      1  C   UNL     1     119.169 173.429 129.347  1.00  0.00     0.000 C 
ENDROOT
BRANCH   1   2
ATOM      2  C   UNL     1     119.852 174.021 130.593  1.00  0.00     0.000 C 
BRANCH   2   3
ATOM      3  C   UNL     1     119.648 175.537 130.795  1.00  0.00     0.000 C 
BRANCH   3   4
ATOM      4  C   UNL     1     118.507 176.135 129.946  1.00  0.00     0.000 C 
BRANCH   4   5
ATOM      5  C   UNL     1     119.030 177.109 128.873  1.00  0.00     0.000 C 
BRANCH   5   6
ATOM      6  C   UNL     1     118.696 176.637 127.441  1.00  0.00     0.000 C 
BRANCH   6   7
ATOM      7  C   UNL     1     118.983 177.694 126.362  1.00  0.00     0.000 C 
BRANCH   7   8
ATOM      8  C   UNL     1     119.644 178.958 126.934  1.00  0.00     0.000 C 
BRANCH   8   9
ATOM      9  C   UNL     1     120.507 179.706 125.902  1.00  0.00     0.000 C 
BRANCH   9  10
ATOM     10  C   UNL     1     120.023 179.600 124.444  1.00  0.00     0.000 C 
BRANCH  10  11
ATOM     11  C   UNL     1     121.051 178.929 123.517  1.00  0.00     0.000 C 
BRANCH  11  12
ATOM     12  C   UNL     1     122.044 178.039 124.281  1.00  0.00     0.006 C 
BRANCH  12  13
ATOM     13  C   UNL     1     122.928 177.203 123.345  1.00  0.00     0.053 C 
BRANCH  13  14
ATOM     14  C   UNL     1     124.289 177.005 123.937  1.00  0.00     0.041 C 
ATOM     15  O   UNL     1     124.533 177.394 125.112  1.00  0.00    -0.550 OA
ATOM     16  O   UNL     1     125.290 176.388 123.195  1.00  0.00    -0.550 OA
ENDBRANCH  13  14
ENDBRANCH  12  13
ENDBRANCH  11  12
ENDBRANCH  10  11
ENDBRANCH   9  10
ENDBRANCH   8   9
ENDBRANCH   7   8
ENDBRANCH   6   7
ENDBRANCH   5   6
ENDBRANCH   4   5
ENDBRANCH   3   4
ENDBRANCH   2   3
ENDBRANCH   1   2
BRANCH   1  17
ATOM     17  C   UNL     1     118.776 171.953 129.517  1.00  0.00     0.000 C 
BRANCH  17  18
ATOM     18  C   UNL     1     119.037 171.423 130.938  1.00  0.00     0.000 C 
BRANCH  18  19
ATOM     19  C   UNL     1     119.763 170.064 130.982  1.00  0.00     0.000 C 
BRANCH  19  20
ATOM     20  C   UNL     1     120.322 169.640 129.613  1.00  0.00     0.000 C 
BRANCH  20  21
ATOM     21  C   UNL     1     121.852 169.709 129.603  1.00  0.00     0.000 C 
BRANCH  21  22
ATOM     22  C   UNL     1     122.340 171.128 129.264  1.00  0.00    -0.000 C 
BRANCH  22  23
ATOM     23  C   UNL     1     122.632 171.323 127.763  1.00  0.00    -0.000 C 
BRANCH  23  24
ATOM     24  C   UNL     1     122.944 172.778 127.359  1.00  0.00    -0.000 C 
BRANCH  24  25
ATOM     25  C   UNL     1     121.873 173.482 126.505  1.00  0.00    -0.000 C 
BRANCH  25  26
ATOM     26  C   UNL     1     121.846 175.018 126.624  1.00  0.00    -0.000 C 
BRANCH  26  27
ATOM     27  C   UNL     1     122.209 175.514 128.031  1.00  0.00    -0.000 C 
BRANCH  27  28
ATOM     28  C   UNL     1     122.498 177.024 128.020  1.00  0.00    -0.000 C 
BRANCH  28  29
ATOM     29  C   UNL     1     122.811 177.576 129.420  1.00  0.00    -0.003 C 
ATOM     30  C   UNL     1     122.176 178.942 129.674  1.00  0.00     0.004 C 
ENDBRANCH  28  29
ENDBRANCH  27  28
ENDBRANCH  26  27
ENDBRANCH  25  26
ENDBRANCH  24  25
ENDBRANCH  23  24
ENDBRANCH  22  23
ENDBRANCH  21  22
ENDBRANCH  20  21
ENDBRANCH  19  20
ENDBRANCH  18  19
ENDBRANCH  17  18
ENDBRANCH   1  17
TORSDOF 26
ENDMDL
MODEL 2
REMARK VINA RESULT:    -5.373      2.468      5.604
REMARK INTER + INTRA:         -18.468
REMARK INTER:                 -14.414
REMARK INTRA:                  -4.054
REMARK UNBOUND:                -4.928
REMARK SMILES CCCCCCCCCCCCCCCCCCCCCCCCCCCC(=O)[O-]
REMARK SMILES IDX 15 1 16 2 17 3 18 4 19 5 20 6 21 7 22 8 23 9 24 10 25 11
REMARK SMILES IDX 26 12 27 13 28 14 29 15 30 16 14 17 13 18 12 19 11 20 10 21
REMARK SMILES IDX 9 22 8 23 7 24 6 25 5 26 4 27 3 28 2 29 1 30
REMARK H PARENT
REMARK Flexibility Score: inf
ROOT
ATOM      1  C   UNL     1     122.234 179.308 126.887  1.00  0.00     0.000 C 
ENDROOT
BRANCH   1   2
ATOM      2  C   UNL     1     120.852 179.158 127.549  1.00  0.00     0.000 C 
BRANCH   2   3
ATOM      3  C   UNL     1     119.672 179.736 126.739  1.00  0.00     0.000 C 
BRANCH   3   4
ATOM      4  C   UNL     1     118.950 178.698 125.854  1.00  0.00     0.000 C 
BRANCH   4   5
ATOM      5  C   UNL     1     118.980 179.084 124.363  1.00  0.00     0.000 C 
BRANCH   5   6
ATOM      6  C   UNL     1     120.376 179.566 123.911  1.00  0.00     0.000 C 
BRANCH   6   7
ATOM      7  C   UNL     1     120.665 179.307 122.424  1.00  0.00     0.000 C 
BRANCH   7   8
ATOM      8  C   UNL     1     121.899 178.416 122.208  1.00  0.00     0.000 C 
BRANCH   8   9
ATOM      9  C   UNL     1     122.305 177.635 123.471  1.00  0.00     0.000 C 
BRANCH   9  10
ATOM     10  C   UNL     1     123.810 177.344 123.606  1.00  0.00     0.000 C 
BRANCH  10  11
ATOM     11  C   UNL     1     124.498 177.100 122.252  1.00  0.00     0.000 C 
BRANCH  11  12
ATOM     12  C   UNL     1     126.001 176.811 122.394  1.00  0.00     0.006 C 
BRANCH  12  13
ATOM     13  C   UNL     1     126.328 175.985 123.645  1.00  0.00     0.053 C 
BRANCH  13  14
ATOM     14  C   UNL     1     127.197 174.817 123.298  1.00  0.00     0.041 C 
ATOM     15  O   UNL     1     126.924 174.097 122.299  1.00  0.00    -0.550 OA
ATOM     16  O   UNL     1     128.314 174.522 124.073  1.00  0.00    -0.550 OA
ENDBRANCH  13  14
ENDBRANCH  12  13
ENDBRANCH  11  12
ENDBRANCH  10  11
ENDBRANCH   9  10
ENDBRANCH   8   9
ENDBRANCH   7   8
ENDBRANCH   6   7
ENDBRANCH   5   6
ENDBRANCH   4   5
ENDBRANCH   3   4
ENDBRANCH   2   3
ENDBRANCH   1   2
BRANCH   1  17
ATOM     17  C   UNL     1     123.224 178.208 127.302  1.00  0.00     0.000 C 
BRANCH  17  18
ATOM     18  C   UNL     1     124.126 178.625 128.477  1.00  0.00     0.000 C 
BRANCH  18  19
ATOM     19  C   UNL     1     123.514 178.367 129.868  1.00  0.00     0.000 C 
BRANCH  19  20
ATOM     20  C   UNL     1     122.838 176.990 129.976  1.00  0.00     0.000 C 
BRANCH  20  21
ATOM     21  C   UNL     1     121.488 177.099 130.693  1.00  0.00     0.000 C 
BRANCH  21  22
ATOM     22  C   UNL     1     120.686 175.792 130.567  1.00  0.00    -0.000 C 
BRANCH  22  23
ATOM     23  C   UNL     1     119.241 176.017 130.077  1.00  0.00    -0.000 C 
BRANCH  23  24
ATOM     24  C   UNL     1     119.092 176.079 128.544  1.00  0.00    -0.000 C 
BRANCH  24  25
ATOM     25  C   UNL     1     119.936 175.066 127.746  1.00  0.00    -0.000 C 
BRANCH  25  26
ATOM     26  C   UNL     1     120.810 175.675 126.633  1.00  0.00    -0.000 C 
BRANCH  26  27
ATOM     27  C   UNL     1     121.618 174.621 125.864  1.00  0.00    -0.000 C 
BRANCH  27  28
ATOM     28  C   UNL     1     122.631 173.927 126.787  1.00  0.00    -0.000 C 
BRANCH  28  29
ATOM     29  C   UNL     1     122.622 172.398 126.634  1.00  0.00    -0.003 C 
ATOM     30  C   UNL     1     124.025 171.795 126.607  1.00  0.00     0.004 C 
ENDBRANCH  28  29
ENDBRANCH  27  28
ENDBRANCH  26  27
ENDBRANCH  25  26
ENDBRANCH  24  25
ENDBRANCH  23  24
ENDBRANCH  22  23
ENDBRANCH  21  22
ENDBRANCH  20  21
ENDBRANCH  19  20
ENDBRANCH  18  19
ENDBRANCH  17  18
ENDBRANCH   1  17
TORSDOF 26
ENDMDL
MODEL 3
REMARK VINA RESULT:    -5.304      2.135      5.063
REMARK INTER + INTRA:         -18.295
REMARK INTER:                 -14.050
REMARK INTRA:                  -4.245
REMARK UNBOUND:                -4.928
REMARK SMILES CCCCCCCCCCCCCCCCCCCCCCCCCCCC(=O)[O-]
REMARK SMILES IDX 15 1 16 2 17 3 18 4 19 5 20 6 21 7 22 8 23 9 24 10 25 11
REMARK SMILES IDX 26 12 27 13 28 14 29 15 30 16 14 17 13 18 12 19 11 20 10 21
REMARK SMILES IDX 9 22 8 23 7 24 6 25 5 26 4 27 3 28 2 29 1 30
REMARK H PARENT
REMARK Flexibility Score: inf
ROOT
ATOM      1  C   UNL     1     121.898 178.631 129.056  1.00  0.00     0.000 C 
ENDROOT
BRANCH   1   2
ATOM      2  C   UNL     1     121.060 179.136 127.867  1.00  0.00     0.000 C 
BRANCH   2   3
ATOM      3  C   UNL     1     119.960 178.169 127.383  1.00  0.00     0.000 C 
BRANCH   3   4
ATOM      4  C   UNL     1     119.706 178.218 125.861  1.00  0.00     0.000 C 
BRANCH   4   5
ATOM      5  C   UNL     1     120.589 179.267 125.158  1.00  0.00     0.000 C 
BRANCH   5   6
ATOM      6  C   UNL     1     121.239 178.715 123.870  1.00  0.00     0.000 C 
BRANCH   6   7
ATOM      7  C   UNL     1     122.237 177.574 124.125  1.00  0.00     0.000 C 
BRANCH   7   8
ATOM      8  C   UNL     1     123.321 177.954 125.146  1.00  0.00     0.000 C 
BRANCH   8   9
ATOM      9  C   UNL     1     124.739 177.564 124.692  1.00  0.00     0.000 C 
BRANCH   9  10
ATOM     10  C   UNL     1     124.888 177.275 123.187  1.00  0.00     0.000 C 
BRANCH  10  11
ATOM     11  C   UNL     1     126.250 176.658 122.826  1.00  0.00     0.000 C 
BRANCH  11  12
ATOM     12  C   UNL     1     126.416 176.433 121.315  1.00  0.00     0.006 C 
BRANCH  12  13
ATOM     13  C   UNL     1     126.767 174.979 120.970  1.00  0.00     0.053 C 
BRANCH  13  14
ATOM     14  C   UNL     1     128.243 174.750 121.075  1.00  0.00     0.041 C 
ATOM     15  O   UNL     1     128.708 174.018 121.991  1.00  0.00    -0.550 OA
ATOM     16  O   UNL     1     129.109 175.339 120.161  1.00  0.00    -0.550 OA
ENDBRANCH  13  14
ENDBRANCH  12  13
ENDBRANCH  11  12
ENDBRANCH  10  11
ENDBRANCH   9  10
ENDBRANCH   8   9
ENDBRANCH   7   8
ENDBRANCH   6   7
ENDBRANCH   5   6
ENDBRANCH   4   5
ENDBRANCH   3   4
ENDBRANCH   2   3
ENDBRANCH   1   2
BRANCH   1  17
ATOM     17  C   UNL     1     122.593 177.289 128.778  1.00  0.00     0.000 C 
BRANCH  17  18
ATOM     18  C   UNL     1     122.191 176.187 129.775  1.00  0.00     0.000 C 
BRANCH  18  19
ATOM     19  C   UNL     1     121.268 176.669 130.911  1.00  0.00     0.000 C 
BRANCH  19  20
ATOM     20  C   UNL     1     119.887 175.991 130.886  1.00  0.00     0.000 C 
BRANCH  20  21
ATOM     21  C   UNL     1     120.016 174.500 130.555  1.00  0.00     0.000 C 
BRANCH  21  22
ATOM     22  C   UNL     1     118.907 174.050 129.588  1.00  0.00    -0.000 C 
BRANCH  22  23
ATOM     23  C   UNL     1     118.875 172.522 129.380  1.00  0.00    -0.000 C 
BRANCH  23  24
ATOM     24  C   UNL     1     120.210 171.811 129.680  1.00  0.00    -0.000 C 
BRANCH  24  25
ATOM     25  C   UNL     1     120.908 171.156 128.473  1.00  0.00    -0.000 C 
BRANCH  25  26
ATOM     26  C   UNL     1     122.399 171.509 128.309  1.00  0.00    -0.000 C 
BRANCH  26  27
ATOM     27  C   UNL     1     122.637 173.009 128.087  1.00  0.00    -0.000 C 
BRANCH  27  28
ATOM     28  C   UNL     1     122.871 173.311 126.599  1.00  0.00    -0.000 C 
BRANCH  28  29
ATOM     29  C   UNL     1     122.151 174.587 126.133  1.00  0.00    -0.003 C 
ATOM     30  C   UNL     1     120.663 174.589 126.481  1.00  0.00     0.004 C 
ENDBRANCH  28  29
ENDBRANCH  27  28
ENDBRANCH  26  27
ENDBRANCH  25  26
ENDBRANCH  24  25
ENDBRANCH  23  24
ENDBRANCH  22  23
ENDBRANCH  21  22
ENDBRANCH  20  21
ENDBRANCH  19  20
ENDBRANCH  18  19
ENDBRANCH  17  18
ENDBRANCH   1  17
TORSDOF 26
ENDMDL
MODEL 4
REMARK VINA RESULT:    -5.245      3.803      8.373
REMARK INTER + INTRA:         -18.146
REMARK INTER:                 -13.971
REMARK INTRA:                  -4.175
REMARK UNBOUND:                -4.928
REMARK SMILES CCCCCCCCCCCCCCCCCCCCCCCCCCCC(=O)[O-]
REMARK SMILES IDX 15 1 16 2 17 3 18 4 19 5 20 6 21 7 22 8 23 9 24 10 25 11
REMARK SMILES IDX 26 12 27 13 28 14 29 15 30 16 14 17 13 18 12 19 11 20 10 21
REMARK SMILES IDX 9 22 8 23 7 24 6 25 5 26 4 27 3 28 2 29 1 30
REMARK H PARENT
REMARK Flexibility Score: inf
ROOT
ATOM      1  C   UNL     1     122.461 176.095 125.302  1.00  0.00     0.000 C 
ENDROOT
BRANCH   1   2
ATOM      2  C   UNL     1     122.366 175.148 126.512  1.00  0.00     0.000 C 
BRANCH   2   3
ATOM      3  C   UNL     1     121.648 173.809 126.241  1.00  0.00     0.000 C 
BRANCH   3   4
ATOM      4  C   UNL     1     121.278 173.025 127.518  1.00  0.00     0.000 C 
BRANCH   4   5
ATOM      5  C   UNL     1     119.903 172.340 127.402  1.00  0.00     0.000 C 
BRANCH   5   6
ATOM      6  C   UNL     1     119.403 171.798 128.758  1.00  0.00     0.000 C 
BRANCH   6   7
ATOM      7  C   UNL     1     120.284 172.210 129.948  1.00  0.00     0.000 C 
BRANCH   7   8
ATOM      8  C   UNL     1     120.738 171.009 130.792  1.00  0.00     0.000 C 
BRANCH   8   9
ATOM      9  C   UNL     1     121.211 169.818 129.938  1.00  0.00     0.000 C 
BRANCH   9  10
ATOM     10  C   UNL     1     122.606 169.979 129.307  1.00  0.00     0.000 C 
BRANCH  10  11
ATOM     11  C   UNL     1     123.658 169.046 129.929  1.00  0.00     0.000 C 
BRANCH  11  12
ATOM     12  C   UNL     1     124.240 168.050 128.914  1.00  0.00     0.006 C 
BRANCH  12  13
ATOM     13  C   UNL     1     123.778 166.609 129.169  1.00  0.00     0.053 C 
BRANCH  13  14
ATOM     14  C   UNL     1     124.874 165.802 129.792  1.00  0.00     0.041 C 
ATOM     15  O   UNL     1     125.976 165.661 129.195  1.00  0.00    -0.550 OA
ATOM     16  O   UNL     1     124.685 165.207 131.034  1.00  0.00    -0.550 OA
ENDBRANCH  13  14
ENDBRANCH  12  13
ENDBRANCH  11  12
ENDBRANCH  10  11
ENDBRANCH   9  10
ENDBRANCH   8   9
ENDBRANCH   7   8
ENDBRANCH   6   7
ENDBRANCH   5   6
ENDBRANCH   4   5
ENDBRANCH   3   4
ENDBRANCH   2   3
ENDBRANCH   1   2
BRANCH   1  17
ATOM     17  C   UNL     1     122.287 177.575 125.679  1.00  0.00     0.000 C 
BRANCH  17  18
ATOM     18  C   UNL     1     123.586 178.218 126.199  1.00  0.00     0.000 C 
BRANCH  18  19
ATOM     19  C   UNL     1     123.607 178.457 127.722  1.00  0.00     0.000 C 
BRANCH  19  20
ATOM     20  C   UNL     1     122.258 178.955 128.268  1.00  0.00     0.000 C 
BRANCH  20  21
ATOM     21  C   UNL     1     122.042 178.478 129.708  1.00  0.00     0.000 C 
BRANCH  21  22
ATOM     22  C   UNL     1     122.663 177.089 129.931  1.00  0.00    -0.000 C 
BRANCH  22  23
ATOM     23  C   UNL     1     121.615 175.958 129.960  1.00  0.00    -0.000 C 
BRANCH  23  24
ATOM     24  C   UNL     1     120.331 176.302 130.742  1.00  0.00    -0.000 C 
BRANCH  24  25
ATOM     25  C   UNL     1     119.007 176.098 129.981  1.00  0.00    -0.000 C 
BRANCH  25  26
ATOM     26  C   UNL     1     119.147 175.933 128.456  1.00  0.00    -0.000 C 
BRANCH  26  27
ATOM     27  C   UNL     1     119.166 177.273 127.709  1.00  0.00    -0.000 C 
BRANCH  27  28
ATOM     28  C   UNL     1     118.546 177.128 126.310  1.00  0.00    -0.000 C 
BRANCH  28  29
ATOM     29  C   UNL     1     118.645 178.420 125.482  1.00  0.00    -0.003 C 
ATOM     30  C   UNL     1     117.501 178.571 124.481  1.00  0.00     0.004 C 
ENDBRANCH  28  29
ENDBRANCH  27  28
ENDBRANCH  26  27
ENDBRANCH  25  26
ENDBRANCH  24  25
ENDBRANCH  23  24
ENDBRANCH  22  23
ENDBRANCH  21  22
ENDBRANCH  20  21
ENDBRANCH  19  20
ENDBRANCH  18  19
ENDBRANCH  17  18
ENDBRANCH   1  17
TORSDOF 26
ENDMDL
MODEL 5
REMARK VINA RESULT:    -5.216      3.286      7.724
REMARK INTER + INTRA:         -18.072
REMARK INTER:                 -13.775
REMARK INTRA:                  -4.297
REMARK UNBOUND:                -4.928
REMARK SMILES CCCCCCCCCCCCCCCCCCCCCCCCCCCC(=O)[O-]
REMARK SMILES IDX 15 1 16 2 17 3 18 4 19 5 20 6 21 7 22 8 23 9 24 10 25 11
REMARK SMILES IDX 26 12 27 13 28 14 29 15 30 16 14 17 13 18 12 19 11 20 10 21
REMARK SMILES IDX 9 22 8 23 7 24 6 25 5 26 4 27 3 28 2 29 1 30
REMARK H PARENT
REMARK Flexibility Score: inf
ROOT
ATOM      1  C   UNL     1     120.352 179.427 123.230  1.00  0.00     0.000 C 
ENDROOT
BRANCH   1   2
ATOM      2  C   UNL     1     121.476 178.699 122.469  1.00  0.00     0.000 C 
BRANCH   2   3
ATOM      3  C   UNL     1     122.270 177.670 123.300  1.00  0.00     0.000 C 
BRANCH   3   4
ATOM      4  C   UNL     1     123.562 177.174 122.617  1.00  0.00     0.000 C 
BRANCH   4   5
ATOM      5  C   UNL     1     124.655 176.805 123.639  1.00  0.00     0.000 C 
BRANCH   5   6
ATOM      6  C   UNL     1     126.072 177.146 123.129  1.00  0.00     0.000 C 
BRANCH   6   7
ATOM      7  C   UNL     1     126.251 176.926 121.618  1.00  0.00     0.000 C 
BRANCH   7   8
ATOM      8  C   UNL     1     126.464 175.448 121.257  1.00  0.00     0.000 C 
BRANCH   8   9
ATOM      9  C   UNL     1     127.908 174.971 121.496  1.00  0.00     0.000 C 
BRANCH   9  10
ATOM     10  C   UNL     1     128.042 173.642 122.260  1.00  0.00     0.000 C 
BRANCH  10  11
ATOM     11  C   UNL     1     127.892 173.806 123.782  1.00  0.00     0.000 C 
BRANCH  11  12
ATOM     12  C   UNL     1     126.455 173.559 124.267  1.00  0.00     0.006 C 
BRANCH  12  13
ATOM     13  C   UNL     1     126.112 172.066 124.361  1.00  0.00     0.053 C 
BRANCH  13  14
ATOM     14  C   UNL     1     125.833 171.674 125.778  1.00  0.00     0.041 C 
ATOM     15  O   UNL     1     126.749 171.188 126.495  1.00  0.00    -0.550 OA
ATOM     16  O   UNL     1     124.560 171.847 126.313  1.00  0.00    -0.550 OA
ENDBRANCH  13  14
ENDBRANCH  12  13
ENDBRANCH  11  12
ENDBRANCH  10  11
ENDBRANCH   9  10
ENDBRANCH   8   9
ENDBRANCH   7   8
ENDBRANCH   6   7
ENDBRANCH   5   6
ENDBRANCH   4   5
ENDBRANCH   3   4
ENDBRANCH   2   3
ENDBRANCH   1   2
BRANCH   1  17
ATOM     17  C   UNL     1     120.181 178.931 124.674  1.00  0.00     0.000 C 
BRANCH  17  18
ATOM     18  C   UNL     1     120.678 179.947 125.719  1.00  0.00     0.000 C 
BRANCH  18  19
ATOM     19  C   UNL     1     121.576 179.340 126.814  1.00  0.00     0.000 C 
BRANCH  19  20
ATOM     20  C   UNL     1     123.048 179.224 126.383  1.00  0.00     0.000 C 
BRANCH  20  21
ATOM     21  C   UNL     1     123.923 178.750 127.549  1.00  0.00     0.000 C 
BRANCH  21  22
ATOM     22  C   UNL     1     123.147 178.790 128.876  1.00  0.00    -0.000 C 
BRANCH  22  23
ATOM     23  C   UNL     1     123.683 177.786 129.917  1.00  0.00    -0.000 C 
BRANCH  23  24
ATOM     24  C   UNL     1     122.586 177.067 130.729  1.00  0.00    -0.000 C 
BRANCH  24  25
ATOM     25  C   UNL     1     121.183 177.047 130.092  1.00  0.00    -0.000 C 
BRANCH  25  26
ATOM     26  C   UNL     1     120.928 175.889 129.109  1.00  0.00    -0.000 C 
BRANCH  26  27
ATOM     27  C   UNL     1     119.892 176.237 128.031  1.00  0.00    -0.000 C 
BRANCH  27  28
ATOM     28  C   UNL     1     120.389 175.816 126.639  1.00  0.00    -0.000 C 
BRANCH  28  29
ATOM     29  C   UNL     1     121.921 175.717 126.563  1.00  0.00    -0.003 C 
ATOM     30  C   UNL     1     122.398 174.635 125.596  1.00  0.00     0.004 C 
ENDBRANCH  28  29
ENDBRANCH  27  28
ENDBRANCH  26  27
ENDBRANCH  25  26
ENDBRANCH  24  25
ENDBRANCH  23  24
ENDBRANCH  22  23
ENDBRANCH  21  22
ENDBRANCH  20  21
ENDBRANCH  19  20
ENDBRANCH  18  19
ENDBRANCH  17  18
ENDBRANCH   1  17
TORSDOF 26
ENDMDL
MODEL 6
REMARK VINA RESULT:    -5.215      1.876      4.838
REMARK INTER + INTRA:         -18.069
REMARK INTER:                 -14.038
REMARK INTRA:                  -4.031
REMARK UNBOUND:                -4.928
REMARK SMILES CCCCCCCCCCCCCCCCCCCCCCCCCCCC(=O)[O-]
REMARK SMILES IDX 15 1 16 2 17 3 18 4 19 5 20 6 21 7 22 8 23 9 24 10 25 11
REMARK SMILES IDX 26 12 27 13 28 14 29 15 30 16 14 17 13 18 12 19 11 20 10 21
REMARK SMILES IDX 9 22 8 23 7 24 6 25 5 26 4 27 3 28 2 29 1 30
REMARK H PARENT
REMARK Flexibility Score: inf
ROOT
ATOM      1  C   UNL     1     118.745 172.682 129.287  1.00  0.00     0.000 C 
ENDROOT
BRANCH   1   2
ATOM      2  C   UNL     1     119.110 171.577 128.279  1.00  0.00     0.000 C 
BRANCH   2   3
ATOM      3  C   UNL     1     120.621 171.388 128.033  1.00  0.00     0.000 C 
BRANCH   3   4
ATOM      4  C   UNL     1     121.082 171.791 126.616  1.00  0.00     0.000 C 
BRANCH   4   5
ATOM      5  C   UNL     1     120.122 172.801 125.958  1.00  0.00     0.000 C 
BRANCH   5   6
ATOM      6  C   UNL     1     120.521 174.263 126.251  1.00  0.00     0.000 C 
BRANCH   6   7
ATOM      7  C   UNL     1     122.020 174.446 126.541  1.00  0.00     0.000 C 
BRANCH   7   8
ATOM      8  C   UNL     1     122.492 175.892 126.325  1.00  0.00     0.000 C 
BRANCH   8   9
ATOM      9  C   UNL     1     122.544 176.291 124.838  1.00  0.00     0.000 C 
BRANCH   9  10
ATOM     10  C   UNL     1     123.747 177.164 124.437  1.00  0.00     0.000 C 
BRANCH  10  11
ATOM     11  C   UNL     1     124.311 176.808 123.051  1.00  0.00     0.000 C 
BRANCH  11  12
ATOM     12  C   UNL     1     125.799 177.164 122.908  1.00  0.00     0.006 C 
BRANCH  12  13
ATOM     13  C   UNL     1     126.262 177.193 121.445  1.00  0.00     0.053 C 
BRANCH  13  14
ATOM     14  C   UNL     1     126.930 175.906 121.074  1.00  0.00     0.041 C 
ATOM     15  O   UNL     1     127.093 175.002 121.939  1.00  0.00    -0.550 OA
ATOM     16  O   UNL     1     127.372 175.698 119.772  1.00  0.00    -0.550 OA
ENDBRANCH  13  14
ENDBRANCH  12  13
ENDBRANCH  11  12
ENDBRANCH  10  11
ENDBRANCH   9  10
ENDBRANCH   8   9
ENDBRANCH   7   8
ENDBRANCH   6   7
ENDBRANCH   5   6
ENDBRANCH   4   5
ENDBRANCH   3   4
ENDBRANCH   2   3
ENDBRANCH   1   2
BRANCH   1  17
ATOM     17  C   UNL     1     119.916 173.078 130.200  1.00  0.00     0.000 C 
BRANCH  17  18
ATOM     18  C   UNL     1     120.474 174.478 129.888  1.00  0.00     0.000 C 
BRANCH  18  19
ATOM     19  C   UNL     1     120.153 175.540 130.957  1.00  0.00     0.000 C 
BRANCH  19  20
ATOM     20  C   UNL     1     121.199 176.667 131.014  1.00  0.00     0.000 C 
BRANCH  20  21
ATOM     21  C   UNL     1     122.334 176.409 130.017  1.00  0.00     0.000 C 
BRANCH  21  22
ATOM     22  C   UNL     1     123.555 177.292 130.326  1.00  0.00    -0.000 C 
BRANCH  22  23
ATOM     23  C   UNL     1     123.501 178.662 129.620  1.00  0.00    -0.000 C 
BRANCH  23  24
ATOM     24  C   UNL     1     124.084 178.664 128.192  1.00  0.00    -0.000 C 
BRANCH  24  25
ATOM     25  C   UNL     1     123.287 179.463 127.143  1.00  0.00    -0.000 C 
BRANCH  25  26
ATOM     26  C   UNL     1     121.755 179.384 127.285  1.00  0.00    -0.000 C 
BRANCH  26  27
ATOM     27  C   UNL     1     121.021 179.562 125.949  1.00  0.00    -0.000 C 
BRANCH  27  28
ATOM     28  C   UNL     1     119.526 179.240 126.100  1.00  0.00    -0.000 C 
BRANCH  28  29
ATOM     29  C   UNL     1     119.264 177.747 126.352  1.00  0.00    -0.003 C 
ATOM     30  C   UNL     1     119.230 177.392 127.837  1.00  0.00     0.004 C 
ENDBRANCH  28  29
ENDBRANCH  27  28
ENDBRANCH  26  27
ENDBRANCH  25  26
ENDBRANCH  24  25
ENDBRANCH  23  24
ENDBRANCH  22  23
ENDBRANCH  21  22
ENDBRANCH  20  21
ENDBRANCH  19  20
ENDBRANCH  18  19
ENDBRANCH  17  18
ENDBRANCH   1  17
TORSDOF 26
ENDMDL
MODEL 7
REMARK VINA RESULT:    -5.178      3.605      7.525
REMARK INTER + INTRA:         -17.976
REMARK INTER:                 -13.501
REMARK INTRA:                  -4.474
REMARK UNBOUND:                -4.928
REMARK SMILES CCCCCCCCCCCCCCCCCCCCCCCCCCCC(=O)[O-]
REMARK SMILES IDX 15 1 16 2 17 3 18 4 19 5 20 6 21 7 22 8 23 9 24 10 25 11
REMARK SMILES IDX 26 12 27 13 28 14 29 15 30 16 14 17 13 18 12 19 11 20 10 21
REMARK SMILES IDX 9 22 8 23 7 24 6 25 5 26 4 27 3 28 2 29 1 30
REMARK H PARENT
REMARK Flexibility Score: inf
ROOT
ATOM      1  C   UNL     1     123.098 177.326 126.384  1.00  0.00     0.000 C 
ENDROOT
BRANCH   1   2
ATOM      2  C   UNL     1     123.070 178.861 126.513  1.00  0.00     0.000 C 
BRANCH   2   3
ATOM      3  C   UNL     1     123.663 179.419 127.822  1.00  0.00     0.000 C 
BRANCH   3   4
ATOM      4  C   UNL     1     123.660 178.414 128.993  1.00  0.00     0.000 C 
BRANCH   4   5
ATOM      5  C   UNL     1     122.639 178.794 130.083  1.00  0.00     0.000 C 
BRANCH   5   6
ATOM      6  C   UNL     1     121.775 177.591 130.521  1.00  0.00     0.000 C 
BRANCH   6   7
ATOM      7  C   UNL     1     122.006 176.327 129.675  1.00  0.00     0.000 C 
BRANCH   7   8
ATOM      8  C   UNL     1     120.785 175.959 128.818  1.00  0.00     0.000 C 
BRANCH   8   9
ATOM      9  C   UNL     1     119.784 177.119 128.666  1.00  0.00     0.000 C 
BRANCH   9  10
ATOM     10  C   UNL     1     119.360 177.432 127.220  1.00  0.00     0.000 C 
BRANCH  10  11
ATOM     11  C   UNL     1     119.328 178.940 126.916  1.00  0.00     0.000 C 
BRANCH  11  12
ATOM     12  C   UNL     1     119.400 179.243 125.411  1.00  0.00     0.006 C 
BRANCH  12  13
ATOM     13  C   UNL     1     118.013 179.405 124.775  1.00  0.00     0.053 C 
BRANCH  13  14
ATOM     14  C   UNL     1     118.001 178.856 123.382  1.00  0.00     0.041 C 
ATOM     15  O   UNL     1     116.975 178.272 122.938  1.00  0.00    -0.550 OA
ATOM     16  O   UNL     1     119.121 178.992 122.568  1.00  0.00    -0.550 OA
ENDBRANCH  13  14
ENDBRANCH  12  13
ENDBRANCH  11  12
ENDBRANCH  10  11
ENDBRANCH   9  10
ENDBRANCH   8   9
ENDBRANCH   7   8
ENDBRANCH   6   7
ENDBRANCH   5   6
ENDBRANCH   4   5
ENDBRANCH   3   4
ENDBRANCH   2   3
ENDBRANCH   1   2
BRANCH   1  17
ATOM     17  C   UNL     1     122.329 176.809 125.158  1.00  0.00     0.000 C 
BRANCH  17  18
ATOM     18  C   UNL     1     122.410 177.763 123.953  1.00  0.00     0.000 C 
BRANCH  18  19
ATOM     19  C   UNL     1     122.658 177.060 122.604  1.00  0.00     0.000 C 
BRANCH  19  20
ATOM     20  C   UNL     1     123.823 177.680 121.813  1.00  0.00     0.000 C 
BRANCH  20  21
ATOM     21  C   UNL     1     125.117 176.890 122.036  1.00  0.00     0.000 C 
BRANCH  21  22
ATOM     22  C   UNL     1     125.975 177.533 123.138  1.00  0.00    -0.000 C 
BRANCH  22  23
ATOM     23  C   UNL     1     126.098 176.651 124.397  1.00  0.00    -0.000 C 
BRANCH  23  24
ATOM     24  C   UNL     1     125.610 175.200 124.207  1.00  0.00    -0.000 C 
BRANCH  24  25
ATOM     25  C   UNL     1     126.708 174.118 124.205  1.00  0.00    -0.000 C 
BRANCH  25  26
ATOM     26  C   UNL     1     128.026 174.524 123.519  1.00  0.00    -0.000 C 
BRANCH  26  27
ATOM     27  C   UNL     1     127.939 174.484 121.987  1.00  0.00    -0.000 C 
BRANCH  27  28
ATOM     28  C   UNL     1     127.082 173.297 121.519  1.00  0.00    -0.000 C 
BRANCH  28  29
ATOM     29  C   UNL     1     127.901 172.008 121.346  1.00  0.00    -0.003 C 
ATOM     30  C   UNL     1     129.260 172.252 120.691  1.00  0.00     0.004 C 
ENDBRANCH  28  29
ENDBRANCH  27  28
ENDBRANCH  26  27
ENDBRANCH  25  26
ENDBRANCH  24  25
ENDBRANCH  23  24
ENDBRANCH  22  23
ENDBRANCH  21  22
ENDBRANCH  20  21
ENDBRANCH  19  20
ENDBRANCH  18  19
ENDBRANCH  17  18
ENDBRANCH   1  17
TORSDOF 26
ENDMDL
MODEL 8
REMARK VINA RESULT:    -5.106      3.517      7.500
REMARK INTER + INTRA:         -17.796
REMARK INTER:                 -14.141
REMARK INTRA:                  -3.655
REMARK UNBOUND:                -4.928
REMARK SMILES CCCCCCCCCCCCCCCCCCCCCCCCCCCC(=O)[O-]
REMARK SMILES IDX 15 1 16 2 17 3 18 4 19 5 20 6 21 7 22 8 23 9 24 10 25 11
REMARK SMILES IDX 26 12 27 13 28 14 29 15 30 16 14 17 13 18 12 19 11 20 10 21
REMARK SMILES IDX 9 22 8 23 7 24 6 25 5 26 4 27 3 28 2 29 1 30
REMARK H PARENT
REMARK Flexibility Score: inf
ROOT
ATOM      1  C   UNL     1     120.805 178.735 125.304  1.00  0.00     0.000 C 
ENDROOT
BRANCH   1   2
ATOM      2  C   UNL     1     120.696 179.426 123.932  1.00  0.00     0.000 C 
BRANCH   2   3
ATOM      3  C   UNL     1     121.377 178.681 122.766  1.00  0.00     0.000 C 
BRANCH   3   4
ATOM      4  C   UNL     1     122.411 177.626 123.214  1.00  0.00     0.000 C 
BRANCH   4   5
ATOM      5  C   UNL     1     123.358 177.218 122.069  1.00  0.00     0.000 C 
BRANCH   5   6
ATOM      6  C   UNL     1     124.844 177.323 122.473  1.00  0.00     0.000 C 
BRANCH   6   7
ATOM      7  C   UNL     1     125.088 177.131 123.979  1.00  0.00     0.000 C 
BRANCH   7   8
ATOM      8  C   UNL     1     126.187 176.098 124.272  1.00  0.00     0.000 C 
BRANCH   8   9
ATOM      9  C   UNL     1     126.780 175.472 122.997  1.00  0.00     0.000 C 
BRANCH   9  10
ATOM     10  C   UNL     1     126.758 173.933 122.952  1.00  0.00     0.000 C 
BRANCH  10  11
ATOM     11  C   UNL     1     127.147 173.367 121.576  1.00  0.00     0.000 C 
BRANCH  11  12
ATOM     12  C   UNL     1     126.639 171.933 121.360  1.00  0.00     0.006 C 
BRANCH  12  13
ATOM     13  C   UNL     1     126.279 171.230 122.676  1.00  0.00     0.053 C 
BRANCH  13  14
ATOM     14  C   UNL     1     126.768 169.815 122.672  1.00  0.00     0.041 C 
ATOM     15  O   UNL     1     127.992 169.566 122.496  1.00  0.00    -0.550 OA
ATOM     16  O   UNL     1     125.875 168.766 122.868  1.00  0.00    -0.550 OA
ENDBRANCH  13  14
ENDBRANCH  12  13
ENDBRANCH  11  12
ENDBRANCH  10  11
ENDBRANCH   9  10
ENDBRANCH   8   9
ENDBRANCH   7   8
ENDBRANCH   6   7
ENDBRANCH   5   6
ENDBRANCH   4   5
ENDBRANCH   3   4
ENDBRANCH   2   3
ENDBRANCH   1   2
BRANCH   1  17
ATOM     17  C   UNL     1     121.568 179.572 126.343  1.00  0.00     0.000 C 
BRANCH  17  18
ATOM     18  C   UNL     1     123.094 179.391 126.256  1.00  0.00     0.000 C 
BRANCH  18  19
ATOM     19  C   UNL     1     123.704 178.593 127.425  1.00  0.00     0.000 C 
BRANCH  19  20
ATOM     20  C   UNL     1     123.778 179.404 128.729  1.00  0.00     0.000 C 
BRANCH  20  21
ATOM     21  C   UNL     1     122.995 178.711 129.849  1.00  0.00     0.000 C 
BRANCH  21  22
ATOM     22  C   UNL     1     123.565 177.314 130.142  1.00  0.00    -0.000 C 
BRANCH  22  23
ATOM     23  C   UNL     1     122.488 176.211 130.138  1.00  0.00    -0.000 C 
BRANCH  23  24
ATOM     24  C   UNL     1     121.075 176.701 130.513  1.00  0.00    -0.000 C 
BRANCH  24  25
ATOM     25  C   UNL     1     119.915 176.084 129.708  1.00  0.00    -0.000 C 
BRANCH  25  26
ATOM     26  C   UNL     1     119.383 176.955 128.554  1.00  0.00    -0.000 C 
BRANCH  26  27
ATOM     27  C   UNL     1     119.385 176.225 127.204  1.00  0.00    -0.000 C 
BRANCH  27  28
ATOM     28  C   UNL     1     120.491 175.160 127.161  1.00  0.00    -0.000 C 
BRANCH  28  29
ATOM     29  C   UNL     1     121.777 175.669 126.491  1.00  0.00    -0.003 C 
ATOM     30  C   UNL     1     122.651 174.540 125.947  1.00  0.00     0.004 C 
ENDBRANCH  28  29
ENDBRANCH  27  28
ENDBRANCH  26  27
ENDBRANCH  25  26
ENDBRANCH  24  25
ENDBRANCH  23  24
ENDBRANCH  22  23
ENDBRANCH  21  22
ENDBRANCH  20  21
ENDBRANCH  19  20
ENDBRANCH  18  19
ENDBRANCH  17  18
ENDBRANCH   1  17
TORSDOF 26
ENDMDL
MODEL 9
REMARK VINA RESULT:    -5.096      3.148      7.661
REMARK INTER + INTRA:         -17.770
REMARK INTER:                 -13.798
REMARK INTRA:                  -3.972
REMARK UNBOUND:                -4.928
REMARK SMILES CCCCCCCCCCCCCCCCCCCCCCCCCCCC(=O)[O-]
REMARK SMILES IDX 15 1 16 2 17 3 18 4 19 5 20 6 21 7 22 8 23 9 24 10 25 11
REMARK SMILES IDX 26 12 27 13 28 14 29 15 30 16 14 17 13 18 12 19 11 20 10 21
REMARK SMILES IDX 9 22 8 23 7 24 6 25 5 26 4 27 3 28 2 29 1 30
REMARK H PARENT
REMARK Flexibility Score: inf
ROOT
ATOM      1  C   UNL     1     120.456 179.364 123.524  1.00  0.00     0.000 C 
ENDROOT
BRANCH   1   2
ATOM      2  C   UNL     1     121.528 178.639 122.691  1.00  0.00     0.000 C 
BRANCH   2   3
ATOM      3  C   UNL     1     122.261 177.494 123.420  1.00  0.00     0.000 C 
BRANCH   3   4
ATOM      4  C   UNL     1     123.782 177.453 123.157  1.00  0.00     0.000 C 
BRANCH   4   5
ATOM      5  C   UNL     1     124.573 176.983 124.392  1.00  0.00     0.000 C 
BRANCH   5   6
ATOM      6  C   UNL     1     126.096 177.176 124.220  1.00  0.00     0.000 C 
BRANCH   6   7
ATOM      7  C   UNL     1     126.847 175.875 123.890  1.00  0.00     0.000 C 
BRANCH   7   8
ATOM      8  C   UNL     1     126.022 174.619 124.209  1.00  0.00     0.000 C 
BRANCH   8   9
ATOM      9  C   UNL     1     126.882 173.347 124.322  1.00  0.00     0.000 C 
BRANCH   9  10
ATOM     10  C   UNL     1     128.367 173.525 123.956  1.00  0.00     0.000 C 
BRANCH  10  11
ATOM     11  C   UNL     1     128.761 172.782 122.668  1.00  0.00     0.000 C 
BRANCH  11  12
ATOM     12  C   UNL     1     127.948 173.240 121.447  1.00  0.00     0.006 C 
BRANCH  12  13
ATOM     13  C   UNL     1     128.680 174.301 120.614  1.00  0.00     0.053 C 
BRANCH  13  14
ATOM     14  C   UNL     1     127.734 175.372 120.169  1.00  0.00     0.041 C 
ATOM     15  O   UNL     1     126.510 175.300 120.463  1.00  0.00    -0.550 OA
ATOM     16  O   UNL     1     128.201 176.455 119.431  1.00  0.00    -0.550 OA
ENDBRANCH  13  14
ENDBRANCH  12  13
ENDBRANCH  11  12
ENDBRANCH  10  11
ENDBRANCH   9  10
ENDBRANCH   8   9
ENDBRANCH   7   8
ENDBRANCH   6   7
ENDBRANCH   5   6
ENDBRANCH   4   5
ENDBRANCH   3   4
ENDBRANCH   2   3
ENDBRANCH   1   2
BRANCH   1  17
ATOM     17  C   UNL     1     120.329 178.816 124.955  1.00  0.00     0.000 C 
BRANCH  17  18
ATOM     18  C   UNL     1     120.866 179.790 126.019  1.00  0.00     0.000 C 
BRANCH  18  19
ATOM     19  C   UNL     1     121.709 179.120 127.122  1.00  0.00     0.000 C 
BRANCH  19  20
ATOM     20  C   UNL     1     123.221 179.313 126.919  1.00  0.00     0.000 C 
BRANCH  20  21
ATOM     21  C   UNL     1     124.010 178.710 128.086  1.00  0.00     0.000 C 
BRANCH  21  22
ATOM     22  C   UNL     1     123.396 179.112 129.437  1.00  0.00    -0.000 C 
BRANCH  22  23
ATOM     23  C   UNL     1     123.381 177.958 130.459  1.00  0.00    -0.000 C 
BRANCH  23  24
ATOM     24  C   UNL     1     121.984 177.623 131.019  1.00  0.00    -0.000 C 
BRANCH  24  25
ATOM     25  C   UNL     1     121.201 176.534 130.260  1.00  0.00    -0.000 C 
BRANCH  25  26
ATOM     26  C   UNL     1     122.028 175.715 129.252  1.00  0.00    -0.000 C 
BRANCH  26  27
ATOM     27  C   UNL     1     121.291 175.478 127.927  1.00  0.00    -0.000 C 
BRANCH  27  28
ATOM     28  C   UNL     1     122.256 175.593 126.736  1.00  0.00    -0.000 C 
BRANCH  28  29
ATOM     29  C   UNL     1     121.935 174.592 125.615  1.00  0.00    -0.003 C 
ATOM     30  C   UNL     1     120.734 173.704 125.938  1.00  0.00     0.004 C 
ENDBRANCH  28  29
ENDBRANCH  27  28
ENDBRANCH  26  27
ENDBRANCH  25  26
ENDBRANCH  24  25
ENDBRANCH  23  24
ENDBRANCH  22  23
ENDBRANCH  21  22
ENDBRANCH  20  21
ENDBRANCH  19  20
ENDBRANCH  18  19
ENDBRANCH  17  18
ENDBRANCH   1  17
TORSDOF 26
ENDMDL
