MODEL 1
REMARK VINA RESULT:    -6.951      0.000      0.000
REMARK INTER + INTRA:          -8.383
REMARK INTER:                  -8.170
REMARK INTRA:                  -0.213
REMARK UNBOUND:                -0.213
REMARK SMILES O=c1c(O)c(-c2ccc(O)cc2)oc2cc(O)cc(O)c12
REMARK SMILES IDX 5 1 3 2 2 3 1 4 21 5 19 6 18 7 16 8 15 9 14 10 13 11 6 12
REMARK SMILES IDX 7 13 8 14 9 15 12 16 11 17 10 18 4 20 20 22 17 24
REMARK H PARENT 10 19 4 21 20 23 17 25
REMARK Flexibility Score: inf
ROOT
ATOM      1  C   UNL     1     -21.704 -15.707 -14.090  1.00  0.00     0.180 A 
ATOM      2  C   UNL     1     -22.412 -15.017 -15.089  1.00  0.00     0.208 A 
ATOM      3  C   UNL     1     -23.724 -15.416 -15.391  1.00  0.00     0.238 A 
ATOM      4  O   UNL     1     -24.373 -14.762 -16.248  1.00  0.00    -0.285 OA
ATOM      5  C   UNL     1     -24.305 -16.509 -14.703  1.00  0.00     0.111 A 
ATOM      6  C   UNL     1     -25.611 -17.024 -14.955  1.00  0.00     0.134 A 
ATOM      7  C   UNL     1     -26.132 -18.023 -14.124  1.00  0.00     0.093 A 
ATOM      8  C   UNL     1     -25.368 -18.572 -13.091  1.00  0.00     0.123 A 
ATOM      9  C   UNL     1     -24.070 -18.116 -12.874  1.00  0.00     0.094 A 
ATOM     10  C   UNL     1     -23.535 -17.096 -13.664  1.00  0.00     0.146 A 
ATOM     11  O   UNL     1     -22.298 -16.684 -13.416  1.00  0.00    -0.452 OA
ENDROOT
BRANCH   1  12
ATOM     12  C   UNL     1     -20.308 -15.361 -13.734  1.00  0.00     0.021 A 
ATOM     13  C   UNL     1     -19.232 -16.193 -14.092  1.00  0.00     0.016 A 
ATOM     14  C   UNL     1     -17.925 -15.858 -13.722  1.00  0.00     0.047 A 
ATOM     15  C   UNL     1     -17.680 -14.696 -12.980  1.00  0.00     0.115 A 
ATOM     16  C   UNL     1     -20.055 -14.208 -12.971  1.00  0.00     0.016 A 
ATOM     17  C   UNL     1     -18.747 -13.875 -12.605  1.00  0.00     0.047 A 
BRANCH  15  18
ATOM     18  O   UNL     1     -16.382 -14.351 -12.608  1.00  0.00    -0.508 OA
ATOM     19  H   UNL     1     -16.195 -13.534 -12.037  1.00  0.00     0.293 HD
ENDBRANCH  15  18
ENDBRANCH   1  12
BRANCH   2  20
ATOM     20  O   UNL     1     -21.828 -13.929 -15.742  1.00  0.00    -0.502 OA
ATOM     21  H   UNL     1     -21.738 -13.884 -16.751  1.00  0.00     0.293 HD
ENDBRANCH   2  20
BRANCH   6  22
ATOM     22  O   UNL     1     -26.422 -16.611 -16.018  1.00  0.00    -0.507 OA
ATOM     23  H   UNL     1     -26.557 -15.652 -16.298  1.00  0.00     0.293 HD
ENDBRANCH   6  22
BRANCH   8  24
ATOM     24  O   UNL     1     -25.889 -19.576 -12.279  1.00  0.00    -0.508 OA
ATOM     25  H   UNL     1     -26.525 -19.367 -11.518  1.00  0.00     0.293 HD
ENDBRANCH   8  24
TORSDOF 5
ENDMDL
