MODEL 1
REMARK VINA RESULT:    -6.430      0.000      0.000
REMARK INTER + INTRA:          -7.691
REMARK INTER:                  -7.558
REMARK INTRA:                  -0.133
REMARK UNBOUND:                -0.133
REMARK SMILES O=C([O-])C=Cc1ccc(O)c(O)c1
REMARK SMILES IDX 6 1 13 2 7 3 11 4 8 5 9 6 5 7 4 8 2 9 1 10 3 11 12 12 10 14
REMARK H PARENT 12 13 10 15
REMARK Flexibility Score: inf
ROOT
ATOM      1  C   UNL     1     -29.573  18.539  56.576  1.00  0.00    -0.022 A 
ATOM      2  C   UNL     1     -29.376  18.757  57.950  1.00  0.00     0.058 A 
ATOM      3  C   UNL     1     -28.782  19.255  55.654  1.00  0.00     0.012 A 
ATOM      4  C   UNL     1     -28.428  19.686  58.401  1.00  0.00     0.157 A 
ATOM      5  C   UNL     1     -27.837  20.181  56.103  1.00  0.00     0.051 A 
ATOM      6  C   UNL     1     -27.656  20.404  57.471  1.00  0.00     0.157 A 
ENDROOT
BRANCH   1   7
ATOM      7  C   UNL     1     -30.582  17.537  56.153  1.00  0.00     0.010 C 
ATOM      8  C   UNL     1     -31.558  17.080  56.951  1.00  0.00     0.025 C 
BRANCH   8   9
ATOM      9  C   UNL     1     -32.536  16.075  56.499  1.00  0.00     0.064 C 
ATOM     10  O   UNL     1     -32.181  15.086  55.805  1.00  0.00    -0.545 OA
ATOM     11  O   UNL     1     -33.873  16.223  56.843  1.00  0.00    -0.545 OA
ENDBRANCH   8   9
ENDBRANCH   1   7
BRANCH   4  12
ATOM     12  O   UNL     1     -28.249  19.899  59.767  1.00  0.00    -0.504 OA
ATOM     13  H   UNL     1     -28.112  19.128  60.411  1.00  0.00     0.293 HD
ENDBRANCH   4  12
BRANCH   6  14
ATOM     14  O   UNL     1     -26.706  21.335  57.887  1.00  0.00    -0.504 OA
ATOM     15  H   UNL     1     -26.890  22.331  57.879  1.00  0.00     0.293 HD
ENDBRANCH   6  14
TORSDOF 4
ENDMDL
MODEL 2
REMARK VINA RESULT:    -6.376      1.596      2.183
REMARK INTER + INTRA:          -7.627
REMARK INTER:                  -7.494
REMARK INTRA:                  -0.133
REMARK UNBOUND:                -0.133
REMARK SMILES O=C([O-])C=Cc1ccc(O)c(O)c1
REMARK SMILES IDX 6 1 13 2 7 3 11 4 8 5 9 6 5 7 4 8 2 9 1 10 3 11 12 12 10 14
REMARK H PARENT 12 13 10 15
REMARK Flexibility Score: inf
ROOT
ATOM      1  C   UNL     1     -29.318  18.264  57.128  1.00  0.00    -0.022 A 
ATOM      2  C   UNL     1     -29.860  19.257  56.295  1.00  0.00     0.058 A 
ATOM      3  C   UNL     1     -28.074  18.500  57.747  1.00  0.00     0.012 A 
ATOM      4  C   UNL     1     -29.167  20.454  56.060  1.00  0.00     0.157 A 
ATOM      5  C   UNL     1     -27.384  19.692  57.514  1.00  0.00     0.051 A 
ATOM      6  C   UNL     1     -27.921  20.670  56.672  1.00  0.00     0.157 A 
ENDROOT
BRANCH   1   7
ATOM      7  C   UNL     1     -30.097  17.020  57.349  1.00  0.00     0.010 C 
ATOM      8  C   UNL     1     -31.083  16.605  56.541  1.00  0.00     0.025 C 
BRANCH   8   9
ATOM      9  C   UNL     1     -31.843  15.370  56.800  1.00  0.00     0.064 C 
ATOM     10  O   UNL     1     -32.215  15.065  57.964  1.00  0.00    -0.545 OA
ATOM     11  O   UNL     1     -32.152  14.525  55.742  1.00  0.00    -0.545 OA
ENDBRANCH   8   9
ENDBRANCH   1   7
BRANCH   4  12
ATOM     12  O   UNL     1     -29.711  21.427  55.224  1.00  0.00    -0.504 OA
ATOM     13  H   UNL     1     -30.602  21.290  54.759  1.00  0.00     0.293 HD
ENDBRANCH   4  12
BRANCH   6  14
ATOM     14  O   UNL     1     -27.207  21.849  56.460  1.00  0.00    -0.504 OA
ATOM     15  H   UNL     1     -27.190  22.313  55.559  1.00  0.00     0.293 HD
ENDBRANCH   6  14
TORSDOF 4
ENDMDL
MODEL 3
REMARK VINA RESULT:    -6.353      1.613      2.025
REMARK INTER + INTRA:          -7.600
REMARK INTER:                  -7.473
REMARK INTRA:                  -0.127
REMARK UNBOUND:                -0.133
REMARK SMILES O=C([O-])C=Cc1ccc(O)c(O)c1
REMARK SMILES IDX 6 1 13 2 7 3 11 4 8 5 9 6 5 7 4 8 2 9 1 10 3 11 12 12 10 14
REMARK H PARENT 12 13 10 15
REMARK Flexibility Score: inf
ROOT
ATOM      1  C   UNL     1     -29.664  18.498  57.213  1.00  0.00    -0.022 A 
ATOM      2  C   UNL     1     -28.532  17.879  56.656  1.00  0.00     0.058 A 
ATOM      3  C   UNL     1     -29.644  19.892  57.421  1.00  0.00     0.012 A 
ATOM      4  C   UNL     1     -27.390  18.628  56.335  1.00  0.00     0.157 A 
ATOM      5  C   UNL     1     -28.507  20.638  57.101  1.00  0.00     0.051 A 
ATOM      6  C   UNL     1     -27.378  20.014  56.562  1.00  0.00     0.157 A 
ENDROOT
BRANCH   1   7
ATOM      7  C   UNL     1     -30.850  17.661  57.525  1.00  0.00     0.010 C 
ATOM      8  C   UNL     1     -31.495  16.915  56.617  1.00  0.00     0.025 C 
BRANCH   8   9
ATOM      9  C   UNL     1     -32.676  16.106  56.961  1.00  0.00     0.064 C 
ATOM     10  O   UNL     1     -33.708  16.117  56.238  1.00  0.00    -0.545 OA
ATOM     11  O   UNL     1     -32.653  15.319  58.105  1.00  0.00    -0.545 OA
ENDBRANCH   8   9
ENDBRANCH   1   7
BRANCH   4  12
ATOM     12  O   UNL     1     -26.270  18.000  55.793  1.00  0.00    -0.504 OA
ATOM     13  H   UNL     1     -25.337  18.370  55.927  1.00  0.00     0.293 HD
ENDBRANCH   4  12
BRANCH   6  14
ATOM     14  O   UNL     1     -26.258  20.786  56.254  1.00  0.00    -0.504 OA
ATOM     15  H   UNL     1     -25.636  20.550  55.490  1.00  0.00     0.293 HD
ENDBRANCH   6  14
TORSDOF 4
ENDMDL
MODEL 4
REMARK VINA RESULT:    -6.028      2.469      3.102
REMARK INTER + INTRA:          -7.219
REMARK INTER:                  -7.088
REMARK INTRA:                  -0.131
REMARK UNBOUND:                -0.133
REMARK SMILES O=C([O-])C=Cc1ccc(O)c(O)c1
REMARK SMILES IDX 6 1 13 2 7 3 11 4 8 5 9 6 5 7 4 8 2 9 1 10 3 11 12 12 10 14
REMARK H PARENT 12 13 10 15
REMARK Flexibility Score: inf
ROOT
ATOM      1  C   UNL     1     -30.716  17.850  56.851  1.00  0.00    -0.022 A 
ATOM      2  C   UNL     1     -30.356  18.040  55.506  1.00  0.00     0.058 A 
ATOM      3  C   UNL     1     -30.746  18.967  57.710  1.00  0.00     0.012 A 
ATOM      4  C   UNL     1     -30.008  19.311  55.028  1.00  0.00     0.157 A 
ATOM      5  C   UNL     1     -30.400  20.234  57.234  1.00  0.00     0.051 A 
ATOM      6  C   UNL     1     -30.028  20.414  55.899  1.00  0.00     0.157 A 
ENDROOT
BRANCH   1   7
ATOM      7  C   UNL     1     -31.085  16.485  57.302  1.00  0.00     0.010 C 
ATOM      8  C   UNL     1     -32.295  16.161  57.781  1.00  0.00     0.025 C 
BRANCH   8   9
ATOM      9  C   UNL     1     -32.622  14.798  58.231  1.00  0.00     0.064 C 
ATOM     10  O   UNL     1     -32.300  13.790  57.547  1.00  0.00    -0.545 OA
ATOM     11  O   UNL     1     -33.299  14.620  59.431  1.00  0.00    -0.545 OA
ENDBRANCH   8   9
ENDBRANCH   1   7
BRANCH   4  12
ATOM     12  O   UNL     1     -29.643  19.483  53.693  1.00  0.00    -0.504 OA
ATOM     13  H   UNL     1     -29.629  18.706  53.043  1.00  0.00     0.293 HD
ENDBRANCH   4  12
BRANCH   6  14
ATOM     14  O   UNL     1     -29.686  21.690  55.455  1.00  0.00    -0.504 OA
ATOM     15  H   UNL     1     -28.729  22.021  55.452  1.00  0.00     0.293 HD
ENDBRANCH   6  14
TORSDOF 4
ENDMDL
MODEL 5
REMARK VINA RESULT:    -5.978      3.081      6.866
REMARK INTER + INTRA:          -7.159
REMARK INTER:                  -7.024
REMARK INTRA:                  -0.135
REMARK UNBOUND:                -0.133
REMARK SMILES O=C([O-])C=Cc1ccc(O)c(O)c1
REMARK SMILES IDX 6 1 13 2 7 3 11 4 8 5 9 6 5 7 4 8 2 9 1 10 3 11 12 12 10 14
REMARK H PARENT 12 13 10 15
REMARK Flexibility Score: inf
ROOT
ATOM      1  C   UNL     1     -32.397  14.871  57.305  1.00  0.00    -0.022 A 
ATOM      2  C   UNL     1     -33.060  15.181  58.504  1.00  0.00     0.058 A 
ATOM      3  C   UNL     1     -32.573  13.590  56.743  1.00  0.00     0.012 A 
ATOM      4  C   UNL     1     -33.863  14.229  59.148  1.00  0.00     0.157 A 
ATOM      5  C   UNL     1     -33.373  12.641  57.384  1.00  0.00     0.051 A 
ATOM      6  C   UNL     1     -34.018  12.951  58.585  1.00  0.00     0.157 A 
ENDROOT
BRANCH   1   7
ATOM      7  C   UNL     1     -31.567  15.919  56.660  1.00  0.00     0.010 C 
ATOM      8  C   UNL     1     -31.323  17.117  57.208  1.00  0.00     0.025 C 
BRANCH   8   9
ATOM      9  C   UNL     1     -30.504  18.138  56.532  1.00  0.00     0.064 C 
ATOM     10  O   UNL     1     -29.770  17.841  55.552  1.00  0.00    -0.545 OA
ATOM     11  O   UNL     1     -30.538  19.450  56.985  1.00  0.00    -0.545 OA
ENDBRANCH   8   9
ENDBRANCH   1   7
BRANCH   4  12
ATOM     12  O   UNL     1     -34.507  14.547  60.343  1.00  0.00    -0.504 OA
ATOM     13  H   UNL     1     -34.827  15.488  60.539  1.00  0.00     0.293 HD
ENDBRANCH   4  12
BRANCH   6  14
ATOM     14  O   UNL     1     -34.809  11.982  59.201  1.00  0.00    -0.504 OA
ATOM     15  H   UNL     1     -35.379  12.189  60.012  1.00  0.00     0.293 HD
ENDBRANCH   6  14
TORSDOF 4
ENDMDL
MODEL 6
REMARK VINA RESULT:    -5.939      3.179      7.696
REMARK INTER + INTRA:          -7.114
REMARK INTER:                  -6.975
REMARK INTRA:                  -0.139
REMARK UNBOUND:                -0.133
REMARK SMILES O=C([O-])C=Cc1ccc(O)c(O)c1
REMARK SMILES IDX 6 1 13 2 7 3 11 4 8 5 9 6 5 7 4 8 2 9 1 10 3 11 12 12 10 14
REMARK H PARENT 12 13 10 15
REMARK Flexibility Score: inf
ROOT
ATOM      1  C   UNL     1     -33.727  15.474  56.795  1.00  0.00    -0.022 A 
ATOM      2  C   UNL     1     -34.595  15.255  55.712  1.00  0.00     0.058 A 
ATOM      3  C   UNL     1     -34.004  14.845  58.026  1.00  0.00     0.012 A 
ATOM      4  C   UNL     1     -35.732  14.446  55.855  1.00  0.00     0.157 A 
ATOM      5  C   UNL     1     -35.135  14.039  58.168  1.00  0.00     0.051 A 
ATOM      6  C   UNL     1     -36.004  13.837  57.091  1.00  0.00     0.157 A 
ENDROOT
BRANCH   1   7
ATOM      7  C   UNL     1     -32.534  16.332  56.587  1.00  0.00     0.010 C 
ATOM      8  C   UNL     1     -31.356  16.130  57.195  1.00  0.00     0.025 C 
BRANCH   8   9
ATOM      9  C   UNL     1     -30.196  17.009  56.974  1.00  0.00     0.064 C 
ATOM     10  O   UNL     1     -29.205  16.991  57.751  1.00  0.00    -0.545 OA
ATOM     11  O   UNL     1     -30.196  17.877  55.889  1.00  0.00    -0.545 OA
ENDBRANCH   8   9
ENDBRANCH   1   7
BRANCH   4  12
ATOM     12  O   UNL     1     -36.590  14.245  54.775  1.00  0.00    -0.504 OA
ATOM     13  H   UNL     1     -36.258  13.858  53.898  1.00  0.00     0.293 HD
ENDBRANCH   4  12
BRANCH   6  14
ATOM     14  O   UNL     1     -37.125  13.027  57.266  1.00  0.00    -0.504 OA
ATOM     15  H   UNL     1     -37.105  12.200  57.850  1.00  0.00     0.293 HD
ENDBRANCH   6  14
TORSDOF 4
ENDMDL
MODEL 7
REMARK VINA RESULT:    -5.916      2.930      7.234
REMARK INTER + INTRA:          -7.087
REMARK INTER:                  -6.957
REMARK INTRA:                  -0.130
REMARK UNBOUND:                -0.133
REMARK SMILES O=C([O-])C=Cc1ccc(O)c(O)c1
REMARK SMILES IDX 6 1 13 2 7 3 11 4 8 5 9 6 5 7 4 8 2 9 1 10 3 11 12 12 10 14
REMARK H PARENT 12 13 10 15
REMARK Flexibility Score: inf
ROOT
ATOM      1  C   UNL     1     -32.782  15.066  56.252  1.00  0.00    -0.022 A 
ATOM      2  C   UNL     1     -31.895  13.977  56.248  1.00  0.00     0.058 A 
ATOM      3  C   UNL     1     -34.129  14.848  55.900  1.00  0.00     0.012 A 
ATOM      4  C   UNL     1     -32.332  12.697  55.877  1.00  0.00     0.157 A 
ATOM      5  C   UNL     1     -34.565  13.573  55.530  1.00  0.00     0.051 A 
ATOM      6  C   UNL     1     -33.674  12.496  55.514  1.00  0.00     0.157 A 
ENDROOT
BRANCH   1   7
ATOM      7  C   UNL     1     -32.269  16.398  56.663  1.00  0.00     0.010 C 
ATOM      8  C   UNL     1     -31.040  16.845  56.371  1.00  0.00     0.025 C 
BRANCH   8   9
ATOM      9  C   UNL     1     -30.562  18.168  56.806  1.00  0.00     0.064 C 
ATOM     10  O   UNL     1     -30.767  18.584  57.977  1.00  0.00    -0.545 OA
ATOM     11  O   UNL     1     -29.874  18.974  55.907  1.00  0.00    -0.545 OA
ENDBRANCH   8   9
ENDBRANCH   1   7
BRANCH   4  12
ATOM     12  O   UNL     1     -31.439  11.626  55.868  1.00  0.00    -0.504 OA
ATOM     13  H   UNL     1     -30.493  11.721  56.218  1.00  0.00     0.293 HD
ENDBRANCH   4  12
BRANCH   6  14
ATOM     14  O   UNL     1     -34.140  11.236  55.139  1.00  0.00    -0.504 OA
ATOM     15  H   UNL     1     -33.668  10.384  55.418  1.00  0.00     0.293 HD
ENDBRANCH   6  14
TORSDOF 4
ENDMDL
MODEL 8
REMARK VINA RESULT:    -5.907      3.401      7.708
REMARK INTER + INTRA:          -7.076
REMARK INTER:                  -6.938
REMARK INTRA:                  -0.138
REMARK UNBOUND:                -0.133
REMARK SMILES O=C([O-])C=Cc1ccc(O)c(O)c1
REMARK SMILES IDX 6 1 13 2 7 3 11 4 8 5 9 6 5 7 4 8 2 9 1 10 3 11 12 12 10 14
REMARK H PARENT 12 13 10 15
REMARK Flexibility Score: inf
ROOT
ATOM      1  C   UNL     1     -33.586  14.809  57.550  1.00  0.00    -0.022 A 
ATOM      2  C   UNL     1     -33.839  13.849  58.544  1.00  0.00     0.058 A 
ATOM      3  C   UNL     1     -34.543  15.005  56.534  1.00  0.00     0.012 A 
ATOM      4  C   UNL     1     -35.011  13.080  58.516  1.00  0.00     0.157 A 
ATOM      5  C   UNL     1     -35.711  14.239  56.506  1.00  0.00     0.051 A 
ATOM      6  C   UNL     1     -35.950  13.275  57.490  1.00  0.00     0.157 A 
ENDROOT
BRANCH   1   7
ATOM      7  C   UNL     1     -32.334  15.603  57.631  1.00  0.00     0.010 C 
ATOM      8  C   UNL     1     -31.744  16.174  56.571  1.00  0.00     0.025 C 
BRANCH   8   9
ATOM      9  C   UNL     1     -30.495  16.945  56.689  1.00  0.00     0.064 C 
ATOM     10  O   UNL     1     -29.727  16.797  57.676  1.00  0.00    -0.545 OA
ATOM     11  O   UNL     1     -30.159  17.855  55.695  1.00  0.00    -0.545 OA
ENDBRANCH   8   9
ENDBRANCH   1   7
BRANCH   4  12
ATOM     12  O   UNL     1     -35.246  12.124  59.504  1.00  0.00    -0.504 OA
ATOM     13  H   UNL     1     -34.916  12.250  60.454  1.00  0.00     0.293 HD
ENDBRANCH   4  12
BRANCH   6  14
ATOM     14  O   UNL     1     -37.125  12.526  57.434  1.00  0.00    -0.504 OA
ATOM     15  H   UNL     1     -37.136  11.529  57.612  1.00  0.00     0.293 HD
ENDBRANCH   6  14
TORSDOF 4
ENDMDL
MODEL 9
REMARK VINA RESULT:    -5.808      3.610      8.272
REMARK INTER + INTRA:          -6.960
REMARK INTER:                  -6.831
REMARK INTRA:                  -0.128
REMARK UNBOUND:                -0.133
REMARK SMILES O=C([O-])C=Cc1ccc(O)c(O)c1
REMARK SMILES IDX 6 1 13 2 7 3 11 4 8 5 9 6 5 7 4 8 2 9 1 10 3 11 12 12 10 14
REMARK H PARENT 12 13 10 15
REMARK Flexibility Score: inf
ROOT
ATOM      1  C   UNL     1     -34.151  14.462  56.275  1.00  0.00    -0.022 A 
ATOM      2  C   UNL     1     -33.656  13.193  55.932  1.00  0.00     0.058 A 
ATOM      3  C   UNL     1     -35.540  14.691  56.207  1.00  0.00     0.012 A 
ATOM      4  C   UNL     1     -34.521  12.176  55.503  1.00  0.00     0.157 A 
ATOM      5  C   UNL     1     -36.403  13.678  55.781  1.00  0.00     0.051 A 
ATOM      6  C   UNL     1     -35.902  12.422  55.426  1.00  0.00     0.157 A 
ENDROOT
BRANCH   1   7
ATOM      7  C   UNL     1     -33.193  15.500  56.732  1.00  0.00     0.010 C 
ATOM      8  C   UNL     1     -32.109  15.870  56.035  1.00  0.00     0.025 C 
BRANCH   8   9
ATOM      9  C   UNL     1     -31.173  16.896  56.525  1.00  0.00     0.064 C 
ATOM     10  O   UNL     1     -30.394  17.498  55.739  1.00  0.00    -0.545 OA
ATOM     11  O   UNL     1     -31.147  17.203  57.880  1.00  0.00    -0.545 OA
ENDBRANCH   8   9
ENDBRANCH   1   7
BRANCH   4  12
ATOM     12  O   UNL     1     -34.015  10.925  55.156  1.00  0.00    -0.504 OA
ATOM     13  H   UNL     1     -33.244  10.826  54.505  1.00  0.00     0.293 HD
ENDBRANCH   4  12
BRANCH   6  14
ATOM     14  O   UNL     1     -36.789  11.432  55.003  1.00  0.00    -0.504 OA
ATOM     15  H   UNL     1     -37.564  11.124  55.578  1.00  0.00     0.293 HD
ENDBRANCH   6  14
TORSDOF 4
ENDMDL
