MODEL 1
REMARK VINA RESULT:    -4.967      0.000      0.000
REMARK INTER + INTRA:          -8.933
REMARK INTER:                  -8.452
REMARK INTRA:                  -0.482
REMARK UNBOUND:                -0.482
REMARK SMILES CCCCCCCCCCCCCC(=O)[O-]
REMARK SMILES IDX 8 1 9 2 10 3 11 4 12 5 13 6 14 7 15 8 16 9 7 10 6 11 5 12
REMARK SMILES IDX 4 13 3 14 2 15 1 16
REMARK H PARENT
REMARK Flexibility Score: inf
ROOT
ATOM      1  C   UNL     1       2.265   8.429  15.268  1.00  0.00     0.000 C 
ENDROOT
BRANCH   1   2
ATOM      2  C   UNL     1       3.155   9.435  16.016  1.00  0.00     0.000 C 
BRANCH   2   3
ATOM      3  C   UNL     1       3.998  10.298  15.061  1.00  0.00     0.000 C 
BRANCH   3   4
ATOM      4  C   UNL     1       5.506  10.028  15.197  1.00  0.00     0.000 C 
BRANCH   4   5
ATOM      5  C   UNL     1       6.086  10.552  16.520  1.00  0.00     0.006 C 
BRANCH   5   6
ATOM      6  C   UNL     1       7.058  11.710  16.271  1.00  0.00     0.053 C 
BRANCH   6   7
ATOM      7  C   UNL     1       8.211  11.639  17.220  1.00  0.00     0.041 C 
ATOM      8  O   UNL     1       8.603  12.675  17.820  1.00  0.00    -0.550 OA
ATOM      9  O   UNL     1       8.825  10.420  17.479  1.00  0.00    -0.550 OA
ENDBRANCH   6   7
ENDBRANCH   5   6
ENDBRANCH   4   5
ENDBRANCH   3   4
ENDBRANCH   2   3
ENDBRANCH   1   2
BRANCH   1  10
ATOM     10  C   UNL     1       0.810   8.443  15.768  1.00  0.00     0.000 C 
BRANCH  10  11
ATOM     11  C   UNL     1       0.613   9.336  17.007  1.00  0.00    -0.000 C 
BRANCH  11  12
ATOM     12  C   UNL     1      -0.827   9.384  17.556  1.00  0.00    -0.000 C 
BRANCH  12  13
ATOM     13  C   UNL     1      -1.085  10.471  18.618  1.00  0.00    -0.000 C 
BRANCH  13  14
ATOM     14  C   UNL     1      -2.527  10.524  19.161  1.00  0.00    -0.000 C 
BRANCH  14  15
ATOM     15  C   UNL     1      -2.807   9.579  20.343  1.00  0.00    -0.003 C 
ATOM     16  C   UNL     1      -1.579   9.342  21.220  1.00  0.00     0.004 C 
ENDBRANCH  14  15
ENDBRANCH  13  14
ENDBRANCH  12  13
ENDBRANCH  11  12
ENDBRANCH  10  11
ENDBRANCH   1  10
TORSDOF 12
ENDMDL
MODEL 2
REMARK VINA RESULT:    -4.812      0.775      1.267
REMARK INTER + INTRA:          -8.669
REMARK INTER:                  -8.227
REMARK INTRA:                  -0.441
REMARK UNBOUND:                -0.482
REMARK SMILES CCCCCCCCCCCCCC(=O)[O-]
REMARK SMILES IDX 8 1 9 2 10 3 11 4 12 5 13 6 14 7 15 8 16 9 7 10 6 11 5 12
REMARK SMILES IDX 4 13 3 14 2 15 1 16
REMARK H PARENT
REMARK Flexibility Score: inf
ROOT
ATOM      1  C   UNL     1       2.727   9.358  16.276  1.00  0.00     0.000 C 
ENDROOT
BRANCH   1   2
ATOM      2  C   UNL     1       3.576  10.122  15.248  1.00  0.00     0.000 C 
BRANCH   2   3
ATOM      3  C   UNL     1       5.034   9.629  15.205  1.00  0.00     0.000 C 
BRANCH   3   4
ATOM      4  C   UNL     1       6.049  10.778  15.320  1.00  0.00     0.000 C 
BRANCH   4   5
ATOM      5  C   UNL     1       6.592  10.951  16.746  1.00  0.00     0.006 C 
BRANCH   5   6
ATOM      6  C   UNL     1       7.737  11.969  16.776  1.00  0.00     0.053 C 
BRANCH   6   7
ATOM      7  C   UNL     1       8.792  11.542  17.746  1.00  0.00     0.041 C 
ATOM      8  O   UNL     1       9.226  10.360  17.731  1.00  0.00    -0.550 OA
ATOM      9  O   UNL     1       9.332  12.462  18.637  1.00  0.00    -0.550 OA
ENDBRANCH   6   7
ENDBRANCH   5   6
ENDBRANCH   4   5
ENDBRANCH   3   4
ENDBRANCH   2   3
ENDBRANCH   1   2
BRANCH   1  10
ATOM     10  C   UNL     1       1.646   8.486  15.616  1.00  0.00     0.000 C 
BRANCH  10  11
ATOM     11  C   UNL     1       0.297   8.542  16.358  1.00  0.00    -0.000 C 
BRANCH  11  12
ATOM     12  C   UNL     1       0.181   9.653  17.421  1.00  0.00    -0.000 C 
BRANCH  12  13
ATOM     13  C   UNL     1      -1.188   9.744  18.122  1.00  0.00    -0.000 C 
BRANCH  13  14
ATOM     14  C   UNL     1      -1.284  10.814  19.229  1.00  0.00    -0.000 C 
BRANCH  14  15
ATOM     15  C   UNL     1      -2.161  10.423  20.432  1.00  0.00    -0.003 C 
ATOM     16  C   UNL     1      -1.585   9.257  21.235  1.00  0.00     0.004 C 
ENDBRANCH  14  15
ENDBRANCH  13  14
ENDBRANCH  12  13
ENDBRANCH  11  12
ENDBRANCH  10  11
ENDBRANCH   1  10
TORSDOF 12
ENDMDL
MODEL 3
REMARK VINA RESULT:    -4.806      4.240      8.552
REMARK INTER + INTRA:          -8.660
REMARK INTER:                  -8.351
REMARK INTRA:                  -0.309
REMARK UNBOUND:                -0.482
REMARK SMILES CCCCCCCCCCCCCC(=O)[O-]
REMARK SMILES IDX 8 1 9 2 10 3 11 4 12 5 13 6 14 7 15 8 16 9 7 10 6 11 5 12
REMARK SMILES IDX 4 13 3 14 2 15 1 16
REMARK H PARENT
REMARK Flexibility Score: inf
ROOT
ATOM      1  C   UNL     1       2.959   9.377  16.373  1.00  0.00     0.000 C 
ENDROOT
BRANCH   1   2
ATOM      2  C   UNL     1       1.831   8.810  15.496  1.00  0.00     0.000 C 
BRANCH   2   3
ATOM      3  C   UNL     1       0.525   8.597  16.282  1.00  0.00     0.000 C 
BRANCH   3   4
ATOM      4  C   UNL     1       0.282   9.694  17.332  1.00  0.00     0.000 C 
BRANCH   4   5
ATOM      5  C   UNL     1      -1.158   9.696  17.867  1.00  0.00     0.006 C 
BRANCH   5   6
ATOM      6  C   UNL     1      -1.300  10.657  19.052  1.00  0.00     0.053 C 
BRANCH   6   7
ATOM      7  C   UNL     1      -1.986   9.981  20.196  1.00  0.00     0.041 C 
ATOM      8  O   UNL     1      -3.204   9.674  20.113  1.00  0.00    -0.550 OA
ATOM      9  O   UNL     1      -1.269   9.645  21.338  1.00  0.00    -0.550 OA
ENDBRANCH   6   7
ENDBRANCH   5   6
ENDBRANCH   4   5
ENDBRANCH   3   4
ENDBRANCH   2   3
ENDBRANCH   1   2
BRANCH   1  10
ATOM     10  C   UNL     1       4.135   9.919  15.544  1.00  0.00     0.000 C 
BRANCH  10  11
ATOM     11  C   UNL     1       5.485   9.804  16.275  1.00  0.00    -0.000 C 
BRANCH  11  12
ATOM     12  C   UNL     1       6.473  10.959  16.011  1.00  0.00    -0.000 C 
BRANCH  12  13
ATOM     13  C   UNL     1       7.769  10.913  16.844  1.00  0.00    -0.000 C 
BRANCH  13  14
ATOM     14  C   UNL     1       8.376  12.290  17.183  1.00  0.00    -0.000 C 
BRANCH  14  15
ATOM     15  C   UNL     1       9.096  12.362  18.541  1.00  0.00    -0.003 C 
ATOM     16  C   UNL     1       9.184  13.784  19.094  1.00  0.00     0.004 C 
ENDBRANCH  14  15
ENDBRANCH  13  14
ENDBRANCH  12  13
ENDBRANCH  11  12
ENDBRANCH  10  11
ENDBRANCH   1  10
TORSDOF 12
ENDMDL
MODEL 4
REMARK VINA RESULT:    -4.780     15.445     17.844
REMARK INTER + INTRA:          -8.616
REMARK INTER:                  -8.105
REMARK INTRA:                  -0.511
REMARK UNBOUND:                -0.482
REMARK SMILES CCCCCCCCCCCCCC(=O)[O-]
REMARK SMILES IDX 8 1 9 2 10 3 11 4 12 5 13 6 14 7 15 8 16 9 7 10 6 11 5 12
REMARK SMILES IDX 4 13 3 14 2 15 1 16
REMARK H PARENT
REMARK Flexibility Score: inf
ROOT
ATOM      1  C   UNL     1       0.414  21.588  33.301  1.00  0.00     0.000 C 
ENDROOT
BRANCH   1   2
ATOM      2  C   UNL     1       1.045  20.189  33.391  1.00  0.00     0.000 C 
BRANCH   2   3
ATOM      3  C   UNL     1       2.571  20.218  33.193  1.00  0.00     0.000 C 
BRANCH   3   4
ATOM      4  C   UNL     1       3.341  20.032  34.512  1.00  0.00     0.000 C 
BRANCH   4   5
ATOM      5  C   UNL     1       4.625  19.207  34.339  1.00  0.00     0.006 C 
BRANCH   5   6
ATOM      6  C   UNL     1       4.703  18.605  32.931  1.00  0.00     0.053 C 
BRANCH   6   7
ATOM      7  C   UNL     1       5.803  17.594  32.855  1.00  0.00     0.041 C 
ATOM      8  O   UNL     1       5.566  16.381  33.095  1.00  0.00    -0.550 OA
ATOM      9  O   UNL     1       7.080  17.983  32.472  1.00  0.00    -0.550 OA
ENDBRANCH   6   7
ENDBRANCH   5   6
ENDBRANCH   4   5
ENDBRANCH   3   4
ENDBRANCH   2   3
ENDBRANCH   1   2
BRANCH   1  10
ATOM     10  C   UNL     1      -0.536  21.730  32.099  1.00  0.00     0.000 C 
BRANCH  10  11
ATOM     11  C   UNL     1      -0.527  20.494  31.181  1.00  0.00    -0.000 C 
BRANCH  11  12
ATOM     12  C   UNL     1      -1.460  20.582  29.957  1.00  0.00    -0.000 C 
BRANCH  12  13
ATOM     13  C   UNL     1      -1.426  19.357  29.021  1.00  0.00    -0.000 C 
BRANCH  13  14
ATOM     14  C   UNL     1      -2.604  19.260  28.031  1.00  0.00    -0.000 C 
BRANCH  14  15
ATOM     15  C   UNL     1      -2.716  20.436  27.043  1.00  0.00    -0.003 C 
ATOM     16  C   UNL     1      -1.413  20.711  26.294  1.00  0.00     0.004 C 
ENDBRANCH  14  15
ENDBRANCH  13  14
ENDBRANCH  12  13
ENDBRANCH  11  12
ENDBRANCH  10  11
ENDBRANCH   1  10
TORSDOF 12
ENDMDL
MODEL 5
REMARK VINA RESULT:    -4.679     15.135     17.495
REMARK INTER + INTRA:          -8.443
REMARK INTER:                  -7.946
REMARK INTRA:                  -0.497
REMARK UNBOUND:                -0.482
REMARK SMILES CCCCCCCCCCCCCC(=O)[O-]
REMARK SMILES IDX 8 1 9 2 10 3 11 4 12 5 13 6 14 7 15 8 16 9 7 10 6 11 5 12
REMARK SMILES IDX 4 13 3 14 2 15 1 16
REMARK H PARENT
REMARK Flexibility Score: inf
ROOT
ATOM      1  C   UNL     1       1.709  19.918  32.087  1.00  0.00     0.000 C 
ENDROOT
BRANCH   1   2
ATOM      2  C   UNL     1       2.802  19.557  33.106  1.00  0.00     0.000 C 
BRANCH   2   3
ATOM      3  C   UNL     1       2.345  18.475  34.100  1.00  0.00     0.000 C 
BRANCH   3   4
ATOM      4  C   UNL     1       3.522  17.684  34.694  1.00  0.00     0.000 C 
BRANCH   4   5
ATOM      5  C   UNL     1       4.845  17.944  33.958  1.00  0.00     0.006 C 
BRANCH   5   6
ATOM      6  C   UNL     1       5.424  16.641  33.396  1.00  0.00     0.053 C 
BRANCH   6   7
ATOM      7  C   UNL     1       6.665  16.917  32.609  1.00  0.00     0.041 C 
ATOM      8  O   UNL     1       7.161  18.074  32.590  1.00  0.00    -0.550 OA
ATOM      9  O   UNL     1       7.304  15.885  31.932  1.00  0.00    -0.550 OA
ENDBRANCH   6   7
ENDBRANCH   5   6
ENDBRANCH   4   5
ENDBRANCH   3   4
ENDBRANCH   2   3
ENDBRANCH   1   2
BRANCH   1  10
ATOM     10  C   UNL     1       0.713  20.954  32.634  1.00  0.00     0.000 C 
BRANCH  10  11
ATOM     11  C   UNL     1      -0.495  21.170  31.703  1.00  0.00    -0.000 C 
BRANCH  11  12
ATOM     12  C   UNL     1      -0.691  20.087  30.623  1.00  0.00    -0.000 C 
BRANCH  12  13
ATOM     13  C   UNL     1      -1.559  20.513  29.423  1.00  0.00    -0.000 C 
BRANCH  13  14
ATOM     14  C   UNL     1      -1.649  19.477  28.283  1.00  0.00    -0.000 C 
BRANCH  14  15
ATOM     15  C   UNL     1      -2.309  19.993  26.992  1.00  0.00    -0.003 C 
ATOM     16  C   UNL     1      -1.363  20.831  26.133  1.00  0.00     0.004 C 
ENDBRANCH  14  15
ENDBRANCH  13  14
ENDBRANCH  12  13
ENDBRANCH  11  12
ENDBRANCH  10  11
ENDBRANCH   1  10
TORSDOF 12
ENDMDL
MODEL 6
REMARK VINA RESULT:    -4.542     15.653     18.691
REMARK INTER + INTRA:          -8.210
REMARK INTER:                  -7.615
REMARK INTRA:                  -0.595
REMARK UNBOUND:                -0.482
REMARK SMILES CCCCCCCCCCCCCC(=O)[O-]
REMARK SMILES IDX 8 1 9 2 10 3 11 4 12 5 13 6 14 7 15 8 16 9 7 10 6 11 5 12
REMARK SMILES IDX 4 13 3 14 2 15 1 16
REMARK H PARENT
REMARK Flexibility Score: inf
ROOT
ATOM      1  C   UNL     1       0.560  21.765  33.069  1.00  0.00     0.000 C 
ENDROOT
BRANCH   1   2
ATOM      2  C   UNL     1      -0.621  21.623  32.095  1.00  0.00     0.000 C 
BRANCH   2   3
ATOM      3  C   UNL     1      -0.398  20.507  31.059  1.00  0.00     0.000 C 
BRANCH   3   4
ATOM      4  C   UNL     1      -1.449  20.526  29.936  1.00  0.00     0.000 C 
BRANCH   4   5
ATOM      5  C   UNL     1      -1.448  19.238  29.100  1.00  0.00     0.006 C 
BRANCH   5   6
ATOM      6  C   UNL     1      -2.632  19.216  28.127  1.00  0.00     0.053 C 
BRANCH   6   7
ATOM      7  C   UNL     1      -2.540  20.356  27.164  1.00  0.00     0.041 C 
ATOM      8  O   UNL     1      -3.488  21.180  27.063  1.00  0.00    -0.550 OA
ATOM      9  O   UNL     1      -1.388  20.539  26.410  1.00  0.00    -0.550 OA
ENDBRANCH   6   7
ENDBRANCH   5   6
ENDBRANCH   4   5
ENDBRANCH   3   4
ENDBRANCH   2   3
ENDBRANCH   1   2
BRANCH   1  10
ATOM     10  C   UNL     1       0.579  20.659  34.138  1.00  0.00     0.000 C 
BRANCH  10  11
ATOM     11  C   UNL     1       1.981  20.059  34.352  1.00  0.00    -0.000 C 
BRANCH  11  12
ATOM     12  C   UNL     1       2.628  19.444  33.095  1.00  0.00    -0.000 C 
BRANCH  12  13
ATOM     13  C   UNL     1       4.124  19.098  33.234  1.00  0.00    -0.000 C 
BRANCH  13  14
ATOM     14  C   UNL     1       4.419  17.738  33.898  1.00  0.00    -0.000 C 
BRANCH  14  15
ATOM     15  C   UNL     1       5.536  16.920  33.226  1.00  0.00    -0.003 C 
ATOM     16  C   UNL     1       6.685  17.788  32.713  1.00  0.00     0.004 C 
ENDBRANCH  14  15
ENDBRANCH  13  14
ENDBRANCH  12  13
ENDBRANCH  11  12
ENDBRANCH  10  11
ENDBRANCH   1  10
TORSDOF 12
ENDMDL
MODEL 7
REMARK VINA RESULT:    -4.430     15.740     18.750
REMARK INTER + INTRA:          -8.020
REMARK INTER:                  -7.483
REMARK INTRA:                  -0.537
REMARK UNBOUND:                -0.482
REMARK SMILES CCCCCCCCCCCCCC(=O)[O-]
REMARK SMILES IDX 8 1 9 2 10 3 11 4 12 5 13 6 14 7 15 8 16 9 7 10 6 11 5 12
REMARK SMILES IDX 4 13 3 14 2 15 1 16
REMARK H PARENT
REMARK Flexibility Score: inf
ROOT
ATOM      1  C   UNL     1       1.626  20.075  32.393  1.00  0.00     0.000 C 
ENDROOT
BRANCH   1   2
ATOM      2  C   UNL     1       0.594  21.136  32.807  1.00  0.00     0.000 C 
BRANCH   2   3
ATOM      3  C   UNL     1      -0.521  21.314  31.760  1.00  0.00     0.000 C 
BRANCH   3   4
ATOM      4  C   UNL     1      -0.428  20.286  30.620  1.00  0.00     0.000 C 
BRANCH   4   5
ATOM      5  C   UNL     1      -1.655  20.310  29.697  1.00  0.00     0.006 C 
BRANCH   5   6
ATOM      6  C   UNL     1      -1.664  19.093  28.765  1.00  0.00     0.053 C 
BRANCH   6   7
ATOM      7  C   UNL     1      -2.834  19.153  27.836  1.00  0.00     0.041 C 
ATOM      8  O   UNL     1      -3.224  18.115  27.240  1.00  0.00    -0.550 OA
ATOM      9  O   UNL     1      -3.525  20.346  27.664  1.00  0.00    -0.550 OA
ENDBRANCH   6   7
ENDBRANCH   5   6
ENDBRANCH   4   5
ENDBRANCH   3   4
ENDBRANCH   2   3
ENDBRANCH   1   2
BRANCH   1  10
ATOM     10  C   UNL     1       2.281  19.386  33.602  1.00  0.00     0.000 C 
BRANCH  10  11
ATOM     11  C   UNL     1       3.728  19.852  33.844  1.00  0.00    -0.000 C 
BRANCH  11  12
ATOM     12  C   UNL     1       4.522  19.016  34.868  1.00  0.00    -0.000 C 
BRANCH  12  13
ATOM     13  C   UNL     1       4.352  17.490  34.736  1.00  0.00    -0.000 C 
BRANCH  13  14
ATOM     14  C   UNL     1       5.580  16.742  34.177  1.00  0.00    -0.000 C 
BRANCH  14  15
ATOM     15  C   UNL     1       5.844  16.966  32.677  1.00  0.00    -0.003 C 
ATOM     16  C   UNL     1       6.947  16.063  32.126  1.00  0.00     0.004 C 
ENDBRANCH  14  15
ENDBRANCH  13  14
ENDBRANCH  12  13
ENDBRANCH  11  12
ENDBRANCH  10  11
ENDBRANCH   1  10
TORSDOF 12
ENDMDL
MODEL 8
REMARK VINA RESULT:    -4.296     17.485     20.198
REMARK INTER + INTRA:          -7.791
REMARK INTER:                  -7.087
REMARK INTRA:                  -0.704
REMARK UNBOUND:                -0.482
REMARK SMILES CCCCCCCCCCCCCC(=O)[O-]
REMARK SMILES IDX 8 1 9 2 10 3 11 4 12 5 13 6 14 7 15 8 16 9 7 10 6 11 5 12
REMARK SMILES IDX 4 13 3 14 2 15 1 16
REMARK H PARENT
REMARK Flexibility Score: inf
ROOT
ATOM      1  C   UNL     1       4.340  19.708  34.573  1.00  0.00     0.000 C 
ENDROOT
BRANCH   1   2
ATOM      2  C   UNL     1       2.953  20.287  34.250  1.00  0.00     0.000 C 
BRANCH   2   3
ATOM      3  C   UNL     1       2.502  19.966  32.813  1.00  0.00     0.000 C 
BRANCH   3   4
ATOM      4  C   UNL     1       1.144  20.599  32.466  1.00  0.00     0.000 C 
BRANCH   4   5
ATOM      5  C   UNL     1       0.599  21.491  33.591  1.00  0.00     0.006 C 
BRANCH   5   6
ATOM      6  C   UNL     1      -0.482  22.440  33.062  1.00  0.00     0.053 C 
BRANCH   6   7
ATOM      7  C   UNL     1      -0.800  23.490  34.078  1.00  0.00     0.041 C 
ATOM      8  O   UNL     1      -0.072  23.628  35.096  1.00  0.00    -0.550 OA
ATOM      9  O   UNL     1      -1.873  24.349  33.878  1.00  0.00    -0.550 OA
ENDBRANCH   6   7
ENDBRANCH   5   6
ENDBRANCH   4   5
ENDBRANCH   3   4
ENDBRANCH   2   3
ENDBRANCH   1   2
BRANCH   1  10
ATOM     10  C   UNL     1       4.273  18.247  35.049  1.00  0.00     0.000 C 
BRANCH  10  11
ATOM     11  C   UNL     1       4.759  17.248  33.982  1.00  0.00    -0.000 C 
BRANCH  11  12
ATOM     12  C   UNL     1       5.422  17.885  32.744  1.00  0.00    -0.000 C 
BRANCH  12  13
ATOM     13  C   UNL     1       6.944  17.667  32.635  1.00  0.00    -0.000 C 
BRANCH  13  14
ATOM     14  C   UNL     1       7.387  16.193  32.538  1.00  0.00    -0.000 C 
BRANCH  14  15
ATOM     15  C   UNL     1       6.741  15.399  31.388  1.00  0.00    -0.003 C 
ATOM     16  C   UNL     1       7.677  14.350  30.788  1.00  0.00     0.004 C 
ENDBRANCH  14  15
ENDBRANCH  13  14
ENDBRANCH  12  13
ENDBRANCH  11  12
ENDBRANCH  10  11
ENDBRANCH   1  10
TORSDOF 12
ENDMDL
MODEL 9
REMARK VINA RESULT:    -4.254     16.758     19.433
REMARK INTER + INTRA:          -7.719
REMARK INTER:                  -6.959
REMARK INTRA:                  -0.760
REMARK UNBOUND:                -0.482
REMARK SMILES CCCCCCCCCCCCCC(=O)[O-]
REMARK SMILES IDX 8 1 9 2 10 3 11 4 12 5 13 6 14 7 15 8 16 9 7 10 6 11 5 12
REMARK SMILES IDX 4 13 3 14 2 15 1 16
REMARK H PARENT
REMARK Flexibility Score: inf
ROOT
ATOM      1  C   UNL     1       4.336  17.749  34.857  1.00  0.00     0.000 C 
ENDROOT
BRANCH   1   2
ATOM      2  C   UNL     1       4.414  19.270  35.068  1.00  0.00     0.000 C 
BRANCH   2   3
ATOM      3  C   UNL     1       3.287  20.024  34.340  1.00  0.00     0.000 C 
BRANCH   3   4
ATOM      4  C   UNL     1       3.075  19.523  32.901  1.00  0.00     0.000 C 
BRANCH   4   5
ATOM      5  C   UNL     1       1.751  20.007  32.292  1.00  0.00     0.006 C 
BRANCH   5   6
ATOM      6  C   UNL     1       1.085  21.055  33.192  1.00  0.00     0.053 C 
BRANCH   6   7
ATOM      7  C   UNL     1      -0.093  21.664  32.503  1.00  0.00     0.041 C 
ATOM      8  O   UNL     1      -0.564  21.134  31.462  1.00  0.00    -0.550 OA
ATOM      9  O   UNL     1      -0.704  22.793  33.035  1.00  0.00    -0.550 OA
ENDBRANCH   6   7
ENDBRANCH   5   6
ENDBRANCH   4   5
ENDBRANCH   3   4
ENDBRANCH   2   3
ENDBRANCH   1   2
BRANCH   1  10
ATOM     10  C   UNL     1       5.678  17.047  35.125  1.00  0.00     0.000 C 
BRANCH  10  11
ATOM     11  C   UNL     1       6.863  17.735  34.421  1.00  0.00    -0.000 C 
BRANCH  11  12
ATOM     12  C   UNL     1       6.805  17.722  32.880  1.00  0.00    -0.000 C 
BRANCH  12  13
ATOM     13  C   UNL     1       6.611  16.331  32.245  1.00  0.00    -0.000 C 
BRANCH  13  14
ATOM     14  C   UNL     1       7.815  15.810  31.436  1.00  0.00    -0.000 C 
BRANCH  14  15
ATOM     15  C   UNL     1       7.791  14.299  31.142  1.00  0.00    -0.003 C 
ATOM     16  C   UNL     1       6.878  13.934  29.972  1.00  0.00     0.004 C 
ENDBRANCH  14  15
ENDBRANCH  13  14
ENDBRANCH  12  13
ENDBRANCH  11  12
ENDBRANCH  10  11
ENDBRANCH   1  10
TORSDOF 12
ENDMDL
