MODEL 1
REMARK VINA RESULT:    -3.562      0.000      0.000
REMARK INTER + INTRA:          -7.074
REMARK INTER:                  -6.060
REMARK INTRA:                  -1.013
REMARK UNBOUND:                -1.013
REMARK SMILES CCCCCCCCCCCCCC(=O)[O-]
REMARK SMILES IDX 8 1 9 2 10 3 11 4 12 5 13 6 14 7 15 8 16 9 7 10 6 11 5 12
REMARK SMILES IDX 4 13 3 14 2 15 1 16
REMARK H PARENT
REMARK Flexibility Score: inf
ROOT
ATOM      1  C   UNL     1     -15.968  10.319   7.084  1.00  0.00     0.000 C 
ENDROOT
BRANCH   1   2
ATOM      2  C   UNL     1     -15.544   9.472   8.300  1.00  0.00     0.000 C 
BRANCH   2   3
ATOM      3  C   UNL     1     -16.434   9.638   9.547  1.00  0.00     0.000 C 
BRANCH   3   4
ATOM      4  C   UNL     1     -16.425   8.440  10.519  1.00  0.00     0.000 C 
BRANCH   4   5
ATOM      5  C   UNL     1     -15.329   7.389  10.250  1.00  0.00     0.006 C 
BRANCH   5   6
ATOM      6  C   UNL     1     -15.352   6.187  11.207  1.00  0.00     0.053 C 
BRANCH   6   7
ATOM      7  C   UNL     1     -13.977   5.806  11.662  1.00  0.00     0.041 C 
ATOM      8  O   UNL     1     -13.186   6.687  12.093  1.00  0.00    -0.550 OA
ATOM      9  O   UNL     1     -13.579   4.476  11.640  1.00  0.00    -0.550 OA
ENDBRANCH   6   7
ENDBRANCH   5   6
ENDBRANCH   4   5
ENDBRANCH   3   4
ENDBRANCH   2   3
ENDBRANCH   1   2
BRANCH   1  10
ATOM     10  C   UNL     1     -16.969  11.451   7.392  1.00  0.00     0.000 C 
BRANCH  10  11
ATOM     11  C   UNL     1     -16.349  12.857   7.483  1.00  0.00    -0.000 C 
BRANCH  11  12
ATOM     12  C   UNL     1     -14.907  12.907   6.951  1.00  0.00    -0.000 C 
BRANCH  12  13
ATOM     13  C   UNL     1     -13.905  13.403   8.005  1.00  0.00    -0.000 C 
BRANCH  13  14
ATOM     14  C   UNL     1     -14.361  13.101   9.441  1.00  0.00    -0.000 C 
BRANCH  14  15
ATOM     15  C   UNL     1     -14.148  14.317  10.350  1.00  0.00    -0.003 C 
ATOM     16  C   UNL     1     -13.435  13.922  11.640  1.00  0.00     0.004 C 
ENDBRANCH  14  15
ENDBRANCH  13  14
ENDBRANCH  12  13
ENDBRANCH  11  12
ENDBRANCH  10  11
ENDBRANCH   1  10
TORSDOF 12
ENDMDL
MODEL 2
REMARK VINA RESULT:    -3.429      2.932      6.581
REMARK INTER + INTRA:          -6.848
REMARK INTER:                  -6.076
REMARK INTRA:                  -0.772
REMARK UNBOUND:                -1.013
REMARK SMILES CCCCCCCCCCCCCC(=O)[O-]
REMARK SMILES IDX 8 1 9 2 10 3 11 4 12 5 13 6 14 7 15 8 16 9 7 10 6 11 5 12
REMARK SMILES IDX 4 13 3 14 2 15 1 16
REMARK H PARENT
REMARK Flexibility Score: inf
ROOT
ATOM      1  C   UNL     1     -15.452  10.323   7.183  1.00  0.00     0.000 C 
ENDROOT
BRANCH   1   2
ATOM      2  C   UNL     1     -16.264  11.599   7.483  1.00  0.00     0.000 C 
BRANCH   2   3
ATOM      3  C   UNL     1     -15.525  12.920   7.193  1.00  0.00     0.000 C 
BRANCH   3   4
ATOM      4  C   UNL     1     -14.240  13.143   8.018  1.00  0.00     0.000 C 
BRANCH   4   5
ATOM      5  C   UNL     1     -14.437  13.140   9.547  1.00  0.00     0.006 C 
BRANCH   5   6
ATOM      6  C   UNL     1     -13.925  14.404  10.256  1.00  0.00     0.053 C 
BRANCH   6   7
ATOM      7  C   UNL     1     -13.851  14.222  11.741  1.00  0.00     0.041 C 
ATOM      8  O   UNL     1     -14.828  14.544  12.468  1.00  0.00    -0.550 OA
ATOM      9  O   UNL     1     -12.717  13.667  12.320  1.00  0.00    -0.550 OA
ENDBRANCH   6   7
ENDBRANCH   5   6
ENDBRANCH   4   5
ENDBRANCH   3   4
ENDBRANCH   2   3
ENDBRANCH   1   2
BRANCH   1  10
ATOM     10  C   UNL     1     -15.533   9.227   8.265  1.00  0.00     0.000 C 
BRANCH  10  11
ATOM     11  C   UNL     1     -16.472   9.547   9.442  1.00  0.00    -0.000 C 
BRANCH  11  12
ATOM     12  C   UNL     1     -16.405   8.492  10.559  1.00  0.00    -0.000 C 
BRANCH  12  13
ATOM     13  C   UNL     1     -15.388   7.379  10.259  1.00  0.00    -0.000 C 
BRANCH  13  14
ATOM     14  C   UNL     1     -15.188   6.426  11.447  1.00  0.00    -0.000 C 
BRANCH  14  15
ATOM     15  C   UNL     1     -13.730   5.963  11.538  1.00  0.00    -0.003 C 
ATOM     16  C   UNL     1     -13.643   4.479  11.885  1.00  0.00     0.004 C 
ENDBRANCH  14  15
ENDBRANCH  13  14
ENDBRANCH  12  13
ENDBRANCH  11  12
ENDBRANCH  10  11
ENDBRANCH   1  10
TORSDOF 12
ENDMDL
MODEL 3
REMARK VINA RESULT:    -3.343      2.136      4.264
REMARK INTER + INTRA:          -6.701
REMARK INTER:                  -5.425
REMARK INTRA:                  -1.276
REMARK UNBOUND:                -1.013
REMARK SMILES CCCCCCCCCCCCCC(=O)[O-]
REMARK SMILES IDX 8 1 9 2 10 3 11 4 12 5 13 6 14 7 15 8 16 9 7 10 6 11 5 12
REMARK SMILES IDX 4 13 3 14 2 15 1 16
REMARK H PARENT
REMARK Flexibility Score: inf
ROOT
ATOM      1  C   UNL     1     -13.946  13.440   7.923  1.00  0.00     0.000 C 
ENDROOT
BRANCH   1   2
ATOM      2  C   UNL     1     -15.057  12.990   6.953  1.00  0.00     0.000 C 
BRANCH   2   3
ATOM      3  C   UNL     1     -16.424  12.725   7.612  1.00  0.00     0.000 C 
BRANCH   3   4
ATOM      4  C   UNL     1     -17.072  11.373   7.250  1.00  0.00     0.000 C 
BRANCH   4   5
ATOM      5  C   UNL     1     -16.086  10.198   7.091  1.00  0.00     0.006 C 
BRANCH   5   6
ATOM      6  C   UNL     1     -15.414   9.751   8.399  1.00  0.00     0.053 C 
BRANCH   6   7
ATOM      7  C   UNL     1     -15.937   8.430   8.874  1.00  0.00     0.041 C 
ATOM      8  O   UNL     1     -15.318   7.786   9.762  1.00  0.00    -0.550 OA
ATOM      9  O   UNL     1     -17.123   7.924   8.359  1.00  0.00    -0.550 OA
ENDBRANCH   6   7
ENDBRANCH   5   6
ENDBRANCH   4   5
ENDBRANCH   3   4
ENDBRANCH   2   3
ENDBRANCH   1   2
BRANCH   1  10
ATOM     10  C   UNL     1     -14.259  13.233   9.418  1.00  0.00     0.000 C 
BRANCH  10  11
ATOM     11  C   UNL     1     -13.810  14.381  10.340  1.00  0.00    -0.000 C 
BRANCH  11  12
ATOM     12  C   UNL     1     -13.807  13.984  11.826  1.00  0.00    -0.000 C 
BRANCH  12  13
ATOM     13  C   UNL     1     -15.046  14.499  12.577  1.00  0.00    -0.000 C 
BRANCH  13  14
ATOM     14  C   UNL     1     -15.932  13.360  13.104  1.00  0.00    -0.000 C 
BRANCH  14  15
ATOM     15  C   UNL     1     -15.365  11.994  12.700  1.00  0.00    -0.003 C 
ATOM     16  C   UNL     1     -16.333  11.244  11.789  1.00  0.00     0.004 C 
ENDBRANCH  14  15
ENDBRANCH  13  14
ENDBRANCH  12  13
ENDBRANCH  11  12
ENDBRANCH  10  11
ENDBRANCH   1  10
TORSDOF 12
ENDMDL
MODEL 4
REMARK VINA RESULT:    -3.212      3.641      7.049
REMARK INTER + INTRA:          -6.478
REMARK INTER:                  -5.465
REMARK INTRA:                  -1.013
REMARK UNBOUND:                -1.013
REMARK SMILES CCCCCCCCCCCCCC(=O)[O-]
REMARK SMILES IDX 8 1 9 2 10 3 11 4 12 5 13 6 14 7 15 8 16 9 7 10 6 11 5 12
REMARK SMILES IDX 4 13 3 14 2 15 1 16
REMARK H PARENT
REMARK Flexibility Score: inf
ROOT
ATOM      1  C   UNL     1     -15.693   8.173   9.433  1.00  0.00     0.000 C 
ENDROOT
BRANCH   1   2
ATOM      2  C   UNL     1     -15.305   9.140   8.297  1.00  0.00     0.000 C 
BRANCH   2   3
ATOM      3  C   UNL     1     -16.298  10.294   8.061  1.00  0.00     0.000 C 
BRANCH   3   4
ATOM      4  C   UNL     1     -16.614  11.147   9.307  1.00  0.00     0.000 C 
BRANCH   4   5
ATOM      5  C   UNL     1     -16.060  12.586   9.271  1.00  0.00     0.006 C 
BRANCH   5   6
ATOM      6  C   UNL     1     -14.573  12.685   8.893  1.00  0.00     0.053 C 
BRANCH   6   7
ATOM      7  C   UNL     1     -14.381  13.250   7.519  1.00  0.00     0.041 C 
ATOM      8  O   UNL     1     -15.345  13.288   6.709  1.00  0.00    -0.550 OA
ATOM      9  O   UNL     1     -13.147  13.763   7.142  1.00  0.00    -0.550 OA
ENDBRANCH   6   7
ENDBRANCH   5   6
ENDBRANCH   4   5
ENDBRANCH   3   4
ENDBRANCH   2   3
ENDBRANCH   1   2
BRANCH   1  10
ATOM     10  C   UNL     1     -16.797   7.157   9.079  1.00  0.00     0.000 C 
BRANCH  10  11
ATOM     11  C   UNL     1     -17.068   6.091  10.157  1.00  0.00    -0.000 C 
BRANCH  11  12
ATOM     12  C   UNL     1     -17.125   6.682  11.576  1.00  0.00    -0.000 C 
BRANCH  12  13
ATOM     13  C   UNL     1     -16.164   5.978  12.547  1.00  0.00    -0.000 C 
BRANCH  13  14
ATOM     14  C   UNL     1     -15.379   4.839  11.879  1.00  0.00    -0.000 C 
BRANCH  14  15
ATOM     15  C   UNL     1     -13.869   5.041  12.050  1.00  0.00    -0.003 C 
ATOM     16  C   UNL     1     -13.494   6.516  11.942  1.00  0.00     0.004 C 
ENDBRANCH  14  15
ENDBRANCH  13  14
ENDBRANCH  12  13
ENDBRANCH  11  12
ENDBRANCH  10  11
ENDBRANCH   1  10
TORSDOF 12
ENDMDL
MODEL 5
REMARK VINA RESULT:    -3.174      2.332      5.206
REMARK INTER + INTRA:          -6.414
REMARK INTER:                  -5.347
REMARK INTRA:                  -1.067
REMARK UNBOUND:                -1.013
REMARK SMILES CCCCCCCCCCCCCC(=O)[O-]
REMARK SMILES IDX 8 1 9 2 10 3 11 4 12 5 13 6 14 7 15 8 16 9 7 10 6 11 5 12
REMARK SMILES IDX 4 13 3 14 2 15 1 16
REMARK H PARENT
REMARK Flexibility Score: inf
ROOT
ATOM      1  C   UNL     1     -13.768  13.650   7.886  1.00  0.00     0.000 C 
ENDROOT
BRANCH   1   2
ATOM      2  C   UNL     1     -14.279  13.446   9.326  1.00  0.00     0.000 C 
BRANCH   2   3
ATOM      3  C   UNL     1     -13.732  14.453  10.357  1.00  0.00     0.000 C 
BRANCH   3   4
ATOM      4  C   UNL     1     -13.595  13.906  11.793  1.00  0.00     0.000 C 
BRANCH   4   5
ATOM      5  C   UNL     1     -14.929  13.627  12.515  1.00  0.00     0.006 C 
BRANCH   5   6
ATOM      6  C   UNL     1     -15.110  12.171  12.974  1.00  0.00     0.053 C 
BRANCH   6   7
ATOM      7  C   UNL     1     -16.085  11.429  12.112  1.00  0.00     0.041 C 
ATOM      8  O   UNL     1     -16.829  12.057  11.314  1.00  0.00    -0.550 OA
ATOM      9  O   UNL     1     -16.149  10.043  12.167  1.00  0.00    -0.550 OA
ENDBRANCH   6   7
ENDBRANCH   5   6
ENDBRANCH   4   5
ENDBRANCH   3   4
ENDBRANCH   2   3
ENDBRANCH   1   2
BRANCH   1  10
ATOM     10  C   UNL     1     -14.583  12.928   6.795  1.00  0.00     0.000 C 
BRANCH  10  11
ATOM     11  C   UNL     1     -16.110  13.089   6.912  1.00  0.00    -0.000 C 
BRANCH  11  12
ATOM     12  C   UNL     1     -16.798  11.836   7.479  1.00  0.00    -0.000 C 
BRANCH  12  13
ATOM     13  C   UNL     1     -15.972  10.559   7.259  1.00  0.00    -0.000 C 
BRANCH  13  14
ATOM     14  C   UNL     1     -15.576   9.877   8.577  1.00  0.00    -0.000 C 
BRANCH  14  15
ATOM     15  C   UNL     1     -16.446   8.642   8.838  1.00  0.00    -0.003 C 
ATOM     16  C   UNL     1     -15.698   7.607   9.673  1.00  0.00     0.004 C 
ENDBRANCH  14  15
ENDBRANCH  13  14
ENDBRANCH  12  13
ENDBRANCH  11  12
ENDBRANCH  10  11
ENDBRANCH   1  10
TORSDOF 12
ENDMDL
MODEL 6
REMARK VINA RESULT:    -3.139      3.185      6.947
REMARK INTER + INTRA:          -6.354
REMARK INTER:                  -5.604
REMARK INTRA:                  -0.750
REMARK UNBOUND:                -1.013
REMARK SMILES CCCCCCCCCCCCCC(=O)[O-]
REMARK SMILES IDX 8 1 9 2 10 3 11 4 12 5 13 6 14 7 15 8 16 9 7 10 6 11 5 12
REMARK SMILES IDX 4 13 3 14 2 15 1 16
REMARK H PARENT
REMARK Flexibility Score: inf
ROOT
ATOM      1  C   UNL     1     -15.280   9.327   8.242  1.00  0.00     0.000 C 
ENDROOT
BRANCH   1   2
ATOM      2  C   UNL     1     -15.667  10.277   7.092  1.00  0.00     0.000 C 
BRANCH   2   3
ATOM      3  C   UNL     1     -16.359  11.581   7.533  1.00  0.00     0.000 C 
BRANCH   3   4
ATOM      4  C   UNL     1     -15.521  12.861   7.341  1.00  0.00     0.000 C 
BRANCH   4   5
ATOM      5  C   UNL     1     -14.404  13.073   8.383  1.00  0.00     0.006 C 
BRANCH   5   6
ATOM      6  C   UNL     1     -14.844  12.857   9.840  1.00  0.00     0.053 C 
BRANCH   6   7
ATOM      7  C   UNL     1     -14.500  14.027  10.709  1.00  0.00     0.041 C 
ATOM      8  O   UNL     1     -13.316  14.197  11.103  1.00  0.00    -0.550 OA
ATOM      9  O   UNL     1     -15.479  14.949  11.057  1.00  0.00    -0.550 OA
ENDBRANCH   6   7
ENDBRANCH   5   6
ENDBRANCH   4   5
ENDBRANCH   3   4
ENDBRANCH   2   3
ENDBRANCH   1   2
BRANCH   1  10
ATOM     10  C   UNL     1     -16.454   8.554   8.876  1.00  0.00     0.000 C 
BRANCH  10  11
ATOM     11  C   UNL     1     -16.044   7.347   9.739  1.00  0.00    -0.000 C 
BRANCH  11  12
ATOM     12  C   UNL     1     -15.756   7.731  11.200  1.00  0.00    -0.000 C 
BRANCH  12  13
ATOM     13  C   UNL     1     -15.293   6.533  12.045  1.00  0.00    -0.000 C 
BRANCH  13  14
ATOM     14  C   UNL     1     -13.787   6.263  11.911  1.00  0.00    -0.000 C 
BRANCH  14  15
ATOM     15  C   UNL     1     -13.513   4.765  11.734  1.00  0.00    -0.003 C 
ATOM     16  C   UNL     1     -14.757   3.937  12.045  1.00  0.00     0.004 C 
ENDBRANCH  14  15
ENDBRANCH  13  14
ENDBRANCH  12  13
ENDBRANCH  11  12
ENDBRANCH  10  11
ENDBRANCH   1  10
TORSDOF 12
ENDMDL
MODEL 7
REMARK VINA RESULT:    -3.099      0.938      1.537
REMARK INTER + INTRA:          -6.286
REMARK INTER:                  -5.221
REMARK INTRA:                  -1.065
REMARK UNBOUND:                -1.013
REMARK SMILES CCCCCCCCCCCCCC(=O)[O-]
REMARK SMILES IDX 8 1 9 2 10 3 11 4 12 5 13 6 14 7 15 8 16 9 7 10 6 11 5 12
REMARK SMILES IDX 4 13 3 14 2 15 1 16
REMARK H PARENT
REMARK Flexibility Score: inf
ROOT
ATOM      1  C   UNL     1     -15.898  10.371   7.159  1.00  0.00     0.000 C 
ENDROOT
BRANCH   1   2
ATOM      2  C   UNL     1     -15.240   9.429   8.187  1.00  0.00     0.000 C 
BRANCH   2   3
ATOM      3  C   UNL     1     -16.201   8.427   8.856  1.00  0.00     0.000 C 
BRANCH   3   4
ATOM      4  C   UNL     1     -16.695   8.834  10.259  1.00  0.00     0.000 C 
BRANCH   4   5
ATOM      5  C   UNL     1     -16.041   8.072  11.429  1.00  0.00     0.006 C 
BRANCH   5   6
ATOM      6  C   UNL     1     -15.488   6.688  11.055  1.00  0.00     0.053 C 
BRANCH   6   7
ATOM      7  C   UNL     1     -14.207   6.385  11.770  1.00  0.00     0.041 C 
ATOM      8  O   UNL     1     -13.498   5.407  11.412  1.00  0.00    -0.550 OA
ATOM      9  O   UNL     1     -13.779   7.200  12.810  1.00  0.00    -0.550 OA
ENDBRANCH   6   7
ENDBRANCH   5   6
ENDBRANCH   4   5
ENDBRANCH   3   4
ENDBRANCH   2   3
ENDBRANCH   1   2
BRANCH   1  10
ATOM     10  C   UNL     1     -15.784  11.874   7.482  1.00  0.00     0.000 C 
BRANCH  10  11
ATOM     11  C   UNL     1     -16.625  12.345   8.682  1.00  0.00    -0.000 C 
BRANCH  11  12
ATOM     12  C   UNL     1     -15.767  12.684   9.913  1.00  0.00    -0.000 C 
BRANCH  12  13
ATOM     13  C   UNL     1     -14.354  13.156   9.535  1.00  0.00    -0.000 C 
BRANCH  13  14
ATOM     14  C   UNL     1     -13.930  14.418  10.300  1.00  0.00    -0.000 C 
BRANCH  14  15
ATOM     15  C   UNL     1     -14.273  14.296  11.790  1.00  0.00    -0.003 C 
ATOM     16  C   UNL     1     -13.114  13.688  12.575  1.00  0.00     0.004 C 
ENDBRANCH  14  15
ENDBRANCH  13  14
ENDBRANCH  12  13
ENDBRANCH  11  12
ENDBRANCH  10  11
ENDBRANCH   1  10
TORSDOF 12
ENDMDL
MODEL 8
REMARK VINA RESULT:    -3.069      3.597      6.686
REMARK INTER + INTRA:          -6.236
REMARK INTER:                  -5.288
REMARK INTRA:                  -0.947
REMARK UNBOUND:                -1.013
REMARK SMILES CCCCCCCCCCCCCC(=O)[O-]
REMARK SMILES IDX 8 1 9 2 10 3 11 4 12 5 13 6 14 7 15 8 16 9 7 10 6 11 5 12
REMARK SMILES IDX 4 13 3 14 2 15 1 16
REMARK H PARENT
REMARK Flexibility Score: inf
ROOT
ATOM      1  C   UNL     1     -16.259  10.687  11.051  1.00  0.00     0.000 C 
ENDROOT
BRANCH   1   2
ATOM      2  C   UNL     1     -16.842  11.883  11.829  1.00  0.00     0.000 C 
BRANCH   2   3
ATOM      3  C   UNL     1     -16.164  13.236  11.541  1.00  0.00     0.000 C 
BRANCH   3   4
ATOM      4  C   UNL     1     -14.646  13.161  11.279  1.00  0.00     0.000 C 
BRANCH   4   5
ATOM      5  C   UNL     1     -14.202  13.619   9.874  1.00  0.00     0.006 C 
BRANCH   5   6
ATOM      6  C   UNL     1     -14.542  12.630   8.747  1.00  0.00     0.053 C 
BRANCH   6   7
ATOM      7  C   UNL     1     -14.356  13.241   7.392  1.00  0.00     0.041 C 
ATOM      8  O   UNL     1     -15.305  13.244   6.564  1.00  0.00    -0.550 OA
ATOM      9  O   UNL     1     -13.147  13.834   7.055  1.00  0.00    -0.550 OA
ENDBRANCH   6   7
ENDBRANCH   5   6
ENDBRANCH   4   5
ENDBRANCH   3   4
ENDBRANCH   2   3
ENDBRANCH   1   2
BRANCH   1  10
ATOM     10  C   UNL     1     -17.125  10.184   9.879  1.00  0.00     0.000 C 
BRANCH  10  11
ATOM     11  C   UNL     1     -16.367   9.365   8.817  1.00  0.00    -0.000 C 
BRANCH  11  12
ATOM     12  C   UNL     1     -15.654   8.138   9.411  1.00  0.00    -0.000 C 
BRANCH  12  13
ATOM     13  C   UNL     1     -16.623   7.182  10.125  1.00  0.00    -0.000 C 
BRANCH  13  14
ATOM     14  C   UNL     1     -15.895   6.140  10.988  1.00  0.00    -0.000 C 
BRANCH  14  15
ATOM     15  C   UNL     1     -14.480   6.615  11.341  1.00  0.00    -0.003 C 
ATOM     16  C   UNL     1     -13.582   5.440  11.717  1.00  0.00     0.004 C 
ENDBRANCH  14  15
ENDBRANCH  13  14
ENDBRANCH  12  13
ENDBRANCH  11  12
ENDBRANCH  10  11
ENDBRANCH   1  10
TORSDOF 12
ENDMDL
MODEL 9
REMARK VINA RESULT:    -3.002      1.232      2.314
REMARK INTER + INTRA:          -6.122
REMARK INTER:                  -5.152
REMARK INTRA:                  -0.970
REMARK UNBOUND:                -1.013
REMARK SMILES CCCCCCCCCCCCCC(=O)[O-]
REMARK SMILES IDX 8 1 9 2 10 3 11 4 12 5 13 6 14 7 15 8 16 9 7 10 6 11 5 12
REMARK SMILES IDX 4 13 3 14 2 15 1 16
REMARK H PARENT
REMARK Flexibility Score: inf
ROOT
ATOM      1  C   UNL     1     -15.924   9.936   8.174  1.00  0.00     0.000 C 
ENDROOT
BRANCH   1   2
ATOM      2  C   UNL     1     -15.587   8.563   8.789  1.00  0.00     0.000 C 
BRANCH   2   3
ATOM      3  C   UNL     1     -16.799   7.639   9.014  1.00  0.00     0.000 C 
BRANCH   3   4
ATOM      4  C   UNL     1     -16.577   6.512  10.044  1.00  0.00     0.000 C 
BRANCH   4   5
ATOM      5  C   UNL     1     -15.368   6.711  10.980  1.00  0.00     0.006 C 
BRANCH   5   6
ATOM      6  C   UNL     1     -14.999   5.474  11.814  1.00  0.00     0.053 C 
BRANCH   6   7
ATOM      7  C   UNL     1     -13.600   5.554  12.345  1.00  0.00     0.041 C 
ATOM      8  O   UNL     1     -13.049   6.674  12.512  1.00  0.00    -0.550 OA
ATOM      9  O   UNL     1     -12.917   4.394  12.687  1.00  0.00    -0.550 OA
ENDBRANCH   6   7
ENDBRANCH   5   6
ENDBRANCH   4   5
ENDBRANCH   3   4
ENDBRANCH   2   3
ENDBRANCH   1   2
BRANCH   1  10
ATOM     10  C   UNL     1     -16.986  10.752   8.938  1.00  0.00     0.000 C 
BRANCH  10  11
ATOM     11  C   UNL     1     -16.695  10.952  10.437  1.00  0.00    -0.000 C 
BRANCH  11  12
ATOM     12  C   UNL     1     -15.766  12.147  10.708  1.00  0.00    -0.000 C 
BRANCH  12  13
ATOM     13  C   UNL     1     -15.663  13.099   9.505  1.00  0.00    -0.000 C 
BRANCH  13  14
ATOM     14  C   UNL     1     -14.217  13.524   9.211  1.00  0.00    -0.000 C 
BRANCH  14  15
ATOM     15  C   UNL     1     -13.865  13.286   7.738  1.00  0.00    -0.003 C 
ATOM     16  C   UNL     1     -15.124  13.156   6.884  1.00  0.00     0.004 C 
ENDBRANCH  14  15
ENDBRANCH  13  14
ENDBRANCH  12  13
ENDBRANCH  11  12
ENDBRANCH  10  11
ENDBRANCH   1  10
TORSDOF 12
ENDMDL
