MODEL 1
REMARK VINA RESULT:    -5.073      0.000      0.000
REMARK INTER + INTRA:         -16.268
REMARK INTER:                 -12.785
REMARK INTRA:                  -3.483
REMARK UNBOUND:                -3.483
REMARK SMILES CCCCCCCCCCCCCCCCCCCCCCCCCCCC(=O)[O-]
REMARK SMILES IDX 15 1 16 2 17 3 18 4 19 5 20 6 21 7 22 8 23 9 24 10 25 11
REMARK SMILES IDX 26 12 27 13 28 14 29 15 30 16 14 17 13 18 12 19 11 20 10 21
REMARK SMILES IDX 9 22 8 23 7 24 6 25 5 26 4 27 3 28 2 29 1 30
REMARK H PARENT
REMARK Flexibility Score: inf
ROOT
ATOM      1  C   UNL     1      23.668 -11.636  28.010  1.00  0.00     0.000 C 
ENDROOT
BRANCH   1   2
ATOM      2  C   UNL     1      23.299 -10.515  29.002  1.00  0.00     0.000 C 
BRANCH   2   3
ATOM      3  C   UNL     1      22.616  -9.289  28.371  1.00  0.00     0.000 C 
BRANCH   3   4
ATOM      4  C   UNL     1      21.938  -9.611  27.029  1.00  0.00     0.000 C 
BRANCH   4   5
ATOM      5  C   UNL     1      20.522  -9.007  26.916  1.00  0.00     0.000 C 
BRANCH   5   6
ATOM      6  C   UNL     1      20.163  -8.044  28.064  1.00  0.00     0.000 C 
BRANCH   6   7
ATOM      7  C   UNL     1      19.021  -8.525  28.979  1.00  0.00     0.000 C 
BRANCH   7   8
ATOM      8  C   UNL     1      19.453  -8.979  30.388  1.00  0.00     0.000 C 
BRANCH   8   9
ATOM      9  C   UNL     1      18.991 -10.394  30.785  1.00  0.00     0.000 C 
BRANCH   9  10
ATOM     10  C   UNL     1      19.987 -11.488  30.365  1.00  0.00     0.000 C 
BRANCH  10  11
ATOM     11  C   UNL     1      20.325 -12.454  31.511  1.00  0.00     0.000 C 
BRANCH  11  12
ATOM     12  C   UNL     1      20.201 -11.802  32.897  1.00  0.00     0.006 C 
BRANCH  12  13
ATOM     13  C   UNL     1      21.563 -11.722  33.594  1.00  0.00     0.053 C 
BRANCH  13  14
ATOM     14  C   UNL     1      22.132 -10.341  33.491  1.00  0.00     0.041 C 
ATOM     15  O   UNL     1      22.391  -9.844  32.362  1.00  0.00    -0.550 OA
ATOM     16  O   UNL     1      22.408  -9.617  34.642  1.00  0.00    -0.550 OA
ENDBRANCH  13  14
ENDBRANCH  12  13
ENDBRANCH  11  12
ENDBRANCH  10  11
ENDBRANCH   9  10
ENDBRANCH   8   9
ENDBRANCH   7   8
ENDBRANCH   6   7
ENDBRANCH   5   6
ENDBRANCH   4   5
ENDBRANCH   3   4
ENDBRANCH   2   3
ENDBRANCH   1   2
BRANCH   1  17
ATOM     17  C   UNL     1      25.149 -11.669  27.584  1.00  0.00     0.000 C 
BRANCH  17  18
ATOM     18  C   UNL     1      26.159 -11.348  28.705  1.00  0.00     0.000 C 
BRANCH  18  19
ATOM     19  C   UNL     1      27.438 -12.205  28.698  1.00  0.00     0.000 C 
BRANCH  19  20
ATOM     20  C   UNL     1      28.724 -11.363  28.774  1.00  0.00     0.000 C 
BRANCH  20  21
ATOM     21  C   UNL     1      29.726 -11.727  27.667  1.00  0.00     0.000 C 
BRANCH  21  22
ATOM     22  C   UNL     1      29.838 -10.638  26.590  1.00  0.00    -0.000 C 
BRANCH  22  23
ATOM     23  C   UNL     1      28.811 -10.870  25.473  1.00  0.00    -0.000 C 
BRANCH  23  24
ATOM     24  C   UNL     1      29.353 -11.754  24.338  1.00  0.00    -0.000 C 
BRANCH  24  25
ATOM     25  C   UNL     1      28.503 -13.018  24.085  1.00  0.00    -0.000 C 
BRANCH  25  26
ATOM     26  C   UNL     1      27.319 -13.126  25.062  1.00  0.00    -0.000 C 
BRANCH  26  27
ATOM     27  C   UNL     1      26.541 -14.448  24.916  1.00  0.00    -0.000 C 
BRANCH  27  28
ATOM     28  C   UNL     1      25.007 -14.306  24.928  1.00  0.00    -0.000 C 
BRANCH  28  29
ATOM     29  C   UNL     1      24.361 -14.864  26.203  1.00  0.00    -0.003 C 
ATOM     30  C   UNL     1      23.214 -15.812  25.862  1.00  0.00     0.004 C 
ENDBRANCH  28  29
ENDBRANCH  27  28
ENDBRANCH  26  27
ENDBRANCH  25  26
ENDBRANCH  24  25
ENDBRANCH  23  24
ENDBRANCH  22  23
ENDBRANCH  21  22
ENDBRANCH  20  21
ENDBRANCH  19  20
ENDBRANCH  18  19
ENDBRANCH  17  18
ENDBRANCH   1  17
TORSDOF 26
ENDMDL
MODEL 2
REMARK VINA RESULT:    -5.065      4.303      6.775
REMARK INTER + INTRA:         -16.246
REMARK INTER:                 -13.183
REMARK INTRA:                  -3.064
REMARK UNBOUND:                -3.483
REMARK SMILES CCCCCCCCCCCCCCCCCCCCCCCCCCCC(=O)[O-]
REMARK SMILES IDX 15 1 16 2 17 3 18 4 19 5 20 6 21 7 22 8 23 9 24 10 25 11
REMARK SMILES IDX 26 12 27 13 28 14 29 15 30 16 14 17 13 18 12 19 11 20 10 21
REMARK SMILES IDX 9 22 8 23 7 24 6 25 5 26 4 27 3 28 2 29 1 30
REMARK H PARENT
REMARK Flexibility Score: inf
ROOT
ATOM      1  C   UNL     1      24.823 -13.651  26.415  1.00  0.00     0.000 C 
ENDROOT
BRANCH   1   2
ATOM      2  C   UNL     1      25.401 -12.374  25.772  1.00  0.00     0.000 C 
BRANCH   2   3
ATOM      3  C   UNL     1      26.846 -12.038  26.182  1.00  0.00     0.000 C 
BRANCH   3   4
ATOM      4  C   UNL     1      27.140 -12.375  27.653  1.00  0.00     0.000 C 
BRANCH   4   5
ATOM      5  C   UNL     1      27.239 -11.118  28.544  1.00  0.00     0.000 C 
BRANCH   5   6
ATOM      6  C   UNL     1      26.142 -11.032  29.623  1.00  0.00     0.000 C 
BRANCH   6   7
ATOM      7  C   UNL     1      25.532  -9.631  29.814  1.00  0.00     0.000 C 
BRANCH   7   8
ATOM      8  C   UNL     1      24.056  -9.493  29.386  1.00  0.00     0.000 C 
BRANCH   8   9
ATOM      9  C   UNL     1      23.439 -10.759  28.764  1.00  0.00     0.000 C 
BRANCH   9  10
ATOM     10  C   UNL     1      22.731 -10.485  27.426  1.00  0.00     0.000 C 
BRANCH  10  11
ATOM     11  C   UNL     1      22.106  -9.084  27.362  1.00  0.00     0.000 C 
BRANCH  11  12
ATOM     12  C   UNL     1      20.575  -9.118  27.225  1.00  0.00     0.006 C 
BRANCH  12  13
ATOM     13  C   UNL     1      19.897  -8.502  28.453  1.00  0.00     0.053 C 
BRANCH  13  14
ATOM     14  C   UNL     1      19.443  -9.569  29.400  1.00  0.00     0.041 C 
ATOM     15  O   UNL     1      19.586 -10.786  29.100  1.00  0.00    -0.550 OA
ATOM     16  O   UNL     1      18.832  -9.222  30.596  1.00  0.00    -0.550 OA
ENDBRANCH  13  14
ENDBRANCH  12  13
ENDBRANCH  11  12
ENDBRANCH  10  11
ENDBRANCH   9  10
ENDBRANCH   8   9
ENDBRANCH   7   8
ENDBRANCH   6   7
ENDBRANCH   5   6
ENDBRANCH   4   5
ENDBRANCH   3   4
ENDBRANCH   2   3
ENDBRANCH   1   2
BRANCH   1  17
ATOM     17  C   UNL     1      24.769 -14.881  25.489  1.00  0.00     0.000 C 
BRANCH  17  18
ATOM     18  C   UNL     1      26.123 -15.583  25.253  1.00  0.00     0.000 C 
BRANCH  18  19
ATOM     19  C   UNL     1      26.883 -15.132  23.993  1.00  0.00     0.000 C 
BRANCH  19  20
ATOM     20  C   UNL     1      26.263 -15.674  22.693  1.00  0.00     0.000 C 
BRANCH  20  21
ATOM     21  C   UNL     1      26.987 -16.930  22.181  1.00  0.00     0.000 C 
BRANCH  21  22
ATOM     22  C   UNL     1      28.422 -16.637  21.718  1.00  0.00    -0.000 C 
BRANCH  22  23
ATOM     23  C   UNL     1      29.377 -17.750  22.170  1.00  0.00    -0.000 C 
BRANCH  23  24
ATOM     24  C   UNL     1      28.739 -18.705  23.191  1.00  0.00    -0.000 C 
BRANCH  24  25
ATOM     25  C   UNL     1      29.679 -19.847  23.636  1.00  0.00    -0.000 C 
BRANCH  25  26
ATOM     26  C   UNL     1      29.484 -21.120  22.793  1.00  0.00    -0.000 C 
BRANCH  26  27
ATOM     27  C   UNL     1      30.617 -21.342  21.773  1.00  0.00    -0.000 C 
BRANCH  27  28
ATOM     28  C   UNL     1      30.153 -21.571  20.323  1.00  0.00    -0.000 C 
BRANCH  28  29
ATOM     29  C   UNL     1      30.033 -20.271  19.517  1.00  0.00    -0.003 C 
ATOM     30  C   UNL     1      31.342 -19.486  19.555  1.00  0.00     0.004 C 
ENDBRANCH  28  29
ENDBRANCH  27  28
ENDBRANCH  26  27
ENDBRANCH  25  26
ENDBRANCH  24  25
ENDBRANCH  23  24
ENDBRANCH  22  23
ENDBRANCH  21  22
ENDBRANCH  20  21
ENDBRANCH  19  20
ENDBRANCH  18  19
ENDBRANCH  17  18
ENDBRANCH   1  17
TORSDOF 26
ENDMDL
MODEL 3
REMARK VINA RESULT:    -5.060      2.607      3.893
REMARK INTER + INTRA:         -16.234
REMARK INTER:                 -12.757
REMARK INTRA:                  -3.476
REMARK UNBOUND:                -3.483
REMARK SMILES CCCCCCCCCCCCCCCCCCCCCCCCCCCC(=O)[O-]
REMARK SMILES IDX 15 1 16 2 17 3 18 4 19 5 20 6 21 7 22 8 23 9 24 10 25 11
REMARK SMILES IDX 26 12 27 13 28 14 29 15 30 16 14 17 13 18 12 19 11 20 10 21
REMARK SMILES IDX 9 22 8 23 7 24 6 25 5 26 4 27 3 28 2 29 1 30
REMARK H PARENT
REMARK Flexibility Score: inf
ROOT
ATOM      1  C   UNL     1      22.220  -9.472  27.171  1.00  0.00     0.000 C 
ENDROOT
BRANCH   1   2
ATOM      2  C   UNL     1      20.733  -9.389  26.769  1.00  0.00     0.000 C 
BRANCH   2   3
ATOM      3  C   UNL     1      19.930  -8.285  27.480  1.00  0.00     0.000 C 
BRANCH   3   4
ATOM      4  C   UNL     1      19.351  -8.745  28.828  1.00  0.00     0.000 C 
BRANCH   4   5
ATOM      5  C   UNL     1      20.253  -8.369  30.023  1.00  0.00     0.000 C 
BRANCH   5   6
ATOM      6  C   UNL     1      20.051  -9.265  31.260  1.00  0.00     0.000 C 
BRANCH   6   7
ATOM      7  C   UNL     1      21.292  -9.413  32.161  1.00  0.00     0.000 C 
BRANCH   7   8
ATOM      8  C   UNL     1      21.582 -10.846  32.651  1.00  0.00     0.000 C 
BRANCH   8   9
ATOM      9  C   UNL     1      20.840 -11.957  31.884  1.00  0.00     0.000 C 
BRANCH   9  10
ATOM     10  C   UNL     1      20.556 -13.196  32.751  1.00  0.00     0.000 C 
BRANCH  10  11
ATOM     11  C   UNL     1      21.611 -13.408  33.847  1.00  0.00     0.000 C 
BRANCH  11  12
ATOM     12  C   UNL     1      21.533 -14.802  34.489  1.00  0.00     0.006 C 
BRANCH  12  13
ATOM     13  C   UNL     1      21.891 -15.896  33.478  1.00  0.00     0.053 C 
BRANCH  13  14
ATOM     14  C   UNL     1      23.263 -16.433  33.742  1.00  0.00     0.041 C 
ATOM     15  O   UNL     1      24.244 -15.647  33.845  1.00  0.00    -0.550 OA
ATOM     16  O   UNL     1      23.466 -17.802  33.839  1.00  0.00    -0.550 OA
ENDBRANCH  13  14
ENDBRANCH  12  13
ENDBRANCH  11  12
ENDBRANCH  10  11
ENDBRANCH   9  10
ENDBRANCH   8   9
ENDBRANCH   7   8
ENDBRANCH   6   7
ENDBRANCH   5   6
ENDBRANCH   4   5
ENDBRANCH   3   4
ENDBRANCH   2   3
ENDBRANCH   1   2
BRANCH   1  17
ATOM     17  C   UNL     1      22.602 -10.709  28.006  1.00  0.00     0.000 C 
BRANCH  17  18
ATOM     18  C   UNL     1      23.375 -10.407  29.306  1.00  0.00     0.000 C 
BRANCH  18  19
ATOM     19  C   UNL     1      23.848  -8.951  29.463  1.00  0.00     0.000 C 
BRANCH  19  20
ATOM     20  C   UNL     1      25.310  -8.843  29.931  1.00  0.00     0.000 C 
BRANCH  20  21
ATOM     21  C   UNL     1      25.815 -10.144  30.573  1.00  0.00     0.000 C 
BRANCH  21  22
ATOM     22  C   UNL     1      27.162 -10.604  29.996  1.00  0.00    -0.000 C 
BRANCH  22  23
ATOM     23  C   UNL     1      27.121 -10.621  28.462  1.00  0.00    -0.000 C 
BRANCH  23  24
ATOM     24  C   UNL     1      27.142 -12.045  27.881  1.00  0.00    -0.000 C 
BRANCH  24  25
ATOM     25  C   UNL     1      25.783 -12.490  27.297  1.00  0.00    -0.000 C 
BRANCH  25  26
ATOM     26  C   UNL     1      25.753 -12.392  25.761  1.00  0.00    -0.000 C 
BRANCH  26  27
ATOM     27  C   UNL     1      25.104 -13.620  25.095  1.00  0.00    -0.000 C 
BRANCH  27  28
ATOM     28  C   UNL     1      25.686 -14.979  25.529  1.00  0.00    -0.000 C 
BRANCH  28  29
ATOM     29  C   UNL     1      24.643 -16.105  25.537  1.00  0.00    -0.003 C 
ATOM     30  C   UNL     1      23.352 -15.645  26.211  1.00  0.00     0.004 C 
ENDBRANCH  28  29
ENDBRANCH  27  28
ENDBRANCH  26  27
ENDBRANCH  25  26
ENDBRANCH  24  25
ENDBRANCH  23  24
ENDBRANCH  22  23
ENDBRANCH  21  22
ENDBRANCH  20  21
ENDBRANCH  19  20
ENDBRANCH  18  19
ENDBRANCH  17  18
ENDBRANCH   1  17
TORSDOF 26
ENDMDL
MODEL 4
REMARK VINA RESULT:    -5.058      4.400      6.665
REMARK INTER + INTRA:         -16.228
REMARK INTER:                 -13.462
REMARK INTRA:                  -2.766
REMARK UNBOUND:                -3.483
REMARK SMILES CCCCCCCCCCCCCCCCCCCCCCCCCCCC(=O)[O-]
REMARK SMILES IDX 15 1 16 2 17 3 18 4 19 5 20 6 21 7 22 8 23 9 24 10 25 11
REMARK SMILES IDX 26 12 27 13 28 14 29 15 30 16 14 17 13 18 12 19 11 20 10 21
REMARK SMILES IDX 9 22 8 23 7 24 6 25 5 26 4 27 3 28 2 29 1 30
REMARK H PARENT
REMARK Flexibility Score: inf
ROOT
ATOM      1  C   UNL     1      26.126 -14.820  25.644  1.00  0.00     0.000 C 
ENDROOT
BRANCH   1   2
ATOM      2  C   UNL     1      25.015 -13.815  25.278  1.00  0.00     0.000 C 
BRANCH   2   3
ATOM      3  C   UNL     1      25.214 -12.396  25.840  1.00  0.00     0.000 C 
BRANCH   3   4
ATOM      4  C   UNL     1      25.743 -12.397  27.284  1.00  0.00     0.000 C 
BRANCH   4   5
ATOM      5  C   UNL     1      24.913 -11.495  28.223  1.00  0.00     0.000 C 
BRANCH   5   6
ATOM      6  C   UNL     1      23.417 -11.431  27.862  1.00  0.00     0.000 C 
BRANCH   6   7
ATOM      7  C   UNL     1      22.737 -10.082  28.160  1.00  0.00     0.000 C 
BRANCH   7   8
ATOM      8  C   UNL     1      22.012  -9.432  26.964  1.00  0.00     0.000 C 
BRANCH   8   9
ATOM      9  C   UNL     1      20.578  -8.953  27.255  1.00  0.00     0.000 C 
BRANCH   9  10
ATOM     10  C   UNL     1      20.417  -8.367  28.668  1.00  0.00     0.000 C 
BRANCH  10  11
ATOM     11  C   UNL     1      19.087  -8.762  29.327  1.00  0.00     0.000 C 
BRANCH  11  12
ATOM     12  C   UNL     1      19.267  -9.324  30.746  1.00  0.00     0.006 C 
BRANCH  12  13
ATOM     13  C   UNL     1      20.628  -8.928  31.327  1.00  0.00     0.053 C 
BRANCH  13  14
ATOM     14  C   UNL     1      21.436 -10.142  31.663  1.00  0.00     0.041 C 
ATOM     15  O   UNL     1      21.002 -11.292  31.377  1.00  0.00    -0.550 OA
ATOM     16  O   UNL     1      22.649 -10.009  32.323  1.00  0.00    -0.550 OA
ENDBRANCH  13  14
ENDBRANCH  12  13
ENDBRANCH  11  12
ENDBRANCH  10  11
ENDBRANCH   9  10
ENDBRANCH   8   9
ENDBRANCH   7   8
ENDBRANCH   6   7
ENDBRANCH   5   6
ENDBRANCH   4   5
ENDBRANCH   3   4
ENDBRANCH   2   3
ENDBRANCH   1   2
BRANCH   1  17
ATOM     17  C   UNL     1      26.428 -15.880  24.568  1.00  0.00     0.000 C 
BRANCH  17  18
ATOM     18  C   UNL     1      26.765 -15.318  23.172  1.00  0.00     0.000 C 
BRANCH  18  19
ATOM     19  C   UNL     1      27.785 -16.141  22.364  1.00  0.00     0.000 C 
BRANCH  19  20
ATOM     20  C   UNL     1      27.127 -17.237  21.507  1.00  0.00     0.000 C 
BRANCH  20  21
ATOM     21  C   UNL     1      27.671 -18.637  21.831  1.00  0.00     0.000 C 
BRANCH  21  22
ATOM     22  C   UNL     1      28.359 -18.702  23.203  1.00  0.00    -0.000 C 
BRANCH  22  23
ATOM     23  C   UNL     1      29.765 -19.304  23.079  1.00  0.00    -0.000 C 
BRANCH  23  24
ATOM     24  C   UNL     1      29.755 -20.842  23.064  1.00  0.00    -0.000 C 
BRANCH  24  25
ATOM     25  C   UNL     1      30.706 -21.452  22.010  1.00  0.00    -0.000 C 
BRANCH  25  26
ATOM     26  C   UNL     1      30.167 -21.284  20.578  1.00  0.00    -0.000 C 
BRANCH  26  27
ATOM     27  C   UNL     1      30.952 -20.240  19.761  1.00  0.00    -0.000 C 
BRANCH  27  28
ATOM     28  C   UNL     1      30.102 -19.097  19.175  1.00  0.00    -0.000 C 
BRANCH  28  29
ATOM     29  C   UNL     1      30.496 -17.716  19.714  1.00  0.00    -0.003 C 
ATOM     30  C   UNL     1      29.778 -16.608  18.948  1.00  0.00     0.004 C 
ENDBRANCH  28  29
ENDBRANCH  27  28
ENDBRANCH  26  27
ENDBRANCH  25  26
ENDBRANCH  24  25
ENDBRANCH  23  24
ENDBRANCH  22  23
ENDBRANCH  21  22
ENDBRANCH  20  21
ENDBRANCH  19  20
ENDBRANCH  18  19
ENDBRANCH  17  18
ENDBRANCH   1  17
TORSDOF 26
ENDMDL
MODEL 5
REMARK VINA RESULT:    -5.053      6.981     11.648
REMARK INTER + INTRA:         -16.216
REMARK INTER:                 -12.419
REMARK INTRA:                  -3.797
REMARK UNBOUND:                -3.483
REMARK SMILES CCCCCCCCCCCCCCCCCCCCCCCCCCCC(=O)[O-]
REMARK SMILES IDX 15 1 16 2 17 3 18 4 19 5 20 6 21 7 22 8 23 9 24 10 25 11
REMARK SMILES IDX 26 12 27 13 28 14 29 15 30 16 14 17 13 18 12 19 11 20 10 21
REMARK SMILES IDX 9 22 8 23 7 24 6 25 5 26 4 27 3 28 2 29 1 30
REMARK H PARENT
REMARK Flexibility Score: inf
ROOT
ATOM      1  C   UNL     1      25.848 -15.042  25.657  1.00  0.00     0.000 C 
ENDROOT
BRANCH   1   2
ATOM      2  C   UNL     1      26.503 -15.968  24.613  1.00  0.00     0.000 C 
BRANCH   2   3
ATOM      3  C   UNL     1      26.533 -15.410  23.179  1.00  0.00     0.000 C 
BRANCH   3   4
ATOM      4  C   UNL     1      27.829 -15.762  22.431  1.00  0.00     0.000 C 
BRANCH   4   5
ATOM      5  C   UNL     1      27.767 -17.146  21.750  1.00  0.00     0.000 C 
BRANCH   5   6
ATOM      6  C   UNL     1      28.853 -18.127  22.234  1.00  0.00     0.000 C 
BRANCH   6   7
ATOM      7  C   UNL     1      28.514 -18.876  23.536  1.00  0.00     0.000 C 
BRANCH   7   8
ATOM      8  C   UNL     1      29.566 -19.907  23.994  1.00  0.00     0.000 C 
BRANCH   8   9
ATOM      9  C   UNL     1      31.011 -19.595  23.565  1.00  0.00     0.000 C 
BRANCH   9  10
ATOM     10  C   UNL     1      31.516 -20.518  22.442  1.00  0.00     0.000 C 
BRANCH  10  11
ATOM     11  C   UNL     1      30.446 -21.512  21.967  1.00  0.00     0.000 C 
BRANCH  11  12
ATOM     12  C   UNL     1      30.331 -21.580  20.436  1.00  0.00     0.006 C 
BRANCH  12  13
ATOM     13  C   UNL     1      30.583 -20.207  19.803  1.00  0.00     0.053 C 
BRANCH  13  14
ATOM     14  C   UNL     1      29.407 -19.777  18.983  1.00  0.00     0.041 C 
ATOM     15  O   UNL     1      28.535 -20.619  18.634  1.00  0.00    -0.550 OA
ATOM     16  O   UNL     1      29.291 -18.457  18.574  1.00  0.00    -0.550 OA
ENDBRANCH  13  14
ENDBRANCH  12  13
ENDBRANCH  11  12
ENDBRANCH  10  11
ENDBRANCH   9  10
ENDBRANCH   8   9
ENDBRANCH   7   8
ENDBRANCH   6   7
ENDBRANCH   5   6
ENDBRANCH   4   5
ENDBRANCH   3   4
ENDBRANCH   2   3
ENDBRANCH   1   2
BRANCH   1  17
ATOM     17  C   UNL     1      25.118 -13.816  25.076  1.00  0.00     0.000 C 
BRANCH  17  18
ATOM     18  C   UNL     1      25.489 -12.466  25.724  1.00  0.00     0.000 C 
BRANCH  18  19
ATOM     19  C   UNL     1      26.999 -12.188  25.836  1.00  0.00     0.000 C 
BRANCH  19  20
ATOM     20  C   UNL     1      27.679 -12.012  24.468  1.00  0.00     0.000 C 
BRANCH  20  21
ATOM     21  C   UNL     1      28.968 -12.839  24.346  1.00  0.00     0.000 C 
BRANCH  21  22
ATOM     22  C   UNL     1      30.141 -12.027  23.778  1.00  0.00    -0.000 C 
BRANCH  22  23
ATOM     23  C   UNL     1      29.650 -11.024  22.725  1.00  0.00    -0.000 C 
BRANCH  23  24
ATOM     24  C   UNL     1      30.330  -9.651  22.847  1.00  0.00    -0.000 C 
BRANCH  24  25
ATOM     25  C   UNL     1      29.876  -8.847  24.085  1.00  0.00    -0.000 C 
BRANCH  25  26
ATOM     26  C   UNL     1      30.994  -8.716  25.134  1.00  0.00    -0.000 C 
BRANCH  26  27
ATOM     27  C   UNL     1      30.455  -8.484  26.558  1.00  0.00    -0.000 C 
BRANCH  27  28
ATOM     28  C   UNL     1      29.646  -9.655  27.148  1.00  0.00    -0.000 C 
BRANCH  28  29
ATOM     29  C   UNL     1      30.450 -10.960  27.231  1.00  0.00    -0.003 C 
ATOM     30  C   UNL     1      29.820 -11.923  28.235  1.00  0.00     0.004 C 
ENDBRANCH  28  29
ENDBRANCH  27  28
ENDBRANCH  26  27
ENDBRANCH  25  26
ENDBRANCH  24  25
ENDBRANCH  23  24
ENDBRANCH  22  23
ENDBRANCH  21  22
ENDBRANCH  20  21
ENDBRANCH  19  20
ENDBRANCH  18  19
ENDBRANCH  17  18
ENDBRANCH   1  17
TORSDOF 26
ENDMDL
MODEL 6
REMARK VINA RESULT:    -5.041      1.858      2.104
REMARK INTER + INTRA:         -16.187
REMARK INTER:                 -12.728
REMARK INTRA:                  -3.459
REMARK UNBOUND:                -3.483
REMARK SMILES CCCCCCCCCCCCCCCCCCCCCCCCCCCC(=O)[O-]
REMARK SMILES IDX 15 1 16 2 17 3 18 4 19 5 20 6 21 7 22 8 23 9 24 10 25 11
REMARK SMILES IDX 26 12 27 13 28 14 29 15 30 16 14 17 13 18 12 19 11 20 10 21
REMARK SMILES IDX 9 22 8 23 7 24 6 25 5 26 4 27 3 28 2 29 1 30
REMARK H PARENT
REMARK Flexibility Score: inf
ROOT
ATOM      1  C   UNL     1      23.116 -11.358  28.356  1.00  0.00     0.000 C 
ENDROOT
BRANCH   1   2
ATOM      2  C   UNL     1      23.572 -10.004  28.936  1.00  0.00     0.000 C 
BRANCH   2   3
ATOM      3  C   UNL     1      22.749  -8.789  28.472  1.00  0.00     0.000 C 
BRANCH   3   4
ATOM      4  C   UNL     1      21.993  -9.050  27.159  1.00  0.00     0.000 C 
BRANCH   4   5
ATOM      5  C   UNL     1      20.460  -9.018  27.338  1.00  0.00     0.000 C 
BRANCH   5   6
ATOM      6  C   UNL     1      20.000  -8.321  28.633  1.00  0.00     0.000 C 
BRANCH   6   7
ATOM      7  C   UNL     1      19.385  -9.259  29.689  1.00  0.00     0.000 C 
BRANCH   7   8
ATOM      8  C   UNL     1      19.468 -10.764  29.359  1.00  0.00     0.000 C 
BRANCH   8   9
ATOM      9  C   UNL     1      20.282 -11.604  30.360  1.00  0.00     0.000 C 
BRANCH   9  10
ATOM     10  C   UNL     1      20.719 -10.803  31.599  1.00  0.00     0.000 C 
BRANCH  10  11
ATOM     11  C   UNL     1      20.785 -11.665  32.869  1.00  0.00     0.000 C 
BRANCH  11  12
ATOM     12  C   UNL     1      20.523 -13.154  32.595  1.00  0.00     0.006 C 
BRANCH  12  13
ATOM     13  C   UNL     1      20.345 -13.933  33.902  1.00  0.00     0.053 C 
BRANCH  13  14
ATOM     14  C   UNL     1      21.510 -14.842  34.141  1.00  0.00     0.041 C 
ATOM     15  O   UNL     1      22.663 -14.362  34.318  1.00  0.00    -0.550 OA
ATOM     16  O   UNL     1      21.332 -16.218  34.133  1.00  0.00    -0.550 OA
ENDBRANCH  13  14
ENDBRANCH  12  13
ENDBRANCH  11  12
ENDBRANCH  10  11
ENDBRANCH   9  10
ENDBRANCH   8   9
ENDBRANCH   7   8
ENDBRANCH   6   7
ENDBRANCH   5   6
ENDBRANCH   4   5
ENDBRANCH   3   4
ENDBRANCH   2   3
ENDBRANCH   1   2
BRANCH   1  17
ATOM     17  C   UNL     1      24.213 -12.159  27.628  1.00  0.00     0.000 C 
BRANCH  17  18
ATOM     18  C   UNL     1      25.604 -11.494  27.608  1.00  0.00     0.000 C 
BRANCH  18  19
ATOM     19  C   UNL     1      26.761 -12.382  28.102  1.00  0.00     0.000 C 
BRANCH  19  20
ATOM     20  C   UNL     1      27.851 -11.588  28.843  1.00  0.00     0.000 C 
BRANCH  20  21
ATOM     21  C   UNL     1      29.267 -12.062  28.481  1.00  0.00     0.000 C 
BRANCH  21  22
ATOM     22  C   UNL     1      29.975 -11.116  27.501  1.00  0.00    -0.000 C 
BRANCH  22  23
ATOM     23  C   UNL     1      29.980 -11.704  26.083  1.00  0.00    -0.000 C 
BRANCH  23  24
ATOM     24  C   UNL     1      28.839 -11.160  25.208  1.00  0.00    -0.000 C 
BRANCH  24  25
ATOM     25  C   UNL     1      28.360 -12.158  24.131  1.00  0.00    -0.000 C 
BRANCH  25  26
ATOM     26  C   UNL     1      27.284 -13.118  24.668  1.00  0.00    -0.000 C 
BRANCH  26  27
ATOM     27  C   UNL     1      27.190 -14.425  23.858  1.00  0.00    -0.000 C 
BRANCH  27  28
ATOM     28  C   UNL     1      26.141 -15.433  24.366  1.00  0.00    -0.000 C 
BRANCH  28  29
ATOM     29  C   UNL     1      25.512 -15.023  25.703  1.00  0.00    -0.003 C 
ATOM     30  C   UNL     1      24.068 -15.511  25.798  1.00  0.00     0.004 C 
ENDBRANCH  28  29
ENDBRANCH  27  28
ENDBRANCH  26  27
ENDBRANCH  25  26
ENDBRANCH  24  25
ENDBRANCH  23  24
ENDBRANCH  22  23
ENDBRANCH  21  22
ENDBRANCH  20  21
ENDBRANCH  19  20
ENDBRANCH  18  19
ENDBRANCH  17  18
ENDBRANCH   1  17
TORSDOF 26
ENDMDL
MODEL 7
REMARK VINA RESULT:    -5.012      5.878     11.843
REMARK INTER + INTRA:         -16.114
REMARK INTER:                 -13.591
REMARK INTRA:                  -2.523
REMARK UNBOUND:                -3.483
REMARK SMILES CCCCCCCCCCCCCCCCCCCCCCCCCCCC(=O)[O-]
REMARK SMILES IDX 15 1 16 2 17 3 18 4 19 5 20 6 21 7 22 8 23 9 24 10 25 11
REMARK SMILES IDX 26 12 27 13 28 14 29 15 30 16 14 17 13 18 12 19 11 20 10 21
REMARK SMILES IDX 9 22 8 23 7 24 6 25 5 26 4 27 3 28 2 29 1 30
REMARK H PARENT
REMARK Flexibility Score: inf
ROOT
ATOM      1  C   UNL     1      26.006 -15.409  25.178  1.00  0.00     0.000 C 
ENDROOT
BRANCH   1   2
ATOM      2  C   UNL     1      26.110 -15.351  23.641  1.00  0.00     0.000 C 
BRANCH   2   3
ATOM      3  C   UNL     1      27.528 -15.101  23.096  1.00  0.00     0.000 C 
BRANCH   3   4
ATOM      4  C   UNL     1      28.005 -16.213  22.148  1.00  0.00     0.000 C 
BRANCH   4   5
ATOM      5  C   UNL     1      27.756 -17.627  22.715  1.00  0.00     0.000 C 
BRANCH   5   6
ATOM      6  C   UNL     1      27.422 -18.679  21.639  1.00  0.00     0.000 C 
BRANCH   6   7
ATOM      7  C   UNL     1      27.124 -18.102  20.242  1.00  0.00     0.000 C 
BRANCH   7   8
ATOM      8  C   UNL     1      28.016 -18.641  19.104  1.00  0.00     0.000 C 
BRANCH   8   9
ATOM      9  C   UNL     1      28.873 -19.865  19.476  1.00  0.00     0.000 C 
BRANCH   9  10
ATOM     10  C   UNL     1      30.355 -19.514  19.695  1.00  0.00     0.000 C 
BRANCH  10  11
ATOM     11  C   UNL     1      30.925 -20.127  20.983  1.00  0.00     0.000 C 
BRANCH  11  12
ATOM     12  C   UNL     1      31.121 -19.092  22.101  1.00  0.00     0.006 C 
BRANCH  12  13
ATOM     13  C   UNL     1      31.511 -19.769  23.419  1.00  0.00     0.053 C 
BRANCH  13  14
ATOM     14  C   UNL     1      30.484 -20.780  23.820  1.00  0.00     0.041 C 
ATOM     15  O   UNL     1      30.696 -22.010  23.634  1.00  0.00    -0.550 OA
ATOM     16  O   UNL     1      29.278 -20.366  24.366  1.00  0.00    -0.550 OA
ENDBRANCH  13  14
ENDBRANCH  12  13
ENDBRANCH  11  12
ENDBRANCH  10  11
ENDBRANCH   9  10
ENDBRANCH   8   9
ENDBRANCH   7   8
ENDBRANCH   6   7
ENDBRANCH   5   6
ENDBRANCH   4   5
ENDBRANCH   3   4
ENDBRANCH   2   3
ENDBRANCH   1   2
BRANCH   1  17
ATOM     17  C   UNL     1      24.819 -14.633  25.782  1.00  0.00     0.000 C 
BRANCH  17  18
ATOM     18  C   UNL     1      25.004 -13.103  25.849  1.00  0.00     0.000 C 
BRANCH  18  19
ATOM     19  C   UNL     1      25.902 -12.602  26.994  1.00  0.00     0.000 C 
BRANCH  19  20
ATOM     20  C   UNL     1      25.159 -11.683  27.980  1.00  0.00     0.000 C 
BRANCH  20  21
ATOM     21  C   UNL     1      23.647 -11.957  28.006  1.00  0.00     0.000 C 
BRANCH  21  22
ATOM     22  C   UNL     1      22.834 -10.741  28.476  1.00  0.00    -0.000 C 
BRANCH  22  23
ATOM     23  C   UNL     1      22.416  -9.871  27.282  1.00  0.00    -0.000 C 
BRANCH  23  24
ATOM     24  C   UNL     1      21.604  -8.635  27.702  1.00  0.00    -0.000 C 
BRANCH  24  25
ATOM     25  C   UNL     1      20.110  -8.723  27.320  1.00  0.00    -0.000 C 
BRANCH  25  26
ATOM     26  C   UNL     1      19.188  -8.371  28.502  1.00  0.00    -0.000 C 
BRANCH  26  27
ATOM     27  C   UNL     1      19.850  -8.617  29.871  1.00  0.00    -0.000 C 
BRANCH  27  28
ATOM     28  C   UNL     1      18.949  -9.303  30.916  1.00  0.00    -0.000 C 
BRANCH  28  29
ATOM     29  C   UNL     1      19.522 -10.632  31.424  1.00  0.00    -0.003 C 
ATOM     30  C   UNL     1      19.835 -11.570  30.260  1.00  0.00     0.004 C 
ENDBRANCH  28  29
ENDBRANCH  27  28
ENDBRANCH  26  27
ENDBRANCH  25  26
ENDBRANCH  24  25
ENDBRANCH  23  24
ENDBRANCH  22  23
ENDBRANCH  21  22
ENDBRANCH  20  21
ENDBRANCH  19  20
ENDBRANCH  18  19
ENDBRANCH  17  18
ENDBRANCH   1  17
TORSDOF 26
ENDMDL
MODEL 8
REMARK VINA RESULT:    -4.991      6.060     11.582
REMARK INTER + INTRA:         -16.060
REMARK INTER:                 -12.353
REMARK INTRA:                  -3.707
REMARK UNBOUND:                -3.483
REMARK SMILES CCCCCCCCCCCCCCCCCCCCCCCCCCCC(=O)[O-]
REMARK SMILES IDX 15 1 16 2 17 3 18 4 19 5 20 6 21 7 22 8 23 9 24 10 25 11
REMARK SMILES IDX 26 12 27 13 28 14 29 15 30 16 14 17 13 18 12 19 11 20 10 21
REMARK SMILES IDX 9 22 8 23 7 24 6 25 5 26 4 27 3 28 2 29 1 30
REMARK H PARENT
REMARK Flexibility Score: inf
ROOT
ATOM      1  C   UNL     1      26.486 -15.371  23.121  1.00  0.00     0.000 C 
ENDROOT
BRANCH   1   2
ATOM      2  C   UNL     1      27.639 -16.168  22.479  1.00  0.00     0.000 C 
BRANCH   2   3
ATOM      3  C   UNL     1      27.638 -17.675  22.792  1.00  0.00     0.000 C 
BRANCH   3   4
ATOM      4  C   UNL     1      27.331 -18.539  21.557  1.00  0.00     0.000 C 
BRANCH   4   5
ATOM      5  C   UNL     1      27.064 -17.695  20.291  1.00  0.00     0.000 C 
BRANCH   5   6
ATOM      6  C   UNL     1      28.172 -17.803  19.226  1.00  0.00     0.000 C 
BRANCH   6   7
ATOM      7  C   UNL     1      29.400 -16.908  19.478  1.00  0.00     0.000 C 
BRANCH   7   8
ATOM      8  C   UNL     1      30.741 -17.657  19.624  1.00  0.00     0.000 C 
BRANCH   8   9
ATOM      9  C   UNL     1      30.742 -19.098  19.081  1.00  0.00     0.000 C 
BRANCH   9  10
ATOM     10  C   UNL     1      31.043 -20.147  20.166  1.00  0.00     0.000 C 
BRANCH  10  11
ATOM     11  C   UNL     1      29.798 -20.946  20.579  1.00  0.00     0.000 C 
BRANCH  11  12
ATOM     12  C   UNL     1      29.786 -21.303  22.074  1.00  0.00     0.006 C 
BRANCH  12  13
ATOM     13  C   UNL     1      31.066 -20.824  22.766  1.00  0.00     0.053 C 
BRANCH  13  14
ATOM     14  C   UNL     1      30.742 -19.929  23.921  1.00  0.00     0.041 C 
ATOM     15  O   UNL     1      31.584 -19.079  24.320  1.00  0.00    -0.550 OA
ATOM     16  O   UNL     1      29.528 -20.057  24.579  1.00  0.00    -0.550 OA
ENDBRANCH  13  14
ENDBRANCH  12  13
ENDBRANCH  11  12
ENDBRANCH  10  11
ENDBRANCH   9  10
ENDBRANCH   8   9
ENDBRANCH   7   8
ENDBRANCH   6   7
ENDBRANCH   5   6
ENDBRANCH   4   5
ENDBRANCH   3   4
ENDBRANCH   2   3
ENDBRANCH   1   2
BRANCH   1  17
ATOM     17  C   UNL     1      26.521 -15.295  24.659  1.00  0.00     0.000 C 
BRANCH  17  18
ATOM     18  C   UNL     1      25.212 -15.708  25.364  1.00  0.00     0.000 C 
BRANCH  18  19
ATOM     19  C   UNL     1      24.493 -14.577  26.121  1.00  0.00     0.000 C 
BRANCH  19  20
ATOM     20  C   UNL     1      25.192 -13.215  25.970  1.00  0.00     0.000 C 
BRANCH  20  21
ATOM     21  C   UNL     1      24.634 -12.161  26.940  1.00  0.00     0.000 C 
BRANCH  21  22
ATOM     22  C   UNL     1      25.678 -11.685  27.961  1.00  0.00    -0.000 C 
BRANCH  22  23
ATOM     23  C   UNL     1      27.028 -12.375  27.720  1.00  0.00    -0.000 C 
BRANCH  23  24
ATOM     24  C   UNL     1      28.173 -11.376  27.483  1.00  0.00    -0.000 C 
BRANCH  24  25
ATOM     25  C   UNL     1      29.137 -11.804  26.354  1.00  0.00    -0.000 C 
BRANCH  25  26
ATOM     26  C   UNL     1      28.408 -12.000  25.013  1.00  0.00    -0.000 C 
BRANCH  26  27
ATOM     27  C   UNL     1      29.353 -11.908  23.799  1.00  0.00    -0.000 C 
BRANCH  27  28
ATOM     28  C   UNL     1      29.575 -13.233  23.045  1.00  0.00    -0.000 C 
BRANCH  28  29
ATOM     29  C   UNL     1      31.053 -13.638  22.963  1.00  0.00    -0.003 C 
ATOM     30  C   UNL     1      31.264 -14.716  21.903  1.00  0.00     0.004 C 
ENDBRANCH  28  29
ENDBRANCH  27  28
ENDBRANCH  26  27
ENDBRANCH  25  26
ENDBRANCH  24  25
ENDBRANCH  23  24
ENDBRANCH  22  23
ENDBRANCH  21  22
ENDBRANCH  20  21
ENDBRANCH  19  20
ENDBRANCH  18  19
ENDBRANCH  17  18
ENDBRANCH   1  17
TORSDOF 26
ENDMDL
MODEL 9
REMARK VINA RESULT:    -4.971      2.654      9.187
REMARK INTER + INTRA:         -16.011
REMARK INTER:                 -12.352
REMARK INTRA:                  -3.659
REMARK UNBOUND:                -3.483
REMARK SMILES CCCCCCCCCCCCCCCCCCCCCCCCCCCC(=O)[O-]
REMARK SMILES IDX 15 1 16 2 17 3 18 4 19 5 20 6 21 7 22 8 23 9 24 10 25 11
REMARK SMILES IDX 26 12 27 13 28 14 29 15 30 16 14 17 13 18 12 19 11 20 10 21
REMARK SMILES IDX 9 22 8 23 7 24 6 25 5 26 4 27 3 28 2 29 1 30
REMARK H PARENT
REMARK Flexibility Score: inf
ROOT
ATOM      1  C   UNL     1      23.250 -11.395  28.021  1.00  0.00     0.000 C 
ENDROOT
BRANCH   1   2
ATOM      2  C   UNL     1      24.788 -11.419  28.127  1.00  0.00     0.000 C 
BRANCH   2   3
ATOM      3  C   UNL     1      25.376 -10.517  29.227  1.00  0.00     0.000 C 
BRANCH   3   4
ATOM      4  C   UNL     1      26.739 -11.014  29.737  1.00  0.00     0.000 C 
BRANCH   4   5
ATOM      5  C   UNL     1      27.317 -12.158  28.877  1.00  0.00     0.000 C 
BRANCH   5   6
ATOM      6  C   UNL     1      28.745 -11.891  28.364  1.00  0.00     0.000 C 
BRANCH   6   7
ATOM      7  C   UNL     1      28.871 -10.703  27.392  1.00  0.00     0.000 C 
BRANCH   7   8
ATOM      8  C   UNL     1      29.904 -10.887  26.260  1.00  0.00     0.000 C 
BRANCH   8   9
ATOM      9  C   UNL     1      29.308 -10.945  24.841  1.00  0.00     0.000 C 
BRANCH   9  10
ATOM     10  C   UNL     1      28.617 -12.285  24.535  1.00  0.00     0.000 C 
BRANCH  10  11
ATOM     11  C   UNL     1      27.108 -12.252  24.819  1.00  0.00     0.000 C 
BRANCH  11  12
ATOM     12  C   UNL     1      26.616 -13.492  25.582  1.00  0.00     0.006 C 
BRANCH  12  13
ATOM     13  C   UNL     1      25.138 -13.770  25.289  1.00  0.00     0.053 C 
BRANCH  13  14
ATOM     14  C   UNL     1      24.828 -15.225  25.460  1.00  0.00     0.041 C 
ATOM     15  O   UNL     1      25.711 -16.094  25.225  1.00  0.00    -0.550 OA
ATOM     16  O   UNL     1      23.556 -15.623  25.844  1.00  0.00    -0.550 OA
ENDBRANCH  13  14
ENDBRANCH  12  13
ENDBRANCH  11  12
ENDBRANCH  10  11
ENDBRANCH   9  10
ENDBRANCH   8   9
ENDBRANCH   7   8
ENDBRANCH   6   7
ENDBRANCH   5   6
ENDBRANCH   4   5
ENDBRANCH   3   4
ENDBRANCH   2   3
ENDBRANCH   1   2
BRANCH   1  17
ATOM     17  C   UNL     1      22.605 -10.007  28.197  1.00  0.00     0.000 C 
BRANCH  17  18
ATOM     18  C   UNL     1      22.019  -9.389  26.911  1.00  0.00     0.000 C 
BRANCH  18  19
ATOM     19  C   UNL     1      20.527  -9.017  26.985  1.00  0.00     0.000 C 
BRANCH  19  20
ATOM     20  C   UNL     1      20.189  -8.133  28.199  1.00  0.00     0.000 C 
BRANCH  20  21
ATOM     21  C   UNL     1      19.001  -8.680  29.006  1.00  0.00     0.000 C 
BRANCH  21  22
ATOM     22  C   UNL     1      19.442  -9.552  30.191  1.00  0.00    -0.000 C 
BRANCH  22  23
ATOM     23  C   UNL     1      19.500 -11.031  29.788  1.00  0.00    -0.000 C 
BRANCH  23  24
ATOM     24  C   UNL     1      20.238 -11.902  30.819  1.00  0.00    -0.000 C 
BRANCH  24  25
ATOM     25  C   UNL     1      19.887 -11.551  32.281  1.00  0.00    -0.000 C 
BRANCH  25  26
ATOM     26  C   UNL     1      21.110 -11.652  33.211  1.00  0.00    -0.000 C 
BRANCH  26  27
ATOM     27  C   UNL     1      21.747 -10.283  33.513  1.00  0.00    -0.000 C 
BRANCH  27  28
ATOM     28  C   UNL     1      23.287 -10.259  33.478  1.00  0.00    -0.000 C 
BRANCH  28  29
ATOM     29  C   UNL     1      23.850  -9.360  32.369  1.00  0.00    -0.003 C 
ATOM     30  C   UNL     1      22.722  -8.700  31.579  1.00  0.00     0.004 C 
ENDBRANCH  28  29
ENDBRANCH  27  28
ENDBRANCH  26  27
ENDBRANCH  25  26
ENDBRANCH  24  25
ENDBRANCH  23  24
ENDBRANCH  22  23
ENDBRANCH  21  22
ENDBRANCH  20  21
ENDBRANCH  19  20
ENDBRANCH  18  19
ENDBRANCH  17  18
ENDBRANCH   1  17
TORSDOF 26
ENDMDL
