MODEL 1
REMARK VINA RESULT:    -4.308      0.000      0.000
REMARK INTER + INTRA:         -12.889
REMARK INTER:                  -9.345
REMARK INTRA:                  -3.544
REMARK UNBOUND:                -3.544
REMARK SMILES CCCCCCCCCCCCCCCCCCCCCC(=O)[O-]
REMARK SMILES IDX 12 1 11 2 10 3 9 4 8 5 7 6 6 7 5 8 4 9 3 10 2 11 1 12 13 13
REMARK SMILES IDX 14 14 15 15 16 16 17 17 18 18 19 19 20 20 21 21 22 22 23 23
REMARK SMILES IDX 24 24
REMARK H PARENT
REMARK Flexibility Score: inf
ROOT
ATOM      1  C   UNL     1       8.151  -6.107 -32.088  1.00  0.00     0.000 C 
ENDROOT
BRANCH   1   2
ATOM      2  C   UNL     1       6.746  -6.237 -31.466  1.00  0.00     0.000 C 
BRANCH   2   3
ATOM      3  C   UNL     1       5.996  -7.533 -31.824  1.00  0.00     0.000 C 
BRANCH   3   4
ATOM      4  C   UNL     1       5.083  -7.371 -33.053  1.00  0.00    -0.000 C 
BRANCH   4   5
ATOM      5  C   UNL     1       5.423  -8.363 -34.178  1.00  0.00    -0.000 C 
BRANCH   5   6
ATOM      6  C   UNL     1       5.089  -7.875 -35.602  1.00  0.00    -0.000 C 
BRANCH   6   7
ATOM      7  C   UNL     1       3.885  -6.916 -35.700  1.00  0.00    -0.000 C 
BRANCH   7   8
ATOM      8  C   UNL     1       3.647  -6.311 -37.096  1.00  0.00    -0.000 C 
BRANCH   8   9
ATOM      9  C   UNL     1       2.933  -4.953 -37.045  1.00  0.00    -0.000 C 
BRANCH   9  10
ATOM     10  C   UNL     1       3.846  -3.835 -37.571  1.00  0.00    -0.000 C 
BRANCH  10  11
ATOM     11  C   UNL     1       3.537  -2.472 -36.936  1.00  0.00    -0.003 C 
ATOM     12  C   UNL     1       4.094  -1.303 -37.747  1.00  0.00     0.004 C 
ENDBRANCH  10  11
ENDBRANCH   9  10
ENDBRANCH   8   9
ENDBRANCH   7   8
ENDBRANCH   6   7
ENDBRANCH   5   6
ENDBRANCH   4   5
ENDBRANCH   3   4
ENDBRANCH   2   3
ENDBRANCH   1   2
BRANCH   1  13
ATOM     13  C   UNL     1       8.187  -5.242 -33.368  1.00  0.00     0.000 C 
BRANCH  13  14
ATOM     14  C   UNL     1       7.150  -4.105 -33.368  1.00  0.00     0.000 C 
BRANCH  14  15
ATOM     15  C   UNL     1       6.275  -4.116 -34.633  1.00  0.00     0.000 C 
BRANCH  15  16
ATOM     16  C   UNL     1       6.952  -4.826 -35.820  1.00  0.00     0.000 C 
BRANCH  16  17
ATOM     17  C   UNL     1       7.391  -3.898 -36.968  1.00  0.00     0.000 C 
BRANCH  17  18
ATOM     18  C   UNL     1       7.566  -2.437 -36.519  1.00  0.00     0.000 C 
BRANCH  18  19
ATOM     19  C   UNL     1       9.033  -1.975 -36.569  1.00  0.00     0.000 C 
BRANCH  19  20
ATOM     20  C   UNL     1       9.838  -2.431 -35.339  1.00  0.00     0.006 C 
BRANCH  20  21
ATOM     21  C   UNL     1       9.717  -1.443 -34.171  1.00  0.00     0.053 C 
BRANCH  21  22
ATOM     22  C   UNL     1      10.988  -0.680 -33.954  1.00  0.00     0.041 C 
ATOM     23  O   UNL     1      11.161  -0.023 -32.893  1.00  0.00    -0.550 OA
ATOM     24  O   UNL     1      11.992  -0.710 -34.915  1.00  0.00    -0.550 OA
ENDBRANCH  21  22
ENDBRANCH  20  21
ENDBRANCH  19  20
ENDBRANCH  18  19
ENDBRANCH  17  18
ENDBRANCH  16  17
ENDBRANCH  15  16
ENDBRANCH  14  15
ENDBRANCH  13  14
ENDBRANCH   1  13
TORSDOF 20
ENDMDL
MODEL 2
REMARK VINA RESULT:    -4.297      4.522      7.581
REMARK INTER + INTRA:         -12.864
REMARK INTER:                  -9.174
REMARK INTRA:                  -3.691
REMARK UNBOUND:                -3.544
REMARK SMILES CCCCCCCCCCCCCCCCCCCCCC(=O)[O-]
REMARK SMILES IDX 12 1 11 2 10 3 9 4 8 5 7 6 6 7 5 8 4 9 3 10 2 11 1 12 13 13
REMARK SMILES IDX 14 14 15 15 16 16 17 17 18 18 19 19 20 20 21 21 22 22 23 23
REMARK SMILES IDX 24 24
REMARK H PARENT
REMARK Flexibility Score: inf
ROOT
ATOM      1  C   UNL     1       6.558  -7.285 -36.555  1.00  0.00     0.000 C 
ENDROOT
BRANCH   1   2
ATOM      2  C   UNL     1       5.656  -8.319 -35.854  1.00  0.00     0.000 C 
BRANCH   2   3
ATOM      3  C   UNL     1       5.777  -8.350 -34.320  1.00  0.00     0.000 C 
BRANCH   3   4
ATOM      4  C   UNL     1       4.592  -7.663 -33.617  1.00  0.00    -0.000 C 
BRANCH   4   5
ATOM      5  C   UNL     1       5.030  -6.808 -32.415  1.00  0.00    -0.000 C 
BRANCH   5   6
ATOM      6  C   UNL     1       6.416  -7.156 -31.836  1.00  0.00    -0.000 C 
BRANCH   6   7
ATOM      7  C   UNL     1       7.400  -5.973 -31.733  1.00  0.00    -0.000 C 
BRANCH   7   8
ATOM      8  C   UNL     1       8.371  -5.829 -32.919  1.00  0.00    -0.000 C 
BRANCH   8   9
ATOM      9  C   UNL     1       7.791  -4.992 -34.068  1.00  0.00    -0.000 C 
BRANCH   9  10
ATOM     10  C   UNL     1       6.950  -3.827 -33.526  1.00  0.00    -0.000 C 
BRANCH  10  11
ATOM     11  C   UNL     1       6.627  -2.780 -34.602  1.00  0.00    -0.003 C 
ATOM     12  C   UNL     1       7.820  -2.478 -35.508  1.00  0.00     0.004 C 
ENDBRANCH  10  11
ENDBRANCH   9  10
ENDBRANCH   8   9
ENDBRANCH   7   8
ENDBRANCH   6   7
ENDBRANCH   5   6
ENDBRANCH   4   5
ENDBRANCH   3   4
ENDBRANCH   2   3
ENDBRANCH   1   2
BRANCH   1  13
ATOM     13  C   UNL     1       5.776  -6.178 -37.298  1.00  0.00     0.000 C 
BRANCH  13  14
ATOM     14  C   UNL     1       4.777  -5.426 -36.400  1.00  0.00     0.000 C 
BRANCH  14  15
ATOM     15  C   UNL     1       3.391  -5.297 -37.053  1.00  0.00     0.000 C 
BRANCH  15  16
ATOM     16  C   UNL     1       2.357  -6.269 -36.456  1.00  0.00     0.000 C 
BRANCH  16  17
ATOM     17  C   UNL     1       2.261  -7.632 -37.165  1.00  0.00     0.000 C 
BRANCH  17  18
ATOM     18  C   UNL     1       1.838  -8.769 -36.218  1.00  0.00     0.000 C 
BRANCH  18  19
ATOM     19  C   UNL     1       0.949  -8.276 -35.064  1.00  0.00     0.000 C 
BRANCH  19  20
ATOM     20  C   UNL     1       1.166  -9.075 -33.767  1.00  0.00     0.006 C 
BRANCH  20  21
ATOM     21  C   UNL     1       2.231 -10.168 -33.934  1.00  0.00     0.053 C 
BRANCH  21  22
ATOM     22  C   UNL     1       2.469 -10.913 -32.657  1.00  0.00     0.041 C 
ATOM     23  O   UNL     1       1.508 -11.459 -32.052  1.00  0.00    -0.550 OA
ATOM     24  O   UNL     1       3.756 -11.023 -32.142  1.00  0.00    -0.550 OA
ENDBRANCH  21  22
ENDBRANCH  20  21
ENDBRANCH  19  20
ENDBRANCH  18  19
ENDBRANCH  17  18
ENDBRANCH  16  17
ENDBRANCH  15  16
ENDBRANCH  14  15
ENDBRANCH  13  14
ENDBRANCH   1  13
TORSDOF 20
ENDMDL
MODEL 3
REMARK VINA RESULT:    -4.289      4.651      8.255
REMARK INTER + INTRA:         -12.848
REMARK INTER:                  -9.423
REMARK INTRA:                  -3.424
REMARK UNBOUND:                -3.544
REMARK SMILES CCCCCCCCCCCCCCCCCCCCCC(=O)[O-]
REMARK SMILES IDX 12 1 11 2 10 3 9 4 8 5 7 6 6 7 5 8 4 9 3 10 2 11 1 12 13 13
REMARK SMILES IDX 14 14 15 15 16 16 17 17 18 18 19 19 20 20 21 21 22 22 23 23
REMARK SMILES IDX 24 24
REMARK H PARENT
REMARK Flexibility Score: inf
ROOT
ATOM      1  C   UNL     1       6.778  -7.576 -35.555  1.00  0.00     0.000 C 
ENDROOT
BRANCH   1   2
ATOM      2  C   UNL     1       7.630  -7.228 -36.792  1.00  0.00     0.000 C 
BRANCH   2   3
ATOM      3  C   UNL     1       7.044  -6.128 -37.694  1.00  0.00     0.000 C 
BRANCH   3   4
ATOM      4  C   UNL     1       7.195  -4.720 -37.090  1.00  0.00    -0.000 C 
BRANCH   4   5
ATOM      5  C   UNL     1       5.851  -4.115 -36.650  1.00  0.00    -0.000 C 
BRANCH   5   6
ATOM      6  C   UNL     1       5.781  -3.684 -35.172  1.00  0.00    -0.000 C 
BRANCH   6   7
ATOM      7  C   UNL     1       7.022  -2.935 -34.648  1.00  0.00    -0.000 C 
BRANCH   7   8
ATOM      8  C   UNL     1       7.661  -3.537 -33.383  1.00  0.00    -0.000 C 
BRANCH   8   9
ATOM      9  C   UNL     1       8.354  -4.881 -33.646  1.00  0.00    -0.000 C 
BRANCH   9  10
ATOM     10  C   UNL     1       8.088  -5.867 -32.499  1.00  0.00    -0.000 C 
BRANCH  10  11
ATOM     11  C   UNL     1       6.590  -6.103 -32.258  1.00  0.00    -0.003 C 
ATOM     12  C   UNL     1       6.321  -7.028 -31.072  1.00  0.00     0.004 C 
ENDBRANCH  10  11
ENDBRANCH   9  10
ENDBRANCH   8   9
ENDBRANCH   7   8
ENDBRANCH   6   7
ENDBRANCH   5   6
ENDBRANCH   4   5
ENDBRANCH   3   4
ENDBRANCH   2   3
ENDBRANCH   1   2
BRANCH   1  13
ATOM     13  C   UNL     1       5.368  -8.105 -35.899  1.00  0.00     0.000 C 
BRANCH  13  14
ATOM     14  C   UNL     1       4.232  -7.201 -35.386  1.00  0.00     0.000 C 
BRANCH  14  15
ATOM     15  C   UNL     1       3.323  -6.707 -36.523  1.00  0.00     0.000 C 
BRANCH  15  16
ATOM     16  C   UNL     1       1.951  -7.406 -36.535  1.00  0.00     0.000 C 
BRANCH  16  17
ATOM     17  C   UNL     1       1.303  -7.589 -35.150  1.00  0.00     0.000 C 
BRANCH  17  18
ATOM     18  C   UNL     1       0.982  -9.060 -34.831  1.00  0.00     0.000 C 
BRANCH  18  19
ATOM     19  C   UNL     1       1.835 -10.042 -35.651  1.00  0.00     0.000 C 
BRANCH  19  20
ATOM     20  C   UNL     1       2.751 -10.909 -34.769  1.00  0.00     0.006 C 
BRANCH  20  21
ATOM     21  C   UNL     1       3.089 -10.222 -33.438  1.00  0.00     0.053 C 
BRANCH  21  22
ATOM     22  C   UNL     1       2.732 -11.079 -32.263  1.00  0.00     0.041 C 
ATOM     23  O   UNL     1       1.536 -11.427 -32.072  1.00  0.00    -0.550 OA
ATOM     24  O   UNL     1       3.721 -11.511 -31.387  1.00  0.00    -0.550 OA
ENDBRANCH  21  22
ENDBRANCH  20  21
ENDBRANCH  19  20
ENDBRANCH  18  19
ENDBRANCH  17  18
ENDBRANCH  16  17
ENDBRANCH  15  16
ENDBRANCH  14  15
ENDBRANCH  13  14
ENDBRANCH   1  13
TORSDOF 20
ENDMDL
MODEL 4
REMARK VINA RESULT:    -4.204      4.383      7.146
REMARK INTER + INTRA:         -12.664
REMARK INTER:                  -9.531
REMARK INTRA:                  -3.133
REMARK UNBOUND:                -3.544
REMARK SMILES CCCCCCCCCCCCCCCCCCCCCC(=O)[O-]
REMARK SMILES IDX 12 1 11 2 10 3 9 4 8 5 7 6 6 7 5 8 4 9 3 10 2 11 1 12 13 13
REMARK SMILES IDX 14 14 15 15 16 16 17 17 18 18 19 19 20 20 21 21 22 22 23 23
REMARK SMILES IDX 24 24
REMARK H PARENT
REMARK Flexibility Score: inf
ROOT
ATOM      1  C   UNL     1       5.768  -8.357 -34.874  1.00  0.00     0.000 C 
ENDROOT
BRANCH   1   2
ATOM      2  C   UNL     1       5.316  -7.075 -34.147  1.00  0.00     0.000 C 
BRANCH   2   3
ATOM      3  C   UNL     1       5.164  -7.215 -32.621  1.00  0.00     0.000 C 
BRANCH   3   4
ATOM      4  C   UNL     1       6.336  -6.585 -31.847  1.00  0.00    -0.000 C 
BRANCH   4   5
ATOM      5  C   UNL     1       7.295  -5.800 -32.759  1.00  0.00    -0.000 C 
BRANCH   5   6
ATOM      6  C   UNL     1       7.268  -4.270 -32.573  1.00  0.00    -0.000 C 
BRANCH   6   7
ATOM      7  C   UNL     1       7.447  -3.449 -33.866  1.00  0.00    -0.000 C 
BRANCH   7   8
ATOM      8  C   UNL     1       7.097  -4.197 -35.165  1.00  0.00    -0.000 C 
BRANCH   8   9
ATOM      9  C   UNL     1       6.245  -3.359 -36.127  1.00  0.00    -0.000 C 
BRANCH   9  10
ATOM     10  C   UNL     1       4.850  -3.100 -35.539  1.00  0.00    -0.000 C 
BRANCH  10  11
ATOM     11  C   UNL     1       3.753  -3.063 -36.613  1.00  0.00    -0.003 C 
ATOM     12  C   UNL     1       3.401  -1.641 -37.048  1.00  0.00     0.004 C 
ENDBRANCH  10  11
ENDBRANCH   9  10
ENDBRANCH   8   9
ENDBRANCH   7   8
ENDBRANCH   6   7
ENDBRANCH   5   6
ENDBRANCH   4   5
ENDBRANCH   3   4
ENDBRANCH   2   3
ENDBRANCH   1   2
BRANCH   1  13
ATOM     13  C   UNL     1       5.373  -8.397 -36.368  1.00  0.00     0.000 C 
BRANCH  13  14
ATOM     14  C   UNL     1       5.863  -7.173 -37.163  1.00  0.00     0.000 C 
BRANCH  14  15
ATOM     15  C   UNL     1       4.699  -6.345 -37.733  1.00  0.00     0.000 C 
BRANCH  15  16
ATOM     16  C   UNL     1       3.360  -7.105 -37.709  1.00  0.00     0.000 C 
BRANCH  16  17
ATOM     17  C   UNL     1       2.343  -6.598 -36.670  1.00  0.00     0.000 C 
BRANCH  17  18
ATOM     18  C   UNL     1       1.605  -7.740 -35.950  1.00  0.00     0.000 C 
BRANCH  18  19
ATOM     19  C   UNL     1       0.979  -7.292 -34.618  1.00  0.00     0.000 C 
BRANCH  19  20
ATOM     20  C   UNL     1       1.109  -8.358 -33.516  1.00  0.00     0.006 C 
BRANCH  20  21
ATOM     21  C   UNL     1       1.734  -9.658 -34.042  1.00  0.00     0.053 C 
BRANCH  21  22
ATOM     22  C   UNL     1       2.371 -10.453 -32.943  1.00  0.00     0.041 C 
ATOM     23  O   UNL     1       1.657 -11.107 -32.137  1.00  0.00    -0.550 OA
ATOM     24  O   UNL     1       3.755 -10.489 -32.820  1.00  0.00    -0.550 OA
ENDBRANCH  21  22
ENDBRANCH  20  21
ENDBRANCH  19  20
ENDBRANCH  18  19
ENDBRANCH  17  18
ENDBRANCH  16  17
ENDBRANCH  15  16
ENDBRANCH  14  15
ENDBRANCH  13  14
ENDBRANCH   1  13
TORSDOF 20
ENDMDL
MODEL 5
REMARK VINA RESULT:    -4.169      2.431      5.364
REMARK INTER + INTRA:         -12.588
REMARK INTER:                  -9.073
REMARK INTRA:                  -3.514
REMARK UNBOUND:                -3.544
REMARK SMILES CCCCCCCCCCCCCCCCCCCCCC(=O)[O-]
REMARK SMILES IDX 12 1 11 2 10 3 9 4 8 5 7 6 6 7 5 8 4 9 3 10 2 11 1 12 13 13
REMARK SMILES IDX 14 14 15 15 16 16 17 17 18 18 19 19 20 20 21 21 22 22 23 23
REMARK SMILES IDX 24 24
REMARK H PARENT
REMARK Flexibility Score: inf
ROOT
ATOM      1  C   UNL     1       7.626  -6.623 -37.059  1.00  0.00     0.000 C 
ENDROOT
BRANCH   1   2
ATOM      2  C   UNL     1       6.349  -6.196 -37.810  1.00  0.00     0.000 C 
BRANCH   2   3
ATOM      3  C   UNL     1       5.847  -4.779 -37.482  1.00  0.00     0.000 C 
BRANCH   3   4
ATOM      4  C   UNL     1       4.485  -4.781 -36.765  1.00  0.00    -0.000 C 
BRANCH   4   5
ATOM      5  C   UNL     1       3.565  -5.918 -37.244  1.00  0.00    -0.000 C 
BRANCH   5   6
ATOM      6  C   UNL     1       2.230  -6.042 -36.482  1.00  0.00    -0.000 C 
BRANCH   6   7
ATOM      7  C   UNL     1       1.862  -7.471 -36.034  1.00  0.00    -0.000 C 
BRANCH   7   8
ATOM      8  C   UNL     1       2.240  -8.583 -37.029  1.00  0.00    -0.000 C 
BRANCH   8   9
ATOM      9  C   UNL     1       2.474  -9.939 -36.348  1.00  0.00    -0.000 C 
BRANCH   9  10
ATOM     10  C   UNL     1       1.754 -10.003 -34.993  1.00  0.00    -0.000 C 
BRANCH  10  11
ATOM     11  C   UNL     1       2.525 -10.829 -33.953  1.00  0.00    -0.003 C 
ATOM     12  C   UNL     1       1.937 -10.705 -32.548  1.00  0.00     0.004 C 
ENDBRANCH  10  11
ENDBRANCH   9  10
ENDBRANCH   8   9
ENDBRANCH   7   8
ENDBRANCH   6   7
ENDBRANCH   5   6
ENDBRANCH   4   5
ENDBRANCH   3   4
ENDBRANCH   2   3
ENDBRANCH   1   2
BRANCH   1  13
ATOM     13  C   UNL     1       7.363  -7.595 -35.886  1.00  0.00     0.000 C 
BRANCH  13  14
ATOM     14  C   UNL     1       5.990  -8.286 -35.960  1.00  0.00     0.000 C 
BRANCH  14  15
ATOM     15  C   UNL     1       5.262  -8.280 -34.606  1.00  0.00     0.000 C 
BRANCH  15  16
ATOM     16  C   UNL     1       5.386  -6.933 -33.869  1.00  0.00     0.000 C 
BRANCH  16  17
ATOM     17  C   UNL     1       5.744  -7.041 -32.375  1.00  0.00     0.000 C 
BRANCH  17  18
ATOM     18  C   UNL     1       6.653  -5.896 -31.895  1.00  0.00     0.000 C 
BRANCH  18  19
ATOM     19  C   UNL     1       8.102  -6.046 -32.388  1.00  0.00     0.000 C 
BRANCH  19  20
ATOM     20  C   UNL     1       8.417  -5.129 -33.583  1.00  0.00     0.006 C 
BRANCH  20  21
ATOM     21  C   UNL     1       7.459  -3.931 -33.660  1.00  0.00     0.053 C 
BRANCH  21  22
ATOM     22  C   UNL     1       7.978  -2.862 -34.572  1.00  0.00     0.041 C 
ATOM     23  O   UNL     1       9.190  -2.521 -34.524  1.00  0.00    -0.550 OA
ATOM     24  O   UNL     1       7.129  -2.254 -35.489  1.00  0.00    -0.550 OA
ENDBRANCH  21  22
ENDBRANCH  20  21
ENDBRANCH  19  20
ENDBRANCH  18  19
ENDBRANCH  17  18
ENDBRANCH  16  17
ENDBRANCH  15  16
ENDBRANCH  14  15
ENDBRANCH  13  14
ENDBRANCH   1  13
TORSDOF 20
ENDMDL
MODEL 6
REMARK VINA RESULT:    -4.143      4.250      7.771
REMARK INTER + INTRA:         -12.531
REMARK INTER:                  -9.359
REMARK INTRA:                  -3.172
REMARK UNBOUND:                -3.544
REMARK SMILES CCCCCCCCCCCCCCCCCCCCCC(=O)[O-]
REMARK SMILES IDX 12 1 11 2 10 3 9 4 8 5 7 6 6 7 5 8 4 9 3 10 2 11 1 12 13 13
REMARK SMILES IDX 14 14 15 15 16 16 17 17 18 18 19 19 20 20 21 21 22 22 23 23
REMARK SMILES IDX 24 24
REMARK H PARENT
REMARK Flexibility Score: inf
ROOT
ATOM      1  C   UNL     1       7.216  -6.091 -36.444  1.00  0.00     0.000 C 
ENDROOT
BRANCH   1   2
ATOM      2  C   UNL     1       6.707  -5.217 -37.609  1.00  0.00     0.000 C 
BRANCH   2   3
ATOM      3  C   UNL     1       5.758  -4.078 -37.198  1.00  0.00     0.000 C 
BRANCH   3   4
ATOM      4  C   UNL     1       5.191  -4.260 -35.778  1.00  0.00    -0.000 C 
BRANCH   4   5
ATOM      5  C   UNL     1       5.617  -3.134 -34.820  1.00  0.00    -0.000 C 
BRANCH   5   6
ATOM      6  C   UNL     1       7.055  -2.617 -35.019  1.00  0.00    -0.000 C 
BRANCH   6   7
ATOM      7  C   UNL     1       8.119  -3.275 -34.117  1.00  0.00    -0.000 C 
BRANCH   7   8
ATOM      8  C   UNL     1       7.566  -3.963 -32.855  1.00  0.00    -0.000 C 
BRANCH   8   9
ATOM      9  C   UNL     1       7.839  -5.473 -32.829  1.00  0.00    -0.000 C 
BRANCH   9  10
ATOM     10  C   UNL     1       7.277  -6.109 -31.549  1.00  0.00    -0.000 C 
BRANCH  10  11
ATOM     11  C   UNL     1       5.811  -6.541 -31.699  1.00  0.00    -0.003 C 
ATOM     12  C   UNL     1       5.451  -6.921 -33.134  1.00  0.00     0.004 C 
ENDBRANCH  10  11
ENDBRANCH   9  10
ENDBRANCH   8   9
ENDBRANCH   7   8
ENDBRANCH   6   7
ENDBRANCH   5   6
ENDBRANCH   4   5
ENDBRANCH   3   4
ENDBRANCH   2   3
ENDBRANCH   1   2
BRANCH   1  13
ATOM     13  C   UNL     1       7.242  -7.602 -36.765  1.00  0.00     0.000 C 
BRANCH  13  14
ATOM     14  C   UNL     1       5.920  -8.320 -36.438  1.00  0.00     0.000 C 
BRANCH  14  15
ATOM     15  C   UNL     1       5.115  -8.661 -37.704  1.00  0.00     0.000 C 
BRANCH  15  16
ATOM     16  C   UNL     1       3.800  -9.399 -37.393  1.00  0.00     0.000 C 
BRANCH  16  17
ATOM     17  C   UNL     1       2.526  -8.546 -37.537  1.00  0.00     0.000 C 
BRANCH  17  18
ATOM     18  C   UNL     1       2.724  -7.094 -37.067  1.00  0.00     0.000 C 
BRANCH  18  19
ATOM     19  C   UNL     1       1.793  -6.717 -35.903  1.00  0.00     0.000 C 
BRANCH  19  20
ATOM     20  C   UNL     1       1.135  -7.945 -35.251  1.00  0.00     0.006 C 
BRANCH  20  21
ATOM     21  C   UNL     1       1.480  -8.063 -33.760  1.00  0.00     0.053 C 
BRANCH  21  22
ATOM     22  C   UNL     1       2.140  -9.371 -33.443  1.00  0.00     0.041 C 
ATOM     23  O   UNL     1       1.542 -10.229 -32.741  1.00  0.00    -0.550 OA
ATOM     24  O   UNL     1       3.407  -9.652 -33.940  1.00  0.00    -0.550 OA
ENDBRANCH  21  22
ENDBRANCH  20  21
ENDBRANCH  19  20
ENDBRANCH  18  19
ENDBRANCH  17  18
ENDBRANCH  16  17
ENDBRANCH  15  16
ENDBRANCH  14  15
ENDBRANCH  13  14
ENDBRANCH   1  13
TORSDOF 20
ENDMDL
MODEL 7
REMARK VINA RESULT:    -4.101     10.533     13.376
REMARK INTER + INTRA:         -12.441
REMARK INTER:                 -10.404
REMARK INTRA:                  -2.036
REMARK UNBOUND:                -3.544
REMARK SMILES CCCCCCCCCCCCCCCCCCCCCC(=O)[O-]
REMARK SMILES IDX 12 1 11 2 10 3 9 4 8 5 7 6 6 7 5 8 4 9 3 10 2 11 1 12 13 13
REMARK SMILES IDX 14 14 15 15 16 16 17 17 18 18 19 19 20 20 21 21 22 22 23 23
REMARK SMILES IDX 24 24
REMARK H PARENT
REMARK Flexibility Score: inf
ROOT
ATOM      1  C   UNL     1       6.971 -13.345 -22.585  1.00  0.00     0.000 C 
ENDROOT
BRANCH   1   2
ATOM      2  C   UNL     1       6.249 -14.531 -21.915  1.00  0.00     0.000 C 
BRANCH   2   3
ATOM      3  C   UNL     1       4.981 -14.157 -21.127  1.00  0.00     0.000 C 
BRANCH   3   4
ATOM      4  C   UNL     1       5.140 -12.850 -20.330  1.00  0.00    -0.000 C 
BRANCH   4   5
ATOM      5  C   UNL     1       4.211 -11.732 -20.833  1.00  0.00    -0.000 C 
BRANCH   5   6
ATOM      6  C   UNL     1       2.734 -12.138 -21.006  1.00  0.00    -0.000 C 
BRANCH   6   7
ATOM      7  C   UNL     1       2.119 -11.805 -22.380  1.00  0.00    -0.000 C 
BRANCH   7   8
ATOM      8  C   UNL     1       2.332 -12.876 -23.465  1.00  0.00    -0.000 C 
BRANCH   8   9
ATOM      9  C   UNL     1       1.229 -12.874 -24.532  1.00  0.00    -0.000 C 
BRANCH   9  10
ATOM     10  C   UNL     1       1.770 -13.373 -25.880  1.00  0.00    -0.000 C 
BRANCH  10  11
ATOM     11  C   UNL     1       3.295 -13.552 -25.875  1.00  0.00    -0.003 C 
ATOM     12  C   UNL     1       3.979 -12.818 -27.027  1.00  0.00     0.004 C 
ENDBRANCH  10  11
ENDBRANCH   9  10
ENDBRANCH   8   9
ENDBRANCH   7   8
ENDBRANCH   6   7
ENDBRANCH   5   6
ENDBRANCH   4   5
ENDBRANCH   3   4
ENDBRANCH   2   3
ENDBRANCH   1   2
BRANCH   1  13
ATOM     13  C   UNL     1       6.354 -12.926 -23.939  1.00  0.00     0.000 C 
BRANCH  13  14
ATOM     14  C   UNL     1       7.286 -13.176 -25.139  1.00  0.00     0.000 C 
BRANCH  14  15
ATOM     15  C   UNL     1       7.918 -11.876 -25.665  1.00  0.00     0.000 C 
BRANCH  15  16
ATOM     16  C   UNL     1       9.291 -11.583 -25.033  1.00  0.00     0.000 C 
BRANCH  16  17
ATOM     17  C   UNL     1      10.207 -10.667 -25.866  1.00  0.00     0.000 C 
BRANCH  17  18
ATOM     18  C   UNL     1      11.379 -11.424 -26.514  1.00  0.00     0.000 C 
BRANCH  18  19
ATOM     19  C   UNL     1      10.913 -12.446 -27.564  1.00  0.00     0.000 C 
BRANCH  19  20
ATOM     20  C   UNL     1      10.534 -11.788 -28.902  1.00  0.00     0.006 C 
BRANCH  20  21
ATOM     21  C   UNL     1      11.552 -10.720 -29.329  1.00  0.00     0.053 C 
BRANCH  21  22
ATOM     22  C   UNL     1      12.561 -11.268 -30.292  1.00  0.00     0.041 C 
ATOM     23  O   UNL     1      13.532 -10.557 -30.664  1.00  0.00    -0.550 OA
ATOM     24  O   UNL     1      12.442 -12.570 -30.762  1.00  0.00    -0.550 OA
ENDBRANCH  21  22
ENDBRANCH  20  21
ENDBRANCH  19  20
ENDBRANCH  18  19
ENDBRANCH  17  18
ENDBRANCH  16  17
ENDBRANCH  15  16
ENDBRANCH  14  15
ENDBRANCH  13  14
ENDBRANCH   1  13
TORSDOF 20
ENDMDL
MODEL 8
REMARK VINA RESULT:    -4.072      4.269      7.783
REMARK INTER + INTRA:         -12.377
REMARK INTER:                  -8.702
REMARK INTRA:                  -3.675
REMARK UNBOUND:                -3.544
REMARK SMILES CCCCCCCCCCCCCCCCCCCCCC(=O)[O-]
REMARK SMILES IDX 12 1 11 2 10 3 9 4 8 5 7 6 6 7 5 8 4 9 3 10 2 11 1 12 13 13
REMARK SMILES IDX 14 14 15 15 16 16 17 17 18 18 19 19 20 20 21 21 22 22 23 23
REMARK SMILES IDX 24 24
REMARK H PARENT
REMARK Flexibility Score: inf
ROOT
ATOM      1  C   UNL     1       5.682  -4.521 -37.144  1.00  0.00     0.000 C 
ENDROOT
BRANCH   1   2
ATOM      2  C   UNL     1       6.874  -5.476 -36.933  1.00  0.00     0.000 C 
BRANCH   2   3
ATOM      3  C   UNL     1       6.828  -6.765 -37.773  1.00  0.00     0.000 C 
BRANCH   3   4
ATOM      4  C   UNL     1       6.252  -7.962 -36.994  1.00  0.00    -0.000 C 
BRANCH   4   5
ATOM      5  C   UNL     1       6.603  -7.919 -35.497  1.00  0.00    -0.000 C 
BRANCH   5   6
ATOM      6  C   UNL     1       5.461  -8.332 -34.546  1.00  0.00    -0.000 C 
BRANCH   6   7
ATOM      7  C   UNL     1       5.072  -7.276 -33.492  1.00  0.00    -0.000 C 
BRANCH   7   8
ATOM      8  C   UNL     1       5.837  -7.375 -32.160  1.00  0.00    -0.000 C 
BRANCH   8   9
ATOM      9  C   UNL     1       6.511  -6.056 -31.758  1.00  0.00    -0.000 C 
BRANCH   9  10
ATOM     10  C   UNL     1       7.957  -6.001 -32.276  1.00  0.00    -0.000 C 
BRANCH  10  11
ATOM     11  C   UNL     1       8.114  -5.078 -33.493  1.00  0.00    -0.003 C 
ATOM     12  C   UNL     1       7.106  -3.930 -33.497  1.00  0.00     0.004 C 
ENDBRANCH  10  11
ENDBRANCH   9  10
ENDBRANCH   8   9
ENDBRANCH   7   8
ENDBRANCH   6   7
ENDBRANCH   5   6
ENDBRANCH   4   5
ENDBRANCH   3   4
ENDBRANCH   2   3
ENDBRANCH   1   2
BRANCH   1  13
ATOM     13  C   UNL     1       4.460  -4.845 -36.255  1.00  0.00     0.000 C 
BRANCH  13  14
ATOM     14  C   UNL     1       3.194  -5.195 -37.059  1.00  0.00     0.000 C 
BRANCH  14  15
ATOM     15  C   UNL     1       2.862  -6.695 -36.996  1.00  0.00     0.000 C 
BRANCH  15  16
ATOM     16  C   UNL     1       1.976  -7.058 -35.790  1.00  0.00     0.000 C 
BRANCH  16  17
ATOM     17  C   UNL     1       1.345  -8.462 -35.847  1.00  0.00     0.000 C 
BRANCH  17  18
ATOM     18  C   UNL     1       1.282  -9.144 -34.469  1.00  0.00     0.000 C 
BRANCH  18  19
ATOM     19  C   UNL     1       2.293 -10.296 -34.333  1.00  0.00     0.000 C 
BRANCH  19  20
ATOM     20  C   UNL     1       2.804 -10.467 -32.892  1.00  0.00     0.006 C 
BRANCH  20  21
ATOM     21  C   UNL     1       4.000 -11.427 -32.813  1.00  0.00     0.053 C 
BRANCH  21  22
ATOM     22  C   UNL     1       4.773 -11.249 -31.543  1.00  0.00     0.041 C 
ATOM     23  O   UNL     1       5.928 -10.746 -31.568  1.00  0.00    -0.550 OA
ATOM     24  O   UNL     1       4.212 -11.619 -30.326  1.00  0.00    -0.550 OA
ENDBRANCH  21  22
ENDBRANCH  20  21
ENDBRANCH  19  20
ENDBRANCH  18  19
ENDBRANCH  17  18
ENDBRANCH  16  17
ENDBRANCH  15  16
ENDBRANCH  14  15
ENDBRANCH  13  14
ENDBRANCH   1  13
TORSDOF 20
ENDMDL
MODEL 9
REMARK VINA RESULT:    -4.039      3.286      5.943
REMARK INTER + INTRA:         -12.305
REMARK INTER:                  -9.048
REMARK INTRA:                  -3.257
REMARK UNBOUND:                -3.544
REMARK SMILES CCCCCCCCCCCCCCCCCCCCCC(=O)[O-]
REMARK SMILES IDX 12 1 11 2 10 3 9 4 8 5 7 6 6 7 5 8 4 9 3 10 2 11 1 12 13 13
REMARK SMILES IDX 14 14 15 15 16 16 17 17 18 18 19 19 20 20 21 21 22 22 23 23
REMARK SMILES IDX 24 24
REMARK H PARENT
REMARK Flexibility Score: inf
ROOT
ATOM      1  C   UNL     1       4.890  -6.703 -35.525  1.00  0.00     0.000 C 
ENDROOT
BRANCH   1   2
ATOM      2  C   UNL     1       4.045  -6.876 -36.803  1.00  0.00     0.000 C 
BRANCH   2   3
ATOM      3  C   UNL     1       2.525  -6.743 -36.598  1.00  0.00     0.000 C 
BRANCH   3   4
ATOM      4  C   UNL     1       1.785  -8.083 -36.757  1.00  0.00    -0.000 C 
BRANCH   4   5
ATOM      5  C   UNL     1       0.918  -8.430 -35.534  1.00  0.00    -0.000 C 
BRANCH   5   6
ATOM      6  C   UNL     1       1.192  -7.580 -34.277  1.00  0.00    -0.000 C 
BRANCH   6   7
ATOM      7  C   UNL     1       1.115  -8.345 -32.940  1.00  0.00    -0.000 C 
BRANCH   7   8
ATOM      8  C   UNL     1       1.225  -9.875 -33.058  1.00  0.00    -0.000 C 
BRANCH   8   9
ATOM      9  C   UNL     1       2.668 -10.383 -32.929  1.00  0.00    -0.000 C 
BRANCH   9  10
ATOM     10  C   UNL     1       2.922 -11.559 -33.883  1.00  0.00    -0.000 C 
BRANCH  10  11
ATOM     11  C   UNL     1       3.406 -11.104 -35.268  1.00  0.00    -0.003 C 
ATOM     12  C   UNL     1       2.587 -11.710 -36.407  1.00  0.00     0.004 C 
ENDBRANCH  10  11
ENDBRANCH   9  10
ENDBRANCH   8   9
ENDBRANCH   7   8
ENDBRANCH   6   7
ENDBRANCH   5   6
ENDBRANCH   4   5
ENDBRANCH   3   4
ENDBRANCH   2   3
ENDBRANCH   1   2
BRANCH   1  13
ATOM     13  C   UNL     1       5.477  -8.025 -34.982  1.00  0.00     0.000 C 
BRANCH  13  14
ATOM     14  C   UNL     1       5.269  -8.212 -33.469  1.00  0.00     0.000 C 
BRANCH  14  15
ATOM     15  C   UNL     1       5.295  -6.875 -32.709  1.00  0.00     0.000 C 
BRANCH  15  16
ATOM     16  C   UNL     1       6.435  -6.799 -31.676  1.00  0.00     0.000 C 
BRANCH  16  17
ATOM     17  C   UNL     1       7.320  -5.543 -31.778  1.00  0.00     0.000 C 
BRANCH  17  18
ATOM     18  C   UNL     1       7.327  -4.930 -33.189  1.00  0.00     0.000 C 
BRANCH  18  19
ATOM     19  C   UNL     1       6.875  -3.460 -33.197  1.00  0.00     0.000 C 
BRANCH  19  20
ATOM     20  C   UNL     1       7.174  -2.757 -34.533  1.00  0.00     0.006 C 
BRANCH  20  21
ATOM     21  C   UNL     1       6.953  -3.685 -35.736  1.00  0.00     0.053 C 
BRANCH  21  22
ATOM     22  C   UNL     1       5.723  -3.313 -36.507  1.00  0.00     0.041 C 
ATOM     23  O   UNL     1       5.675  -3.500 -37.752  1.00  0.00    -0.550 OA
ATOM     24  O   UNL     1       4.622  -2.777 -35.849  1.00  0.00    -0.550 OA
ENDBRANCH  21  22
ENDBRANCH  20  21
ENDBRANCH  19  20
ENDBRANCH  18  19
ENDBRANCH  17  18
ENDBRANCH  16  17
ENDBRANCH  15  16
ENDBRANCH  14  15
ENDBRANCH  13  14
ENDBRANCH   1  13
TORSDOF 20
ENDMDL
