MODEL 1
REMARK VINA RESULT:    -8.175      0.000      0.000
REMARK INTER + INTRA:          -9.996
REMARK INTER:                  -9.847
REMARK INTRA:                  -0.149
REMARK UNBOUND:                -0.149
REMARK SMILES Oc1cc(O)c2cc(O)c(-c3ccc(O)c(O)c3)[o+]c2c1
REMARK SMILES IDX 10 1 19 2 20 3 21 4 2 5 3 6 4 7 6 8 7 9 8 10 11 11 12 12
REMARK SMILES IDX 13 13 14 14 18 15 16 16 15 17 17 19 9 21 1 23 5 25
REMARK H PARENT 15 18 17 20 9 22 1 24 5 26
REMARK Flexibility Score: inf
ROOT
ATOM      1  C   UNL     1     -10.279 -16.194  19.008  1.00  0.00     0.402 A 
ATOM      2  O   UNL     1     -10.723 -14.969  18.728  1.00  0.00    -0.202 OA
ATOM      3  C   UNL     1      -9.917 -13.943  18.477  1.00  0.00     0.368 A 
ATOM      4  C   UNL     1     -10.464 -12.689  18.187  1.00  0.00     0.162 A 
ATOM      5  C   UNL     1      -9.629 -11.601  17.917  1.00  0.00     0.128 A 
ATOM      6  C   UNL     1      -8.237 -11.767  17.940  1.00  0.00     0.093 A 
ATOM      7  C   UNL     1      -7.674 -13.018  18.232  1.00  0.00     0.136 A 
ATOM      8  C   UNL     1      -8.517 -14.113  18.502  1.00  0.00     0.125 A 
ATOM      9  C   UNL     1      -8.012 -15.382  18.806  1.00  0.00     0.078 A 
ATOM     10  C   UNL     1      -8.891 -16.435  19.073  1.00  0.00     0.223 A 
ENDROOT
BRANCH   1  11
ATOM     11  C   UNL     1     -11.275 -17.260  19.260  1.00  0.00     0.087 A 
ATOM     12  C   UNL     1     -11.274 -18.409  18.454  1.00  0.00     0.022 A 
ATOM     13  C   UNL     1     -12.192 -19.437  18.685  1.00  0.00     0.051 A 
ATOM     14  C   UNL     1     -13.112 -19.340  19.733  1.00  0.00     0.157 A 
ATOM     15  C   UNL     1     -12.188 -17.175  20.327  1.00  0.00     0.068 A 
ATOM     16  C   UNL     1     -13.108 -18.206  20.562  1.00  0.00     0.158 A 
BRANCH  14  17
ATOM     17  O   UNL     1     -14.018 -20.381  19.938  1.00  0.00    -0.504 OA
ATOM     18  H   UNL     1     -14.940 -20.381  19.520  1.00  0.00     0.293 HD
ENDBRANCH  14  17
BRANCH  16  19
ATOM     19  O   UNL     1     -14.013 -18.110  21.617  1.00  0.00    -0.504 OA
ATOM     20  H   UNL     1     -14.066 -17.281  22.198  1.00  0.00     0.293 HD
ENDBRANCH  16  19
ENDBRANCH   1  11
BRANCH  10  21
ATOM     21  O   UNL     1      -8.395 -17.688  19.427  1.00  0.00    -0.500 OA
ATOM     22  H   UNL     1      -7.403 -17.848  19.563  1.00  0.00     0.294 HD
ENDBRANCH  10  21
BRANCH   5  23
ATOM     23  O   UNL     1     -10.190 -10.359  17.629  1.00  0.00    -0.507 OA
ATOM     24  H   UNL     1     -10.289  -9.645  18.341  1.00  0.00     0.293 HD
ENDBRANCH   5  23
BRANCH   7  25
ATOM     25  O   UNL     1      -6.287 -13.170  18.252  1.00  0.00    -0.507 OA
ATOM     26  H   UNL     1      -5.685 -12.492  18.704  1.00  0.00     0.293 HD
ENDBRANCH   7  25
TORSDOF 6
ENDMDL
MODEL 2
REMARK VINA RESULT:    -6.087      5.703      9.348
REMARK INTER + INTRA:          -7.481
REMARK INTER:                  -7.132
REMARK INTRA:                  -0.349
REMARK UNBOUND:                -0.149
REMARK SMILES Oc1cc(O)c2cc(O)c(-c3ccc(O)c(O)c3)[o+]c2c1
REMARK SMILES IDX 10 1 19 2 20 3 21 4 2 5 3 6 4 7 6 8 7 9 8 10 11 11 12 12
REMARK SMILES IDX 13 13 14 14 18 15 16 16 15 17 17 19 9 21 1 23 5 25
REMARK H PARENT 15 18 17 20 9 22 1 24 5 26
REMARK Flexibility Score: inf
ROOT
ATOM      1  C   UNL     1     -12.842 -18.414  24.798  1.00  0.00     0.402 A 
ATOM      2  O   UNL     1     -13.242 -19.390  25.612  1.00  0.00    -0.202 OA
ATOM      3  C   UNL     1     -13.236 -19.281  26.937  1.00  0.00     0.368 A 
ATOM      4  C   UNL     1     -13.677 -20.352  27.720  1.00  0.00     0.162 A 
ATOM      5  C   UNL     1     -13.680 -20.251  29.115  1.00  0.00     0.128 A 
ATOM      6  C   UNL     1     -13.239 -19.071  29.730  1.00  0.00     0.093 A 
ATOM      7  C   UNL     1     -12.792 -17.989  28.957  1.00  0.00     0.136 A 
ATOM      8  C   UNL     1     -12.791 -18.093  27.553  1.00  0.00     0.125 A 
ATOM      9  C   UNL     1     -12.350 -17.049  26.732  1.00  0.00     0.078 A 
ATOM     10  C   UNL     1     -12.362 -17.205  25.343  1.00  0.00     0.223 A 
ENDROOT
BRANCH   1  11
ATOM     11  C   UNL     1     -12.903 -18.649  23.338  1.00  0.00     0.087 A 
ATOM     12  C   UNL     1     -14.039 -18.241  22.621  1.00  0.00     0.022 A 
ATOM     13  C   UNL     1     -14.111 -18.435  21.239  1.00  0.00     0.051 A 
ATOM     14  C   UNL     1     -13.047 -19.024  20.551  1.00  0.00     0.157 A 
ATOM     15  C   UNL     1     -11.825 -19.222  22.641  1.00  0.00     0.068 A 
ATOM     16  C   UNL     1     -11.895 -19.415  21.254  1.00  0.00     0.158 A 
BRANCH  14  17
ATOM     17  O   UNL     1     -13.149 -19.208  19.173  1.00  0.00    -0.504 OA
ATOM     18  H   UNL     1     -12.681 -18.598  18.513  1.00  0.00     0.293 HD
ENDBRANCH  14  17
BRANCH  16  19
ATOM     19  O   UNL     1     -10.823 -19.990  20.572  1.00  0.00    -0.504 OA
ATOM     20  H   UNL     1     -10.777 -20.987  20.399  1.00  0.00     0.293 HD
ENDBRANCH  16  19
ENDBRANCH   1  11
BRANCH  10  21
ATOM     21  O   UNL     1     -11.876 -16.189  24.521  1.00  0.00    -0.500 OA
ATOM     22  H   UNL     1     -12.122 -15.218  24.675  1.00  0.00     0.294 HD
ENDBRANCH  10  21
BRANCH   5  23
ATOM     23  O   UNL     1     -14.122 -21.327  29.880  1.00  0.00    -0.507 OA
ATOM     24  H   UNL     1     -13.476 -22.013  30.253  1.00  0.00     0.293 HD
ENDBRANCH   5  23
BRANCH   7  25
ATOM     25  O   UNL     1     -12.355 -16.820  29.581  1.00  0.00    -0.507 OA
ATOM     26  H   UNL     1     -12.432 -16.692  30.583  1.00  0.00     0.293 HD
ENDBRANCH   7  25
TORSDOF 6
ENDMDL
MODEL 3
REMARK VINA RESULT:    -6.021      5.939      8.611
REMARK INTER + INTRA:          -7.402
REMARK INTER:                  -7.056
REMARK INTRA:                  -0.346
REMARK UNBOUND:                -0.149
REMARK SMILES Oc1cc(O)c2cc(O)c(-c3ccc(O)c(O)c3)[o+]c2c1
REMARK SMILES IDX 10 1 19 2 20 3 21 4 2 5 3 6 4 7 6 8 7 9 8 10 11 11 12 12
REMARK SMILES IDX 13 13 14 14 18 15 16 16 15 17 17 19 9 21 1 23 5 25
REMARK H PARENT 15 18 17 20 9 22 1 24 5 26
REMARK Flexibility Score: inf
ROOT
ATOM      1  C   UNL     1     -13.062 -17.725  25.241  1.00  0.00     0.402 A 
ATOM      2  O   UNL     1     -12.730 -16.470  25.542  1.00  0.00    -0.202 OA
ATOM      3  C   UNL     1     -12.887 -15.946  26.753  1.00  0.00     0.368 A 
ATOM      4  C   UNL     1     -12.509 -14.621  26.988  1.00  0.00     0.162 A 
ATOM      5  C   UNL     1     -12.665 -14.058  28.259  1.00  0.00     0.128 A 
ATOM      6  C   UNL     1     -13.203 -14.824  29.301  1.00  0.00     0.093 A 
ATOM      7  C   UNL     1     -13.589 -16.156  29.080  1.00  0.00     0.136 A 
ATOM      8  C   UNL     1     -13.431 -16.721  27.800  1.00  0.00     0.125 A 
ATOM      9  C   UNL     1     -13.804 -18.040  27.520  1.00  0.00     0.078 A 
ATOM     10  C   UNL     1     -13.632 -18.552  26.230  1.00  0.00     0.223 A 
ENDROOT
BRANCH   1  11
ATOM     11  C   UNL     1     -12.831 -18.198  23.858  1.00  0.00     0.087 A 
ATOM     12  C   UNL     1     -13.741 -17.848  22.848  1.00  0.00     0.022 A 
ATOM     13  C   UNL     1     -13.533 -18.267  21.531  1.00  0.00     0.051 A 
ATOM     14  C   UNL     1     -12.407 -19.027  21.200  1.00  0.00     0.157 A 
ATOM     15  C   UNL     1     -11.688 -18.944  23.519  1.00  0.00     0.068 A 
ATOM     16  C   UNL     1     -11.476 -19.363  22.197  1.00  0.00     0.158 A 
BRANCH  14  17
ATOM     17  O   UNL     1     -12.227 -19.433  19.878  1.00  0.00    -0.504 OA
ATOM     18  H   UNL     1     -11.966 -20.381  19.637  1.00  0.00     0.293 HD
ENDBRANCH  14  17
BRANCH  16  19
ATOM     19  O   UNL     1     -10.344 -20.108  21.871  1.00  0.00    -0.504 OA
ATOM     20  H   UNL     1     -10.021 -20.869  22.459  1.00  0.00     0.293 HD
ENDBRANCH  16  19
ENDBRANCH   1  11
BRANCH  10  21
ATOM     21  O   UNL     1     -14.049 -19.848  25.931  1.00  0.00    -0.500 OA
ATOM     22  H   UNL     1     -13.778 -20.639  26.504  1.00  0.00     0.294 HD
ENDBRANCH  10  21
BRANCH   5  23
ATOM     23  O   UNL     1     -12.283 -12.736  28.475  1.00  0.00    -0.507 OA
ATOM     24  H   UNL     1     -12.935 -11.970  28.356  1.00  0.00     0.293 HD
ENDBRANCH   5  23
BRANCH   7  25
ATOM     25  O   UNL     1     -14.125 -16.908  30.125  1.00  0.00    -0.507 OA
ATOM     26  H   UNL     1     -13.581 -17.617  30.603  1.00  0.00     0.293 HD
ENDBRANCH   7  25
TORSDOF 6
ENDMDL
MODEL 4
REMARK VINA RESULT:    -5.672      5.656      8.459
REMARK INTER + INTRA:          -6.982
REMARK INTER:                  -6.689
REMARK INTRA:                  -0.293
REMARK UNBOUND:                -0.149
REMARK SMILES Oc1cc(O)c2cc(O)c(-c3ccc(O)c(O)c3)[o+]c2c1
REMARK SMILES IDX 10 1 19 2 20 3 21 4 2 5 3 6 4 7 6 8 7 9 8 10 11 11 12 12
REMARK SMILES IDX 13 13 14 14 18 15 16 16 15 17 17 19 9 21 1 23 5 25
REMARK H PARENT 15 18 17 20 9 22 1 24 5 26
REMARK Flexibility Score: inf
ROOT
ATOM      1  C   UNL     1     -12.623 -17.349  25.485  1.00  0.00     0.402 A 
ATOM      2  O   UNL     1     -13.215 -17.097  24.319  1.00  0.00    -0.202 OA
ATOM      3  C   UNL     1     -12.978 -17.800  23.216  1.00  0.00     0.368 A 
ATOM      4  C   UNL     1     -13.645 -17.474  22.031  1.00  0.00     0.162 A 
ATOM      5  C   UNL     1     -13.410 -18.207  20.865  1.00  0.00     0.128 A 
ATOM      6  C   UNL     1     -12.501 -19.274  20.882  1.00  0.00     0.093 A 
ATOM      7  C   UNL     1     -11.823 -19.613  22.063  1.00  0.00     0.136 A 
ATOM      8  C   UNL     1     -12.062 -18.873  23.237  1.00  0.00     0.125 A 
ATOM      9  C   UNL     1     -11.410 -19.160  24.441  1.00  0.00     0.078 A 
ATOM     10  C   UNL     1     -11.678 -18.391  25.578  1.00  0.00     0.223 A 
ENDROOT
BRANCH   1  11
ATOM     11  C   UNL     1     -12.975 -16.501  26.647  1.00  0.00     0.087 A 
ATOM     12  C   UNL     1     -13.792 -17.025  27.661  1.00  0.00     0.022 A 
ATOM     13  C   UNL     1     -14.122 -16.251  28.776  1.00  0.00     0.051 A 
ATOM     14  C   UNL     1     -13.629 -14.949  28.903  1.00  0.00     0.157 A 
ATOM     15  C   UNL     1     -12.463 -15.199  26.788  1.00  0.00     0.068 A 
ATOM     16  C   UNL     1     -12.790 -14.421  27.908  1.00  0.00     0.158 A 
BRANCH  14  17
ATOM     17  O   UNL     1     -13.976 -14.199  30.026  1.00  0.00    -0.504 OA
ATOM     18  H   UNL     1     -13.715 -13.226  30.125  1.00  0.00     0.293 HD
ENDBRANCH  14  17
BRANCH  16  19
ATOM     19  O   UNL     1     -12.283 -13.129  28.036  1.00  0.00    -0.504 OA
ATOM     20  H   UNL     1     -12.481 -12.558  28.849  1.00  0.00     0.293 HD
ENDBRANCH  16  19
ENDBRANCH   1  11
BRANCH  10  21
ATOM     21  O   UNL     1     -10.994 -18.639  26.766  1.00  0.00    -0.500 OA
ATOM     22  H   UNL     1     -11.371 -19.254  27.478  1.00  0.00     0.294 HD
ENDBRANCH  10  21
BRANCH   5  23
ATOM     23  O   UNL     1     -14.082 -17.869  19.693  1.00  0.00    -0.507 OA
ATOM     24  H   UNL     1     -14.176 -16.905  19.395  1.00  0.00     0.293 HD
ENDBRANCH   5  23
BRANCH   7  25
ATOM     25  O   UNL     1     -10.920 -20.676  22.068  1.00  0.00    -0.507 OA
ATOM     26  H   UNL     1     -10.539 -21.046  22.931  1.00  0.00     0.293 HD
ENDBRANCH   7  25
TORSDOF 6
ENDMDL
MODEL 5
REMARK VINA RESULT:    -5.458      1.731      6.865
REMARK INTER + INTRA:          -6.724
REMARK INTER:                  -6.626
REMARK INTRA:                  -0.098
REMARK UNBOUND:                -0.149
REMARK SMILES Oc1cc(O)c2cc(O)c(-c3ccc(O)c(O)c3)[o+]c2c1
REMARK SMILES IDX 10 1 19 2 20 3 21 4 2 5 3 6 4 7 6 8 7 9 8 10 11 11 12 12
REMARK SMILES IDX 13 13 14 14 18 15 16 16 15 17 17 19 9 21 1 23 5 25
REMARK H PARENT 15 18 17 20 9 22 1 24 5 26
REMARK Flexibility Score: inf
ROOT
ATOM      1  C   UNL     1     -10.303 -15.577  19.180  1.00  0.00     0.402 A 
ATOM      2  O   UNL     1     -11.318 -15.855  19.998  1.00  0.00    -0.202 OA
ATOM      3  C   UNL     1     -11.629 -17.091  20.376  1.00  0.00     0.368 A 
ATOM      4  C   UNL     1     -12.708 -17.297  21.241  1.00  0.00     0.162 A 
ATOM      5  C   UNL     1     -13.046 -18.591  21.651  1.00  0.00     0.128 A 
ATOM      6  C   UNL     1     -12.300 -19.685  21.193  1.00  0.00     0.093 A 
ATOM      7  C   UNL     1     -11.215 -19.494  20.323  1.00  0.00     0.136 A 
ATOM      8  C   UNL     1     -10.877 -18.190  19.912  1.00  0.00     0.125 A 
ATOM      9  C   UNL     1      -9.811 -17.940  19.042  1.00  0.00     0.078 A 
ATOM     10  C   UNL     1      -9.520 -16.627  18.658  1.00  0.00     0.223 A 
ENDROOT
BRANCH   1  11
ATOM     11  C   UNL     1     -10.048 -14.160  18.838  1.00  0.00     0.087 A 
ATOM     12  C   UNL     1      -9.767 -13.242  19.862  1.00  0.00     0.022 A 
ATOM     13  C   UNL     1      -9.504 -11.903  19.561  1.00  0.00     0.051 A 
ATOM     14  C   UNL     1      -9.501 -11.465  18.234  1.00  0.00     0.157 A 
ATOM     15  C   UNL     1     -10.023 -13.721  17.502  1.00  0.00     0.068 A 
ATOM     16  C   UNL     1      -9.756 -12.378  17.198  1.00  0.00     0.158 A 
BRANCH  14  17
ATOM     17  O   UNL     1      -9.237 -10.122  17.964  1.00  0.00    -0.504 OA
ATOM     18  H   UNL     1      -9.861  -9.553  17.405  1.00  0.00     0.293 HD
ENDBRANCH  14  17
BRANCH  16  19
ATOM     19  O   UNL     1      -9.740 -11.950  15.871  1.00  0.00    -0.504 OA
ATOM     20  H   UNL     1     -10.597 -11.775  15.359  1.00  0.00     0.293 HD
ENDBRANCH  16  19
ENDBRANCH   1  11
BRANCH  10  21
ATOM     21  O   UNL     1      -8.492 -16.375  17.751  1.00  0.00    -0.500 OA
ATOM     22  H   UNL     1      -8.280 -17.017  16.995  1.00  0.00     0.294 HD
ENDBRANCH  10  21
BRANCH   5  23
ATOM     23  O   UNL     1     -14.123 -18.779  22.513  1.00  0.00    -0.507 OA
ATOM     24  H   UNL     1     -14.577 -19.680  22.606  1.00  0.00     0.293 HD
ENDBRANCH   5  23
BRANCH   7  25
ATOM     25  O   UNL     1     -10.481 -20.591  19.873  1.00  0.00    -0.507 OA
ATOM     26  H   UNL     1      -9.763 -20.496  19.165  1.00  0.00     0.293 HD
ENDBRANCH   7  25
TORSDOF 6
ENDMDL
MODEL 6
REMARK VINA RESULT:    -5.322      5.102      8.067
REMARK INTER + INTRA:          -6.560
REMARK INTER:                  -6.206
REMARK INTRA:                  -0.353
REMARK UNBOUND:                -0.149
REMARK SMILES Oc1cc(O)c2cc(O)c(-c3ccc(O)c(O)c3)[o+]c2c1
REMARK SMILES IDX 10 1 19 2 20 3 21 4 2 5 3 6 4 7 6 8 7 9 8 10 11 11 12 12
REMARK SMILES IDX 13 13 14 14 18 15 16 16 15 17 17 19 9 21 1 23 5 25
REMARK H PARENT 15 18 17 20 9 22 1 24 5 26
REMARK Flexibility Score: inf
ROOT
ATOM      1  C   UNL     1     -12.966 -18.524  24.702  1.00  0.00     0.402 A 
ATOM      2  O   UNL     1     -12.438 -19.354  23.802  1.00  0.00    -0.202 OA
ATOM      3  C   UNL     1     -12.373 -19.075  22.505  1.00  0.00     0.368 A 
ATOM      4  C   UNL     1     -11.800 -19.999  21.626  1.00  0.00     0.162 A 
ATOM      5  C   UNL     1     -11.720 -19.717  20.259  1.00  0.00     0.128 A 
ATOM      6  C   UNL     1     -12.218 -18.503  19.767  1.00  0.00     0.093 A 
ATOM      7  C   UNL     1     -12.798 -17.566  20.636  1.00  0.00     0.136 A 
ATOM      8  C   UNL     1     -12.876 -17.852  22.012  1.00  0.00     0.125 A 
ATOM      9  C   UNL     1     -13.449 -16.959  22.924  1.00  0.00     0.078 A 
ATOM     10  C   UNL     1     -13.509 -17.293  24.281  1.00  0.00     0.223 A 
ENDROOT
BRANCH   1  11
ATOM     11  C   UNL     1     -12.973 -18.943  26.121  1.00  0.00     0.087 A 
ATOM     12  C   UNL     1     -14.016 -19.755  26.595  1.00  0.00     0.022 A 
ATOM     13  C   UNL     1     -14.034 -20.179  27.927  1.00  0.00     0.051 A 
ATOM     14  C   UNL     1     -13.006 -19.812  28.799  1.00  0.00     0.157 A 
ATOM     15  C   UNL     1     -11.929 -18.593  26.996  1.00  0.00     0.068 A 
ATOM     16  C   UNL     1     -11.945 -19.019  28.332  1.00  0.00     0.158 A 
BRANCH  14  17
ATOM     17  O   UNL     1     -13.052 -20.248  30.123  1.00  0.00    -0.504 OA
ATOM     18  H   UNL     1     -12.633 -19.719  30.879  1.00  0.00     0.293 HD
ENDBRANCH  14  17
BRANCH  16  19
ATOM     19  O   UNL     1     -10.908 -18.662  29.193  1.00  0.00    -0.504 OA
ATOM     20  H   UNL     1     -10.994 -17.881  29.833  1.00  0.00     0.293 HD
ENDBRANCH  16  19
ENDBRANCH   1  11
BRANCH  10  21
ATOM     21  O   UNL     1     -14.125 -16.432  25.187  1.00  0.00    -0.500 OA
ATOM     22  H   UNL     1     -15.115 -16.220  25.130  1.00  0.00     0.294 HD
ENDBRANCH  10  21
BRANCH   5  23
ATOM     23  O   UNL     1     -11.146 -20.649  19.398  1.00  0.00    -0.507 OA
ATOM     24  H   UNL     1     -11.711 -21.322  18.893  1.00  0.00     0.293 HD
ENDBRANCH   5  23
BRANCH   7  25
ATOM     25  O   UNL     1     -13.291 -16.362  20.134  1.00  0.00    -0.507 OA
ATOM     26  H   UNL     1     -13.329 -15.524  20.703  1.00  0.00     0.293 HD
ENDBRANCH   7  25
TORSDOF 6
ENDMDL
