MODEL 1
REMARK VINA RESULT:    -4.667      0.000      0.000
REMARK INTER + INTRA:          -5.798
REMARK INTER:                  -5.485
REMARK INTRA:                  -0.313
REMARK UNBOUND:                -0.313
REMARK SMILES O=c1cc(-c2ccc(O)c(O)c2)oc2cc(O)cc(O)c12
REMARK SMILES IDX 4 1 3 2 2 3 1 4 21 5 19 6 18 7 16 8 15 9 14 10 13 11 5 12
REMARK SMILES IDX 6 13 7 14 8 15 12 16 10 17 9 18 11 20 20 22 17 24
REMARK H PARENT 9 19 11 21 20 23 17 25
REMARK Flexibility Score: inf
ROOT
ATOM      1  C   UNL     1      14.009 -18.893  87.803  1.00  0.00     0.138 A 
ATOM      2  C   UNL     1      13.720 -17.558  87.474  1.00  0.00     0.100 A 
ATOM      3  C   UNL     1      12.790 -17.283  86.470  1.00  0.00     0.197 A 
ATOM      4  O   UNL     1      12.539 -16.082  86.183  1.00  0.00    -0.289 OA
ATOM      5  C   UNL     1      12.159 -18.347  85.797  1.00  0.00     0.107 A 
ATOM      6  C   UNL     1      11.206 -18.156  84.769  1.00  0.00     0.134 A 
ATOM      7  C   UNL     1      10.626 -19.269  84.144  1.00  0.00     0.093 A 
ATOM      8  C   UNL     1      10.980 -20.566  84.525  1.00  0.00     0.123 A 
ATOM      9  C   UNL     1      11.922 -20.761  85.540  1.00  0.00     0.094 A 
ATOM     10  C   UNL     1      12.511 -19.664  86.177  1.00  0.00     0.146 A 
ATOM     11  O   UNL     1      13.402 -19.875  87.140  1.00  0.00    -0.456 OA
ENDROOT
BRANCH   1  12
ATOM     12  C   UNL     1      14.989 -19.245  88.861  1.00  0.00     0.021 A 
ATOM     13  C   UNL     1      15.937 -18.291  89.270  1.00  0.00     0.016 A 
ATOM     14  C   UNL     1      16.875 -18.600  90.258  1.00  0.00     0.051 A 
ATOM     15  C   UNL     1      16.889 -19.870  90.847  1.00  0.00     0.157 A 
ATOM     16  C   UNL     1      15.017 -20.525  89.448  1.00  0.00     0.062 A 
ATOM     17  C   UNL     1      15.960 -20.835  90.440  1.00  0.00     0.158 A 
BRANCH  15  18
ATOM     18  O   UNL     1      17.821 -20.181  91.834  1.00  0.00    -0.504 OA
ATOM     19  H   UNL     1      17.653 -20.919  92.509  1.00  0.00     0.293 HD
ENDBRANCH  15  18
BRANCH  17  20
ATOM     20  O   UNL     1      15.982 -22.102  91.020  1.00  0.00    -0.504 OA
ATOM     21  H   UNL     1      15.284 -22.800  90.796  1.00  0.00     0.293 HD
ENDBRANCH  17  20
ENDBRANCH   1  12
BRANCH   6  22
ATOM     22  O   UNL     1      10.832 -16.873  84.367  1.00  0.00    -0.507 OA
ATOM     23  H   UNL     1      11.048 -16.056  84.925  1.00  0.00     0.293 HD
ENDBRANCH   6  22
BRANCH   8  24
ATOM     24  O   UNL     1      10.390 -21.655  83.886  1.00  0.00    -0.508 OA
ATOM     25  H   UNL     1       9.480 -21.580  83.446  1.00  0.00     0.293 HD
ENDBRANCH   8  24
TORSDOF 5
ENDMDL
MODEL 2
REMARK VINA RESULT:    -4.554      1.039      2.620
REMARK INTER + INTRA:          -5.666
REMARK INTER:                  -5.374
REMARK INTRA:                  -0.292
REMARK UNBOUND:                -0.313
REMARK SMILES O=c1cc(-c2ccc(O)c(O)c2)oc2cc(O)cc(O)c12
REMARK SMILES IDX 4 1 3 2 2 3 1 4 21 5 19 6 18 7 16 8 15 9 14 10 13 11 5 12
REMARK SMILES IDX 6 13 7 14 8 15 12 16 10 17 9 18 11 20 20 22 17 24
REMARK H PARENT 9 19 11 21 20 23 17 25
REMARK Flexibility Score: inf
ROOT
ATOM      1  C   UNL     1      13.958 -19.541  87.702  1.00  0.00     0.138 A 
ATOM      2  C   UNL     1      13.493 -20.695  87.050  1.00  0.00     0.100 A 
ATOM      3  C   UNL     1      12.566 -20.573  86.013  1.00  0.00     0.197 A 
ATOM      4  O   UNL     1      12.156 -21.615  85.435  1.00  0.00    -0.289 OA
ATOM      5  C   UNL     1      12.106 -19.295  85.639  1.00  0.00     0.107 A 
ATOM      6  C   UNL     1      11.169 -19.083  84.600  1.00  0.00     0.134 A 
ATOM      7  C   UNL     1      10.758 -17.778  84.292  1.00  0.00     0.093 A 
ATOM      8  C   UNL     1      11.263 -16.685  85.001  1.00  0.00     0.123 A 
ATOM      9  C   UNL     1      12.189 -16.889  86.028  1.00  0.00     0.094 A 
ATOM     10  C   UNL     1      12.613 -18.182  86.350  1.00  0.00     0.146 A 
ATOM     11  O   UNL     1      13.495 -18.349  87.330  1.00  0.00    -0.456 OA
ENDROOT
BRANCH   1  12
ATOM     12  C   UNL     1      14.942 -19.610  88.811  1.00  0.00     0.021 A 
ATOM     13  C   UNL     1      15.713 -18.477  89.123  1.00  0.00     0.016 A 
ATOM     14  C   UNL     1      16.652 -18.519  90.157  1.00  0.00     0.051 A 
ATOM     15  C   UNL     1      16.843 -19.695  90.890  1.00  0.00     0.157 A 
ATOM     16  C   UNL     1      15.149 -20.795  89.545  1.00  0.00     0.062 A 
ATOM     17  C   UNL     1      16.093 -20.836  90.582  1.00  0.00     0.158 A 
BRANCH  15  18
ATOM     18  O   UNL     1      17.777 -19.740  91.924  1.00  0.00    -0.504 OA
ATOM     19  H   UNL     1      17.512 -19.560  92.885  1.00  0.00     0.293 HD
ENDBRANCH  15  18
BRANCH  17  20
ATOM     20  O   UNL     1      16.293 -22.010  91.307  1.00  0.00    -0.504 OA
ATOM     21  H   UNL     1      17.196 -22.244  91.699  1.00  0.00     0.293 HD
ENDBRANCH  17  20
ENDBRANCH   1  12
BRANCH   6  22
ATOM     22  O   UNL     1      10.648 -20.155  83.875  1.00  0.00    -0.507 OA
ATOM     23  H   UNL     1      10.504 -20.100  82.873  1.00  0.00     0.293 HD
ENDBRANCH   6  22
BRANCH   8  24
ATOM     24  O   UNL     1      10.835 -15.399  84.674  1.00  0.00    -0.508 OA
ATOM     25  H   UNL     1       9.941 -15.043  84.990  1.00  0.00     0.293 HD
ENDBRANCH   8  24
TORSDOF 5
ENDMDL
MODEL 3
REMARK VINA RESULT:    -4.447      1.008      1.234
REMARK INTER + INTRA:          -5.540
REMARK INTER:                  -5.245
REMARK INTRA:                  -0.295
REMARK UNBOUND:                -0.313
REMARK SMILES O=c1cc(-c2ccc(O)c(O)c2)oc2cc(O)cc(O)c12
REMARK SMILES IDX 4 1 3 2 2 3 1 4 21 5 19 6 18 7 16 8 15 9 14 10 13 11 5 12
REMARK SMILES IDX 6 13 7 14 8 15 12 16 10 17 9 18 11 20 20 22 17 24
REMARK H PARENT 9 19 11 21 20 23 17 25
REMARK Flexibility Score: inf
ROOT
ATOM      1  C   UNL     1      14.814 -18.998  88.605  1.00  0.00     0.138 A 
ATOM      2  C   UNL     1      14.444 -17.643  88.585  1.00  0.00     0.100 A 
ATOM      3  C   UNL     1      13.524 -17.196  87.635  1.00  0.00     0.197 A 
ATOM      4  O   UNL     1      13.200 -15.978  87.625  1.00  0.00    -0.289 OA
ATOM      5  C   UNL     1      12.982 -18.108  86.708  1.00  0.00     0.107 A 
ATOM      6  C   UNL     1      12.044 -17.738  85.716  1.00  0.00     0.134 A 
ATOM      7  C   UNL     1      11.556 -18.706  84.826  1.00  0.00     0.093 A 
ATOM      8  C   UNL     1      11.987 -20.033  84.909  1.00  0.00     0.123 A 
ATOM      9  C   UNL     1      12.914 -20.404  85.889  1.00  0.00     0.094 A 
ATOM     10  C   UNL     1      13.412 -19.454  86.786  1.00  0.00     0.146 A 
ATOM     11  O   UNL     1      14.291 -19.832  87.708  1.00  0.00    -0.456 OA
ENDROOT
BRANCH   1  12
ATOM     12  C   UNL     1      15.788 -19.530  89.591  1.00  0.00     0.021 A 
ATOM     13  C   UNL     1      16.954 -18.797  89.874  1.00  0.00     0.016 A 
ATOM     14  C   UNL     1      17.891 -19.280  90.792  1.00  0.00     0.051 A 
ATOM     15  C   UNL     1      17.683 -20.506  91.434  1.00  0.00     0.157 A 
ATOM     16  C   UNL     1      15.592 -20.769  90.231  1.00  0.00     0.062 A 
ATOM     17  C   UNL     1      16.534 -21.253  91.152  1.00  0.00     0.158 A 
BRANCH  15  18
ATOM     18  O   UNL     1      18.614 -20.989  92.352  1.00  0.00    -0.504 OA
ATOM     19  H   UNL     1      18.655 -20.637  93.301  1.00  0.00     0.293 HD
ENDBRANCH  15  18
BRANCH  17  20
ATOM     20  O   UNL     1      16.336 -22.479  91.785  1.00  0.00    -0.504 OA
ATOM     21  H   UNL     1      16.871 -22.747  92.601  1.00  0.00     0.293 HD
ENDBRANCH  17  20
ENDBRANCH   1  12
BRANCH   6  22
ATOM     22  O   UNL     1      11.595 -16.422  85.608  1.00  0.00    -0.507 OA
ATOM     23  H   UNL     1      10.765 -16.184  85.077  1.00  0.00     0.293 HD
ENDBRANCH   6  22
BRANCH   8  24
ATOM     24  O   UNL     1      11.487 -20.975  84.012  1.00  0.00    -0.508 OA
ATOM     25  H   UNL     1      10.677 -21.540  84.236  1.00  0.00     0.293 HD
ENDBRANCH   8  24
TORSDOF 5
ENDMDL
MODEL 4
REMARK VINA RESULT:    -4.324     14.017     16.271
REMARK INTER + INTRA:          -5.396
REMARK INTER:                  -5.080
REMARK INTRA:                  -0.316
REMARK UNBOUND:                -0.313
REMARK SMILES O=c1cc(-c2ccc(O)c(O)c2)oc2cc(O)cc(O)c12
REMARK SMILES IDX 4 1 3 2 2 3 1 4 21 5 19 6 18 7 16 8 15 9 14 10 13 11 5 12
REMARK SMILES IDX 6 13 7 14 8 15 12 16 10 17 9 18 11 20 20 22 17 24
REMARK H PARENT 9 19 11 21 20 23 17 25
REMARK Flexibility Score: inf
ROOT
ATOM      1  C   UNL     1       6.733 -18.792 100.382  1.00  0.00     0.138 A 
ATOM      2  C   UNL     1       6.988 -17.486 100.830  1.00  0.00     0.100 A 
ATOM      3  C   UNL     1       7.891 -17.281 101.875  1.00  0.00     0.197 A 
ATOM      4  O   UNL     1       8.112 -16.105 102.270  1.00  0.00    -0.289 OA
ATOM      5  C   UNL     1       8.531 -18.388 102.468  1.00  0.00     0.107 A 
ATOM      6  C   UNL     1       9.458 -18.268 103.529  1.00  0.00     0.134 A 
ATOM      7  C   UNL     1      10.048 -19.421 104.069  1.00  0.00     0.093 A 
ATOM      8  C   UNL     1       9.728 -20.687 103.569  1.00  0.00     0.123 A 
ATOM      9  C   UNL     1       8.812 -20.810 102.520  1.00  0.00     0.094 A 
ATOM     10  C   UNL     1       8.213 -19.673 101.968  1.00  0.00     0.146 A 
ATOM     11  O   UNL     1       7.347 -19.817 100.971  1.00  0.00    -0.456 OA
ENDROOT
BRANCH   1  12
ATOM     12  C   UNL     1       5.782 -19.070  99.276  1.00  0.00     0.021 A 
ATOM     13  C   UNL     1       4.899 -18.061  98.854  1.00  0.00     0.016 A 
ATOM     14  C   UNL     1       3.989 -18.299  97.821  1.00  0.00     0.051 A 
ATOM     15  C   UNL     1       3.940 -19.552  97.198  1.00  0.00     0.157 A 
ATOM     16  C   UNL     1       5.718 -20.332  98.654  1.00  0.00     0.062 A 
ATOM     17  C   UNL     1       4.803 -20.571  97.617  1.00  0.00     0.158 A 
BRANCH  15  18
ATOM     18  O   UNL     1       3.035 -19.793  96.166  1.00  0.00    -0.504 OA
ATOM     19  H   UNL     1       3.252 -19.555  95.205  1.00  0.00     0.293 HD
ENDBRANCH  15  18
BRANCH  17  20
ATOM     20  O   UNL     1       4.745 -21.820  97.003  1.00  0.00    -0.504 OA
ATOM     21  H   UNL     1       3.911 -22.138  96.524  1.00  0.00     0.293 HD
ENDBRANCH  17  20
ENDBRANCH   1  12
BRANCH   6  22
ATOM     22  O   UNL     1       9.797 -17.019 104.049  1.00  0.00    -0.507 OA
ATOM     23  H   UNL     1      10.740 -16.808 104.355  1.00  0.00     0.293 HD
ENDBRANCH   6  22
BRANCH   8  24
ATOM     24  O   UNL     1      10.328 -21.815 104.125  1.00  0.00    -0.508 OA
ATOM     25  H   UNL     1      10.535 -21.870 105.115  1.00  0.00     0.293 HD
ENDBRANCH   8  24
TORSDOF 5
ENDMDL
MODEL 5
REMARK VINA RESULT:    -4.283     14.059     16.448
REMARK INTER + INTRA:          -5.347
REMARK INTER:                  -5.052
REMARK INTRA:                  -0.296
REMARK UNBOUND:                -0.313
REMARK SMILES O=c1cc(-c2ccc(O)c(O)c2)oc2cc(O)cc(O)c12
REMARK SMILES IDX 4 1 3 2 2 3 1 4 21 5 19 6 18 7 16 8 15 9 14 10 13 11 5 12
REMARK SMILES IDX 6 13 7 14 8 15 12 16 10 17 9 18 11 20 20 22 17 24
REMARK H PARENT 9 19 11 21 20 23 17 25
REMARK Flexibility Score: inf
ROOT
ATOM      1  C   UNL     1       6.679 -19.245 100.335  1.00  0.00     0.138 A 
ATOM      2  C   UNL     1       7.225 -20.420 100.878  1.00  0.00     0.100 A 
ATOM      3  C   UNL     1       8.143 -20.331 101.925  1.00  0.00     0.197 A 
ATOM      4  O   UNL     1       8.627 -21.392 102.405  1.00  0.00    -0.289 OA
ATOM      5  C   UNL     1       8.514 -19.065 102.420  1.00  0.00     0.107 A 
ATOM      6  C   UNL     1       9.436 -18.887 103.477  1.00  0.00     0.134 A 
ATOM      7  C   UNL     1       9.757 -17.591 103.908  1.00  0.00     0.093 A 
ATOM      8  C   UNL     1       9.175 -16.474 103.303  1.00  0.00     0.123 A 
ATOM      9  C   UNL     1       8.263 -16.644 102.257  1.00  0.00     0.094 A 
ATOM     10  C   UNL     1       7.929 -17.928 101.813  1.00  0.00     0.146 A 
ATOM     11  O   UNL     1       7.059 -18.064 100.818  1.00  0.00    -0.456 OA
ENDROOT
BRANCH   1  12
ATOM     12  C   UNL     1       5.699 -19.279  99.220  1.00  0.00     0.021 A 
ATOM     13  C   UNL     1       5.018 -18.102  98.863  1.00  0.00     0.016 A 
ATOM     14  C   UNL     1       4.085 -18.109  97.823  1.00  0.00     0.051 A 
ATOM     15  C   UNL     1       3.811 -19.293  97.128  1.00  0.00     0.157 A 
ATOM     16  C   UNL     1       5.409 -20.469  98.525  1.00  0.00     0.062 A 
ATOM     17  C   UNL     1       4.471 -20.475  97.481  1.00  0.00     0.158 A 
BRANCH  15  18
ATOM     18  O   UNL     1       2.883 -19.302  96.089  1.00  0.00    -0.504 OA
ATOM     19  H   UNL     1       2.980 -18.692  95.286  1.00  0.00     0.293 HD
ENDBRANCH  15  18
BRANCH  17  20
ATOM     20  O   UNL     1       4.188 -21.655  96.795  1.00  0.00    -0.504 OA
ATOM     21  H   UNL     1       3.678 -22.413  97.232  1.00  0.00     0.293 HD
ENDBRANCH  17  20
ENDBRANCH   1  12
BRANCH   6  22
ATOM     22  O   UNL     1      10.033 -19.982 104.101  1.00  0.00    -0.507 OA
ATOM     23  H   UNL     1      10.663 -19.870 104.888  1.00  0.00     0.293 HD
ENDBRANCH   6  22
BRANCH   8  24
ATOM     24  O   UNL     1       9.512 -15.197 103.750  1.00  0.00    -0.508 OA
ATOM     25  H   UNL     1       9.121 -14.367 103.321  1.00  0.00     0.293 HD
ENDBRANCH   8  24
TORSDOF 5
ENDMDL
MODEL 6
REMARK VINA RESULT:    -4.269     14.100     15.981
REMARK INTER + INTRA:          -5.330
REMARK INTER:                  -5.055
REMARK INTRA:                  -0.275
REMARK UNBOUND:                -0.313
REMARK SMILES O=c1cc(-c2ccc(O)c(O)c2)oc2cc(O)cc(O)c12
REMARK SMILES IDX 4 1 3 2 2 3 1 4 21 5 19 6 18 7 16 8 15 9 14 10 13 11 5 12
REMARK SMILES IDX 6 13 7 14 8 15 12 16 10 17 9 18 11 20 20 22 17 24
REMARK H PARENT 9 19 11 21 20 23 17 25
REMARK Flexibility Score: inf
ROOT
ATOM      1  C   UNL     1       5.854 -18.133  99.263  1.00  0.00     0.138 A 
ATOM      2  C   UNL     1       6.298 -16.815  99.457  1.00  0.00     0.100 A 
ATOM      3  C   UNL     1       7.200 -16.538 100.486  1.00  0.00     0.197 A 
ATOM      4  O   UNL     1       7.591 -15.352 100.652  1.00  0.00    -0.289 OA
ATOM      5  C   UNL     1       7.647 -17.583 101.318  1.00  0.00     0.107 A 
ATOM      6  C   UNL     1       8.559 -17.388 102.382  1.00  0.00     0.134 A 
ATOM      7  C   UNL     1       8.952 -18.481 103.169  1.00  0.00     0.093 A 
ATOM      8  C   UNL     1       8.451 -19.761 102.913  1.00  0.00     0.123 A 
ATOM      9  C   UNL     1       7.549 -19.958 101.863  1.00  0.00     0.094 A 
ATOM     10  C   UNL     1       7.146 -18.882 101.066  1.00  0.00     0.146 A 
ATOM     11  O   UNL     1       6.289 -19.096 100.073  1.00  0.00    -0.456 OA
ENDROOT
BRANCH   1  12
ATOM     12  C   UNL     1       4.895 -18.487  98.185  1.00  0.00     0.021 A 
ATOM     13  C   UNL     1       5.259 -18.285  96.843  1.00  0.00     0.016 A 
ATOM     14  C   UNL     1       4.372 -18.601  95.811  1.00  0.00     0.051 A 
ATOM     15  C   UNL     1       3.104 -19.117  96.103  1.00  0.00     0.157 A 
ATOM     16  C   UNL     1       3.613 -18.993  98.473  1.00  0.00     0.062 A 
ATOM     17  C   UNL     1       2.722 -19.310  97.436  1.00  0.00     0.158 A 
BRANCH  15  18
ATOM     18  O   UNL     1       2.218 -19.436  95.076  1.00  0.00    -0.504 OA
ATOM     19  H   UNL     1       1.221 -19.279  95.168  1.00  0.00     0.293 HD
ENDBRANCH  15  18
BRANCH  17  20
ATOM     20  O   UNL     1       1.455 -19.813  97.724  1.00  0.00    -0.504 OA
ATOM     21  H   UNL     1       1.002 -19.633  98.612  1.00  0.00     0.293 HD
ENDBRANCH  17  20
ENDBRANCH   1  12
BRANCH   6  22
ATOM     22  O   UNL     1       9.077 -16.123 102.662  1.00  0.00    -0.507 OA
ATOM     23  H   UNL     1       9.865 -15.745 102.149  1.00  0.00     0.293 HD
ENDBRANCH   6  22
BRANCH   8  24
ATOM     24  O   UNL     1       8.857 -20.829 103.711  1.00  0.00    -0.508 OA
ATOM     25  H   UNL     1       9.004 -20.718 104.707  1.00  0.00     0.293 HD
ENDBRANCH   8  24
TORSDOF 5
ENDMDL
MODEL 7
REMARK VINA RESULT:    -4.243      3.193      6.905
REMARK INTER + INTRA:          -5.300
REMARK INTER:                  -5.026
REMARK INTRA:                  -0.274
REMARK UNBOUND:                -0.313
REMARK SMILES O=c1cc(-c2ccc(O)c(O)c2)oc2cc(O)cc(O)c12
REMARK SMILES IDX 4 1 3 2 2 3 1 4 21 5 19 6 18 7 16 8 15 9 14 10 13 11 5 12
REMARK SMILES IDX 6 13 7 14 8 15 12 16 10 17 9 18 11 20 20 22 17 24
REMARK H PARENT 9 19 11 21 20 23 17 25
REMARK Flexibility Score: inf
ROOT
ATOM      1  C   UNL     1      12.849 -17.174  86.460  1.00  0.00     0.138 A 
ATOM      2  C   UNL     1      13.268 -17.222  87.799  1.00  0.00     0.100 A 
ATOM      3  C   UNL     1      13.893 -16.109  88.365  1.00  0.00     0.197 A 
ATOM      4  O   UNL     1      14.266 -16.164  89.567  1.00  0.00    -0.289 OA
ATOM      5  C   UNL     1      14.098 -14.955  87.583  1.00  0.00     0.107 A 
ATOM      6  C   UNL     1      14.722 -13.786  88.079  1.00  0.00     0.134 A 
ATOM      7  C   UNL     1      14.893 -12.679  87.234  1.00  0.00     0.093 A 
ATOM      8  C   UNL     1      14.455 -12.720  85.907  1.00  0.00     0.123 A 
ATOM      9  C   UNL     1      13.839 -13.874  85.413  1.00  0.00     0.094 A 
ATOM     10  C   UNL     1      13.657 -14.987  86.239  1.00  0.00     0.146 A 
ATOM     11  O   UNL     1      13.067 -16.071  85.746  1.00  0.00    -0.456 OA
ENDROOT
BRANCH   1  12
ATOM     12  C   UNL     1      12.181 -18.327  85.805  1.00  0.00     0.021 A 
ATOM     13  C   UNL     1      12.888 -19.529  85.633  1.00  0.00     0.016 A 
ATOM     14  C   UNL     1      12.285 -20.626  85.013  1.00  0.00     0.051 A 
ATOM     15  C   UNL     1      10.968 -20.538  84.547  1.00  0.00     0.157 A 
ATOM     16  C   UNL     1      10.860 -18.240  85.322  1.00  0.00     0.062 A 
ATOM     17  C   UNL     1      10.255 -19.342  84.699  1.00  0.00     0.158 A 
BRANCH  15  18
ATOM     18  O   UNL     1      10.362 -21.631  83.930  1.00  0.00    -0.504 OA
ATOM     19  H   UNL     1       9.856 -21.534  83.058  1.00  0.00     0.293 HD
ENDBRANCH  15  18
BRANCH  17  20
ATOM     20  O   UNL     1       8.948 -19.254  84.224  1.00  0.00    -0.504 OA
ATOM     21  H   UNL     1       8.372 -20.077  84.097  1.00  0.00     0.293 HD
ENDBRANCH  17  20
ENDBRANCH   1  12
BRANCH   6  22
ATOM     22  O   UNL     1      15.169 -13.715  89.398  1.00  0.00    -0.507 OA
ATOM     23  H   UNL     1      14.542 -13.858  90.182  1.00  0.00     0.293 HD
ENDBRANCH   6  22
BRANCH   8  24
ATOM     24  O   UNL     1      14.640 -11.607  85.089  1.00  0.00    -0.508 OA
ATOM     25  H   UNL     1      14.498 -11.658  84.087  1.00  0.00     0.293 HD
ENDBRANCH   8  24
TORSDOF 5
ENDMDL
MODEL 8
REMARK VINA RESULT:    -4.121     14.490     15.097
REMARK INTER + INTRA:          -5.157
REMARK INTER:                  -4.839
REMARK INTRA:                  -0.317
REMARK UNBOUND:                -0.313
REMARK SMILES O=c1cc(-c2ccc(O)c(O)c2)oc2cc(O)cc(O)c12
REMARK SMILES IDX 4 1 3 2 2 3 1 4 21 5 19 6 18 7 16 8 15 9 14 10 13 11 5 12
REMARK SMILES IDX 6 13 7 14 8 15 12 16 10 17 9 18 11 20 20 22 17 24
REMARK H PARENT 9 19 11 21 20 23 17 25
REMARK Flexibility Score: inf
ROOT
ATOM      1  C   UNL     1       7.903 -19.823 101.028  1.00  0.00     0.138 A 
ATOM      2  C   UNL     1       6.897 -20.452 100.275  1.00  0.00     0.100 A 
ATOM      3  C   UNL     1       6.003 -19.675  99.538  1.00  0.00     0.197 A 
ATOM      4  O   UNL     1       5.105 -20.249  98.866  1.00  0.00    -0.289 OA
ATOM      5  C   UNL     1       6.118 -18.270  99.562  1.00  0.00     0.107 A 
ATOM      6  C   UNL     1       5.255 -17.411  98.844  1.00  0.00     0.134 A 
ATOM      7  C   UNL     1       5.433 -16.022  98.926  1.00  0.00     0.093 A 
ATOM      8  C   UNL     1       6.454 -15.478  99.710  1.00  0.00     0.123 A 
ATOM      9  C   UNL     1       7.310 -16.324 100.422  1.00  0.00     0.094 A 
ATOM     10  C   UNL     1       7.150 -17.711 100.353  1.00  0.00     0.146 A 
ATOM     11  O   UNL     1       7.977 -18.494 101.038  1.00  0.00    -0.456 OA
ENDROOT
BRANCH   1  12
ATOM     12  C   UNL     1       8.880 -20.599 101.833  1.00  0.00     0.021 A 
ATOM     13  C   UNL     1       8.708 -21.986 101.981  1.00  0.00     0.016 A 
ATOM     14  C   UNL     1       9.609 -22.737 102.738  1.00  0.00     0.051 A 
ATOM     15  C   UNL     1      10.693 -22.115 103.369  1.00  0.00     0.157 A 
ATOM     16  C   UNL     1       9.965 -19.977 102.481  1.00  0.00     0.062 A 
ATOM     17  C   UNL     1      10.869 -20.732 103.243  1.00  0.00     0.158 A 
BRANCH  15  18
ATOM     18  O   UNL     1      11.595 -22.861 104.124  1.00  0.00    -0.504 OA
ATOM     19  H   UNL     1      12.584 -22.642 104.137  1.00  0.00     0.293 HD
ENDBRANCH  15  18
BRANCH  17  20
ATOM     20  O   UNL     1      11.942 -20.113 103.881  1.00  0.00    -0.504 OA
ATOM     21  H   UNL     1      11.801 -19.442 104.627  1.00  0.00     0.293 HD
ENDBRANCH  17  20
ENDBRANCH   1  12
BRANCH   6  22
ATOM     22  O   UNL     1       4.226 -17.923  98.053  1.00  0.00    -0.507 OA
ATOM     23  H   UNL     1       3.536 -18.565  98.426  1.00  0.00     0.293 HD
ENDBRANCH   6  22
BRANCH   8  24
ATOM     24  O   UNL     1       6.607 -14.094  99.774  1.00  0.00    -0.508 OA
ATOM     25  H   UNL     1       7.272 -13.609  99.184  1.00  0.00     0.293 HD
ENDBRANCH   8  24
TORSDOF 5
ENDMDL
MODEL 9
REMARK VINA RESULT:    -4.055     15.333     16.837
REMARK INTER + INTRA:          -5.079
REMARK INTER:                  -4.783
REMARK INTRA:                  -0.296
REMARK UNBOUND:                -0.313
REMARK SMILES O=c1cc(-c2ccc(O)c(O)c2)oc2cc(O)cc(O)c12
REMARK SMILES IDX 4 1 3 2 2 3 1 4 21 5 19 6 18 7 16 8 15 9 14 10 13 11 5 12
REMARK SMILES IDX 6 13 7 14 8 15 12 16 10 17 9 18 11 20 20 22 17 24
REMARK H PARENT 9 19 11 21 20 23 17 25
REMARK Flexibility Score: inf
ROOT
ATOM      1  C   UNL     1       8.334 -18.089 102.308  1.00  0.00     0.138 A 
ATOM      2  C   UNL     1       7.474 -18.672 101.363  1.00  0.00     0.100 A 
ATOM      3  C   UNL     1       7.528 -20.049 101.141  1.00  0.00     0.197 A 
ATOM      4  O   UNL     1       6.752 -20.561 100.290  1.00  0.00    -0.289 OA
ATOM      5  C   UNL     1       8.447 -20.834 101.865  1.00  0.00     0.107 A 
ATOM      6  C   UNL     1       8.565 -22.235 101.701  1.00  0.00     0.134 A 
ATOM      7  C   UNL     1       9.510 -22.944 102.457  1.00  0.00     0.093 A 
ATOM      8  C   UNL     1      10.336 -22.282 103.369  1.00  0.00     0.123 A 
ATOM      9  C   UNL     1      10.223 -20.898 103.534  1.00  0.00     0.094 A 
ATOM     10  C   UNL     1       9.287 -20.173 102.791  1.00  0.00     0.146 A 
ATOM     11  O   UNL     1       9.198 -18.858 102.967  1.00  0.00    -0.456 OA
ENDROOT
BRANCH   1  12
ATOM     12  C   UNL     1       8.322 -16.630 102.584  1.00  0.00     0.021 A 
ATOM     13  C   UNL     1       9.314 -16.076 103.411  1.00  0.00     0.016 A 
ATOM     14  C   UNL     1       9.320 -14.707 103.693  1.00  0.00     0.051 A 
ATOM     15  C   UNL     1       8.331 -13.872 103.161  1.00  0.00     0.157 A 
ATOM     16  C   UNL     1       7.322 -15.786 102.063  1.00  0.00     0.062 A 
ATOM     17  C   UNL     1       7.329 -14.412 102.347  1.00  0.00     0.158 A 
BRANCH  15  18
ATOM     18  O   UNL     1       8.335 -12.506 103.438  1.00  0.00    -0.504 OA
ATOM     19  H   UNL     1       7.478 -11.966 103.456  1.00  0.00     0.293 HD
ENDBRANCH  15  18
BRANCH  17  20
ATOM     20  O   UNL     1       6.339 -13.580 101.828  1.00  0.00    -0.504 OA
ATOM     21  H   UNL     1       5.399 -13.916 101.657  1.00  0.00     0.293 HD
ENDBRANCH  17  20
ENDBRANCH   1  12
BRANCH   6  22
ATOM     22  O   UNL     1       7.754 -22.923 100.799  1.00  0.00    -0.507 OA
ATOM     23  H   UNL     1       8.083 -23.746 100.308  1.00  0.00     0.293 HD
ENDBRANCH   6  22
BRANCH   8  24
ATOM     24  O   UNL     1      11.267 -23.012 104.106  1.00  0.00    -0.508 OA
ATOM     25  H   UNL     1      11.227 -24.023 104.156  1.00  0.00     0.293 HD
ENDBRANCH   8  24
TORSDOF 5
ENDMDL
