MODEL 1
REMARK VINA RESULT:    -6.879      0.000      0.000
REMARK INTER + INTRA:          -8.367
REMARK INTER:                  -8.086
REMARK INTRA:                  -0.281
REMARK UNBOUND:                -0.281
REMARK SMILES O=c1cc(-c2ccc(O)c(O)c2)oc2cc(O)cc(O)c12
REMARK SMILES IDX 4 1 3 2 2 3 1 4 21 5 19 6 18 7 16 8 15 9 14 10 13 11 5 12
REMARK SMILES IDX 6 13 7 14 8 15 12 16 10 17 9 18 11 20 20 22 17 24
REMARK H PARENT 9 19 11 21 20 23 17 25
REMARK Flexibility Score: inf
ROOT
ATOM      1  C   UNL     1     129.747 131.913 116.166  1.00  0.00     0.138 A 
ATOM      2  C   UNL     1     129.921 132.709 115.026  1.00  0.00     0.100 A 
ATOM      3  C   UNL     1     130.365 132.127 113.838  1.00  0.00     0.197 A 
ATOM      4  O   UNL     1     130.572 132.878 112.850  1.00  0.00    -0.289 OA
ATOM      5  C   UNL     1     130.605 130.733 113.785  1.00  0.00     0.107 A 
ATOM      6  C   UNL     1     131.020 130.024 112.618  1.00  0.00     0.134 A 
ATOM      7  C   UNL     1     131.338 128.664 112.714  1.00  0.00     0.093 A 
ATOM      8  C   UNL     1     131.199 127.975 113.922  1.00  0.00     0.123 A 
ATOM      9  C   UNL     1     130.743 128.645 115.053  1.00  0.00     0.094 A 
ATOM     10  C   UNL     1     130.450 130.010 114.998  1.00  0.00     0.146 A 
ATOM     11  O   UNL     1     130.032 130.617 116.104  1.00  0.00    -0.456 OA
ENDROOT
BRANCH   1  12
ATOM     12  C   UNL     1     129.276 132.481 117.454  1.00  0.00     0.021 A 
ATOM     13  C   UNL     1     129.989 133.539 118.045  1.00  0.00     0.016 A 
ATOM     14  C   UNL     1     129.571 134.087 119.261  1.00  0.00     0.051 A 
ATOM     15  C   UNL     1     128.440 133.580 119.912  1.00  0.00     0.157 A 
ATOM     16  C   UNL     1     128.147 131.967 118.123  1.00  0.00     0.062 A 
ATOM     17  C   UNL     1     127.729 132.516 119.343  1.00  0.00     0.158 A 
BRANCH  15  18
ATOM     18  O   UNL     1     128.019 134.124 121.124  1.00  0.00    -0.504 OA
ATOM     19  H   UNL     1     128.309 135.050 121.417  1.00  0.00     0.293 HD
ENDBRANCH  15  18
BRANCH  17  20
ATOM     20  O   UNL     1     126.610 132.006 120.000  1.00  0.00    -0.504 OA
ATOM     21  H   UNL     1     126.517 131.017 120.198  1.00  0.00     0.293 HD
ENDBRANCH  17  20
ENDBRANCH   1  12
BRANCH   6  22
ATOM     22  O   UNL     1     131.109 130.598 111.346  1.00  0.00    -0.507 OA
ATOM     23  H   UNL     1     131.895 131.132 111.009  1.00  0.00     0.293 HD
ENDBRANCH   6  22
BRANCH   8  24
ATOM     24  O   UNL     1     131.505 126.617 114.004  1.00  0.00    -0.508 OA
ATOM     25  H   UNL     1     130.867 125.955 114.430  1.00  0.00     0.293 HD
ENDBRANCH   8  24
TORSDOF 5
ENDMDL
MODEL 2
REMARK VINA RESULT:    -6.628      2.317      3.633
REMARK INTER + INTRA:          -8.072
REMARK INTER:                  -7.808
REMARK INTRA:                  -0.264
REMARK UNBOUND:                -0.281
REMARK SMILES O=c1cc(-c2ccc(O)c(O)c2)oc2cc(O)cc(O)c12
REMARK SMILES IDX 4 1 3 2 2 3 1 4 21 5 19 6 18 7 16 8 15 9 14 10 13 11 5 12
REMARK SMILES IDX 6 13 7 14 8 15 12 16 10 17 9 18 11 20 20 22 17 24
REMARK H PARENT 9 19 11 21 20 23 17 25
REMARK Flexibility Score: inf
ROOT
ATOM      1  C   UNL     1     129.898 131.567 114.324  1.00  0.00     0.138 A 
ATOM      2  C   UNL     1     130.741 130.486 114.032  1.00  0.00     0.100 A 
ATOM      3  C   UNL     1     130.721 129.922 112.756  1.00  0.00     0.197 A 
ATOM      4  O   UNL     1     131.442 128.913 112.541  1.00  0.00    -0.289 OA
ATOM      5  C   UNL     1     129.877 130.465 111.759  1.00  0.00     0.107 A 
ATOM      6  C   UNL     1     129.803 129.998 110.412  1.00  0.00     0.134 A 
ATOM      7  C   UNL     1     128.845 130.538 109.545  1.00  0.00     0.093 A 
ATOM      8  C   UNL     1     127.999 131.570 109.960  1.00  0.00     0.123 A 
ATOM      9  C   UNL     1     128.099 132.070 111.256  1.00  0.00     0.094 A 
ATOM     10  C   UNL     1     129.021 131.528 112.155  1.00  0.00     0.146 A 
ATOM     11  O   UNL     1     129.075 132.023 113.387  1.00  0.00    -0.456 OA
ENDROOT
BRANCH   1  12
ATOM     12  C   UNL     1     129.880 132.205 115.664  1.00  0.00     0.021 A 
ATOM     13  C   UNL     1     130.397 133.504 115.819  1.00  0.00     0.016 A 
ATOM     14  C   UNL     1     130.399 134.125 117.071  1.00  0.00     0.051 A 
ATOM     15  C   UNL     1     129.893 133.455 118.191  1.00  0.00     0.157 A 
ATOM     16  C   UNL     1     129.385 131.533 116.800  1.00  0.00     0.062 A 
ATOM     17  C   UNL     1     129.387 132.156 118.056  1.00  0.00     0.158 A 
BRANCH  15  18
ATOM     18  O   UNL     1     129.891 134.070 119.442  1.00  0.00    -0.504 OA
ATOM     19  H   UNL     1     129.124 133.943 120.093  1.00  0.00     0.293 HD
ENDBRANCH  15  18
BRANCH  17  20
ATOM     20  O   UNL     1     128.895 131.488 119.176  1.00  0.00    -0.504 OA
ATOM     21  H   UNL     1     127.941 131.149 119.213  1.00  0.00     0.293 HD
ENDBRANCH  17  20
ENDBRANCH   1  12
BRANCH   6  22
ATOM     22  O   UNL     1     130.658 129.032 109.873  1.00  0.00    -0.507 OA
ATOM     23  H   UNL     1     130.731 128.809 108.893  1.00  0.00     0.293 HD
ENDBRANCH   6  22
BRANCH   8  24
ATOM     24  O   UNL     1     127.059 132.112 109.086  1.00  0.00    -0.508 OA
ATOM     25  H   UNL     1     127.241 132.967 108.574  1.00  0.00     0.293 HD
ENDBRANCH   8  24
TORSDOF 5
ENDMDL
MODEL 3
REMARK VINA RESULT:    -6.454      3.406      4.656
REMARK INTER + INTRA:          -7.867
REMARK INTER:                  -7.603
REMARK INTRA:                  -0.264
REMARK UNBOUND:                -0.281
REMARK SMILES O=c1cc(-c2ccc(O)c(O)c2)oc2cc(O)cc(O)c12
REMARK SMILES IDX 4 1 3 2 2 3 1 4 21 5 19 6 18 7 16 8 15 9 14 10 13 11 5 12
REMARK SMILES IDX 6 13 7 14 8 15 12 16 10 17 9 18 11 20 20 22 17 24
REMARK H PARENT 9 19 11 21 20 23 17 25
REMARK Flexibility Score: inf
ROOT
ATOM      1  C   UNL     1     129.044 131.502 112.067  1.00  0.00     0.138 A 
ATOM      2  C   UNL     1     128.097 132.057 111.197  1.00  0.00     0.100 A 
ATOM      3  C   UNL     1     127.744 131.373 110.033  1.00  0.00     0.197 A 
ATOM      4  O   UNL     1     126.939 131.925 109.240  1.00  0.00    -0.289 OA
ATOM      5  C   UNL     1     128.320 130.110 109.758  1.00  0.00     0.107 A 
ATOM      6  C   UNL     1     128.007 129.302 108.623  1.00  0.00     0.134 A 
ATOM      7  C   UNL     1     128.726 128.123 108.395  1.00  0.00     0.093 A 
ATOM      8  C   UNL     1     129.707 127.692 109.292  1.00  0.00     0.123 A 
ATOM      9  C   UNL     1     129.984 128.445 110.430  1.00  0.00     0.094 A 
ATOM     10  C   UNL     1     129.307 129.644 110.669  1.00  0.00     0.146 A 
ATOM     11  O   UNL     1     129.611 130.341 111.759  1.00  0.00    -0.456 OA
ENDROOT
BRANCH   1  12
ATOM     12  C   UNL     1     129.454 132.187 113.319  1.00  0.00     0.021 A 
ATOM     13  C   UNL     1     130.732 132.769 113.402  1.00  0.00     0.016 A 
ATOM     14  C   UNL     1     131.146 133.413 114.571  1.00  0.00     0.051 A 
ATOM     15  C   UNL     1     130.293 133.478 115.681  1.00  0.00     0.157 A 
ATOM     16  C   UNL     1     128.608 132.245 114.445  1.00  0.00     0.062 A 
ATOM     17  C   UNL     1     129.024 132.890 115.618  1.00  0.00     0.158 A 
BRANCH  15  18
ATOM     18  O   UNL     1     130.701 134.120 116.848  1.00  0.00    -0.504 OA
ATOM     19  H   UNL     1     131.668 134.390 116.994  1.00  0.00     0.293 HD
ENDBRANCH  15  18
BRANCH  17  20
ATOM     20  O   UNL     1     128.183 132.947 116.728  1.00  0.00    -0.504 OA
ATOM     21  H   UNL     1     127.477 132.239 116.895  1.00  0.00     0.293 HD
ENDBRANCH  17  20
ENDBRANCH   1  12
BRANCH   6  22
ATOM     22  O   UNL     1     126.987 129.598 107.713  1.00  0.00    -0.507 OA
ATOM     23  H   UNL     1     126.824 129.105 106.850  1.00  0.00     0.293 HD
ENDBRANCH   6  22
BRANCH   8  24
ATOM     24  O   UNL     1     130.408 126.509 109.064  1.00  0.00    -0.508 OA
ATOM     25  H   UNL     1     130.627 126.196 108.126  1.00  0.00     0.293 HD
ENDBRANCH   8  24
TORSDOF 5
ENDMDL
MODEL 4
REMARK VINA RESULT:    -6.002      1.118      2.655
REMARK INTER + INTRA:          -7.336
REMARK INTER:                  -7.072
REMARK INTRA:                  -0.264
REMARK UNBOUND:                -0.281
REMARK SMILES O=c1cc(-c2ccc(O)c(O)c2)oc2cc(O)cc(O)c12
REMARK SMILES IDX 4 1 3 2 2 3 1 4 21 5 19 6 18 7 16 8 15 9 14 10 13 11 5 12
REMARK SMILES IDX 6 13 7 14 8 15 12 16 10 17 9 18 11 20 20 22 17 24
REMARK H PARENT 9 19 11 21 20 23 17 25
REMARK Flexibility Score: inf
ROOT
ATOM      1  C   UNL     1     129.863 130.771 116.692  1.00  0.00     0.138 A 
ATOM      2  C   UNL     1     130.430 129.525 116.988  1.00  0.00     0.100 A 
ATOM      3  C   UNL     1     130.968 128.749 115.961  1.00  0.00     0.197 A 
ATOM      4  O   UNL     1     131.413 127.608 116.248  1.00  0.00    -0.289 OA
ATOM      5  C   UNL     1     130.967 129.241 114.634  1.00  0.00     0.107 A 
ATOM      6  C   UNL     1     131.524 128.557 113.512  1.00  0.00     0.134 A 
ATOM      7  C   UNL     1     131.361 129.089 112.228  1.00  0.00     0.093 A 
ATOM      8  C   UNL     1     130.713 130.312 112.032  1.00  0.00     0.123 A 
ATOM      9  C   UNL     1     130.212 131.014 113.125  1.00  0.00     0.094 A 
ATOM     10  C   UNL     1     130.329 130.492 114.416  1.00  0.00     0.146 A 
ATOM     11  O   UNL     1     129.825 131.186 115.431  1.00  0.00    -0.456 OA
ENDROOT
BRANCH   1  12
ATOM     12  C   UNL     1     129.277 131.637 117.747  1.00  0.00     0.021 A 
ATOM     13  C   UNL     1     129.956 132.803 118.140  1.00  0.00     0.016 A 
ATOM     14  C   UNL     1     129.431 133.632 119.136  1.00  0.00     0.051 A 
ATOM     15  C   UNL     1     128.223 133.302 119.763  1.00  0.00     0.157 A 
ATOM     16  C   UNL     1     128.069 131.305 118.393  1.00  0.00     0.062 A 
ATOM     17  C   UNL     1     127.543 132.135 119.392  1.00  0.00     0.158 A 
BRANCH  15  18
ATOM     18  O   UNL     1     127.695 134.125 120.755  1.00  0.00    -0.504 OA
ATOM     19  H   UNL     1     127.801 135.132 120.719  1.00  0.00     0.293 HD
ENDBRANCH  15  18
BRANCH  17  20
ATOM     20  O   UNL     1     126.347 131.804 120.028  1.00  0.00    -0.504 OA
ATOM     21  H   UNL     1     126.160 130.861 120.346  1.00  0.00     0.293 HD
ENDBRANCH  17  20
ENDBRANCH   1  12
BRANCH   6  22
ATOM     22  O   UNL     1     132.264 127.375 113.608  1.00  0.00    -0.507 OA
ATOM     23  H   UNL     1     131.942 126.527 114.048  1.00  0.00     0.293 HD
ENDBRANCH   6  22
BRANCH   8  24
ATOM     24  O   UNL     1     130.568 130.841 110.750  1.00  0.00    -0.508 OA
ATOM     25  H   UNL     1     131.371 131.104 110.192  1.00  0.00     0.293 HD
ENDBRANCH   8  24
TORSDOF 5
ENDMDL
MODEL 5
REMARK VINA RESULT:    -5.757      1.957      6.972
REMARK INTER + INTRA:          -7.048
REMARK INTER:                  -6.781
REMARK INTRA:                  -0.267
REMARK UNBOUND:                -0.281
REMARK SMILES O=c1cc(-c2ccc(O)c(O)c2)oc2cc(O)cc(O)c12
REMARK SMILES IDX 4 1 3 2 2 3 1 4 21 5 19 6 18 7 16 8 15 9 14 10 13 11 5 12
REMARK SMILES IDX 6 13 7 14 8 15 12 16 10 17 9 18 11 20 20 22 17 24
REMARK H PARENT 9 19 11 21 20 23 17 25
REMARK Flexibility Score: inf
ROOT
ATOM      1  C   UNL     1     130.027 131.088 114.255  1.00  0.00     0.138 A 
ATOM      2  C   UNL     1     130.636 132.336 114.437  1.00  0.00     0.100 A 
ATOM      3  C   UNL     1     130.541 132.977 115.673  1.00  0.00     0.197 A 
ATOM      4  O   UNL     1     131.044 134.125 115.788  1.00  0.00    -0.289 OA
ATOM      5  C   UNL     1     129.860 132.347 116.742  1.00  0.00     0.107 A 
ATOM      6  C   UNL     1     129.735 132.885 118.057  1.00  0.00     0.134 A 
ATOM      7  C   UNL     1     128.939 132.226 119.001  1.00  0.00     0.093 A 
ATOM      8  C   UNL     1     128.312 131.015 118.694  1.00  0.00     0.123 A 
ATOM      9  C   UNL     1     128.471 130.453 117.431  1.00  0.00     0.094 A 
ATOM     10  C   UNL     1     129.232 131.104 116.456  1.00  0.00     0.146 A 
ATOM     11  O   UNL     1     129.347 130.542 115.257  1.00  0.00    -0.456 OA
ENDROOT
BRANCH   1  12
ATOM     12  C   UNL     1     130.098 130.363 112.961  1.00  0.00     0.021 A 
ATOM     13  C   UNL     1     130.696 129.091 112.913  1.00  0.00     0.016 A 
ATOM     14  C   UNL     1     130.782 128.390 111.707  1.00  0.00     0.051 A 
ATOM     15  C   UNL     1     130.281 128.954 110.527  1.00  0.00     0.157 A 
ATOM     16  C   UNL     1     129.609 130.928 111.767  1.00  0.00     0.062 A 
ATOM     17  C   UNL     1     129.696 130.225 110.556  1.00  0.00     0.158 A 
BRANCH  15  18
ATOM     18  O   UNL     1     130.364 128.258 109.322  1.00  0.00    -0.504 OA
ATOM     19  H   UNL     1     130.933 128.596 108.554  1.00  0.00     0.293 HD
ENDBRANCH  15  18
BRANCH  17  20
ATOM     20  O   UNL     1     129.209 130.787 109.377  1.00  0.00    -0.504 OA
ATOM     21  H   UNL     1     128.220 130.964 109.243  1.00  0.00     0.293 HD
ENDBRANCH  17  20
ENDBRANCH   1  12
BRANCH   6  22
ATOM     22  O   UNL     1     130.389 134.042 118.492  1.00  0.00    -0.507 OA
ATOM     23  H   UNL     1     130.682 134.217 119.440  1.00  0.00     0.293 HD
ENDBRANCH   6  22
BRANCH   8  24
ATOM     24  O   UNL     1     127.533 130.358 119.645  1.00  0.00    -0.508 OA
ATOM     25  H   UNL     1     127.003 129.526 119.413  1.00  0.00     0.293 HD
ENDBRANCH   8  24
TORSDOF 5
ENDMDL
MODEL 6
REMARK VINA RESULT:    -5.425      3.210      7.723
REMARK INTER + INTRA:          -6.658
REMARK INTER:                  -6.352
REMARK INTRA:                  -0.306
REMARK UNBOUND:                -0.281
REMARK SMILES O=c1cc(-c2ccc(O)c(O)c2)oc2cc(O)cc(O)c12
REMARK SMILES IDX 4 1 3 2 2 3 1 4 21 5 19 6 18 7 16 8 15 9 14 10 13 11 5 12
REMARK SMILES IDX 6 13 7 14 8 15 12 16 10 17 9 18 11 20 20 22 17 24
REMARK H PARENT 9 19 11 21 20 23 17 25
REMARK Flexibility Score: inf
ROOT
ATOM      1  C   UNL     1     129.736 129.795 111.733  1.00  0.00     0.138 A 
ATOM      2  C   UNL     1     129.730 131.188 111.888  1.00  0.00     0.100 A 
ATOM      3  C   UNL     1     130.039 131.746 113.129  1.00  0.00     0.197 A 
ATOM      4  O   UNL     1     129.964 132.996 113.254  1.00  0.00    -0.289 OA
ATOM      5  C   UNL     1     130.389 130.904 114.211  1.00  0.00     0.107 A 
ATOM      6  C   UNL     1     130.762 131.361 115.510  1.00  0.00     0.134 A 
ATOM      7  C   UNL     1     130.975 130.432 116.535  1.00  0.00     0.093 A 
ATOM      8  C   UNL     1     130.885 129.058 116.292  1.00  0.00     0.123 A 
ATOM      9  C   UNL     1     130.574 128.600 115.015  1.00  0.00     0.094 A 
ATOM     10  C   UNL     1     130.323 129.503 113.979  1.00  0.00     0.146 A 
ATOM     11  O   UNL     1     130.014 129.025 112.779  1.00  0.00    -0.456 OA
ENDROOT
BRANCH   1  12
ATOM     12  C   UNL     1     129.416 129.150 110.434  1.00  0.00     0.021 A 
ATOM     13  C   UNL     1     128.534 129.788 109.544  1.00  0.00     0.016 A 
ATOM     14  C   UNL     1     128.210 129.199 108.319  1.00  0.00     0.051 A 
ATOM     15  C   UNL     1     128.754 127.957 107.968  1.00  0.00     0.157 A 
ATOM     16  C   UNL     1     129.948 127.895 110.079  1.00  0.00     0.062 A 
ATOM     17  C   UNL     1     129.622 127.303 108.850  1.00  0.00     0.158 A 
BRANCH  15  18
ATOM     18  O   UNL     1     128.434 127.367 106.746  1.00  0.00    -0.504 OA
ATOM     19  H   UNL     1     127.925 126.491 106.699  1.00  0.00     0.293 HD
ENDBRANCH  15  18
BRANCH  17  20
ATOM     20  O   UNL     1     130.153 126.062 108.501  1.00  0.00    -0.504 OA
ATOM     21  H   UNL     1     131.145 125.936 108.342  1.00  0.00     0.293 HD
ENDBRANCH  17  20
ENDBRANCH   1  12
BRANCH   6  22
ATOM     22  O   UNL     1     130.963 132.706 115.836  1.00  0.00    -0.507 OA
ATOM     23  H   UNL     1     130.536 133.485 115.358  1.00  0.00     0.293 HD
ENDBRANCH   6  22
BRANCH   8  24
ATOM     24  O   UNL     1     131.112 128.140 117.316  1.00  0.00    -0.508 OA
ATOM     25  H   UNL     1     130.369 127.554 117.677  1.00  0.00     0.293 HD
ENDBRANCH   8  24
TORSDOF 5
ENDMDL
MODEL 7
REMARK VINA RESULT:    -5.205      2.586      7.367
REMARK INTER + INTRA:          -6.399
REMARK INTER:                  -6.119
REMARK INTRA:                  -0.279
REMARK UNBOUND:                -0.281
REMARK SMILES O=c1cc(-c2ccc(O)c(O)c2)oc2cc(O)cc(O)c12
REMARK SMILES IDX 4 1 3 2 2 3 1 4 21 5 19 6 18 7 16 8 15 9 14 10 13 11 5 12
REMARK SMILES IDX 6 13 7 14 8 15 12 16 10 17 9 18 11 20 20 22 17 24
REMARK H PARENT 9 19 11 21 20 23 17 25
REMARK Flexibility Score: inf
ROOT
ATOM      1  C   UNL     1     129.989 130.365 112.606  1.00  0.00     0.138 A 
ATOM      2  C   UNL     1     130.454 131.667 112.381  1.00  0.00     0.100 A 
ATOM      3  C   UNL     1     130.632 132.532 113.461  1.00  0.00     0.197 A 
ATOM      4  O   UNL     1     130.991 133.715 113.222  1.00  0.00    -0.289 OA
ATOM      5  C   UNL     1     130.373 132.079 114.776  1.00  0.00     0.107 A 
ATOM      6  C   UNL     1     130.557 132.859 115.957  1.00  0.00     0.134 A 
ATOM      7  C   UNL     1     130.157 132.342 117.195  1.00  0.00     0.093 A 
ATOM      8  C   UNL     1     129.633 131.051 117.302  1.00  0.00     0.123 A 
ATOM      9  C   UNL     1     129.499 130.261 116.163  1.00  0.00     0.094 A 
ATOM     10  C   UNL     1     129.858 130.761 114.909  1.00  0.00     0.146 A 
ATOM     11  O   UNL     1     129.700 129.981 113.844  1.00  0.00    -0.456 OA
ENDROOT
BRANCH   1  12
ATOM     12  C   UNL     1     129.783 129.403 111.493  1.00  0.00     0.021 A 
ATOM     13  C   UNL     1     130.180 128.064 111.654  1.00  0.00     0.016 A 
ATOM     14  C   UNL     1     130.005 127.140 110.620  1.00  0.00     0.051 A 
ATOM     15  C   UNL     1     129.439 127.542 109.404  1.00  0.00     0.157 A 
ATOM     16  C   UNL     1     129.227 129.802 110.261  1.00  0.00     0.062 A 
ATOM     17  C   UNL     1     129.052 128.876 109.224  1.00  0.00     0.158 A 
BRANCH  15  18
ATOM     18  O   UNL     1     129.261 126.624 108.370  1.00  0.00    -0.504 OA
ATOM     19  H   UNL     1     129.996 126.434 107.699  1.00  0.00     0.293 HD
ENDBRANCH  15  18
BRANCH  17  20
ATOM     20  O   UNL     1     128.499 129.274 108.007  1.00  0.00    -0.504 OA
ATOM     21  H   UNL     1     128.220 128.598 107.306  1.00  0.00     0.293 HD
ENDBRANCH  17  20
ENDBRANCH   1  12
BRANCH   6  22
ATOM     22  O   UNL     1     131.149 134.125 115.971  1.00  0.00    -0.507 OA
ATOM     23  H   UNL     1     130.804 134.918 116.489  1.00  0.00     0.293 HD
ENDBRANCH   6  22
BRANCH   8  24
ATOM     24  O   UNL     1     129.251 130.540 118.541  1.00  0.00    -0.508 OA
ATOM     25  H   UNL     1     128.969 129.574 118.652  1.00  0.00     0.293 HD
ENDBRANCH   8  24
TORSDOF 5
ENDMDL
MODEL 8
REMARK VINA RESULT:    -5.131      2.844      5.072
REMARK INTER + INTRA:          -6.311
REMARK INTER:                  -6.026
REMARK INTRA:                  -0.285
REMARK UNBOUND:                -0.281
REMARK SMILES O=c1cc(-c2ccc(O)c(O)c2)oc2cc(O)cc(O)c12
REMARK SMILES IDX 4 1 3 2 2 3 1 4 21 5 19 6 18 7 16 8 15 9 14 10 13 11 5 12
REMARK SMILES IDX 6 13 7 14 8 15 12 16 10 17 9 18 11 20 20 22 17 24
REMARK H PARENT 9 19 11 21 20 23 17 25
REMARK Flexibility Score: inf
ROOT
ATOM      1  C   UNL     1     130.054 129.785 112.868  1.00  0.00     0.138 A 
ATOM      2  C   UNL     1     130.340 128.460 113.220  1.00  0.00     0.100 A 
ATOM      3  C   UNL     1     130.162 127.442 112.282  1.00  0.00     0.197 A 
ATOM      4  O   UNL     1     130.366 126.255 112.647  1.00  0.00    -0.289 OA
ATOM      5  C   UNL     1     129.727 127.760 110.974  1.00  0.00     0.107 A 
ATOM      6  C   UNL     1     129.550 126.812 109.922  1.00  0.00     0.134 A 
ATOM      7  C   UNL     1     129.003 127.227 108.702  1.00  0.00     0.093 A 
ATOM      8  C   UNL     1     128.683 128.569 108.476  1.00  0.00     0.123 A 
ATOM      9  C   UNL     1     128.902 129.512 109.476  1.00  0.00     0.094 A 
ATOM     10  C   UNL     1     129.415 129.123 110.717  1.00  0.00     0.146 A 
ATOM     11  O   UNL     1     129.595 130.051 111.650  1.00  0.00    -0.456 OA
ENDROOT
BRANCH   1  12
ATOM     12  C   UNL     1     130.227 130.906 113.827  1.00  0.00     0.021 A 
ATOM     13  C   UNL     1     130.609 132.172 113.350  1.00  0.00     0.016 A 
ATOM     14  C   UNL     1     130.785 133.242 114.232  1.00  0.00     0.051 A 
ATOM     15  C   UNL     1     130.593 133.061 115.607  1.00  0.00     0.157 A 
ATOM     16  C   UNL     1     130.049 130.729 115.214  1.00  0.00     0.062 A 
ATOM     17  C   UNL     1     130.227 131.802 116.099  1.00  0.00     0.158 A 
BRANCH  15  18
ATOM     18  O   UNL     1     130.767 134.125 116.490  1.00  0.00    -0.504 OA
ATOM     19  H   UNL     1     130.008 134.760 116.709  1.00  0.00     0.293 HD
ENDBRANCH  15  18
BRANCH  17  20
ATOM     20  O   UNL     1     130.049 131.624 117.470  1.00  0.00    -0.504 OA
ATOM     21  H   UNL     1     130.786 131.250 118.056  1.00  0.00     0.293 HD
ENDBRANCH  17  20
ENDBRANCH   1  12
BRANCH   6  22
ATOM     22  O   UNL     1     129.917 125.466 110.016  1.00  0.00    -0.507 OA
ATOM     23  H   UNL     1     130.779 125.130 110.417  1.00  0.00     0.293 HD
ENDBRANCH   6  22
BRANCH   8  24
ATOM     24  O   UNL     1     128.153 128.975 107.253  1.00  0.00    -0.508 OA
ATOM     25  H   UNL     1     127.871 129.934 107.089  1.00  0.00     0.293 HD
ENDBRANCH   8  24
TORSDOF 5
ENDMDL
