MODEL 1
REMARK VINA RESULT:   123.297      0.000      0.000
REMARK INTER + INTRA:         134.672
REMARK INTER:                 134.109
REMARK INTRA:                   0.563
REMARK UNBOUND:                 0.563
REMARK SMILES C[C@H]1[C@H](C)CC[C@@]2(C(=O)[O-])CC[C@]3(C)C(=CC[C@@H]4[C@@]5(C)CC[C@@H](O)C(C)(C)[C@@H]5CC[C@@]43C)[C@@H]12
REMARK SMILES IDX 7 1 6 2 11 3 33 4 5 5 12 6 15 7 2 8 3 9 13 10 16 11 1 12
REMARK SMILES IDX 4 13 14 14 31 15 17 16 18 17 30 18 32 19 19 20 29 21 28 22
REMARK SMILES IDX 21 23 20 24 25 25 22 26 23 27 26 28 27 29 8 30 9 31 10 32
REMARK SMILES IDX 24 33
REMARK H PARENT 24 34
REMARK Flexibility Score: inf
ROOT
ATOM      1  C   UNL     1      16.565  52.890  62.283  1.00  0.00     0.017 C 
ATOM      2  C   UNL     1      15.247  52.343  62.910  1.00  0.00     0.014 C 
ATOM      3  C   UNL     1      17.608  51.724  62.220  1.00  0.00     0.014 C 
ATOM      4  C   UNL     1      16.241  53.444  60.853  1.00  0.00     0.030 C 
ATOM      5  C   UNL     1      14.142  53.403  62.992  1.00  0.00     0.004 C 
ATOM      6  C   UNL     1      18.426  51.678  60.911  1.00  0.00     0.013 C 
ATOM      7  C   UNL     1      16.227  52.282  59.838  1.00  0.00    -0.063 C 
ATOM      8  C   UNL     1      15.061  54.480  60.881  1.00  0.00    -0.003 C 
ATOM      9  C   UNL     1      13.784  53.954  61.600  1.00  0.00    -0.011 C 
ATOM     10  C   UNL     1      17.557  51.573  59.592  1.00  0.00    -0.006 C 
ATOM     11  C   UNL     1      15.157  51.958  59.102  1.00  0.00    -0.027 C 
ATOM     12  C   UNL     1      14.788  55.125  59.504  1.00  0.00     0.008 C 
ATOM     13  C   UNL     1      12.721  55.055  61.749  1.00  0.00     0.008 C 
ATOM     14  C   UNL     1      18.248  52.435  58.480  1.00  0.00     0.017 C 
ATOM     15  C   UNL     1      17.378  50.043  59.103  1.00  0.00    -0.020 C 
ATOM     16  C   UNL     1      15.058  50.747  58.235  1.00  0.00     0.032 C 
ATOM     17  C   UNL     1      16.365  49.959  57.876  1.00  0.00     0.006 C 
ATOM     18  C   UNL     1      16.775  49.138  60.238  1.00  0.00     0.008 C 
ATOM     19  C   UNL     1      18.817  49.512  58.724  1.00  0.00     0.012 C 
ATOM     20  C   UNL     1      16.035  48.459  57.320  1.00  0.00    -0.025 C 
ATOM     21  C   UNL     1      16.157  47.777  59.789  1.00  0.00     0.005 C 
ATOM     22  C   UNL     1      16.539  47.382  58.343  1.00  0.00     0.003 C 
ATOM     23  C   UNL     1      16.778  48.193  55.974  1.00  0.00     0.010 C 
ATOM     24  C   UNL     1      14.505  48.295  57.009  1.00  0.00     0.012 C 
ATOM     25  C   UNL     1      16.392  45.866  57.925  1.00  0.00    -0.006 C 
ATOM     26  C   UNL     1      16.660  46.733  55.471  1.00  0.00     0.033 C 
ATOM     27  C   UNL     1      17.077  45.676  56.522  1.00  0.00     0.120 C 
ATOM     28  C   UNL     1      14.925  45.351  57.898  1.00  0.00     0.014 C 
ATOM     29  C   UNL     1      17.149  44.965  58.947  1.00  0.00     0.014 C 
ENDROOT
BRANCH   1  30
ATOM     30  C   UNL     1      17.157  53.987  63.165  1.00  0.00     0.048 C 
ATOM     31  O   UNL     1      18.386  53.988  63.448  1.00  0.00    -0.550 OA
ATOM     32  O   UNL     1      16.381  55.068  63.573  1.00  0.00    -0.550 OA
ENDBRANCH   1  30
BRANCH  27  33
ATOM     33  O   UNL     1      18.479  45.717  56.656  1.00  0.00    -0.393 OA
ATOM     34  H   UNL     1      18.700  46.527  57.185  1.00  0.00     0.210 HD
ENDBRANCH  27  33
TORSDOF 2
ENDMDL
