MODEL 1
REMARK VINA RESULT:    -5.364      0.000      0.000
REMARK INTER + INTRA:         -17.321
REMARK INTER:                 -14.143
REMARK INTRA:                  -3.178
REMARK UNBOUND:                -3.178
REMARK SMILES CCCCCCCCCCCCCCCCCCCCCCCCCCCCCC(=O)[O-]
REMARK SMILES IDX 16 1 17 2 18 3 19 4 20 5 21 6 22 7 23 8 24 9 25 10 26 11
REMARK SMILES IDX 27 12 28 13 29 14 30 15 31 16 32 17 15 18 14 19 13 20 12 21
REMARK SMILES IDX 11 22 10 23 9 24 8 25 7 26 6 27 5 28 4 29 3 30 2 31 1 32
REMARK H PARENT
REMARK Flexibility Score: inf
ROOT
ATOM      1  C   UNL     1     101.143 128.241 124.437  1.00  0.00     0.000 C 
ENDROOT
BRANCH   1   2
ATOM      2  C   UNL     1     101.961 129.154 125.371  1.00  0.00     0.000 C 
BRANCH   2   3
ATOM      3  C   UNL     1     101.153 130.253 126.088  1.00  0.00     0.000 C 
BRANCH   3   4
ATOM      4  C   UNL     1     101.323 130.297 127.618  1.00  0.00     0.000 C 
BRANCH   4   5
ATOM      5  C   UNL     1     101.789 128.954 128.205  1.00  0.00     0.000 C 
BRANCH   5   6
ATOM      6  C   UNL     1     100.614 128.038 128.590  1.00  0.00     0.000 C 
BRANCH   6   7
ATOM      7  C   UNL     1     101.060 126.812 129.407  1.00  0.00     0.000 C 
BRANCH   7   8
ATOM      8  C   UNL     1     100.856 125.493 128.645  1.00  0.00     0.000 C 
BRANCH   8   9
ATOM      9  C   UNL     1      99.432 124.932 128.804  1.00  0.00     0.000 C 
BRANCH   9  10
ATOM     10  C   UNL     1      98.671 125.577 129.974  1.00  0.00     0.000 C 
BRANCH  10  11
ATOM     11  C   UNL     1      97.268 126.064 129.573  1.00  0.00     0.000 C 
BRANCH  11  12
ATOM     12  C   UNL     1      96.799 127.269 130.405  1.00  0.00     0.000 C 
BRANCH  12  13
ATOM     13  C   UNL     1      97.970 128.115 130.929  1.00  0.00     0.006 C 
BRANCH  13  14
ATOM     14  C   UNL     1      97.607 129.603 130.950  1.00  0.00     0.053 C 
BRANCH  14  15
ATOM     15  C   UNL     1      97.029 130.025 129.635  1.00  0.00     0.041 C 
ATOM     16  O   UNL     1      97.764 130.102 128.614  1.00  0.00    -0.550 OA
ATOM     17  O   UNL     1      95.674 130.310 129.530  1.00  0.00    -0.550 OA
ENDBRANCH  14  15
ENDBRANCH  13  14
ENDBRANCH  12  13
ENDBRANCH  11  12
ENDBRANCH  10  11
ENDBRANCH   9  10
ENDBRANCH   8   9
ENDBRANCH   7   8
ENDBRANCH   6   7
ENDBRANCH   5   6
ENDBRANCH   4   5
ENDBRANCH   3   4
ENDBRANCH   2   3
ENDBRANCH   1   2
BRANCH   1  18
ATOM     18  C   UNL     1     100.440 127.055 125.130  1.00  0.00     0.000 C 
BRANCH  18  19
ATOM     19  C   UNL     1      98.930 127.236 125.367  1.00  0.00     0.000 C 
BRANCH  19  20
ATOM     20  C   UNL     1      98.230 125.931 125.777  1.00  0.00     0.000 C 
BRANCH  20  21
ATOM     21  C   UNL     1      97.152 125.492 124.771  1.00  0.00     0.000 C 
BRANCH  21  22
ATOM     22  C   UNL     1      96.414 124.181 125.121  1.00  0.00     0.000 C 
BRANCH  22  23
ATOM     23  C   UNL     1      97.133 122.887 124.700  1.00  0.00     0.000 C 
BRANCH  23  24
ATOM     24  C   UNL     1      96.486 122.214 123.479  1.00  0.00    -0.000 C 
BRANCH  24  25
ATOM     25  C   UNL     1      95.315 123.029 122.899  1.00  0.00    -0.000 C 
BRANCH  25  26
ATOM     26  C   UNL     1      93.923 122.385 123.062  1.00  0.00    -0.000 C 
BRANCH  26  27
ATOM     27  C   UNL     1      93.601 121.263 122.059  1.00  0.00    -0.000 C 
BRANCH  27  28
ATOM     28  C   UNL     1      93.613 121.744 120.600  1.00  0.00    -0.000 C 
BRANCH  28  29
ATOM     29  C   UNL     1      94.563 120.890 119.747  1.00  0.00    -0.000 C 
BRANCH  29  30
ATOM     30  C   UNL     1      94.243 120.956 118.243  1.00  0.00    -0.000 C 
BRANCH  30  31
ATOM     31  C   UNL     1      92.747 121.089 117.905  1.00  0.00    -0.003 C 
ATOM     32  C   UNL     1      92.424 122.352 117.110  1.00  0.00     0.004 C 
ENDBRANCH  30  31
ENDBRANCH  29  30
ENDBRANCH  28  29
ENDBRANCH  27  28
ENDBRANCH  26  27
ENDBRANCH  25  26
ENDBRANCH  24  25
ENDBRANCH  23  24
ENDBRANCH  22  23
ENDBRANCH  21  22
ENDBRANCH  20  21
ENDBRANCH  19  20
ENDBRANCH  18  19
ENDBRANCH   1  18
TORSDOF 28
ENDMDL
MODEL 2
REMARK VINA RESULT:    -5.080      4.187     10.760
REMARK INTER + INTRA:         -16.574
REMARK INTER:                 -12.761
REMARK INTRA:                  -3.812
REMARK UNBOUND:                -3.178
REMARK SMILES CCCCCCCCCCCCCCCCCCCCCCCCCCCCCC(=O)[O-]
REMARK SMILES IDX 16 1 17 2 18 3 19 4 20 5 21 6 22 7 23 8 24 9 25 10 26 11
REMARK SMILES IDX 27 12 28 13 29 14 30 15 31 16 32 17 15 18 14 19 13 20 12 21
REMARK SMILES IDX 11 22 10 23 9 24 8 25 7 26 6 27 5 28 4 29 3 30 2 31 1 32
REMARK H PARENT
REMARK Flexibility Score: inf
ROOT
ATOM      1  C   UNL     1      99.878 125.445 129.563  1.00  0.00     0.000 C 
ENDROOT
BRANCH   1   2
ATOM      2  C   UNL     1      98.567 124.677 129.302  1.00  0.00     0.000 C 
BRANCH   2   3
ATOM      3  C   UNL     1      98.145 124.584 127.822  1.00  0.00     0.000 C 
BRANCH   3   4
ATOM      4  C   UNL     1      98.376 123.213 127.162  1.00  0.00     0.000 C 
BRANCH   4   5
ATOM      5  C   UNL     1      97.807 123.134 125.735  1.00  0.00     0.000 C 
BRANCH   5   6
ATOM      6  C   UNL     1      96.769 124.232 125.452  1.00  0.00     0.000 C 
BRANCH   6   7
ATOM      7  C   UNL     1      96.125 124.097 124.060  1.00  0.00     0.000 C 
BRANCH   7   8
ATOM      8  C   UNL     1      94.591 124.147 124.115  1.00  0.00     0.000 C 
BRANCH   8   9
ATOM      9  C   UNL     1      93.937 122.876 123.543  1.00  0.00     0.000 C 
BRANCH   9  10
ATOM     10  C   UNL     1      94.944 121.971 122.817  1.00  0.00     0.000 C 
BRANCH  10  11
ATOM     11  C   UNL     1      94.266 120.977 121.858  1.00  0.00     0.000 C 
BRANCH  11  12
ATOM     12  C   UNL     1      94.645 121.218 120.388  1.00  0.00     0.000 C 
BRANCH  12  13
ATOM     13  C   UNL     1      93.423 121.226 119.457  1.00  0.00     0.006 C 
BRANCH  13  14
ATOM     14  C   UNL     1      93.848 121.113 117.989  1.00  0.00     0.053 C 
BRANCH  14  15
ATOM     15  C   UNL     1      92.670 121.288 117.082  1.00  0.00     0.041 C 
ATOM     16  O   UNL     1      92.803 121.147 115.837  1.00  0.00    -0.550 OA
ATOM     17  O   UNL     1      91.421 121.581 117.612  1.00  0.00    -0.550 OA
ENDBRANCH  14  15
ENDBRANCH  13  14
ENDBRANCH  12  13
ENDBRANCH  11  12
ENDBRANCH  10  11
ENDBRANCH   9  10
ENDBRANCH   8   9
ENDBRANCH   7   8
ENDBRANCH   6   7
ENDBRANCH   5   6
ENDBRANCH   4   5
ENDBRANCH   3   4
ENDBRANCH   2   3
ENDBRANCH   1   2
BRANCH   1  18
ATOM     18  C   UNL     1     101.162 124.728 129.097  1.00  0.00     0.000 C 
BRANCH  18  19
ATOM     19  C   UNL     1     101.950 125.450 127.990  1.00  0.00     0.000 C 
BRANCH  19  20
ATOM     20  C   UNL     1     101.509 125.037 126.577  1.00  0.00     0.000 C 
BRANCH  20  21
ATOM     21  C   UNL     1     100.839 126.185 125.801  1.00  0.00     0.000 C 
BRANCH  21  22
ATOM     22  C   UNL     1     100.463 127.422 126.644  1.00  0.00     0.000 C 
BRANCH  22  23
ATOM     23  C   UNL     1     100.414 128.754 125.875  1.00  0.00     0.000 C 
BRANCH  23  24
ATOM     24  C   UNL     1     100.587 129.979 126.789  1.00  0.00    -0.000 C 
BRANCH  24  25
ATOM     25  C   UNL     1     101.682 129.779 127.852  1.00  0.00    -0.000 C 
BRANCH  25  26
ATOM     26  C   UNL     1     101.327 130.291 129.264  1.00  0.00    -0.000 C 
BRANCH  26  27
ATOM     27  C   UNL     1     101.454 129.248 130.388  1.00  0.00    -0.000 C 
BRANCH  27  28
ATOM     28  C   UNL     1     100.115 128.581 130.738  1.00  0.00    -0.000 C 
BRANCH  28  29
ATOM     29  C   UNL     1      98.951 129.571 130.585  1.00  0.00    -0.000 C 
BRANCH  29  30
ATOM     30  C   UNL     1      97.571 128.896 130.683  1.00  0.00    -0.000 C 
BRANCH  30  31
ATOM     31  C   UNL     1      97.187 128.029 129.471  1.00  0.00    -0.003 C 
ATOM     32  C   UNL     1      97.335 128.764 128.139  1.00  0.00     0.004 C 
ENDBRANCH  30  31
ENDBRANCH  29  30
ENDBRANCH  28  29
ENDBRANCH  27  28
ENDBRANCH  26  27
ENDBRANCH  25  26
ENDBRANCH  24  25
ENDBRANCH  23  24
ENDBRANCH  22  23
ENDBRANCH  21  22
ENDBRANCH  20  21
ENDBRANCH  19  20
ENDBRANCH  18  19
ENDBRANCH   1  18
TORSDOF 28
ENDMDL
MODEL 3
REMARK VINA RESULT:    -5.014      1.949      3.149
REMARK INTER + INTRA:         -16.399
REMARK INTER:                 -13.501
REMARK INTRA:                  -2.898
REMARK UNBOUND:                -3.178
REMARK SMILES CCCCCCCCCCCCCCCCCCCCCCCCCCCCCC(=O)[O-]
REMARK SMILES IDX 16 1 17 2 18 3 19 4 20 5 21 6 22 7 23 8 24 9 25 10 26 11
REMARK SMILES IDX 27 12 28 13 29 14 30 15 31 16 32 17 15 18 14 19 13 20 12 21
REMARK SMILES IDX 11 22 10 23 9 24 8 25 7 26 6 27 5 28 4 29 3 30 2 31 1 32
REMARK H PARENT
REMARK Flexibility Score: inf
ROOT
ATOM      1  C   UNL     1     101.684 126.039 125.801  1.00  0.00     0.000 C 
ENDROOT
BRANCH   1   2
ATOM      2  C   UNL     1     100.255 126.611 125.875  1.00  0.00     0.000 C 
BRANCH   2   3
ATOM      3  C   UNL     1     100.053 127.966 125.168  1.00  0.00     0.000 C 
BRANCH   3   4
ATOM      4  C   UNL     1     100.952 129.108 125.677  1.00  0.00     0.000 C 
BRANCH   4   5
ATOM      5  C   UNL     1     100.315 129.900 126.832  1.00  0.00     0.000 C 
BRANCH   5   6
ATOM      6  C   UNL     1     101.311 130.197 127.965  1.00  0.00     0.000 C 
BRANCH   6   7
ATOM      7  C   UNL     1     101.189 129.208 129.138  1.00  0.00     0.000 C 
BRANCH   7   8
ATOM      8  C   UNL     1     100.549 129.847 130.380  1.00  0.00     0.000 C 
BRANCH   8   9
ATOM      9  C   UNL     1      99.314 129.072 130.873  1.00  0.00     0.000 C 
BRANCH   9  10
ATOM     10  C   UNL     1      97.998 129.803 130.565  1.00  0.00     0.000 C 
BRANCH  10  11
ATOM     11  C   UNL     1      97.546 129.623 129.105  1.00  0.00     0.000 C 
BRANCH  11  12
ATOM     12  C   UNL     1      96.289 128.747 128.977  1.00  0.00     0.000 C 
BRANCH  12  13
ATOM     13  C   UNL     1      96.472 127.359 129.610  1.00  0.00     0.006 C 
BRANCH  13  14
ATOM     14  C   UNL     1      97.326 126.454 128.716  1.00  0.00     0.053 C 
BRANCH  14  15
ATOM     15  C   UNL     1      98.063 125.442 129.537  1.00  0.00     0.041 C 
ATOM     16  O   UNL     1      97.608 124.274 129.662  1.00  0.00    -0.550 OA
ATOM     17  O   UNL     1      99.266 125.781 130.143  1.00  0.00    -0.550 OA
ENDBRANCH  14  15
ENDBRANCH  13  14
ENDBRANCH  12  13
ENDBRANCH  11  12
ENDBRANCH  10  11
ENDBRANCH   9  10
ENDBRANCH   8   9
ENDBRANCH   7   8
ENDBRANCH   6   7
ENDBRANCH   5   6
ENDBRANCH   4   5
ENDBRANCH   3   4
ENDBRANCH   2   3
ENDBRANCH   1   2
BRANCH   1  18
ATOM     18  C   UNL     1     101.948 124.815 126.702  1.00  0.00     0.000 C 
BRANCH  18  19
ATOM     19  C   UNL     1     100.698 124.209 127.366  1.00  0.00     0.000 C 
BRANCH  19  20
ATOM     20  C   UNL     1     100.551 122.703 127.100  1.00  0.00     0.000 C 
BRANCH  20  21
ATOM     21  C   UNL     1      99.102 122.291 126.786  1.00  0.00     0.000 C 
BRANCH  21  22
ATOM     22  C   UNL     1      98.185 123.427 126.286  1.00  0.00     0.000 C 
BRANCH  22  23
ATOM     23  C   UNL     1      97.289 123.072 125.086  1.00  0.00     0.000 C 
BRANCH  23  24
ATOM     24  C   UNL     1      95.950 123.827 125.096  1.00  0.00    -0.000 C 
BRANCH  24  25
ATOM     25  C   UNL     1      95.350 123.996 123.689  1.00  0.00    -0.000 C 
BRANCH  25  26
ATOM     26  C   UNL     1      94.236 122.993 123.325  1.00  0.00    -0.000 C 
BRANCH  26  27
ATOM     27  C   UNL     1      94.727 121.613 122.854  1.00  0.00    -0.000 C 
BRANCH  27  28
ATOM     28  C   UNL     1      95.196 121.613 121.391  1.00  0.00    -0.000 C 
BRANCH  28  29
ATOM     29  C   UNL     1      94.111 121.042 120.465  1.00  0.00    -0.000 C 
BRANCH  29  30
ATOM     30  C   UNL     1      94.462 121.178 118.973  1.00  0.00    -0.000 C 
BRANCH  30  31
ATOM     31  C   UNL     1      93.261 121.089 118.015  1.00  0.00    -0.003 C 
ATOM     32  C   UNL     1      92.753 122.458 117.564  1.00  0.00     0.004 C 
ENDBRANCH  30  31
ENDBRANCH  29  30
ENDBRANCH  28  29
ENDBRANCH  27  28
ENDBRANCH  26  27
ENDBRANCH  25  26
ENDBRANCH  24  25
ENDBRANCH  23  24
ENDBRANCH  22  23
ENDBRANCH  21  22
ENDBRANCH  20  21
ENDBRANCH  19  20
ENDBRANCH  18  19
ENDBRANCH   1  18
TORSDOF 28
ENDMDL
MODEL 4
REMARK VINA RESULT:    -4.581      1.867      4.783
REMARK INTER + INTRA:         -15.258
REMARK INTER:                 -11.917
REMARK INTRA:                  -3.340
REMARK UNBOUND:                -3.178
REMARK SMILES CCCCCCCCCCCCCCCCCCCCCCCCCCCCCC(=O)[O-]
REMARK SMILES IDX 16 1 17 2 18 3 19 4 20 5 21 6 22 7 23 8 24 9 25 10 26 11
REMARK SMILES IDX 27 12 28 13 29 14 30 15 31 16 32 17 15 18 14 19 13 20 12 21
REMARK SMILES IDX 11 22 10 23 9 24 8 25 7 26 6 27 5 28 4 29 3 30 2 31 1 32
REMARK H PARENT
REMARK Flexibility Score: inf
ROOT
ATOM      1  C   UNL     1      99.888 125.357 130.151  1.00  0.00     0.000 C 
ENDROOT
BRANCH   1   2
ATOM      2  C   UNL     1      98.998 125.816 128.979  1.00  0.00     0.000 C 
BRANCH   2   3
ATOM      3  C   UNL     1      97.481 125.678 129.212  1.00  0.00     0.000 C 
BRANCH   3   4
ATOM      4  C   UNL     1      96.903 126.596 130.305  1.00  0.00     0.000 C 
BRANCH   4   5
ATOM      5  C   UNL     1      96.081 127.762 129.730  1.00  0.00     0.000 C 
BRANCH   5   6
ATOM      6  C   UNL     1      95.861 128.890 130.753  1.00  0.00     0.000 C 
BRANCH   6   7
ATOM      7  C   UNL     1      96.507 130.219 130.321  1.00  0.00     0.000 C 
BRANCH   7   8
ATOM      8  C   UNL     1      96.976 130.195 128.858  1.00  0.00     0.000 C 
BRANCH   8   9
ATOM      9  C   UNL     1      98.507 130.101 128.730  1.00  0.00     0.000 C 
BRANCH   9  10
ATOM     10  C   UNL     1      99.179 129.612 130.022  1.00  0.00     0.000 C 
BRANCH  10  11
ATOM     11  C   UNL     1     100.573 129.009 129.776  1.00  0.00     0.000 C 
BRANCH  11  12
ATOM     12  C   UNL     1     101.507 129.965 129.018  1.00  0.00     0.000 C 
BRANCH  12  13
ATOM     13  C   UNL     1     102.030 129.361 127.706  1.00  0.00     0.006 C 
BRANCH  13  14
ATOM     14  C   UNL     1     101.401 127.989 127.442  1.00  0.00     0.053 C 
BRANCH  14  15
ATOM     15  C   UNL     1     100.680 127.981 126.129  1.00  0.00     0.041 C 
ATOM     16  O   UNL     1     100.277 129.061 125.621  1.00  0.00    -0.550 OA
ATOM     17  O   UNL     1     100.476 126.784 125.455  1.00  0.00    -0.550 OA
ENDBRANCH  14  15
ENDBRANCH  13  14
ENDBRANCH  12  13
ENDBRANCH  11  12
ENDBRANCH  10  11
ENDBRANCH   9  10
ENDBRANCH   8   9
ENDBRANCH   7   8
ENDBRANCH   6   7
ENDBRANCH   5   6
ENDBRANCH   4   5
ENDBRANCH   3   4
ENDBRANCH   2   3
ENDBRANCH   1   2
BRANCH   1  18
ATOM     18  C   UNL     1     101.095 124.482 129.755  1.00  0.00     0.000 C 
BRANCH  18  19
ATOM     19  C   UNL     1     100.772 123.001 129.488  1.00  0.00     0.000 C 
BRANCH  19  20
ATOM     20  C   UNL     1     100.950 122.608 128.013  1.00  0.00     0.000 C 
BRANCH  20  21
ATOM     21  C   UNL     1      99.919 123.278 127.088  1.00  0.00     0.000 C 
BRANCH  21  22
ATOM     22  C   UNL     1      98.961 122.314 126.356  1.00  0.00     0.000 C 
BRANCH  22  23
ATOM     23  C   UNL     1      97.574 122.891 126.021  1.00  0.00     0.000 C 
BRANCH  23  24
ATOM     24  C   UNL     1      97.606 124.404 125.749  1.00  0.00    -0.000 C 
BRANCH  24  25
ATOM     25  C   UNL     1      96.580 124.840 124.687  1.00  0.00    -0.000 C 
BRANCH  25  26
ATOM     26  C   UNL     1      95.384 123.884 124.497  1.00  0.00    -0.000 C 
BRANCH  26  27
ATOM     27  C   UNL     1      95.242 123.289 123.086  1.00  0.00    -0.000 C 
BRANCH  27  28
ATOM     28  C   UNL     1      94.345 122.042 123.051  1.00  0.00    -0.000 C 
BRANCH  28  29
ATOM     29  C   UNL     1      94.333 121.410 121.651  1.00  0.00    -0.000 C 
BRANCH  29  30
ATOM     30  C   UNL     1      93.003 121.624 120.907  1.00  0.00    -0.000 C 
BRANCH  30  31
ATOM     31  C   UNL     1      93.108 121.587 119.372  1.00  0.00    -0.003 C 
ATOM     32  C   UNL     1      94.501 121.204 118.876  1.00  0.00     0.004 C 
ENDBRANCH  30  31
ENDBRANCH  29  30
ENDBRANCH  28  29
ENDBRANCH  27  28
ENDBRANCH  26  27
ENDBRANCH  25  26
ENDBRANCH  24  25
ENDBRANCH  23  24
ENDBRANCH  22  23
ENDBRANCH  21  22
ENDBRANCH  20  21
ENDBRANCH  19  20
ENDBRANCH  18  19
ENDBRANCH   1  18
TORSDOF 28
ENDMDL
MODEL 5
REMARK VINA RESULT:    -4.549      3.785     10.415
REMARK INTER + INTRA:         -15.172
REMARK INTER:                 -12.506
REMARK INTRA:                  -2.666
REMARK UNBOUND:                -3.178
REMARK SMILES CCCCCCCCCCCCCCCCCCCCCCCCCCCCCC(=O)[O-]
REMARK SMILES IDX 16 1 17 2 18 3 19 4 20 5 21 6 22 7 23 8 24 9 25 10 26 11
REMARK SMILES IDX 27 12 28 13 29 14 30 15 31 16 32 17 15 18 14 19 13 20 12 21
REMARK SMILES IDX 11 22 10 23 9 24 8 25 7 26 6 27 5 28 4 29 3 30 2 31 1 32
REMARK H PARENT
REMARK Flexibility Score: inf
ROOT
ATOM      1  C   UNL     1      99.007 127.320 126.111  1.00  0.00     0.000 C 
ENDROOT
BRANCH   1   2
ATOM      2  C   UNL     1      97.730 126.517 125.795  1.00  0.00     0.000 C 
BRANCH   2   3
ATOM      3  C   UNL     1      97.620 125.153 126.503  1.00  0.00     0.000 C 
BRANCH   3   4
ATOM      4  C   UNL     1      97.030 124.018 125.646  1.00  0.00     0.000 C 
BRANCH   4   5
ATOM      5  C   UNL     1      96.243 124.536 124.430  1.00  0.00     0.000 C 
BRANCH   5   6
ATOM      6  C   UNL     1      95.459 123.422 123.716  1.00  0.00     0.000 C 
BRANCH   6   7
ATOM      7  C   UNL     1      96.375 122.437 122.966  1.00  0.00     0.000 C 
BRANCH   7   8
ATOM      8  C   UNL     1      95.712 121.864 121.703  1.00  0.00     0.000 C 
BRANCH   8   9
ATOM      9  C   UNL     1      94.188 121.714 121.852  1.00  0.00     0.000 C 
BRANCH   9  10
ATOM     10  C   UNL     1      93.507 121.282 120.544  1.00  0.00     0.000 C 
BRANCH  10  11
ATOM     11  C   UNL     1      94.503 121.116 119.383  1.00  0.00     0.000 C 
BRANCH  11  12
ATOM     12  C   UNL     1      93.806 120.922 118.027  1.00  0.00     0.000 C 
BRANCH  12  13
ATOM     13  C   UNL     1      92.449 121.641 117.953  1.00  0.00     0.006 C 
BRANCH  13  14
ATOM     14  C   UNL     1      92.307 122.414 116.638  1.00  0.00     0.053 C 
BRANCH  14  15
ATOM     15  C   UNL     1      92.675 123.853 116.828  1.00  0.00     0.041 C 
ATOM     16  O   UNL     1      93.717 124.162 117.466  1.00  0.00    -0.550 OA
ATOM     17  O   UNL     1      91.882 124.852 116.279  1.00  0.00    -0.550 OA
ENDBRANCH  14  15
ENDBRANCH  13  14
ENDBRANCH  12  13
ENDBRANCH  11  12
ENDBRANCH  10  11
ENDBRANCH   9  10
ENDBRANCH   8   9
ENDBRANCH   7   8
ENDBRANCH   6   7
ENDBRANCH   5   6
ENDBRANCH   4   5
ENDBRANCH   3   4
ENDBRANCH   2   3
ENDBRANCH   1   2
BRANCH   1  18
ATOM     18  C   UNL     1     100.314 126.720 125.554  1.00  0.00     0.000 C 
BRANCH  18  19
ATOM     19  C   UNL     1     101.384 126.388 126.610  1.00  0.00     0.000 C 
BRANCH  19  20
ATOM     20  C   UNL     1     102.125 125.073 126.316  1.00  0.00     0.000 C 
BRANCH  20  21
ATOM     21  C   UNL     1     101.711 123.932 127.261  1.00  0.00     0.000 C 
BRANCH  21  22
ATOM     22  C   UNL     1     100.402 123.204 126.887  1.00  0.00     0.000 C 
BRANCH  22  23
ATOM     23  C   UNL     1      99.969 122.088 127.854  1.00  0.00     0.000 C 
BRANCH  23  24
ATOM     24  C   UNL     1     100.150 122.472 129.331  1.00  0.00    -0.000 C 
BRANCH  24  25
ATOM     25  C   UNL     1      98.812 122.632 130.074  1.00  0.00    -0.000 C 
BRANCH  25  26
ATOM     26  C   UNL     1      97.957 123.839 129.635  1.00  0.00    -0.000 C 
BRANCH  26  27
ATOM     27  C   UNL     1      98.041 125.069 130.556  1.00  0.00    -0.000 C 
BRANCH  27  28
ATOM     28  C   UNL     1      97.191 126.248 130.057  1.00  0.00    -0.000 C 
BRANCH  28  29
ATOM     29  C   UNL     1      97.902 127.585 130.309  1.00  0.00    -0.000 C 
BRANCH  29  30
ATOM     30  C   UNL     1      96.964 128.669 130.869  1.00  0.00    -0.000 C 
BRANCH  30  31
ATOM     31  C   UNL     1      96.211 129.487 129.805  1.00  0.00    -0.003 C 
ATOM     32  C   UNL     1      97.134 130.069 128.736  1.00  0.00     0.004 C 
ENDBRANCH  30  31
ENDBRANCH  29  30
ENDBRANCH  28  29
ENDBRANCH  27  28
ENDBRANCH  26  27
ENDBRANCH  25  26
ENDBRANCH  24  25
ENDBRANCH  23  24
ENDBRANCH  22  23
ENDBRANCH  21  22
ENDBRANCH  20  21
ENDBRANCH  19  20
ENDBRANCH  18  19
ENDBRANCH   1  18
TORSDOF 28
ENDMDL
MODEL 6
REMARK VINA RESULT:    -4.406      3.686     10.602
REMARK INTER + INTRA:         -14.796
REMARK INTER:                 -12.008
REMARK INTRA:                  -2.788
REMARK UNBOUND:                -3.178
REMARK SMILES CCCCCCCCCCCCCCCCCCCCCCCCCCCCCC(=O)[O-]
REMARK SMILES IDX 16 1 17 2 18 3 19 4 20 5 21 6 22 7 23 8 24 9 25 10 26 11
REMARK SMILES IDX 27 12 28 13 29 14 30 15 31 16 32 17 15 18 14 19 13 20 12 21
REMARK SMILES IDX 11 22 10 23 9 24 8 25 7 26 6 27 5 28 4 29 3 30 2 31 1 32
REMARK H PARENT
REMARK Flexibility Score: inf
ROOT
ATOM      1  C   UNL     1      99.423 125.160 126.543  1.00  0.00     0.000 C 
ENDROOT
BRANCH   1   2
ATOM      2  C   UNL     1      98.090 125.933 126.573  1.00  0.00     0.000 C 
BRANCH   2   3
ATOM      3  C   UNL     1      97.606 126.459 125.208  1.00  0.00     0.000 C 
BRANCH   3   4
ATOM      4  C   UNL     1      96.884 125.423 124.327  1.00  0.00     0.000 C 
BRANCH   4   5
ATOM      5  C   UNL     1      96.515 124.142 125.094  1.00  0.00     0.000 C 
BRANCH   5   6
ATOM      6  C   UNL     1      95.783 123.116 124.212  1.00  0.00     0.000 C 
BRANCH   6   7
ATOM      7  C   UNL     1      94.274 123.399 124.097  1.00  0.00     0.000 C 
BRANCH   7   8
ATOM      8  C   UNL     1      93.617 122.621 122.947  1.00  0.00     0.000 C 
BRANCH   8   9
ATOM      9  C   UNL     1      94.627 121.779 122.149  1.00  0.00     0.000 C 
BRANCH   9  10
ATOM     10  C   UNL     1      93.975 121.025 120.980  1.00  0.00     0.000 C 
BRANCH  10  11
ATOM     11  C   UNL     1      94.550 121.435 119.613  1.00  0.00     0.000 C 
BRANCH  11  12
ATOM     12  C   UNL     1      93.675 120.970 118.438  1.00  0.00     0.000 C 
BRANCH  12  13
ATOM     13  C   UNL     1      92.413 121.830 118.267  1.00  0.00     0.006 C 
BRANCH  13  14
ATOM     14  C   UNL     1      92.353 122.447 116.866  1.00  0.00     0.053 C 
BRANCH  14  15
ATOM     15  C   UNL     1      92.641 123.916 116.922  1.00  0.00     0.041 C 
ATOM     16  O   UNL     1      93.589 124.349 117.629  1.00  0.00    -0.550 OA
ATOM     17  O   UNL     1      91.878 124.803 116.174  1.00  0.00    -0.550 OA
ENDBRANCH  14  15
ENDBRANCH  13  14
ENDBRANCH  12  13
ENDBRANCH  11  12
ENDBRANCH  10  11
ENDBRANCH   9  10
ENDBRANCH   8   9
ENDBRANCH   7   8
ENDBRANCH   6   7
ENDBRANCH   5   6
ENDBRANCH   4   5
ENDBRANCH   3   4
ENDBRANCH   2   3
ENDBRANCH   1   2
BRANCH   1  18
ATOM     18  C   UNL     1     100.624 125.899 127.167  1.00  0.00     0.000 C 
BRANCH  18  19
ATOM     19  C   UNL     1     101.636 126.473 126.160  1.00  0.00     0.000 C 
BRANCH  19  20
ATOM     20  C   UNL     1     100.987 127.417 125.135  1.00  0.00     0.000 C 
BRANCH  20  21
ATOM     21  C   UNL     1     101.251 128.902 125.442  1.00  0.00     0.000 C 
BRANCH  21  22
ATOM     22  C   UNL     1     101.840 129.195 126.838  1.00  0.00     0.000 C 
BRANCH  22  23
ATOM     23  C   UNL     1     100.809 129.360 127.969  1.00  0.00     0.000 C 
BRANCH  23  24
ATOM     24  C   UNL     1      99.411 129.737 127.452  1.00  0.00    -0.000 C 
BRANCH  24  25
ATOM     25  C   UNL     1      98.278 129.116 128.288  1.00  0.00    -0.000 C 
BRANCH  25  26
ATOM     26  C   UNL     1      97.868 129.921 129.539  1.00  0.00    -0.000 C 
BRANCH  26  27
ATOM     27  C   UNL     1      98.035 129.181 130.877  1.00  0.00    -0.000 C 
BRANCH  27  28
ATOM     28  C   UNL     1      98.664 127.788 130.714  1.00  0.00    -0.000 C 
BRANCH  28  29
ATOM     29  C   UNL     1      97.601 126.687 130.833  1.00  0.00    -0.000 C 
BRANCH  29  30
ATOM     30  C   UNL     1      97.966 125.412 130.051  1.00  0.00    -0.000 C 
BRANCH  30  31
ATOM     31  C   UNL     1      97.888 124.109 130.866  1.00  0.00    -0.003 C 
ATOM     32  C   UNL     1      98.583 122.933 130.181  1.00  0.00     0.004 C 
ENDBRANCH  30  31
ENDBRANCH  29  30
ENDBRANCH  28  29
ENDBRANCH  27  28
ENDBRANCH  26  27
ENDBRANCH  25  26
ENDBRANCH  24  25
ENDBRANCH  23  24
ENDBRANCH  22  23
ENDBRANCH  21  22
ENDBRANCH  20  21
ENDBRANCH  19  20
ENDBRANCH  18  19
ENDBRANCH   1  18
TORSDOF 28
ENDMDL
MODEL 7
REMARK VINA RESULT:    -4.304      1.857      4.235
REMARK INTER + INTRA:         -14.526
REMARK INTER:                 -10.951
REMARK INTRA:                  -3.575
REMARK UNBOUND:                -3.178
REMARK SMILES CCCCCCCCCCCCCCCCCCCCCCCCCCCCCC(=O)[O-]
REMARK SMILES IDX 16 1 17 2 18 3 19 4 20 5 21 6 22 7 23 8 24 9 25 10 26 11
REMARK SMILES IDX 27 12 28 13 29 14 30 15 31 16 32 17 15 18 14 19 13 20 12 21
REMARK SMILES IDX 11 22 10 23 9 24 8 25 7 26 6 27 5 28 4 29 3 30 2 31 1 32
REMARK H PARENT
REMARK Flexibility Score: inf
ROOT
ATOM      1  C   UNL     1     101.801 126.160 128.203  1.00  0.00     0.000 C 
ENDROOT
BRANCH   1   2
ATOM      2  C   UNL     1     101.252 125.538 126.904  1.00  0.00     0.000 C 
BRANCH   2   3
ATOM      3  C   UNL     1     101.641 126.275 125.608  1.00  0.00     0.000 C 
BRANCH   3   4
ATOM      4  C   UNL     1     100.617 127.314 125.115  1.00  0.00     0.000 C 
BRANCH   4   5
ATOM      5  C   UNL     1     101.279 128.574 124.531  1.00  0.00     0.000 C 
BRANCH   5   6
ATOM      6  C   UNL     1     100.996 129.832 125.368  1.00  0.00     0.000 C 
BRANCH   6   7
ATOM      7  C   UNL     1     100.703 129.510 126.845  1.00  0.00     0.000 C 
BRANCH   7   8
ATOM      8  C   UNL     1     101.789 130.047 127.790  1.00  0.00     0.000 C 
BRANCH   8   9
ATOM      9  C   UNL     1     101.360 130.006 129.267  1.00  0.00     0.000 C 
BRANCH   9  10
ATOM     10  C   UNL     1     100.080 129.186 129.487  1.00  0.00     0.000 C 
BRANCH  10  11
ATOM     11  C   UNL     1      99.320 129.600 130.760  1.00  0.00     0.000 C 
BRANCH  11  12
ATOM     12  C   UNL     1      97.829 129.866 130.500  1.00  0.00     0.000 C 
BRANCH  12  13
ATOM     13  C   UNL     1      97.370 129.357 129.125  1.00  0.00     0.006 C 
BRANCH  13  14
ATOM     14  C   UNL     1      96.545 128.073 129.261  1.00  0.00     0.053 C 
BRANCH  14  15
ATOM     15  C   UNL     1      97.353 126.879 128.853  1.00  0.00     0.041 C 
ATOM     16  O   UNL     1      97.160 125.764 129.407  1.00  0.00    -0.550 OA
ATOM     17  O   UNL     1      98.300 126.992 127.844  1.00  0.00    -0.550 OA
ENDBRANCH  14  15
ENDBRANCH  13  14
ENDBRANCH  12  13
ENDBRANCH  11  12
ENDBRANCH  10  11
ENDBRANCH   9  10
ENDBRANCH   8   9
ENDBRANCH   7   8
ENDBRANCH   6   7
ENDBRANCH   5   6
ENDBRANCH   4   5
ENDBRANCH   3   4
ENDBRANCH   2   3
ENDBRANCH   1   2
BRANCH   1  18
ATOM     18  C   UNL     1     101.460 125.389 129.494  1.00  0.00     0.000 C 
BRANCH  18  19
ATOM     19  C   UNL     1     100.829 124.001 129.282  1.00  0.00     0.000 C 
BRANCH  19  20
ATOM     20  C   UNL     1     101.866 122.918 128.948  1.00  0.00     0.000 C 
BRANCH  20  21
ATOM     21  C   UNL     1     101.360 121.909 127.903  1.00  0.00     0.000 C 
BRANCH  21  22
ATOM     22  C   UNL     1      99.826 121.786 127.790  1.00  0.00     0.000 C 
BRANCH  22  23
ATOM     23  C   UNL     1      99.225 122.228 126.444  1.00  0.00     0.000 C 
BRANCH  23  24
ATOM     24  C   UNL     1      97.984 123.120 126.607  1.00  0.00    -0.000 C 
BRANCH  24  25
ATOM     25  C   UNL     1      98.115 124.464 125.868  1.00  0.00    -0.000 C 
BRANCH  25  26
ATOM     26  C   UNL     1      96.803 125.018 125.274  1.00  0.00    -0.000 C 
BRANCH  26  27
ATOM     27  C   UNL     1      96.357 124.366 123.954  1.00  0.00    -0.000 C 
BRANCH  27  28
ATOM     28  C   UNL     1      94.939 123.780 124.026  1.00  0.00    -0.000 C 
BRANCH  28  29
ATOM     29  C   UNL     1      94.934 122.298 123.623  1.00  0.00    -0.000 C 
BRANCH  29  30
ATOM     30  C   UNL     1      95.248 122.080 122.132  1.00  0.00    -0.000 C 
BRANCH  30  31
ATOM     31  C   UNL     1      94.122 121.412 121.324  1.00  0.00    -0.003 C 
ATOM     32  C   UNL     1      94.544 121.042 119.903  1.00  0.00     0.004 C 
ENDBRANCH  30  31
ENDBRANCH  29  30
ENDBRANCH  28  29
ENDBRANCH  27  28
ENDBRANCH  26  27
ENDBRANCH  25  26
ENDBRANCH  24  25
ENDBRANCH  23  24
ENDBRANCH  22  23
ENDBRANCH  21  22
ENDBRANCH  20  21
ENDBRANCH  19  20
ENDBRANCH  18  19
ENDBRANCH   1  18
TORSDOF 28
ENDMDL
MODEL 8
REMARK VINA RESULT:    -4.279      3.899     10.099
REMARK INTER + INTRA:         -14.462
REMARK INTER:                 -10.910
REMARK INTRA:                  -3.551
REMARK UNBOUND:                -3.178
REMARK SMILES CCCCCCCCCCCCCCCCCCCCCCCCCCCCCC(=O)[O-]
REMARK SMILES IDX 16 1 17 2 18 3 19 4 20 5 21 6 22 7 23 8 24 9 25 10 26 11
REMARK SMILES IDX 27 12 28 13 29 14 30 15 31 16 32 17 15 18 14 19 13 20 12 21
REMARK SMILES IDX 11 22 10 23 9 24 8 25 7 26 6 27 5 28 4 29 3 30 2 31 1 32
REMARK H PARENT
REMARK Flexibility Score: inf
ROOT
ATOM      1  C   UNL     1      98.692 125.893 128.475  1.00  0.00     0.000 C 
ENDROOT
BRANCH   1   2
ATOM      2  C   UNL     1      97.628 125.354 127.499  1.00  0.00     0.000 C 
BRANCH   2   3
ATOM      3  C   UNL     1      98.027 125.386 126.010  1.00  0.00     0.000 C 
BRANCH   3   4
ATOM      4  C   UNL     1      96.952 124.869 125.035  1.00  0.00     0.000 C 
BRANCH   4   5
ATOM      5  C   UNL     1      96.382 123.501 125.447  1.00  0.00     0.000 C 
BRANCH   5   6
ATOM      6  C   UNL     1      96.309 122.514 124.270  1.00  0.00     0.000 C 
BRANCH   6   7
ATOM      7  C   UNL     1      95.872 123.186 122.955  1.00  0.00     0.000 C 
BRANCH   7   8
ATOM      8  C   UNL     1      96.197 122.330 121.722  1.00  0.00     0.000 C 
BRANCH   8   9
ATOM      9  C   UNL     1      94.945 121.673 121.113  1.00  0.00     0.000 C 
BRANCH   9  10
ATOM     10  C   UNL     1      95.245 120.942 119.795  1.00  0.00     0.000 C 
BRANCH  10  11
ATOM     11  C   UNL     1      94.152 121.159 118.733  1.00  0.00     0.000 C 
BRANCH  11  12
ATOM     12  C   UNL     1      92.818 121.618 119.341  1.00  0.00     0.000 C 
BRANCH  12  13
ATOM     13  C   UNL     1      92.297 122.918 118.709  1.00  0.00     0.006 C 
BRANCH  13  14
ATOM     14  C   UNL     1      92.565 122.942 117.201  1.00  0.00     0.053 C 
BRANCH  14  15
ATOM     15  C   UNL     1      92.711 124.350 116.711  1.00  0.00     0.041 C 
ATOM     16  O   UNL     1      93.806 124.958 116.847  1.00  0.00    -0.550 OA
ATOM     17  O   UNL     1      91.645 124.982 116.084  1.00  0.00    -0.550 OA
ENDBRANCH  14  15
ENDBRANCH  13  14
ENDBRANCH  12  13
ENDBRANCH  11  12
ENDBRANCH  10  11
ENDBRANCH   9  10
ENDBRANCH   8   9
ENDBRANCH   7   8
ENDBRANCH   6   7
ENDBRANCH   5   6
ENDBRANCH   4   5
ENDBRANCH   3   4
ENDBRANCH   2   3
ENDBRANCH   1   2
BRANCH   1  18
ATOM     18  C   UNL     1      98.189 126.961 129.468  1.00  0.00     0.000 C 
BRANCH  18  19
ATOM     19  C   UNL     1      98.627 128.403 129.158  1.00  0.00     0.000 C 
BRANCH  19  20
ATOM     20  C   UNL     1     100.046 128.717 129.659  1.00  0.00     0.000 C 
BRANCH  20  21
ATOM     21  C   UNL     1     100.775 129.747 128.779  1.00  0.00     0.000 C 
BRANCH  21  22
ATOM     22  C   UNL     1     100.031 130.164 127.493  1.00  0.00     0.000 C 
BRANCH  22  23
ATOM     23  C   UNL     1     100.605 129.593 126.184  1.00  0.00     0.000 C 
BRANCH  23  24
ATOM     24  C   UNL     1     100.053 128.197 125.849  1.00  0.00    -0.000 C 
BRANCH  24  25
ATOM     25  C   UNL     1     100.813 127.517 124.696  1.00  0.00    -0.000 C 
BRANCH  25  26
ATOM     26  C   UNL     1     102.125 126.813 125.099  1.00  0.00    -0.000 C 
BRANCH  26  27
ATOM     27  C   UNL     1     102.097 126.114 126.470  1.00  0.00    -0.000 C 
BRANCH  27  28
ATOM     28  C   UNL     1     101.697 124.634 126.378  1.00  0.00    -0.000 C 
BRANCH  28  29
ATOM     29  C   UNL     1     101.654 123.988 127.771  1.00  0.00    -0.000 C 
BRANCH  29  30
ATOM     30  C   UNL     1     100.733 122.757 127.834  1.00  0.00    -0.000 C 
BRANCH  30  31
ATOM     31  C   UNL     1      99.872 122.527 126.579  1.00  0.00    -0.003 C 
ATOM     32  C   UNL     1      99.329 121.103 126.480  1.00  0.00     0.004 C 
ENDBRANCH  30  31
ENDBRANCH  29  30
ENDBRANCH  28  29
ENDBRANCH  27  28
ENDBRANCH  26  27
ENDBRANCH  25  26
ENDBRANCH  24  25
ENDBRANCH  23  24
ENDBRANCH  22  23
ENDBRANCH  21  22
ENDBRANCH  20  21
ENDBRANCH  19  20
ENDBRANCH  18  19
ENDBRANCH   1  18
TORSDOF 28
ENDMDL
MODEL 9
REMARK VINA RESULT:    -4.277      2.824      5.279
REMARK INTER + INTRA:         -14.455
REMARK INTER:                 -10.626
REMARK INTRA:                  -3.829
REMARK UNBOUND:                -3.178
REMARK SMILES CCCCCCCCCCCCCCCCCCCCCCCCCCCCCC(=O)[O-]
REMARK SMILES IDX 16 1 17 2 18 3 19 4 20 5 21 6 22 7 23 8 24 9 25 10 26 11
REMARK SMILES IDX 27 12 28 13 29 14 30 15 31 16 32 17 15 18 14 19 13 20 12 21
REMARK SMILES IDX 11 22 10 23 9 24 8 25 7 26 6 27 5 28 4 29 3 30 2 31 1 32
REMARK H PARENT
REMARK Flexibility Score: inf
ROOT
ATOM      1  C   UNL     1      98.134 129.206 130.794  1.00  0.00     0.000 C 
ENDROOT
BRANCH   1   2
ATOM      2  C   UNL     1      99.100 129.679 129.690  1.00  0.00     0.000 C 
BRANCH   2   3
ATOM      3  C   UNL     1      98.511 129.701 128.267  1.00  0.00     0.000 C 
BRANCH   3   4
ATOM      4  C   UNL     1      99.113 128.671 127.294  1.00  0.00     0.000 C 
BRANCH   4   5
ATOM      5  C   UNL     1     100.122 129.293 126.314  1.00  0.00     0.000 C 
BRANCH   5   6
ATOM      6  C   UNL     1     101.545 129.357 126.893  1.00  0.00     0.000 C 
BRANCH   6   7
ATOM      7  C   UNL     1     101.969 128.043 127.576  1.00  0.00     0.000 C 
BRANCH   7   8
ATOM      8  C   UNL     1     101.996 126.857 126.600  1.00  0.00     0.000 C 
BRANCH   8   9
ATOM      9  C   UNL     1     102.059 125.499 127.321  1.00  0.00     0.000 C 
BRANCH   9  10
ATOM     10  C   UNL     1     102.093 124.313 126.345  1.00  0.00     0.000 C 
BRANCH  10  11
ATOM     11  C   UNL     1     102.068 122.952 127.062  1.00  0.00     0.000 C 
BRANCH  11  12
ATOM     12  C   UNL     1     100.998 122.004 126.498  1.00  0.00     0.000 C 
BRANCH  12  13
ATOM     13  C   UNL     1      99.841 121.769 127.482  1.00  0.00     0.006 C 
BRANCH  13  14
ATOM     14  C   UNL     1     100.342 121.114 128.774  1.00  0.00     0.053 C 
BRANCH  14  15
ATOM     15  C   UNL     1      99.970 121.942 129.965  1.00  0.00     0.041 C 
ATOM     16  O   UNL     1      98.919 121.685 130.612  1.00  0.00    -0.550 OA
ATOM     17  O   UNL     1     100.795 122.980 130.376  1.00  0.00    -0.550 OA
ENDBRANCH  14  15
ENDBRANCH  13  14
ENDBRANCH  12  13
ENDBRANCH  11  12
ENDBRANCH  10  11
ENDBRANCH   9  10
ENDBRANCH   8   9
ENDBRANCH   7   8
ENDBRANCH   6   7
ENDBRANCH   5   6
ENDBRANCH   4   5
ENDBRANCH   3   4
ENDBRANCH   2   3
ENDBRANCH   1   2
BRANCH   1  18
ATOM     18  C   UNL     1      97.172 128.073 130.381  1.00  0.00     0.000 C 
BRANCH  18  19
ATOM     19  C   UNL     1      97.398 126.728 131.095  1.00  0.00     0.000 C 
BRANCH  19  20
ATOM     20  C   UNL     1      98.818 126.178 130.894  1.00  0.00     0.000 C 
BRANCH  20  21
ATOM     21  C   UNL     1      99.168 125.956 129.412  1.00  0.00     0.000 C 
BRANCH  21  22
ATOM     22  C   UNL     1      98.159 125.101 128.615  1.00  0.00     0.000 C 
BRANCH  22  23
ATOM     23  C   UNL     1      98.440 124.986 127.106  1.00  0.00     0.000 C 
BRANCH  23  24
ATOM     24  C   UNL     1      97.252 124.408 126.320  1.00  0.00    -0.000 C 
BRANCH  24  25
ATOM     25  C   UNL     1      97.080 125.059 124.935  1.00  0.00    -0.000 C 
BRANCH  25  26
ATOM     26  C   UNL     1      96.134 124.313 123.972  1.00  0.00    -0.000 C 
BRANCH  26  27
ATOM     27  C   UNL     1      96.195 122.778 124.054  1.00  0.00    -0.000 C 
BRANCH  27  28
ATOM     28  C   UNL     1      96.696 122.129 122.754  1.00  0.00    -0.000 C 
BRANCH  28  29
ATOM     29  C   UNL     1      95.564 122.019 121.722  1.00  0.00    -0.000 C 
BRANCH  29  30
ATOM     30  C   UNL     1      94.328 121.278 122.263  1.00  0.00    -0.000 C 
BRANCH  30  31
ATOM     31  C   UNL     1      92.992 121.693 121.622  1.00  0.00    -0.003 C 
ATOM     32  C   UNL     1      93.107 121.966 120.124  1.00  0.00     0.004 C 
ENDBRANCH  30  31
ENDBRANCH  29  30
ENDBRANCH  28  29
ENDBRANCH  27  28
ENDBRANCH  26  27
ENDBRANCH  25  26
ENDBRANCH  24  25
ENDBRANCH  23  24
ENDBRANCH  22  23
ENDBRANCH  21  22
ENDBRANCH  20  21
ENDBRANCH  19  20
ENDBRANCH  18  19
ENDBRANCH   1  18
TORSDOF 28
ENDMDL
