MODEL 1
REMARK VINA RESULT:    -3.980      0.000      0.000
REMARK INTER + INTRA:          -4.810
REMARK INTER:                  -4.678
REMARK INTRA:                  -0.132
REMARK UNBOUND:                -0.132
REMARK SMILES O=C([O-])C=Cc1ccc(O)c(O)c1
REMARK SMILES IDX 6 1 13 2 7 3 11 4 8 5 9 6 5 7 4 8 2 9 1 10 3 11 12 12 10 14
REMARK H PARENT 12 13 10 15
REMARK Flexibility Score: inf
ROOT
ATOM      1  C   UNL     1      71.908  40.109  21.513  1.00  0.00    -0.022 A 
ATOM      2  C   UNL     1      71.394  40.292  20.214  1.00  0.00     0.058 A 
ATOM      3  C   UNL     1      71.039  40.227  22.609  1.00  0.00     0.012 A 
ATOM      4  C   UNL     1      70.032  40.564  20.018  1.00  0.00     0.157 A 
ATOM      5  C   UNL     1      69.682  40.495  22.414  1.00  0.00     0.051 A 
ATOM      6  C   UNL     1      69.172  40.661  21.123  1.00  0.00     0.157 A 
ENDROOT
BRANCH   1   7
ATOM      7  C   UNL     1      73.344  39.832  21.773  1.00  0.00     0.010 C 
ATOM      8  C   UNL     1      74.191  40.729  22.297  1.00  0.00     0.025 C 
BRANCH   8   9
ATOM      9  C   UNL     1      75.610  40.416  22.526  1.00  0.00     0.064 C 
ATOM     10  O   UNL     1      76.355  40.153  21.546  1.00  0.00    -0.545 OA
ATOM     11  O   UNL     1      76.145  40.406  23.809  1.00  0.00    -0.545 OA
ENDBRANCH   8   9
ENDBRANCH   1   7
BRANCH   4  12
ATOM     12  O   UNL     1      69.532  40.740  18.728  1.00  0.00    -0.504 OA
ATOM     13  H   UNL     1      68.772  41.383  18.536  1.00  0.00     0.293 HD
ENDBRANCH   4  12
BRANCH   6  14
ATOM     14  O   UNL     1      67.813  40.926  20.961  1.00  0.00    -0.504 OA
ATOM     15  H   UNL     1      67.139  40.755  21.698  1.00  0.00     0.293 HD
ENDBRANCH   6  14
TORSDOF 4
ENDMDL
MODEL 2
REMARK VINA RESULT:    -3.963      2.548      5.919
REMARK INTER + INTRA:          -4.789
REMARK INTER:                  -4.643
REMARK INTRA:                  -0.146
REMARK UNBOUND:                -0.132
REMARK SMILES O=C([O-])C=Cc1ccc(O)c(O)c1
REMARK SMILES IDX 6 1 13 2 7 3 11 4 8 5 9 6 5 7 4 8 2 9 1 10 3 11 12 12 10 14
REMARK H PARENT 12 13 10 15
REMARK Flexibility Score: inf
ROOT
ATOM      1  C   UNL     1      73.542  39.475  20.505  1.00  0.00    -0.022 A 
ATOM      2  C   UNL     1      74.792  40.124  20.549  1.00  0.00     0.058 A 
ATOM      3  C   UNL     1      73.340  38.454  19.564  1.00  0.00     0.012 A 
ATOM      4  C   UNL     1      75.826  39.738  19.683  1.00  0.00     0.157 A 
ATOM      5  C   UNL     1      74.370  38.067  18.703  1.00  0.00     0.051 A 
ATOM      6  C   UNL     1      75.615  38.703  18.759  1.00  0.00     0.157 A 
ENDROOT
BRANCH   1   7
ATOM      7  C   UNL     1      72.413  39.855  21.392  1.00  0.00     0.010 C 
ATOM      8  C   UNL     1      71.147  39.983  20.972  1.00  0.00     0.025 C 
BRANCH   8   9
ATOM      9  C   UNL     1      70.061  40.374  21.883  1.00  0.00     0.064 C 
ATOM     10  O   UNL     1      70.265  40.387  23.125  1.00  0.00    -0.545 OA
ATOM     11  O   UNL     1      68.809  40.734  21.396  1.00  0.00    -0.545 OA
ENDBRANCH   8   9
ENDBRANCH   1   7
BRANCH   4  12
ATOM     12  O   UNL     1      77.061  40.384  19.735  1.00  0.00    -0.504 OA
ATOM     13  H   UNL     1      77.865  39.957  20.180  1.00  0.00     0.293 HD
ENDBRANCH   4  12
BRANCH   6  14
ATOM     14  O   UNL     1      76.623  38.294  17.887  1.00  0.00    -0.504 OA
ATOM     15  H   UNL     1      76.774  37.319  17.658  1.00  0.00     0.293 HD
ENDBRANCH   6  14
TORSDOF 4
ENDMDL
MODEL 3
REMARK VINA RESULT:    -3.766      3.410      5.870
REMARK INTER + INTRA:          -4.558
REMARK INTER:                  -4.437
REMARK INTRA:                  -0.121
REMARK UNBOUND:                -0.132
REMARK SMILES O=C([O-])C=Cc1ccc(O)c(O)c1
REMARK SMILES IDX 6 1 13 2 7 3 11 4 8 5 9 6 5 7 4 8 2 9 1 10 3 11 12 12 10 14
REMARK H PARENT 12 13 10 15
REMARK Flexibility Score: inf
ROOT
ATOM      1  C   UNL     1      74.089  38.540  20.462  1.00  0.00    -0.022 A 
ATOM      2  C   UNL     1      73.187  39.227  21.300  1.00  0.00     0.058 A 
ATOM      3  C   UNL     1      75.465  38.754  20.630  1.00  0.00     0.012 A 
ATOM      4  C   UNL     1      73.658  40.089  22.301  1.00  0.00     0.157 A 
ATOM      5  C   UNL     1      75.936  39.610  21.628  1.00  0.00     0.051 A 
ATOM      6  C   UNL     1      75.040  40.277  22.468  1.00  0.00     0.157 A 
ENDROOT
BRANCH   1   7
ATOM      7  C   UNL     1      73.639  37.628  19.381  1.00  0.00     0.010 C 
ATOM      8  C   UNL     1      72.729  36.659  19.555  1.00  0.00     0.025 C 
BRANCH   8   9
ATOM      9  C   UNL     1      72.321  35.769  18.458  1.00  0.00     0.064 C 
ATOM     10  O   UNL     1      73.185  35.064  17.875  1.00  0.00    -0.545 OA
ATOM     11  O   UNL     1      70.993  35.691  18.052  1.00  0.00    -0.545 OA
ENDBRANCH   8   9
ENDBRANCH   1   7
BRANCH   4  12
ATOM     12  O   UNL     1      72.759  40.761  23.128  1.00  0.00    -0.504 OA
ATOM     13  H   UNL     1      71.893  41.146  22.769  1.00  0.00     0.293 HD
ENDBRANCH   4  12
BRANCH   6  14
ATOM     14  O   UNL     1      75.539  41.125  23.456  1.00  0.00    -0.504 OA
ATOM     15  H   UNL     1      76.335  41.731  23.293  1.00  0.00     0.293 HD
ENDBRANCH   6  14
TORSDOF 4
ENDMDL
MODEL 4
REMARK VINA RESULT:    -3.665      2.302      3.181
REMARK INTER + INTRA:          -4.440
REMARK INTER:                  -4.302
REMARK INTRA:                  -0.137
REMARK UNBOUND:                -0.132
REMARK SMILES O=C([O-])C=Cc1ccc(O)c(O)c1
REMARK SMILES IDX 6 1 13 2 7 3 11 4 8 5 9 6 5 7 4 8 2 9 1 10 3 11 12 12 10 14
REMARK H PARENT 12 13 10 15
REMARK Flexibility Score: inf
ROOT
ATOM      1  C   UNL     1      72.380  40.320  20.358  1.00  0.00    -0.022 A 
ATOM      2  C   UNL     1      72.039  40.237  21.723  1.00  0.00     0.058 A 
ATOM      3  C   UNL     1      71.356  40.493  19.414  1.00  0.00     0.012 A 
ATOM      4  C   UNL     1      70.703  40.351  22.133  1.00  0.00     0.157 A 
ATOM      5  C   UNL     1      70.025  40.609  19.821  1.00  0.00     0.051 A 
ATOM      6  C   UNL     1      69.692  40.542  21.177  1.00  0.00     0.157 A 
ENDROOT
BRANCH   1   7
ATOM      7  C   UNL     1      73.777  40.192  19.874  1.00  0.00     0.010 C 
ATOM      8  C   UNL     1      74.207  39.189  19.096  1.00  0.00     0.025 C 
BRANCH   8   9
ATOM      9  C   UNL     1      75.605  39.095  18.649  1.00  0.00     0.064 C 
ATOM     10  O   UNL     1      76.401  40.039  18.893  1.00  0.00    -0.545 OA
ATOM     11  O   UNL     1      76.066  37.977  17.962  1.00  0.00    -0.545 OA
ENDBRANCH   8   9
ENDBRANCH   1   7
BRANCH   4  12
ATOM     12  O   UNL     1      70.376  40.272  23.486  1.00  0.00    -0.504 OA
ATOM     13  H   UNL     1      70.304  41.101  24.065  1.00  0.00     0.293 HD
ENDBRANCH   4  12
BRANCH   6  14
ATOM     14  O   UNL     1      68.355  40.663  21.553  1.00  0.00    -0.504 OA
ATOM     15  H   UNL     1      68.017  40.337  22.451  1.00  0.00     0.293 HD
ENDBRANCH   6  14
TORSDOF 4
ENDMDL
MODEL 5
REMARK VINA RESULT:    -3.572      2.948      5.722
REMARK INTER + INTRA:          -4.330
REMARK INTER:                  -4.206
REMARK INTRA:                  -0.125
REMARK UNBOUND:                -0.132
REMARK SMILES O=C([O-])C=Cc1ccc(O)c(O)c1
REMARK SMILES IDX 6 1 13 2 7 3 11 4 8 5 9 6 5 7 4 8 2 9 1 10 3 11 12 12 10 14
REMARK H PARENT 12 13 10 15
REMARK Flexibility Score: inf
ROOT
ATOM      1  C   UNL     1      73.377  39.415  20.422  1.00  0.00    -0.022 A 
ATOM      2  C   UNL     1      73.163  38.277  19.618  1.00  0.00     0.058 A 
ATOM      3  C   UNL     1      74.644  40.018  20.417  1.00  0.00     0.012 A 
ATOM      4  C   UNL     1      74.191  37.772  18.808  1.00  0.00     0.157 A 
ATOM      5  C   UNL     1      75.668  39.517  19.609  1.00  0.00     0.051 A 
ATOM      6  C   UNL     1      75.447  38.398  18.801  1.00  0.00     0.157 A 
ENDROOT
BRANCH   1   7
ATOM      7  C   UNL     1      72.326  39.980  21.305  1.00  0.00     0.010 C 
ATOM      8  C   UNL     1      71.012  39.831  21.086  1.00  0.00     0.025 C 
BRANCH   8   9
ATOM      9  C   UNL     1      70.003  40.419  21.981  1.00  0.00     0.064 C 
ATOM     10  O   UNL     1      70.294  40.639  23.185  1.00  0.00    -0.545 OA
ATOM     11  O   UNL     1      68.731  40.738  21.518  1.00  0.00    -0.545 OA
ENDBRANCH   8   9
ENDBRANCH   1   7
BRANCH   4  12
ATOM     12  O   UNL     1      73.968  36.648  18.013  1.00  0.00    -0.504 OA
ATOM     13  H   UNL     1      73.457  36.707  17.140  1.00  0.00     0.293 HD
ENDBRANCH   4  12
BRANCH   6  14
ATOM     14  O   UNL     1      76.488  37.922  18.005  1.00  0.00    -0.504 OA
ATOM     15  H   UNL     1      76.340  37.628  17.046  1.00  0.00     0.293 HD
ENDBRANCH   6  14
TORSDOF 4
ENDMDL
MODEL 6
REMARK VINA RESULT:    -3.550      1.825      6.125
REMARK INTER + INTRA:          -4.304
REMARK INTER:                  -4.182
REMARK INTRA:                  -0.122
REMARK UNBOUND:                -0.132
REMARK SMILES O=C([O-])C=Cc1ccc(O)c(O)c1
REMARK SMILES IDX 6 1 13 2 7 3 11 4 8 5 9 6 5 7 4 8 2 9 1 10 3 11 12 12 10 14
REMARK H PARENT 12 13 10 15
REMARK Flexibility Score: inf
ROOT
ATOM      1  C   UNL     1      73.283  40.160  20.347  1.00  0.00    -0.022 A 
ATOM      2  C   UNL     1      74.173  40.122  21.440  1.00  0.00     0.058 A 
ATOM      3  C   UNL     1      73.798  40.391  19.062  1.00  0.00     0.012 A 
ATOM      4  C   UNL     1      75.552  40.287  21.243  1.00  0.00     0.157 A 
ATOM      5  C   UNL     1      75.172  40.553  18.865  1.00  0.00     0.051 A 
ATOM      6  C   UNL     1      76.053  40.500  19.948  1.00  0.00     0.157 A 
ENDROOT
BRANCH   1   7
ATOM      7  C   UNL     1      71.816  40.003  20.506  1.00  0.00     0.010 C 
ATOM      8  C   UNL     1      71.017  40.950  21.019  1.00  0.00     0.025 C 
BRANCH   8   9
ATOM      9  C   UNL     1      69.568  40.746  21.169  1.00  0.00     0.064 C 
ATOM     10  O   UNL     1      69.100  40.418  22.290  1.00  0.00    -0.545 OA
ATOM     11  O   UNL     1      68.704  40.913  20.093  1.00  0.00    -0.545 OA
ENDBRANCH   8   9
ENDBRANCH   1   7
BRANCH   4  12
ATOM     12  O   UNL     1      76.425  40.244  22.329  1.00  0.00    -0.504 OA
ATOM     13  H   UNL     1      76.284  39.601  23.099  1.00  0.00     0.293 HD
ENDBRANCH   4  12
BRANCH   6  14
ATOM     14  O   UNL     1      77.418  40.664  19.720  1.00  0.00    -0.504 OA
ATOM     15  H   UNL     1      77.888  40.233  18.932  1.00  0.00     0.293 HD
ENDBRANCH   6  14
TORSDOF 4
ENDMDL
MODEL 7
REMARK VINA RESULT:    -3.538      1.265      5.882
REMARK INTER + INTRA:          -4.290
REMARK INTER:                  -4.137
REMARK INTRA:                  -0.153
REMARK UNBOUND:                -0.132
REMARK SMILES O=C([O-])C=Cc1ccc(O)c(O)c1
REMARK SMILES IDX 6 1 13 2 7 3 11 4 8 5 9 6 5 7 4 8 2 9 1 10 3 11 12 12 10 14
REMARK H PARENT 12 13 10 15
REMARK Flexibility Score: inf
ROOT
ATOM      1  C   UNL     1      73.048  40.388  20.495  1.00  0.00    -0.022 A 
ATOM      2  C   UNL     1      74.336  40.446  19.925  1.00  0.00     0.058 A 
ATOM      3  C   UNL     1      72.926  40.147  21.872  1.00  0.00     0.012 A 
ATOM      4  C   UNL     1      75.477  40.291  20.726  1.00  0.00     0.157 A 
ATOM      5  C   UNL     1      74.063  39.995  22.670  1.00  0.00     0.051 A 
ATOM      6  C   UNL     1      75.339  40.069  22.105  1.00  0.00     0.157 A 
ENDROOT
BRANCH   1   7
ATOM      7  C   UNL     1      71.810  40.533  19.688  1.00  0.00     0.010 C 
ATOM      8  C   UNL     1      70.602  40.777  20.216  1.00  0.00     0.025 C 
BRANCH   8   9
ATOM      9  C   UNL     1      69.399  40.902  19.379  1.00  0.00     0.064 C 
ATOM     10  O   UNL     1      69.498  40.803  18.128  1.00  0.00    -0.545 OA
ATOM     11  O   UNL     1      68.149  41.125  19.947  1.00  0.00    -0.545 OA
ENDBRANCH   8   9
ENDBRANCH   1   7
BRANCH   4  12
ATOM     12  O   UNL     1      76.748  40.354  20.154  1.00  0.00    -0.504 OA
ATOM     13  H   UNL     1      77.283  41.214  20.143  1.00  0.00     0.293 HD
ENDBRANCH   4  12
BRANCH   6  14
ATOM     14  O   UNL     1      76.454  39.915  22.927  1.00  0.00    -0.504 OA
ATOM     15  H   UNL     1      76.376  39.602  23.888  1.00  0.00     0.293 HD
ENDBRANCH   6  14
TORSDOF 4
ENDMDL
MODEL 8
REMARK VINA RESULT:    -3.324      0.961      1.906
REMARK INTER + INTRA:          -4.039
REMARK INTER:                  -3.913
REMARK INTRA:                  -0.125
REMARK UNBOUND:                -0.132
REMARK SMILES O=C([O-])C=Cc1ccc(O)c(O)c1
REMARK SMILES IDX 6 1 13 2 7 3 11 4 8 5 9 6 5 7 4 8 2 9 1 10 3 11 12 12 10 14
REMARK H PARENT 12 13 10 15
REMARK Flexibility Score: inf
ROOT
ATOM      1  C   UNL     1      72.140  40.777  21.073  1.00  0.00    -0.022 A 
ATOM      2  C   UNL     1      71.328  40.390  22.158  1.00  0.00     0.058 A 
ATOM      3  C   UNL     1      71.528  41.125  19.859  1.00  0.00     0.012 A 
ATOM      4  C   UNL     1      69.931  40.377  22.034  1.00  0.00     0.157 A 
ATOM      5  C   UNL     1      70.137  41.115  19.735  1.00  0.00     0.051 A 
ATOM      6  C   UNL     1      69.333  40.745  20.818  1.00  0.00     0.157 A 
ENDROOT
BRANCH   1   7
ATOM      7  C   UNL     1      73.622  40.795  21.152  1.00  0.00     0.010 C 
ATOM      8  C   UNL     1      74.314  40.451  22.247  1.00  0.00     0.025 C 
BRANCH   8   9
ATOM      9  C   UNL     1      75.784  40.496  22.285  1.00  0.00     0.064 C 
ATOM     10  O   UNL     1      76.438  40.319  21.225  1.00  0.00    -0.545 OA
ATOM     11  O   UNL     1      76.465  40.733  23.474  1.00  0.00    -0.545 OA
ENDBRANCH   8   9
ENDBRANCH   1   7
BRANCH   4  12
ATOM     12  O   UNL     1      69.135  39.996  23.114  1.00  0.00    -0.504 OA
ATOM     13  H   UNL     1      68.346  39.371  22.998  1.00  0.00     0.293 HD
ENDBRANCH   4  12
BRANCH   6  14
ATOM     14  O   UNL     1      67.947  40.746  20.664  1.00  0.00    -0.504 OA
ATOM     15  H   UNL     1      67.416  41.604  20.575  1.00  0.00     0.293 HD
ENDBRANCH   6  14
TORSDOF 4
ENDMDL
MODEL 9
REMARK VINA RESULT:    -2.700      3.242      5.790
REMARK INTER + INTRA:          -3.305
REMARK INTER:                  -3.177
REMARK INTRA:                  -0.128
REMARK UNBOUND:                -0.132
REMARK SMILES O=C([O-])C=Cc1ccc(O)c(O)c1
REMARK SMILES IDX 6 1 13 2 7 3 11 4 8 5 9 6 5 7 4 8 2 9 1 10 3 11 12 12 10 14
REMARK H PARENT 12 13 10 15
REMARK Flexibility Score: inf
ROOT
ATOM      1  C   UNL     1      73.212  38.596  20.754  1.00  0.00    -0.022 A 
ATOM      2  C   UNL     1      74.573  38.922  20.583  1.00  0.00     0.058 A 
ATOM      3  C   UNL     1      72.528  39.107  21.867  1.00  0.00     0.012 A 
ATOM      4  C   UNL     1      75.224  39.764  21.496  1.00  0.00     0.157 A 
ATOM      5  C   UNL     1      73.175  39.947  22.776  1.00  0.00     0.051 A 
ATOM      6  C   UNL     1      74.521  40.281  22.596  1.00  0.00     0.157 A 
ENDROOT
BRANCH   1   7
ATOM      7  C   UNL     1      72.482  37.700  19.822  1.00  0.00     0.010 C 
ATOM      8  C   UNL     1      73.004  36.578  19.307  1.00  0.00     0.025 C 
BRANCH   8   9
ATOM      9  C   UNL     1      72.248  35.725  18.376  1.00  0.00     0.064 C 
ATOM     10  O   UNL     1      71.089  36.064  18.024  1.00  0.00    -0.545 OA
ATOM     11  O   UNL     1      72.795  34.549  17.875  1.00  0.00    -0.545 OA
ENDBRANCH   8   9
ENDBRANCH   1   7
BRANCH   4  12
ATOM     12  O   UNL     1      76.570  40.084  21.317  1.00  0.00    -0.504 OA
ATOM     13  H   UNL     1      76.939  40.991  21.578  1.00  0.00     0.293 HD
ENDBRANCH   4  12
BRANCH   6  14
ATOM     14  O   UNL     1      75.139  41.123  23.519  1.00  0.00    -0.504 OA
ATOM     15  H   UNL     1      76.071  41.494  23.370  1.00  0.00     0.293 HD
ENDBRANCH   6  14
TORSDOF 4
ENDMDL
