MODEL 1
REMARK VINA RESULT:    -2.626      0.000      0.000
REMARK INTER + INTRA:         -12.544
REMARK INTER:                  -6.924
REMARK INTRA:                  -5.620
REMARK UNBOUND:                -5.620
REMARK SMILES CCCCCCCCCCCCCCCCCCCCCCCCCCCCCC(=O)[O-]
REMARK SMILES IDX 16 1 17 2 18 3 19 4 20 5 21 6 22 7 23 8 24 9 25 10 26 11
REMARK SMILES IDX 27 12 28 13 29 14 30 15 31 16 32 17 15 18 14 19 13 20 12 21
REMARK SMILES IDX 11 22 10 23 9 24 8 25 7 26 6 27 5 28 4 29 3 30 2 31 1 32
REMARK H PARENT
REMARK Flexibility Score: inf
ROOT
ATOM      1  C   UNL     1       2.606  20.565   5.101  1.00  0.00     0.000 C 
ENDROOT
BRANCH   1   2
ATOM      2  C   UNL     1       1.963  19.857   6.307  1.00  0.00     0.000 C 
BRANCH   2   3
ATOM      3  C   UNL     1       0.748  20.606   6.900  1.00  0.00     0.000 C 
BRANCH   3   4
ATOM      4  C   UNL     1       0.958  21.015   8.367  1.00  0.00     0.000 C 
BRANCH   4   5
ATOM      5  C   UNL     1       2.091  20.232   9.055  1.00  0.00     0.000 C 
BRANCH   5   6
ATOM      6  C   UNL     1       1.921  20.085  10.582  1.00  0.00     0.000 C 
BRANCH   6   7
ATOM      7  C   UNL     1       2.630  18.838  11.138  1.00  0.00     0.000 C 
BRANCH   7   8
ATOM      8  C   UNL     1       3.608  18.206  10.133  1.00  0.00     0.000 C 
BRANCH   8   9
ATOM      9  C   UNL     1       4.996  17.884  10.727  1.00  0.00     0.000 C 
BRANCH   9  10
ATOM     10  C   UNL     1       5.322  16.383  10.661  1.00  0.00     0.000 C 
BRANCH  10  11
ATOM     11  C   UNL     1       4.358  15.603   9.751  1.00  0.00     0.000 C 
BRANCH  11  12
ATOM     12  C   UNL     1       5.013  15.170   8.430  1.00  0.00     0.000 C 
BRANCH  12  13
ATOM     13  C   UNL     1       3.955  14.796   7.380  1.00  0.00     0.006 C 
BRANCH  13  14
ATOM     14  C   UNL     1       4.586  14.244   6.093  1.00  0.00     0.053 C 
BRANCH  14  15
ATOM     15  C   UNL     1       4.522  12.748   6.045  1.00  0.00     0.041 C 
ATOM     16  O   UNL     1       5.446  12.090   5.497  1.00  0.00    -0.550 OA
ATOM     17  O   UNL     1       3.422  12.079   6.568  1.00  0.00    -0.550 OA
ENDBRANCH  14  15
ENDBRANCH  13  14
ENDBRANCH  12  13
ENDBRANCH  11  12
ENDBRANCH  10  11
ENDBRANCH   9  10
ENDBRANCH   8   9
ENDBRANCH   7   8
ENDBRANCH   6   7
ENDBRANCH   5   6
ENDBRANCH   4   5
ENDBRANCH   3   4
ENDBRANCH   2   3
ENDBRANCH   1   2
BRANCH   1  18
ATOM     18  C   UNL     1       2.884  22.065   5.291  1.00  0.00     0.000 C 
BRANCH  18  19
ATOM     19  C   UNL     1       3.806  22.350   6.490  1.00  0.00     0.000 C 
BRANCH  19  20
ATOM     20  C   UNL     1       5.205  21.740   6.316  1.00  0.00     0.000 C 
BRANCH  20  21
ATOM     21  C   UNL     1       5.583  20.790   7.463  1.00  0.00     0.000 C 
BRANCH  21  22
ATOM     22  C   UNL     1       6.154  19.472   6.921  1.00  0.00     0.000 C 
BRANCH  22  23
ATOM     23  C   UNL     1       5.094  18.357   6.850  1.00  0.00     0.000 C 
BRANCH  23  24
ATOM     24  C   UNL     1       4.973  17.696   5.464  1.00  0.00    -0.000 C 
BRANCH  24  25
ATOM     25  C   UNL     1       5.495  18.596   4.329  1.00  0.00    -0.000 C 
BRANCH  25  26
ATOM     26  C   UNL     1       5.819  17.794   3.051  1.00  0.00    -0.000 C 
BRANCH  26  27
ATOM     27  C   UNL     1       5.636  16.276   3.215  1.00  0.00    -0.000 C 
BRANCH  27  28
ATOM     28  C   UNL     1       6.969  15.522   3.307  1.00  0.00    -0.000 C 
BRANCH  28  29
ATOM     29  C   UNL     1       8.156  16.495   3.326  1.00  0.00    -0.000 C 
BRANCH  29  30
ATOM     30  C   UNL     1       8.679  16.773   4.746  1.00  0.00    -0.000 C 
BRANCH  30  31
ATOM     31  C   UNL     1       8.181  15.761   5.799  1.00  0.00    -0.003 C 
ATOM     32  C   UNL     1       8.256  16.317   7.221  1.00  0.00     0.004 C 
ENDBRANCH  30  31
ENDBRANCH  29  30
ENDBRANCH  28  29
ENDBRANCH  27  28
ENDBRANCH  26  27
ENDBRANCH  25  26
ENDBRANCH  24  25
ENDBRANCH  23  24
ENDBRANCH  22  23
ENDBRANCH  21  22
ENDBRANCH  20  21
ENDBRANCH  19  20
ENDBRANCH  18  19
ENDBRANCH   1  18
TORSDOF 28
ENDMDL
MODEL 2
REMARK VINA RESULT:    -2.567      2.595      5.960
REMARK INTER + INTRA:         -12.390
REMARK INTER:                  -6.360
REMARK INTRA:                  -6.030
REMARK UNBOUND:                -5.620
REMARK SMILES CCCCCCCCCCCCCCCCCCCCCCCCCCCCCC(=O)[O-]
REMARK SMILES IDX 16 1 17 2 18 3 19 4 20 5 21 6 22 7 23 8 24 9 25 10 26 11
REMARK SMILES IDX 27 12 28 13 29 14 30 15 31 16 32 17 15 18 14 19 13 20 12 21
REMARK SMILES IDX 11 22 10 23 9 24 8 25 7 26 6 27 5 28 4 29 3 30 2 31 1 32
REMARK H PARENT
REMARK Flexibility Score: inf
ROOT
ATOM      1  C   UNL     1       5.209  14.347   9.160  1.00  0.00     0.000 C 
ENDROOT
BRANCH   1   2
ATOM      2  C   UNL     1       4.428  15.673   9.143  1.00  0.00     0.000 C 
BRANCH   2   3
ATOM      3  C   UNL     1       5.319  16.929   9.270  1.00  0.00     0.000 C 
BRANCH   3   4
ATOM      4  C   UNL     1       4.997  17.997   8.211  1.00  0.00     0.000 C 
BRANCH   4   5
ATOM      5  C   UNL     1       3.762  17.652   7.361  1.00  0.00     0.000 C 
BRANCH   5   6
ATOM      6  C   UNL     1       3.035  18.880   6.772  1.00  0.00     0.000 C 
BRANCH   6   7
ATOM      7  C   UNL     1       3.085  20.101   7.707  1.00  0.00     0.000 C 
BRANCH   7   8
ATOM      8  C   UNL     1       1.711  20.459   8.299  1.00  0.00     0.000 C 
BRANCH   8   9
ATOM      9  C   UNL     1       1.716  20.632   9.833  1.00  0.00     0.000 C 
BRANCH   9  10
ATOM     10  C   UNL     1       2.886  19.886  10.497  1.00  0.00     0.000 C 
BRANCH  10  11
ATOM     11  C   UNL     1       2.424  18.702  11.362  1.00  0.00     0.000 C 
BRANCH  11  12
ATOM     12  C   UNL     1       3.588  18.016  12.093  1.00  0.00     0.000 C 
BRANCH  12  13
ATOM     13  C   UNL     1       3.077  17.116  13.230  1.00  0.00     0.006 C 
BRANCH  13  14
ATOM     14  C   UNL     1       4.207  16.297  13.872  1.00  0.00     0.053 C 
BRANCH  14  15
ATOM     15  C   UNL     1       4.730  15.249  12.936  1.00  0.00     0.041 C 
ATOM     16  O   UNL     1       5.893  15.343  12.463  1.00  0.00    -0.550 OA
ATOM     17  O   UNL     1       3.917  14.188  12.553  1.00  0.00    -0.550 OA
ENDBRANCH  14  15
ENDBRANCH  13  14
ENDBRANCH  12  13
ENDBRANCH  11  12
ENDBRANCH  10  11
ENDBRANCH   9  10
ENDBRANCH   8   9
ENDBRANCH   7   8
ENDBRANCH   6   7
ENDBRANCH   5   6
ENDBRANCH   4   5
ENDBRANCH   3   4
ENDBRANCH   2   3
ENDBRANCH   1   2
BRANCH   1  18
ATOM     18  C   UNL     1       6.739  14.485   9.075  1.00  0.00     0.000 C 
BRANCH  18  19
ATOM     19  C   UNL     1       7.352  13.613   7.966  1.00  0.00     0.000 C 
BRANCH  19  20
ATOM     20  C   UNL     1       8.175  14.432   6.959  1.00  0.00     0.000 C 
BRANCH  20  21
ATOM     21  C   UNL     1       8.308  15.907   7.366  1.00  0.00     0.000 C 
BRANCH  21  22
ATOM     22  C   UNL     1       7.720  16.831   6.290  1.00  0.00     0.000 C 
BRANCH  22  23
ATOM     23  C   UNL     1       7.251  16.057   5.044  1.00  0.00     0.000 C 
BRANCH  23  24
ATOM     24  C   UNL     1       5.855  16.468   4.541  1.00  0.00    -0.000 C 
BRANCH  24  25
ATOM     25  C   UNL     1       4.934  15.260   4.291  1.00  0.00    -0.000 C 
BRANCH  25  26
ATOM     26  C   UNL     1       4.637  14.476   5.586  1.00  0.00    -0.000 C 
BRANCH  26  27
ATOM     27  C   UNL     1       4.767  12.951   5.426  1.00  0.00    -0.000 C 
BRANCH  27  28
ATOM     28  C   UNL     1       3.964  12.172   6.476  1.00  0.00    -0.000 C 
BRANCH  28  29
ATOM     29  C   UNL     1       4.707  10.902   6.912  1.00  0.00    -0.000 C 
BRANCH  29  30
ATOM     30  C   UNL     1       4.639  10.660   8.431  1.00  0.00    -0.000 C 
BRANCH  30  31
ATOM     31  C   UNL     1       6.020  10.463   9.089  1.00  0.00    -0.003 C 
ATOM     32  C   UNL     1       6.046  10.943  10.541  1.00  0.00     0.004 C 
ENDBRANCH  30  31
ENDBRANCH  29  30
ENDBRANCH  28  29
ENDBRANCH  27  28
ENDBRANCH  26  27
ENDBRANCH  25  26
ENDBRANCH  24  25
ENDBRANCH  23  24
ENDBRANCH  22  23
ENDBRANCH  21  22
ENDBRANCH  20  21
ENDBRANCH  19  20
ENDBRANCH  18  19
ENDBRANCH   1  18
TORSDOF 28
ENDMDL
MODEL 3
REMARK VINA RESULT:    -2.566      2.504      6.277
REMARK INTER + INTRA:         -12.386
REMARK INTER:                  -7.655
REMARK INTRA:                  -4.731
REMARK UNBOUND:                -5.620
REMARK SMILES CCCCCCCCCCCCCCCCCCCCCCCCCCCCCC(=O)[O-]
REMARK SMILES IDX 16 1 17 2 18 3 19 4 20 5 21 6 22 7 23 8 24 9 25 10 26 11
REMARK SMILES IDX 27 12 28 13 29 14 30 15 31 16 32 17 15 18 14 19 13 20 12 21
REMARK SMILES IDX 11 22 10 23 9 24 8 25 7 26 6 27 5 28 4 29 3 30 2 31 1 32
REMARK H PARENT
REMARK Flexibility Score: inf
ROOT
ATOM      1  C   UNL     1       2.387  21.340   9.559  1.00  0.00     0.000 C 
ENDROOT
BRANCH   1   2
ATOM      2  C   UNL     1       2.361  19.815   9.763  1.00  0.00     0.000 C 
BRANCH   2   3
ATOM      3  C   UNL     1       1.975  19.378  11.193  1.00  0.00     0.000 C 
BRANCH   3   4
ATOM      4  C   UNL     1       2.881  18.262  11.741  1.00  0.00     0.000 C 
BRANCH   4   5
ATOM      5  C   UNL     1       4.328  18.353  11.227  1.00  0.00     0.000 C 
BRANCH   5   6
ATOM      6  C   UNL     1       4.881  17.029  10.656  1.00  0.00     0.000 C 
BRANCH   6   7
ATOM      7  C   UNL     1       3.988  16.445   9.547  1.00  0.00     0.000 C 
BRANCH   7   8
ATOM      8  C   UNL     1       4.712  15.398   8.684  1.00  0.00     0.000 C 
BRANCH   8   9
ATOM      9  C   UNL     1       3.907  14.938   7.450  1.00  0.00     0.000 C 
BRANCH   9  10
ATOM     10  C   UNL     1       4.810  14.680   6.232  1.00  0.00     0.000 C 
BRANCH  10  11
ATOM     11  C   UNL     1       6.223  15.262   6.403  1.00  0.00     0.000 C 
BRANCH  11  12
ATOM     12  C   UNL     1       6.540  16.357   5.373  1.00  0.00     0.000 C 
BRANCH  12  13
ATOM     13  C   UNL     1       5.372  16.556   4.395  1.00  0.00     0.006 C 
BRANCH  13  14
ATOM     14  C   UNL     1       5.852  16.714   2.944  1.00  0.00     0.053 C 
BRANCH  14  15
ATOM     15  C   UNL     1       5.624  15.465   2.148  1.00  0.00     0.041 C 
ATOM     16  O   UNL     1       5.208  14.418   2.712  1.00  0.00    -0.550 OA
ATOM     17  O   UNL     1       5.912  15.442   0.788  1.00  0.00    -0.550 OA
ENDBRANCH  14  15
ENDBRANCH  13  14
ENDBRANCH  12  13
ENDBRANCH  11  12
ENDBRANCH  10  11
ENDBRANCH   9  10
ENDBRANCH   8   9
ENDBRANCH   7   8
ENDBRANCH   6   7
ENDBRANCH   5   6
ENDBRANCH   4   5
ENDBRANCH   3   4
ENDBRANCH   2   3
ENDBRANCH   1   2
BRANCH   1  18
ATOM     18  C   UNL     1       3.583  21.875   8.755  1.00  0.00     0.000 C 
BRANCH  18  19
ATOM     19  C   UNL     1       4.784  20.914   8.765  1.00  0.00     0.000 C 
BRANCH  19  20
ATOM     20  C   UNL     1       5.132  20.389   7.364  1.00  0.00     0.000 C 
BRANCH  20  21
ATOM     21  C   UNL     1       4.653  18.948   7.136  1.00  0.00     0.000 C 
BRANCH  21  22
ATOM     22  C   UNL     1       3.344  18.922   6.334  1.00  0.00     0.000 C 
BRANCH  22  23
ATOM     23  C   UNL     1       3.239  20.095   5.342  1.00  0.00     0.000 C 
BRANCH  23  24
ATOM     24  C   UNL     1       1.898  20.848   5.403  1.00  0.00    -0.000 C 
BRANCH  24  25
ATOM     25  C   UNL     1       0.876  20.168   6.333  1.00  0.00    -0.000 C 
BRANCH  25  26
ATOM     26  C   UNL     1      -0.110  21.179   6.954  1.00  0.00    -0.000 C 
BRANCH  26  27
ATOM     27  C   UNL     1      -1.583  20.751   6.841  1.00  0.00    -0.000 C 
BRANCH  27  28
ATOM     28  C   UNL     1      -2.114  20.823   5.403  1.00  0.00    -0.000 C 
BRANCH  28  29
ATOM     29  C   UNL     1      -3.227  19.792   5.170  1.00  0.00    -0.000 C 
BRANCH  29  30
ATOM     30  C   UNL     1      -2.940  18.439   5.845  1.00  0.00    -0.000 C 
BRANCH  30  31
ATOM     31  C   UNL     1      -3.987  18.041   6.906  1.00  0.00    -0.003 C 
ATOM     32  C   UNL     1      -3.941  16.548   7.236  1.00  0.00     0.004 C 
ENDBRANCH  30  31
ENDBRANCH  29  30
ENDBRANCH  28  29
ENDBRANCH  27  28
ENDBRANCH  26  27
ENDBRANCH  25  26
ENDBRANCH  24  25
ENDBRANCH  23  24
ENDBRANCH  22  23
ENDBRANCH  21  22
ENDBRANCH  20  21
ENDBRANCH  19  20
ENDBRANCH  18  19
ENDBRANCH   1  18
TORSDOF 28
ENDMDL
MODEL 4
REMARK VINA RESULT:    -2.563      2.452      6.596
REMARK INTER + INTRA:         -12.378
REMARK INTER:                  -7.435
REMARK INTRA:                  -4.944
REMARK UNBOUND:                -5.620
REMARK SMILES CCCCCCCCCCCCCCCCCCCCCCCCCCCCCC(=O)[O-]
REMARK SMILES IDX 16 1 17 2 18 3 19 4 20 5 21 6 22 7 23 8 24 9 25 10 26 11
REMARK SMILES IDX 27 12 28 13 29 14 30 15 31 16 32 17 15 18 14 19 13 20 12 21
REMARK SMILES IDX 11 22 10 23 9 24 8 25 7 26 6 27 5 28 4 29 3 30 2 31 1 32
REMARK H PARENT
REMARK Flexibility Score: inf
ROOT
ATOM      1  C   UNL     1       7.081  19.461   5.324  1.00  0.00     0.000 C 
ENDROOT
BRANCH   1   2
ATOM      2  C   UNL     1       7.219  19.678   6.841  1.00  0.00     0.000 C 
BRANCH   2   3
ATOM      3  C   UNL     1       6.381  20.856   7.386  1.00  0.00     0.000 C 
BRANCH   3   4
ATOM      4  C   UNL     1       5.958  20.659   8.852  1.00  0.00     0.000 C 
BRANCH   4   5
ATOM      5  C   UNL     1       5.073  21.800   9.383  1.00  0.00     0.000 C 
BRANCH   5   6
ATOM      6  C   UNL     1       3.682  21.884   8.719  1.00  0.00     0.000 C 
BRANCH   6   7
ATOM      7  C   UNL     1       2.534  21.806   9.740  1.00  0.00     0.000 C 
BRANCH   7   8
ATOM      8  C   UNL     1       1.810  20.449   9.726  1.00  0.00     0.000 C 
BRANCH   8   9
ATOM      9  C   UNL     1       1.874  19.689  11.068  1.00  0.00     0.000 C 
BRANCH   9  10
ATOM     10  C   UNL     1       2.974  18.614  11.073  1.00  0.00     0.000 C 
BRANCH  10  11
ATOM     11  C   UNL     1       3.449  18.240   9.659  1.00  0.00     0.000 C 
BRANCH  11  12
ATOM     12  C   UNL     1       4.538  17.156   9.669  1.00  0.00     0.000 C 
BRANCH  12  13
ATOM     13  C   UNL     1       5.218  17.039   8.296  1.00  0.00     0.006 C 
BRANCH  13  14
ATOM     14  C   UNL     1       4.341  16.298   7.276  1.00  0.00     0.053 C 
BRANCH  14  15
ATOM     15  C   UNL     1       4.557  14.816   7.335  1.00  0.00     0.041 C 
ATOM     16  O   UNL     1       5.664  14.349   7.711  1.00  0.00    -0.550 OA
ATOM     17  O   UNL     1       3.547  13.948   6.935  1.00  0.00    -0.550 OA
ENDBRANCH  14  15
ENDBRANCH  13  14
ENDBRANCH  12  13
ENDBRANCH  11  12
ENDBRANCH  10  11
ENDBRANCH   9  10
ENDBRANCH   8   9
ENDBRANCH   7   8
ENDBRANCH   6   7
ENDBRANCH   5   6
ENDBRANCH   4   5
ENDBRANCH   3   4
ENDBRANCH   2   3
ENDBRANCH   1   2
BRANCH   1  18
ATOM     18  C   UNL     1       5.734  18.878   4.864  1.00  0.00     0.000 C 
BRANCH  18  19
ATOM     19  C   UNL     1       4.877  19.897   4.094  1.00  0.00     0.000 C 
BRANCH  19  20
ATOM     20  C   UNL     1       3.627  20.327   4.877  1.00  0.00     0.000 C 
BRANCH  20  21
ATOM     21  C   UNL     1       3.316  19.391   6.055  1.00  0.00     0.000 C 
BRANCH  21  22
ATOM     22  C   UNL     1       1.858  19.548   6.513  1.00  0.00     0.000 C 
BRANCH  22  23
ATOM     23  C   UNL     1       1.145  20.719   5.813  1.00  0.00     0.000 C 
BRANCH  23  24
ATOM     24  C   UNL     1      -0.279  20.984   6.332  1.00  0.00    -0.000 C 
BRANCH  24  25
ATOM     25  C   UNL     1      -1.239  21.454   5.224  1.00  0.00    -0.000 C 
BRANCH  25  26
ATOM     26  C   UNL     1      -2.627  20.789   5.332  1.00  0.00    -0.000 C 
BRANCH  26  27
ATOM     27  C   UNL     1      -2.624  19.491   6.158  1.00  0.00    -0.000 C 
BRANCH  27  28
ATOM     28  C   UNL     1      -4.027  19.078   6.621  1.00  0.00    -0.000 C 
BRANCH  28  29
ATOM     29  C   UNL     1      -4.190  19.269   8.136  1.00  0.00    -0.000 C 
BRANCH  29  30
ATOM     30  C   UNL     1      -3.955  20.722   8.584  1.00  0.00    -0.000 C 
BRANCH  30  31
ATOM     31  C   UNL     1      -3.085  20.846   9.853  1.00  0.00    -0.003 C 
ATOM     32  C   UNL     1      -1.775  21.591   9.589  1.00  0.00     0.004 C 
ENDBRANCH  30  31
ENDBRANCH  29  30
ENDBRANCH  28  29
ENDBRANCH  27  28
ENDBRANCH  26  27
ENDBRANCH  25  26
ENDBRANCH  24  25
ENDBRANCH  23  24
ENDBRANCH  22  23
ENDBRANCH  21  22
ENDBRANCH  20  21
ENDBRANCH  19  20
ENDBRANCH  18  19
ENDBRANCH   1  18
TORSDOF 28
ENDMDL
MODEL 5
REMARK VINA RESULT:    -2.558      2.592      4.763
REMARK INTER + INTRA:         -12.365
REMARK INTER:                  -7.037
REMARK INTRA:                  -5.328
REMARK UNBOUND:                -5.620
REMARK SMILES CCCCCCCCCCCCCCCCCCCCCCCCCCCCCC(=O)[O-]
REMARK SMILES IDX 16 1 17 2 18 3 19 4 20 5 21 6 22 7 23 8 24 9 25 10 26 11
REMARK SMILES IDX 27 12 28 13 29 14 30 15 31 16 32 17 15 18 14 19 13 20 12 21
REMARK SMILES IDX 11 22 10 23 9 24 8 25 7 26 6 27 5 28 4 29 3 30 2 31 1 32
REMARK H PARENT
REMARK Flexibility Score: inf
ROOT
ATOM      1  C   UNL     1       3.930  18.987   5.809  1.00  0.00     0.000 C 
ENDROOT
BRANCH   1   2
ATOM      2  C   UNL     1       3.659  20.298   5.050  1.00  0.00     0.000 C 
BRANCH   2   3
ATOM      3  C   UNL     1       2.224  20.842   5.226  1.00  0.00     0.000 C 
BRANCH   3   4
ATOM      4  C   UNL     1       1.426  20.082   6.299  1.00  0.00     0.000 C 
BRANCH   4   5
ATOM      5  C   UNL     1       1.042  20.962   7.502  1.00  0.00     0.000 C 
BRANCH   5   6
ATOM      6  C   UNL     1       2.198  21.829   8.046  1.00  0.00     0.000 C 
BRANCH   6   7
ATOM      7  C   UNL     1       2.785  21.276   9.356  1.00  0.00     0.000 C 
BRANCH   7   8
ATOM      8  C   UNL     1       1.707  20.762  10.326  1.00  0.00     0.000 C 
BRANCH   8   9
ATOM      9  C   UNL     1       1.924  19.306  10.789  1.00  0.00     0.000 C 
BRANCH   9  10
ATOM     10  C   UNL     1       3.146  19.167  11.713  1.00  0.00     0.000 C 
BRANCH  10  11
ATOM     11  C   UNL     1       3.266  17.766  12.336  1.00  0.00     0.000 C 
BRANCH  11  12
ATOM     12  C   UNL     1       4.692  17.201  12.249  1.00  0.00     0.000 C 
BRANCH  12  13
ATOM     13  C   UNL     1       4.723  15.709  12.618  1.00  0.00     0.006 C 
BRANCH  13  14
ATOM     14  C   UNL     1       4.269  15.462  14.065  1.00  0.00     0.053 C 
BRANCH  14  15
ATOM     15  C   UNL     1       3.277  14.341  14.148  1.00  0.00     0.041 C 
ATOM     16  O   UNL     1       2.123  14.546  14.609  1.00  0.00    -0.550 OA
ATOM     17  O   UNL     1       3.640  13.058  13.754  1.00  0.00    -0.550 OA
ENDBRANCH  14  15
ENDBRANCH  13  14
ENDBRANCH  12  13
ENDBRANCH  11  12
ENDBRANCH  10  11
ENDBRANCH   9  10
ENDBRANCH   8   9
ENDBRANCH   7   8
ENDBRANCH   6   7
ENDBRANCH   5   6
ENDBRANCH   4   5
ENDBRANCH   3   4
ENDBRANCH   2   3
ENDBRANCH   1   2
BRANCH   1  18
ATOM     18  C   UNL     1       4.814  19.123   7.060  1.00  0.00     0.000 C 
BRANCH  18  19
ATOM     19  C   UNL     1       4.390  18.172   8.193  1.00  0.00     0.000 C 
BRANCH  19  20
ATOM     20  C   UNL     1       4.265  16.715   7.723  1.00  0.00     0.000 C 
BRANCH  20  21
ATOM     21  C   UNL     1       4.260  15.716   8.890  1.00  0.00     0.000 C 
BRANCH  21  22
ATOM     22  C   UNL     1       5.669  15.165   9.150  1.00  0.00     0.000 C 
BRANCH  22  23
ATOM     23  C   UNL     1       5.676  13.637   9.343  1.00  0.00     0.000 C 
BRANCH  23  24
ATOM     24  C   UNL     1       6.754  12.908   8.521  1.00  0.00    -0.000 C 
BRANCH  24  25
ATOM     25  C   UNL     1       6.491  12.971   7.005  1.00  0.00    -0.000 C 
BRANCH  25  26
ATOM     26  C   UNL     1       5.019  12.667   6.656  1.00  0.00    -0.000 C 
BRANCH  26  27
ATOM     27  C   UNL     1       4.398  13.678   5.677  1.00  0.00    -0.000 C 
BRANCH  27  28
ATOM     28  C   UNL     1       5.410  14.221   4.660  1.00  0.00    -0.000 C 
BRANCH  28  29
ATOM     29  C   UNL     1       5.097  15.676   4.288  1.00  0.00    -0.000 C 
BRANCH  29  30
ATOM     30  C   UNL     1       6.309  16.610   4.448  1.00  0.00    -0.000 C 
BRANCH  30  31
ATOM     31  C   UNL     1       7.469  15.987   5.253  1.00  0.00    -0.003 C 
ATOM     32  C   UNL     1       7.743  16.740   6.556  1.00  0.00     0.004 C 
ENDBRANCH  30  31
ENDBRANCH  29  30
ENDBRANCH  28  29
ENDBRANCH  27  28
ENDBRANCH  26  27
ENDBRANCH  25  26
ENDBRANCH  24  25
ENDBRANCH  23  24
ENDBRANCH  22  23
ENDBRANCH  21  22
ENDBRANCH  20  21
ENDBRANCH  19  20
ENDBRANCH  18  19
ENDBRANCH   1  18
TORSDOF 28
ENDMDL
MODEL 6
REMARK VINA RESULT:    -2.552      1.497      5.620
REMARK INTER + INTRA:         -12.350
REMARK INTER:                  -6.933
REMARK INTRA:                  -5.416
REMARK UNBOUND:                -5.620
REMARK SMILES CCCCCCCCCCCCCCCCCCCCCCCCCCCCCC(=O)[O-]
REMARK SMILES IDX 16 1 17 2 18 3 19 4 20 5 21 6 22 7 23 8 24 9 25 10 26 11
REMARK SMILES IDX 27 12 28 13 29 14 30 15 31 16 32 17 15 18 14 19 13 20 12 21
REMARK SMILES IDX 11 22 10 23 9 24 8 25 7 26 6 27 5 28 4 29 3 30 2 31 1 32
REMARK H PARENT
REMARK Flexibility Score: inf
ROOT
ATOM      1  C   UNL     1       3.932  18.803   8.003  1.00  0.00     0.000 C 
ENDROOT
BRANCH   1   2
ATOM      2  C   UNL     1       3.190  18.732   6.656  1.00  0.00     0.000 C 
BRANCH   2   3
ATOM      3  C   UNL     1       2.011  19.723   6.535  1.00  0.00     0.000 C 
BRANCH   3   4
ATOM      4  C   UNL     1       2.202  20.741   5.398  1.00  0.00     0.000 C 
BRANCH   4   5
ATOM      5  C   UNL     1       3.488  20.504   4.586  1.00  0.00     0.000 C 
BRANCH   5   6
ATOM      6  C   UNL     1       4.561  21.599   4.766  1.00  0.00     0.000 C 
BRANCH   6   7
ATOM      7  C   UNL     1       5.993  21.050   4.641  1.00  0.00     0.000 C 
BRANCH   7   8
ATOM      8  C   UNL     1       6.033  19.569   4.225  1.00  0.00     0.000 C 
BRANCH   8   9
ATOM      9  C   UNL     1       6.840  18.670   5.186  1.00  0.00     0.000 C 
BRANCH   9  10
ATOM     10  C   UNL     1       6.782  17.188   4.780  1.00  0.00     0.000 C 
BRANCH  10  11
ATOM     11  C   UNL     1       5.357  16.610   4.834  1.00  0.00     0.000 C 
BRANCH  11  12
ATOM     12  C   UNL     1       5.208  15.328   4.000  1.00  0.00     0.000 C 
BRANCH  12  13
ATOM     13  C   UNL     1       5.791  14.113   4.739  1.00  0.00     0.006 C 
BRANCH  13  14
ATOM     14  C   UNL     1       5.018  12.822   4.429  1.00  0.00     0.053 C 
BRANCH  14  15
ATOM     15  C   UNL     1       4.194  12.377   5.599  1.00  0.00     0.041 C 
ATOM     16  O   UNL     1       4.011  11.150   5.817  1.00  0.00    -0.550 OA
ATOM     17  O   UNL     1       3.594  13.318   6.428  1.00  0.00    -0.550 OA
ENDBRANCH  14  15
ENDBRANCH  13  14
ENDBRANCH  12  13
ENDBRANCH  11  12
ENDBRANCH  10  11
ENDBRANCH   9  10
ENDBRANCH   8   9
ENDBRANCH   7   8
ENDBRANCH   6   7
ENDBRANCH   5   6
ENDBRANCH   4   5
ENDBRANCH   3   4
ENDBRANCH   2   3
ENDBRANCH   1   2
BRANCH   1  18
ATOM     18  C   UNL     1       5.072  19.832   8.071  1.00  0.00     0.000 C 
BRANCH  18  19
ATOM     19  C   UNL     1       4.632  21.165   8.700  1.00  0.00     0.000 C 
BRANCH  19  20
ATOM     20  C   UNL     1       3.806  20.968   9.981  1.00  0.00     0.000 C 
BRANCH  20  21
ATOM     21  C   UNL     1       2.375  21.510   9.851  1.00  0.00     0.000 C 
BRANCH  21  22
ATOM     22  C   UNL     1       1.342  20.398  10.080  1.00  0.00     0.000 C 
BRANCH  22  23
ATOM     23  C   UNL     1       0.519  20.615  11.363  1.00  0.00     0.000 C 
BRANCH  23  24
ATOM     24  C   UNL     1       0.974  19.748  12.552  1.00  0.00    -0.000 C 
BRANCH  24  25
ATOM     25  C   UNL     1       2.002  18.675  12.146  1.00  0.00    -0.000 C 
BRANCH  25  26
ATOM     26  C   UNL     1       3.248  18.688  13.056  1.00  0.00    -0.000 C 
BRANCH  26  27
ATOM     27  C   UNL     1       4.413  17.841  12.515  1.00  0.00    -0.000 C 
BRANCH  27  28
ATOM     28  C   UNL     1       4.173  17.344  11.083  1.00  0.00    -0.000 C 
BRANCH  28  29
ATOM     29  C   UNL     1       5.043  16.120  10.768  1.00  0.00    -0.000 C 
BRANCH  29  30
ATOM     30  C   UNL     1       4.533  15.320   9.556  1.00  0.00    -0.000 C 
BRANCH  30  31
ATOM     31  C   UNL     1       5.363  15.541   8.274  1.00  0.00    -0.003 C 
ATOM     32  C   UNL     1       6.734  16.152   8.567  1.00  0.00     0.004 C 
ENDBRANCH  30  31
ENDBRANCH  29  30
ENDBRANCH  28  29
ENDBRANCH  27  28
ENDBRANCH  26  27
ENDBRANCH  25  26
ENDBRANCH  24  25
ENDBRANCH  23  24
ENDBRANCH  22  23
ENDBRANCH  21  22
ENDBRANCH  20  21
ENDBRANCH  19  20
ENDBRANCH  18  19
ENDBRANCH   1  18
TORSDOF 28
ENDMDL
MODEL 7
REMARK VINA RESULT:    -2.549      1.622      5.672
REMARK INTER + INTRA:         -12.341
REMARK INTER:                  -6.449
REMARK INTRA:                  -5.892
REMARK UNBOUND:                -5.620
REMARK SMILES CCCCCCCCCCCCCCCCCCCCCCCCCCCCCC(=O)[O-]
REMARK SMILES IDX 16 1 17 2 18 3 19 4 20 5 21 6 22 7 23 8 24 9 25 10 26 11
REMARK SMILES IDX 27 12 28 13 29 14 30 15 31 16 32 17 15 18 14 19 13 20 12 21
REMARK SMILES IDX 11 22 10 23 9 24 8 25 7 26 6 27 5 28 4 29 3 30 2 31 1 32
REMARK H PARENT
REMARK Flexibility Score: inf
ROOT
ATOM      1  C   UNL     1       4.273  18.889   7.390  1.00  0.00     0.000 C 
ENDROOT
BRANCH   1   2
ATOM      2  C   UNL     1       3.236  18.860   6.253  1.00  0.00     0.000 C 
BRANCH   2   3
ATOM      3  C   UNL     1       1.982  19.720   6.526  1.00  0.00     0.000 C 
BRANCH   3   4
ATOM      4  C   UNL     1       1.910  20.970   5.632  1.00  0.00     0.000 C 
BRANCH   4   5
ATOM      5  C   UNL     1       2.879  20.913   4.438  1.00  0.00     0.000 C 
BRANCH   5   6
ATOM      6  C   UNL     1       3.923  22.051   4.415  1.00  0.00     0.000 C 
BRANCH   6   7
ATOM      7  C   UNL     1       5.159  21.702   3.569  1.00  0.00     0.000 C 
BRANCH   7   8
ATOM      8  C   UNL     1       5.595  20.235   3.720  1.00  0.00     0.000 C 
BRANCH   8   9
ATOM      9  C   UNL     1       5.536  19.425   2.407  1.00  0.00     0.000 C 
BRANCH   9  10
ATOM     10  C   UNL     1       5.818  17.931   2.635  1.00  0.00     0.000 C 
BRANCH  10  11
ATOM     11  C   UNL     1       6.034  17.583   4.117  1.00  0.00     0.000 C 
BRANCH  11  12
ATOM     12  C   UNL     1       5.226  16.353   4.560  1.00  0.00     0.000 C 
BRANCH  12  13
ATOM     13  C   UNL     1       6.125  15.317   5.251  1.00  0.00     0.006 C 
BRANCH  13  14
ATOM     14  C   UNL     1       5.791  15.164   6.742  1.00  0.00     0.053 C 
BRANCH  14  15
ATOM     15  C   UNL     1       4.371  14.733   6.949  1.00  0.00     0.041 C 
ATOM     16  O   UNL     1       3.626  15.362   7.747  1.00  0.00    -0.550 OA
ATOM     17  O   UNL     1       3.879  13.611   6.292  1.00  0.00    -0.550 OA
ENDBRANCH  14  15
ENDBRANCH  13  14
ENDBRANCH  12  13
ENDBRANCH  11  12
ENDBRANCH  10  11
ENDBRANCH   9  10
ENDBRANCH   8   9
ENDBRANCH   7   8
ENDBRANCH   6   7
ENDBRANCH   5   6
ENDBRANCH   4   5
ENDBRANCH   3   4
ENDBRANCH   2   3
ENDBRANCH   1   2
BRANCH   1  18
ATOM     18  C   UNL     1       5.443  19.866   7.186  1.00  0.00     0.000 C 
BRANCH  18  19
ATOM     19  C   UNL     1       5.245  21.194   7.937  1.00  0.00     0.000 C 
BRANCH  19  20
ATOM     20  C   UNL     1       5.508  21.063   9.445  1.00  0.00     0.000 C 
BRANCH  20  21
ATOM     21  C   UNL     1       4.361  21.630  10.296  1.00  0.00     0.000 C 
BRANCH  21  22
ATOM     22  C   UNL     1       3.325  22.347   9.418  1.00  0.00     0.000 C 
BRANCH  22  23
ATOM     23  C   UNL     1       1.903  21.790   9.613  1.00  0.00     0.000 C 
BRANCH  23  24
ATOM     24  C   UNL     1       1.855  20.274   9.876  1.00  0.00    -0.000 C 
BRANCH  24  25
ATOM     25  C   UNL     1       1.411  19.933  11.310  1.00  0.00    -0.000 C 
BRANCH  25  26
ATOM     26  C   UNL     1       2.251  18.795  11.926  1.00  0.00    -0.000 C 
BRANCH  26  27
ATOM     27  C   UNL     1       3.241  18.156  10.937  1.00  0.00    -0.000 C 
BRANCH  27  28
ATOM     28  C   UNL     1       4.643  17.974  11.533  1.00  0.00    -0.000 C 
BRANCH  28  29
ATOM     29  C   UNL     1       5.031  16.490  11.596  1.00  0.00    -0.000 C 
BRANCH  29  30
ATOM     30  C   UNL     1       5.878  16.041  10.392  1.00  0.00    -0.000 C 
BRANCH  30  31
ATOM     31  C   UNL     1       7.271  16.703  10.334  1.00  0.00    -0.003 C 
ATOM     32  C   UNL     1       7.442  17.590   9.100  1.00  0.00     0.004 C 
ENDBRANCH  30  31
ENDBRANCH  29  30
ENDBRANCH  28  29
ENDBRANCH  27  28
ENDBRANCH  26  27
ENDBRANCH  25  26
ENDBRANCH  24  25
ENDBRANCH  23  24
ENDBRANCH  22  23
ENDBRANCH  21  22
ENDBRANCH  20  21
ENDBRANCH  19  20
ENDBRANCH  18  19
ENDBRANCH   1  18
TORSDOF 28
ENDMDL
MODEL 8
REMARK VINA RESULT:    -2.526      1.905      4.164
REMARK INTER + INTRA:         -12.281
REMARK INTER:                  -6.029
REMARK INTRA:                  -6.251
REMARK UNBOUND:                -5.620
REMARK SMILES CCCCCCCCCCCCCCCCCCCCCCCCCCCCCC(=O)[O-]
REMARK SMILES IDX 16 1 17 2 18 3 19 4 20 5 21 6 22 7 23 8 24 9 25 10 26 11
REMARK SMILES IDX 27 12 28 13 29 14 30 15 31 16 32 17 15 18 14 19 13 20 12 21
REMARK SMILES IDX 11 22 10 23 9 24 8 25 7 26 6 27 5 28 4 29 3 30 2 31 1 32
REMARK H PARENT
REMARK Flexibility Score: inf
ROOT
ATOM      1  C   UNL     1       1.895  19.682   6.714  1.00  0.00     0.000 C 
ENDROOT
BRANCH   1   2
ATOM      2  C   UNL     1       0.772  20.734   6.757  1.00  0.00     0.000 C 
BRANCH   2   3
ATOM      3  C   UNL     1       0.565  21.376   8.147  1.00  0.00     0.000 C 
BRANCH   3   4
ATOM      4  C   UNL     1       1.659  20.982   9.154  1.00  0.00     0.000 C 
BRANCH   4   5
ATOM      5  C   UNL     1       1.094  20.394  10.459  1.00  0.00     0.000 C 
BRANCH   5   6
ATOM      6  C   UNL     1       1.990  19.318  11.108  1.00  0.00     0.000 C 
BRANCH   6   7
ATOM      7  C   UNL     1       3.301  19.095  10.335  1.00  0.00     0.000 C 
BRANCH   7   8
ATOM      8  C   UNL     1       3.812  17.647  10.426  1.00  0.00     0.000 C 
BRANCH   8   9
ATOM      9  C   UNL     1       4.995  17.340   9.482  1.00  0.00     0.000 C 
BRANCH   9  10
ATOM     10  C   UNL     1       4.994  18.244   8.238  1.00  0.00     0.000 C 
BRANCH  10  11
ATOM     11  C   UNL     1       6.343  18.244   7.500  1.00  0.00     0.000 C 
BRANCH  11  12
ATOM     12  C   UNL     1       6.251  17.620   6.099  1.00  0.00     0.000 C 
BRANCH  12  13
ATOM     13  C   UNL     1       4.885  16.952   5.877  1.00  0.00     0.006 C 
BRANCH  13  14
ATOM     14  C   UNL     1       5.020  15.536   5.299  1.00  0.00     0.053 C 
BRANCH  14  15
ATOM     15  C   UNL     1       4.614  14.492   6.294  1.00  0.00     0.041 C 
ATOM     16  O   UNL     1       5.000  14.570   7.491  1.00  0.00    -0.550 OA
ATOM     17  O   UNL     1       3.841  13.408   5.893  1.00  0.00    -0.550 OA
ENDBRANCH  14  15
ENDBRANCH  13  14
ENDBRANCH  12  13
ENDBRANCH  11  12
ENDBRANCH  10  11
ENDBRANCH   9  10
ENDBRANCH   8   9
ENDBRANCH   7   8
ENDBRANCH   6   7
ENDBRANCH   5   6
ENDBRANCH   4   5
ENDBRANCH   3   4
ENDBRANCH   2   3
ENDBRANCH   1   2
BRANCH   1  18
ATOM     18  C   UNL     1       2.880  19.819   5.542  1.00  0.00     0.000 C 
BRANCH  18  19
ATOM     19  C   UNL     1       2.643  21.094   4.714  1.00  0.00     0.000 C 
BRANCH  19  20
ATOM     20  C   UNL     1       3.836  21.440   3.810  1.00  0.00     0.000 C 
BRANCH  20  21
ATOM     21  C   UNL     1       4.942  20.375   3.857  1.00  0.00     0.000 C 
BRANCH  21  22
ATOM     22  C   UNL     1       6.269  20.979   4.340  1.00  0.00     0.000 C 
BRANCH  22  23
ATOM     23  C   UNL     1       6.060  22.139   5.331  1.00  0.00     0.000 C 
BRANCH  23  24
ATOM     24  C   UNL     1       6.180  21.728   6.809  1.00  0.00    -0.000 C 
BRANCH  24  25
ATOM     25  C   UNL     1       4.875  21.949   7.595  1.00  0.00    -0.000 C 
BRANCH  25  26
ATOM     26  C   UNL     1       5.116  22.021   9.117  1.00  0.00    -0.000 C 
BRANCH  26  27
ATOM     27  C   UNL     1       6.573  21.744   9.524  1.00  0.00    -0.000 C 
BRANCH  27  28
ATOM     28  C   UNL     1       6.713  21.330  10.995  1.00  0.00    -0.000 C 
BRANCH  28  29
ATOM     29  C   UNL     1       6.990  19.826  11.123  1.00  0.00    -0.000 C 
BRANCH  29  30
ATOM     30  C   UNL     1       8.250  19.382  10.359  1.00  0.00    -0.000 C 
BRANCH  30  31
ATOM     31  C   UNL     1       8.930  18.133  10.957  1.00  0.00    -0.003 C 
ATOM     32  C   UNL     1       8.638  16.869  10.148  1.00  0.00     0.004 C 
ENDBRANCH  30  31
ENDBRANCH  29  30
ENDBRANCH  28  29
ENDBRANCH  27  28
ENDBRANCH  26  27
ENDBRANCH  25  26
ENDBRANCH  24  25
ENDBRANCH  23  24
ENDBRANCH  22  23
ENDBRANCH  21  22
ENDBRANCH  20  21
ENDBRANCH  19  20
ENDBRANCH  18  19
ENDBRANCH   1  18
TORSDOF 28
ENDMDL
MODEL 9
REMARK VINA RESULT:    -2.493      2.227      4.375
REMARK INTER + INTRA:         -12.194
REMARK INTER:                  -7.180
REMARK INTRA:                  -5.014
REMARK UNBOUND:                -5.620
REMARK SMILES CCCCCCCCCCCCCCCCCCCCCCCCCCCCCC(=O)[O-]
REMARK SMILES IDX 16 1 17 2 18 3 19 4 20 5 21 6 22 7 23 8 24 9 25 10 26 11
REMARK SMILES IDX 27 12 28 13 29 14 30 15 31 16 32 17 15 18 14 19 13 20 12 21
REMARK SMILES IDX 11 22 10 23 9 24 8 25 7 26 6 27 5 28 4 29 3 30 2 31 1 32
REMARK H PARENT
REMARK Flexibility Score: inf
ROOT
ATOM      1  C   UNL     1       2.858  18.614  10.846  1.00  0.00     0.000 C 
ENDROOT
BRANCH   1   2
ATOM      2  C   UNL     1       3.478  17.981  12.104  1.00  0.00     0.000 C 
BRANCH   2   3
ATOM      3  C   UNL     1       4.976  18.307  12.298  1.00  0.00     0.000 C 
BRANCH   3   4
ATOM      4  C   UNL     1       5.465  19.437  11.376  1.00  0.00     0.000 C 
BRANCH   4   5
ATOM      5  C   UNL     1       6.452  18.953  10.299  1.00  0.00     0.000 C 
BRANCH   5   6
ATOM      6  C   UNL     1       5.854  18.884   8.878  1.00  0.00     0.000 C 
BRANCH   6   7
ATOM      7  C   UNL     1       5.883  17.461   8.293  1.00  0.00     0.000 C 
BRANCH   7   8
ATOM      8  C   UNL     1       4.495  16.799   8.259  1.00  0.00     0.000 C 
BRANCH   8   9
ATOM      9  C   UNL     1       4.334  15.628   9.252  1.00  0.00     0.000 C 
BRANCH   9  10
ATOM     10  C   UNL     1       5.647  15.306   9.986  1.00  0.00     0.000 C 
BRANCH  10  11
ATOM     11  C   UNL     1       6.358  14.065   9.419  1.00  0.00     0.000 C 
BRANCH  11  12
ATOM     12  C   UNL     1       6.049  12.791  10.221  1.00  0.00     0.000 C 
BRANCH  12  13
ATOM     13  C   UNL     1       5.388  11.723   9.335  1.00  0.00     0.006 C 
BRANCH  13  14
ATOM     14  C   UNL     1       4.842  10.546  10.157  1.00  0.00     0.053 C 
BRANCH  14  15
ATOM     15  C   UNL     1       5.022   9.242   9.441  1.00  0.00     0.041 C 
ATOM     16  O   UNL     1       5.228   8.183  10.092  1.00  0.00    -0.550 OA
ATOM     17  O   UNL     1       5.002   9.200   8.052  1.00  0.00    -0.550 OA
ENDBRANCH  14  15
ENDBRANCH  13  14
ENDBRANCH  12  13
ENDBRANCH  11  12
ENDBRANCH  10  11
ENDBRANCH   9  10
ENDBRANCH   8   9
ENDBRANCH   7   8
ENDBRANCH   6   7
ENDBRANCH   5   6
ENDBRANCH   4   5
ENDBRANCH   3   4
ENDBRANCH   2   3
ENDBRANCH   1   2
BRANCH   1  18
ATOM     18  C   UNL     1       1.736  19.633  11.108  1.00  0.00     0.000 C 
BRANCH  18  19
ATOM     19  C   UNL     1       1.733  20.788  10.092  1.00  0.00     0.000 C 
BRANCH  19  20
ATOM     20  C   UNL     1       2.587  20.483   8.852  1.00  0.00     0.000 C 
BRANCH  20  21
ATOM     21  C   UNL     1       1.751  20.393   7.566  1.00  0.00     0.000 C 
BRANCH  21  22
ATOM     22  C   UNL     1       2.502  19.618   6.474  1.00  0.00     0.000 C 
BRANCH  22  23
ATOM     23  C   UNL     1       2.573  20.394   5.146  1.00  0.00     0.000 C 
BRANCH  23  24
ATOM     24  C   UNL     1       3.966  20.388   4.491  1.00  0.00    -0.000 C 
BRANCH  24  25
ATOM     25  C   UNL     1       5.083  19.990   5.473  1.00  0.00    -0.000 C 
BRANCH  25  26
ATOM     26  C   UNL     1       5.921  18.804   4.954  1.00  0.00    -0.000 C 
BRANCH  26  27
ATOM     27  C   UNL     1       5.100  17.523   4.724  1.00  0.00    -0.000 C 
BRANCH  27  28
ATOM     28  C   UNL     1       5.965  16.256   4.716  1.00  0.00    -0.000 C 
BRANCH  28  29
ATOM     29  C   UNL     1       5.113  15.005   4.458  1.00  0.00    -0.000 C 
BRANCH  29  30
ATOM     30  C   UNL     1       4.661  14.311   5.755  1.00  0.00    -0.000 C 
BRANCH  30  31
ATOM     31  C   UNL     1       4.999  12.807   5.803  1.00  0.00    -0.003 C 
ATOM     32  C   UNL     1       3.754  11.937   5.981  1.00  0.00     0.004 C 
ENDBRANCH  30  31
ENDBRANCH  29  30
ENDBRANCH  28  29
ENDBRANCH  27  28
ENDBRANCH  26  27
ENDBRANCH  25  26
ENDBRANCH  24  25
ENDBRANCH  23  24
ENDBRANCH  22  23
ENDBRANCH  21  22
ENDBRANCH  20  21
ENDBRANCH  19  20
ENDBRANCH  18  19
ENDBRANCH   1  18
TORSDOF 28
ENDMDL
