MODEL 1
REMARK VINA RESULT:    -4.761      0.000      0.000
REMARK INTER + INTRA:          -8.864
REMARK INTER:                  -7.544
REMARK INTRA:                  -1.320
REMARK UNBOUND:                -1.320
REMARK SMILES CCCCCCCCCCCC(=O)[O-]
REMARK SMILES IDX 7 1 8 2 9 3 10 4 11 5 12 6 13 7 14 8 6 9 5 10 4 11 3 12 2 13
REMARK SMILES IDX 1 14
REMARK H PARENT
REMARK Flexibility Score: inf
ROOT
ATOM      1  C   UNL     1      35.911   4.980   6.810  1.00  0.00     0.000 C 
ENDROOT
BRANCH   1   2
ATOM      2  C   UNL     1      36.994   4.265   7.638  1.00  0.00     0.000 C 
BRANCH   2   3
ATOM      3  C   UNL     1      37.507   2.985   6.960  1.00  0.00     0.000 C 
BRANCH   3   4
ATOM      4  C   UNL     1      36.631   1.761   7.269  1.00  0.00     0.006 C 
BRANCH   4   5
ATOM      5  C   UNL     1      37.240   0.488   6.674  1.00  0.00     0.053 C 
BRANCH   5   6
ATOM      6  C   UNL     1      36.163  -0.451   6.232  1.00  0.00     0.041 C 
ATOM      7  O   UNL     1      36.405  -1.330   5.364  1.00  0.00    -0.550 OA
ATOM      8  O   UNL     1      34.903  -0.387   6.814  1.00  0.00    -0.550 OA
ENDBRANCH   5   6
ENDBRANCH   4   5
ENDBRANCH   3   4
ENDBRANCH   2   3
ENDBRANCH   1   2
BRANCH   1   9
ATOM      9  C   UNL     1      34.513   4.853   7.435  1.00  0.00     0.000 C 
BRANCH   9  10
ATOM     10  C   UNL     1      33.530   4.089   6.530  1.00  0.00    -0.000 C 
BRANCH  10  11
ATOM     11  C   UNL     1      34.122   3.770   5.148  1.00  0.00    -0.000 C 
BRANCH  11  12
ATOM     12  C   UNL     1      33.913   2.301   4.741  1.00  0.00    -0.000 C 
BRANCH  12  13
ATOM     13  C   UNL     1      34.835   1.872   3.590  1.00  0.00    -0.003 C 
ATOM     14  C   UNL     1      34.456   0.513   3.000  1.00  0.00     0.004 C 
ENDBRANCH  12  13
ENDBRANCH  11  12
ENDBRANCH  10  11
ENDBRANCH   9  10
ENDBRANCH   1   9
TORSDOF 10
ENDMDL
MODEL 2
REMARK VINA RESULT:    -4.730     19.387     20.281
REMARK INTER + INTRA:          -8.815
REMARK INTER:                  -7.636
REMARK INTRA:                  -1.179
REMARK UNBOUND:                -1.320
REMARK SMILES CCCCCCCCCCCC(=O)[O-]
REMARK SMILES IDX 7 1 8 2 9 3 10 4 11 5 12 6 13 7 14 8 6 9 5 10 4 11 3 12 2 13
REMARK SMILES IDX 1 14
REMARK H PARENT
REMARK Flexibility Score: inf
ROOT
ATOM      1  C   UNL     1      50.269  10.821  -4.769  1.00  0.00     0.000 C 
ENDROOT
BRANCH   1   2
ATOM      2  C   UNL     1      49.463  11.927  -5.473  1.00  0.00     0.000 C 
BRANCH   2   3
ATOM      3  C   UNL     1      48.095  12.170  -4.817  1.00  0.00     0.000 C 
BRANCH   3   4
ATOM      4  C   UNL     1      46.923  11.813  -5.745  1.00  0.00     0.006 C 
BRANCH   4   5
ATOM      5  C   UNL     1      47.195  12.282  -7.176  1.00  0.00     0.053 C 
BRANCH   5   6
ATOM      6  C   UNL     1      45.976  12.926  -7.757  1.00  0.00     0.041 C 
ATOM      7  O   UNL     1      45.585  14.044  -7.328  1.00  0.00    -0.550 OA
ATOM      8  O   UNL     1      45.300  12.316  -8.805  1.00  0.00    -0.550 OA
ENDBRANCH   5   6
ENDBRANCH   4   5
ENDBRANCH   3   4
ENDBRANCH   2   3
ENDBRANCH   1   2
BRANCH   1   9
ATOM      9  C   UNL     1      50.048   9.438  -5.404  1.00  0.00     0.000 C 
BRANCH   9  10
ATOM     10  C   UNL     1      49.818   9.517  -6.923  1.00  0.00    -0.000 C 
BRANCH  10  11
ATOM     11  C   UNL     1      48.798   8.483  -7.425  1.00  0.00    -0.000 C 
BRANCH  11  12
ATOM     12  C   UNL     1      47.882   9.044  -8.527  1.00  0.00    -0.000 C 
BRANCH  12  13
ATOM     13  C   UNL     1      46.427   8.576  -8.377  1.00  0.00    -0.003 C 
ATOM     14  C   UNL     1      45.573   8.890  -9.606  1.00  0.00     0.004 C 
ENDBRANCH  12  13
ENDBRANCH  11  12
ENDBRANCH  10  11
ENDBRANCH   9  10
ENDBRANCH   1   9
TORSDOF 10
ENDMDL
MODEL 3
REMARK VINA RESULT:    -4.703     19.529     20.631
REMARK INTER + INTRA:          -8.772
REMARK INTER:                  -7.192
REMARK INTRA:                  -1.580
REMARK UNBOUND:                -1.320
REMARK SMILES CCCCCCCCCCCC(=O)[O-]
REMARK SMILES IDX 7 1 8 2 9 3 10 4 11 5 12 6 13 7 14 8 6 9 5 10 4 11 3 12 2 13
REMARK SMILES IDX 1 14
REMARK H PARENT
REMARK Flexibility Score: inf
ROOT
ATOM      1  C   UNL     1      50.011   9.764  -7.372  1.00  0.00     0.000 C 
ENDROOT
BRANCH   1   2
ATOM      2  C   UNL     1      48.763   8.917  -7.680  1.00  0.00     0.000 C 
BRANCH   2   3
ATOM      3  C   UNL     1      47.719   9.682  -8.508  1.00  0.00     0.000 C 
BRANCH   3   4
ATOM      4  C   UNL     1      48.153  11.123  -8.822  1.00  0.00     0.006 C 
BRANCH   4   5
ATOM      5  C   UNL     1      47.249  11.746  -9.889  1.00  0.00     0.053 C 
BRANCH   5   6
ATOM      6  C   UNL     1      45.938  12.152  -9.292  1.00  0.00     0.041 C 
ATOM      7  O   UNL     1      45.893  13.053  -8.413  1.00  0.00    -0.550 OA
ATOM      8  O   UNL     1      44.760  11.570  -9.741  1.00  0.00    -0.550 OA
ENDBRANCH   5   6
ENDBRANCH   4   5
ENDBRANCH   3   4
ENDBRANCH   2   3
ENDBRANCH   1   2
BRANCH   1   9
ATOM      9  C   UNL     1      50.233   9.957  -5.864  1.00  0.00     0.000 C 
BRANCH   9  10
ATOM     10  C   UNL     1      50.050  11.420  -5.424  1.00  0.00    -0.000 C 
BRANCH  10  11
ATOM     11  C   UNL     1      48.805  11.625  -4.546  1.00  0.00    -0.000 C 
BRANCH  11  12
ATOM     12  C   UNL     1      47.623  12.222  -5.329  1.00  0.00    -0.000 C 
BRANCH  12  13
ATOM     13  C   UNL     1      46.361  11.350  -5.244  1.00  0.00    -0.003 C 
ATOM     14  C   UNL     1      46.644   9.947  -4.708  1.00  0.00     0.004 C 
ENDBRANCH  12  13
ENDBRANCH  11  12
ENDBRANCH  10  11
ENDBRANCH   9  10
ENDBRANCH   1   9
TORSDOF 10
ENDMDL
MODEL 4
REMARK VINA RESULT:    -4.688      1.852      3.643
REMARK INTER + INTRA:          -8.749
REMARK INTER:                  -7.427
REMARK INTRA:                  -1.322
REMARK UNBOUND:                -1.320
REMARK SMILES CCCCCCCCCCCC(=O)[O-]
REMARK SMILES IDX 7 1 8 2 9 3 10 4 11 5 12 6 13 7 14 8 6 9 5 10 4 11 3 12 2 13
REMARK SMILES IDX 1 14
REMARK H PARENT
REMARK Flexibility Score: inf
ROOT
ATOM      1  C   UNL     1      34.179   4.628   5.802  1.00  0.00     0.000 C 
ENDROOT
BRANCH   1   2
ATOM      2  C   UNL     1      33.190   3.620   5.188  1.00  0.00     0.000 C 
BRANCH   2   3
ATOM      3  C   UNL     1      33.642   3.113   3.810  1.00  0.00     0.000 C 
BRANCH   3   4
ATOM      4  C   UNL     1      34.784   2.088   3.902  1.00  0.00     0.006 C 
BRANCH   4   5
ATOM      5  C   UNL     1      34.414   0.791   3.178  1.00  0.00     0.053 C 
BRANCH   5   6
ATOM      6  C   UNL     1      35.340  -0.314   3.578  1.00  0.00     0.041 C 
ATOM      7  O   UNL     1      34.897  -1.480   3.752  1.00  0.00    -0.550 OA
ATOM      8  O   UNL     1      36.700  -0.067   3.710  1.00  0.00    -0.550 OA
ENDBRANCH   5   6
ENDBRANCH   4   5
ENDBRANCH   3   4
ENDBRANCH   2   3
ENDBRANCH   1   2
BRANCH   1   9
ATOM      9  C   UNL     1      34.563   4.269   7.246  1.00  0.00     0.000 C 
BRANCH   9  10
ATOM     10  C   UNL     1      35.799   3.355   7.318  1.00  0.00    -0.000 C 
BRANCH  10  11
ATOM     11  C   UNL     1      35.453   1.921   7.749  1.00  0.00    -0.000 C 
BRANCH  11  12
ATOM     12  C   UNL     1      34.144   1.847   8.555  1.00  0.00    -0.000 C 
BRANCH  12  13
ATOM     13  C   UNL     1      33.354   0.559   8.277  1.00  0.00    -0.003 C 
ATOM     14  C   UNL     1      33.507   0.068   6.837  1.00  0.00     0.004 C 
ENDBRANCH  12  13
ENDBRANCH  11  12
ENDBRANCH  10  11
ENDBRANCH   9  10
ENDBRANCH   1   9
TORSDOF 10
ENDMDL
MODEL 5
REMARK VINA RESULT:    -4.664      2.520      5.313
REMARK INTER + INTRA:          -8.710
REMARK INTER:                  -7.363
REMARK INTRA:                  -1.348
REMARK UNBOUND:                -1.320
REMARK SMILES CCCCCCCCCCCC(=O)[O-]
REMARK SMILES IDX 7 1 8 2 9 3 10 4 11 5 12 6 13 7 14 8 6 9 5 10 4 11 3 12 2 13
REMARK SMILES IDX 1 14
REMARK H PARENT
REMARK Flexibility Score: inf
ROOT
ATOM      1  C   UNL     1      34.626   0.428   3.171  1.00  0.00     0.000 C 
ENDROOT
BRANCH   1   2
ATOM      2  C   UNL     1      34.422   1.901   3.569  1.00  0.00     0.000 C 
BRANCH   2   3
ATOM      3  C   UNL     1      33.729   2.054   4.932  1.00  0.00     0.000 C 
BRANCH   3   4
ATOM      4  C   UNL     1      33.533   3.525   5.334  1.00  0.00     0.006 C 
BRANCH   4   5
ATOM      5  C   UNL     1      33.612   3.692   6.853  1.00  0.00     0.053 C 
BRANCH   5   6
ATOM      6  C   UNL     1      34.456   4.875   7.207  1.00  0.00     0.041 C 
ATOM      7  O   UNL     1      35.181   4.852   8.236  1.00  0.00    -0.550 OA
ATOM      8  O   UNL     1      34.481   5.986   6.373  1.00  0.00    -0.550 OA
ENDBRANCH   5   6
ENDBRANCH   4   5
ENDBRANCH   3   4
ENDBRANCH   2   3
ENDBRANCH   1   2
BRANCH   1   9
ATOM      9  C   UNL     1      34.597  -0.518   4.383  1.00  0.00     0.000 C 
BRANCH   9  10
ATOM     10  C   UNL     1      36.001  -0.786   4.954  1.00  0.00    -0.000 C 
BRANCH  10  11
ATOM     11  C   UNL     1      36.125  -0.390   6.434  1.00  0.00    -0.000 C 
BRANCH  11  12
ATOM     12  C   UNL     1      37.418   0.389   6.730  1.00  0.00    -0.000 C 
BRANCH  12  13
ATOM     13  C   UNL     1      37.165   1.887   6.952  1.00  0.00    -0.003 C 
ATOM     14  C   UNL     1      37.338   2.714   5.677  1.00  0.00     0.004 C 
ENDBRANCH  12  13
ENDBRANCH  11  12
ENDBRANCH  10  11
ENDBRANCH   9  10
ENDBRANCH   1   9
TORSDOF 10
ENDMDL
MODEL 6
REMARK VINA RESULT:    -4.659     19.853     20.627
REMARK INTER + INTRA:          -8.703
REMARK INTER:                  -7.385
REMARK INTRA:                  -1.318
REMARK UNBOUND:                -1.320
REMARK SMILES CCCCCCCCCCCC(=O)[O-]
REMARK SMILES IDX 7 1 8 2 9 3 10 4 11 5 12 6 13 7 14 8 6 9 5 10 4 11 3 12 2 13
REMARK SMILES IDX 1 14
REMARK H PARENT
REMARK Flexibility Score: inf
ROOT
ATOM      1  C   UNL     1      46.784  12.400  -5.463  1.00  0.00     0.000 C 
ENDROOT
BRANCH   1   2
ATOM      2  C   UNL     1      48.198  12.066  -4.956  1.00  0.00     0.000 C 
BRANCH   2   3
ATOM      3  C   UNL     1      49.221  11.944  -6.096  1.00  0.00     0.000 C 
BRANCH   3   4
ATOM      4  C   UNL     1      50.131  10.714  -5.944  1.00  0.00     0.006 C 
BRANCH   4   5
ATOM      5  C   UNL     1      50.159   9.891  -7.235  1.00  0.00     0.053 C 
BRANCH   5   6
ATOM      6  C   UNL     1      49.209   8.740  -7.141  1.00  0.00     0.041 C 
ATOM      7  O   UNL     1      48.389   8.670  -6.188  1.00  0.00    -0.550 OA
ATOM      8  O   UNL     1      49.195   7.767  -8.132  1.00  0.00    -0.550 OA
ENDBRANCH   5   6
ENDBRANCH   4   5
ENDBRANCH   3   4
ENDBRANCH   2   3
ENDBRANCH   1   2
BRANCH   1   9
ATOM      9  C   UNL     1      46.441  11.670  -6.772  1.00  0.00     0.000 C 
BRANCH   9  10
ATOM     10  C   UNL     1      45.736  12.585  -7.789  1.00  0.00    -0.000 C 
BRANCH  10  11
ATOM     11  C   UNL     1      46.278  12.414  -9.217  1.00  0.00    -0.000 C 
BRANCH  11  12
ATOM     12  C   UNL     1      47.302  11.271  -9.326  1.00  0.00    -0.000 C 
BRANCH  12  13
ATOM     13  C   UNL     1      48.366  11.535 -10.402  1.00  0.00    -0.003 C 
ATOM     14  C   UNL     1      49.548  12.354  -9.880  1.00  0.00     0.004 C 
ENDBRANCH  12  13
ENDBRANCH  11  12
ENDBRANCH  10  11
ENDBRANCH   9  10
ENDBRANCH   1   9
TORSDOF 10
ENDMDL
MODEL 7
REMARK VINA RESULT:    -4.654      1.696      3.619
REMARK INTER + INTRA:          -8.695
REMARK INTER:                  -7.628
REMARK INTRA:                  -1.067
REMARK UNBOUND:                -1.320
REMARK SMILES CCCCCCCCCCCC(=O)[O-]
REMARK SMILES IDX 7 1 8 2 9 3 10 4 11 5 12 6 13 7 14 8 6 9 5 10 4 11 3 12 2 13
REMARK SMILES IDX 1 14
REMARK H PARENT
REMARK Flexibility Score: inf
ROOT
ATOM      1  C   UNL     1      33.198   3.484   4.012  1.00  0.00     0.000 C 
ENDROOT
BRANCH   1   2
ATOM      2  C   UNL     1      34.288   2.502   3.548  1.00  0.00     0.000 C 
BRANCH   2   3
ATOM      3  C   UNL     1      34.272   1.184   4.338  1.00  0.00     0.000 C 
BRANCH   3   4
ATOM      4  C   UNL     1      34.623  -0.032   3.468  1.00  0.00     0.006 C 
BRANCH   4   5
ATOM      5  C   UNL     1      34.983  -1.241   4.336  1.00  0.00     0.053 C 
BRANCH   5   6
ATOM      6  C   UNL     1      36.318  -1.044   4.980  1.00  0.00     0.041 C 
ATOM      7  O   UNL     1      37.370  -1.102   4.290  1.00  0.00    -0.550 OA
ATOM      8  O   UNL     1      36.400  -0.749   6.335  1.00  0.00    -0.550 OA
ENDBRANCH   5   6
ENDBRANCH   4   5
ENDBRANCH   3   4
ENDBRANCH   2   3
ENDBRANCH   1   2
BRANCH   1   9
ATOM      9  C   UNL     1      33.121   3.596   5.543  1.00  0.00     0.000 C 
BRANCH   9  10
ATOM     10  C   UNL     1      34.186   4.547   6.118  1.00  0.00    -0.000 C 
BRANCH  10  11
ATOM     11  C   UNL     1      34.620   4.161   7.541  1.00  0.00    -0.000 C 
BRANCH  11  12
ATOM     12  C   UNL     1      35.067   2.692   7.644  1.00  0.00    -0.000 C 
BRANCH  12  13
ATOM     13  C   UNL     1      34.235   1.894   8.659  1.00  0.00    -0.003 C 
ATOM     14  C   UNL     1      33.541   0.683   8.036  1.00  0.00     0.004 C 
ENDBRANCH  12  13
ENDBRANCH  11  12
ENDBRANCH  10  11
ENDBRANCH   9  10
ENDBRANCH   1   9
TORSDOF 10
ENDMDL
MODEL 8
REMARK VINA RESULT:    -4.646      2.272      5.290
REMARK INTER + INTRA:          -8.682
REMARK INTER:                  -7.540
REMARK INTRA:                  -1.142
REMARK UNBOUND:                -1.320
REMARK SMILES CCCCCCCCCCCC(=O)[O-]
REMARK SMILES IDX 7 1 8 2 9 3 10 4 11 5 12 6 13 7 14 8 6 9 5 10 4 11 3 12 2 13
REMARK SMILES IDX 1 14
REMARK H PARENT
REMARK Flexibility Score: inf
ROOT
ATOM      1  C   UNL     1      37.207  -0.335   4.083  1.00  0.00     0.000 C 
ENDROOT
BRANCH   1   2
ATOM      2  C   UNL     1      36.559   0.777   3.239  1.00  0.00     0.000 C 
BRANCH   2   3
ATOM      3  C   UNL     1      35.040   0.597   3.091  1.00  0.00     0.000 C 
BRANCH   3   4
ATOM      4  C   UNL     1      34.258   1.875   3.435  1.00  0.00     0.006 C 
BRANCH   4   5
ATOM      5  C   UNL     1      34.194   2.085   4.950  1.00  0.00     0.053 C 
BRANCH   5   6
ATOM      6  C   UNL     1      33.429   3.329   5.274  1.00  0.00     0.041 C 
ATOM      7  O   UNL     1      32.559   3.765   4.474  1.00  0.00    -0.550 OA
ATOM      8  O   UNL     1      33.642   3.982   6.481  1.00  0.00    -0.550 OA
ENDBRANCH   5   6
ENDBRANCH   4   5
ENDBRANCH   3   4
ENDBRANCH   2   3
ENDBRANCH   1   2
BRANCH   1   9
ATOM      9  C   UNL     1      36.193  -1.051   4.990  1.00  0.00     0.000 C 
BRANCH   9  10
ATOM     10  C   UNL     1      36.402  -0.724   6.479  1.00  0.00    -0.000 C 
BRANCH  10  11
ATOM     11  C   UNL     1      37.398   0.425   6.701  1.00  0.00    -0.000 C 
BRANCH  11  12
ATOM     12  C   UNL     1      36.719   1.701   7.229  1.00  0.00    -0.000 C 
BRANCH  12  13
ATOM     13  C   UNL     1      37.497   2.975   6.864  1.00  0.00    -0.003 C 
ATOM     14  C   UNL     1      37.124   4.169   7.743  1.00  0.00     0.004 C 
ENDBRANCH  12  13
ENDBRANCH  11  12
ENDBRANCH  10  11
ENDBRANCH   9  10
ENDBRANCH   1   9
TORSDOF 10
ENDMDL
MODEL 9
REMARK VINA RESULT:    -4.605     19.339     20.339
REMARK INTER + INTRA:          -8.617
REMARK INTER:                  -7.152
REMARK INTRA:                  -1.465
REMARK UNBOUND:                -1.320
REMARK SMILES CCCCCCCCCCCC(=O)[O-]
REMARK SMILES IDX 7 1 8 2 9 3 10 4 11 5 12 6 13 7 14 8 6 9 5 10 4 11 3 12 2 13
REMARK SMILES IDX 1 14
REMARK H PARENT
REMARK Flexibility Score: inf
ROOT
ATOM      1  C   UNL     1      48.154  11.433  -4.802  1.00  0.00     0.000 C 
ENDROOT
BRANCH   1   2
ATOM      2  C   UNL     1      46.927  11.679  -5.698  1.00  0.00     0.000 C 
BRANCH   2   3
ATOM      3  C   UNL     1      47.286  12.402  -7.005  1.00  0.00     0.000 C 
BRANCH   3   4
ATOM      4  C   UNL     1      46.044  12.836  -7.800  1.00  0.00     0.006 C 
BRANCH   4   5
ATOM      5  C   UNL     1      46.158  12.413  -9.267  1.00  0.00     0.053 C 
BRANCH   5   6
ATOM      6  C   UNL     1      44.981  11.581  -9.665  1.00  0.00     0.041 C 
ATOM      7  O   UNL     1      45.058  10.806 -10.655  1.00  0.00    -0.550 OA
ATOM      8  O   UNL     1      43.814  11.623  -8.914  1.00  0.00    -0.550 OA
ENDBRANCH   5   6
ENDBRANCH   4   5
ENDBRANCH   3   4
ENDBRANCH   2   3
ENDBRANCH   1   2
BRANCH   1   9
ATOM      9  C   UNL     1      48.753  10.031  -4.997  1.00  0.00     0.000 C 
BRANCH   9  10
ATOM     10  C   UNL     1      50.120  10.067  -5.704  1.00  0.00    -0.000 C 
BRANCH  10  11
ATOM     11  C   UNL     1      50.006   9.872  -7.224  1.00  0.00    -0.000 C 
BRANCH  11  12
ATOM     12  C   UNL     1      49.102   8.686  -7.601  1.00  0.00    -0.000 C 
BRANCH  12  13
ATOM     13  C   UNL     1      47.934   9.102  -8.509  1.00  0.00    -0.003 C 
ATOM     14  C   UNL     1      46.575   8.651  -7.973  1.00  0.00     0.004 C 
ENDBRANCH  12  13
ENDBRANCH  11  12
ENDBRANCH  10  11
ENDBRANCH   9  10
ENDBRANCH   1   9
TORSDOF 10
ENDMDL
