MODEL 1
REMARK VINA RESULT:    -5.221      0.000      0.000
REMARK INTER + INTRA:          -5.526
REMARK INTER:                  -5.526
REMARK INTRA:                   0.000
REMARK UNBOUND:                 0.000
REMARK SMILES O=c1ccc2cc(O)c(O)cc2o1
REMARK SMILES IDX 4 1 3 2 2 3 1 4 13 5 12 6 11 7 9 8 7 9 6 10 5 11 8 12 10 14
REMARK H PARENT 8 13 10 15
REMARK Flexibility Score: inf
ROOT
ATOM      1  C   UNL     1      12.463  36.616  49.727  1.00  0.00     0.019 A 
ATOM      2  C   UNL     1      11.832  36.252  48.538  1.00  0.00     0.094 A 
ATOM      3  C   UNL     1      12.565  36.280  47.346  1.00  0.00     0.336 A 
ATOM      4  O   UNL     1      12.014  35.955  46.263  1.00  0.00    -0.246 OA
ATOM      5  O   UNL     1      13.844  36.648  47.350  1.00  0.00    -0.423 OA
ATOM      6  C   UNL     1      14.483  37.002  48.463  1.00  0.00     0.142 A 
ATOM      7  C   UNL     1      15.828  37.379  48.405  1.00  0.00     0.098 A 
ATOM      8  C   UNL     1      16.508  37.754  49.570  1.00  0.00     0.161 A 
ATOM      9  C   UNL     1      15.837  37.751  50.807  1.00  0.00     0.158 A 
ATOM     10  C   UNL     1      14.487  37.372  50.869  1.00  0.00     0.062 A 
ATOM     11  C   UNL     1      13.808  36.999  49.702  1.00  0.00     0.022 A 
ENDROOT
BRANCH   9  12
ATOM     12  O   UNL     1      16.512  38.124  51.968  1.00  0.00    -0.504 OA
ATOM     13  H   UNL     1      17.216  38.854  51.963  1.00  0.00     0.293 HD
ENDBRANCH   9  12
BRANCH   8  14
ATOM     14  O   UNL     1      17.850  38.125  49.481  1.00  0.00    -0.504 OA
ATOM     15  H   UNL     1      18.525  37.582  48.958  1.00  0.00     0.293 HD
ENDBRANCH   8  14
TORSDOF 2
ENDMDL
MODEL 2
REMARK VINA RESULT:    -5.109      1.123      2.258
REMARK INTER + INTRA:          -5.408
REMARK INTER:                  -5.408
REMARK INTRA:                   0.000
REMARK UNBOUND:                 0.000
REMARK SMILES O=c1ccc2cc(O)c(O)cc2o1
REMARK SMILES IDX 4 1 3 2 2 3 1 4 13 5 12 6 11 7 9 8 7 9 6 10 5 11 8 12 10 14
REMARK H PARENT 8 13 10 15
REMARK Flexibility Score: inf
ROOT
ATOM      1  C   UNL     1      13.831  36.613  47.197  1.00  0.00     0.019 A 
ATOM      2  C   UNL     1      12.488  36.250  47.292  1.00  0.00     0.094 A 
ATOM      3  C   UNL     1      11.867  36.277  48.546  1.00  0.00     0.336 A 
ATOM      4  O   UNL     1      10.656  35.953  48.653  1.00  0.00    -0.246 OA
ATOM      5  O   UNL     1      12.548  36.645  49.628  1.00  0.00    -0.423 OA
ATOM      6  C   UNL     1      13.830  37.000  49.579  1.00  0.00     0.142 A 
ATOM      7  C   UNL     1      14.495  37.377  50.750  1.00  0.00     0.098 A 
ATOM      8  C   UNL     1      15.844  37.751  50.709  1.00  0.00     0.161 A 
ATOM      9  C   UNL     1      16.536  37.748  49.484  1.00  0.00     0.158 A 
ATOM     10  C   UNL     1      15.873  37.370  48.306  1.00  0.00     0.062 A 
ATOM     11  C   UNL     1      14.524  36.995  48.350  1.00  0.00     0.022 A 
ENDROOT
BRANCH   9  12
ATOM     12  O   UNL     1      17.879  38.119  49.441  1.00  0.00    -0.504 OA
ATOM     13  H   UNL     1      18.160  39.087  49.322  1.00  0.00     0.293 HD
ENDBRANCH   9  12
BRANCH   8  14
ATOM     14  O   UNL     1      16.479  38.123  51.893  1.00  0.00    -0.504 OA
ATOM     15  H   UNL     1      16.613  39.093  52.151  1.00  0.00     0.293 HD
ENDBRANCH   8  14
TORSDOF 2
ENDMDL
MODEL 3
REMARK VINA RESULT:    -4.640      1.351      4.503
REMARK INTER + INTRA:          -4.912
REMARK INTER:                  -4.912
REMARK INTRA:                   0.000
REMARK UNBOUND:                 0.000
REMARK SMILES O=c1ccc2cc(O)c(O)cc2o1
REMARK SMILES IDX 4 1 3 2 2 3 1 4 13 5 12 6 11 7 9 8 7 9 6 10 5 11 8 12 10 14
REMARK H PARENT 8 13 10 15
REMARK Flexibility Score: inf
ROOT
ATOM      1  C   UNL     1      14.640  37.500  51.136  1.00  0.00     0.019 A 
ATOM      2  C   UNL     1      15.941  37.875  50.800  1.00  0.00     0.094 A 
ATOM      3  C   UNL     1      16.345  37.791  49.462  1.00  0.00     0.336 A 
ATOM      4  O   UNL     1      17.514  38.125  49.138  1.00  0.00    -0.246 OA
ATOM      5  O   UNL     1      15.500  37.362  48.529  1.00  0.00    -0.423 OA
ATOM      6  C   UNL     1      14.251  36.996  48.808  1.00  0.00     0.142 A 
ATOM      7  C   UNL     1      13.408  36.552  47.785  1.00  0.00     0.098 A 
ATOM      8  C   UNL     1      12.093  36.164  48.069  1.00  0.00     0.161 A 
ATOM      9  C   UNL     1      11.614  36.220  49.392  1.00  0.00     0.158 A 
ATOM     10  C   UNL     1      12.458  36.666  50.422  1.00  0.00     0.062 A 
ATOM     11  C   UNL     1      13.773  37.052  50.135  1.00  0.00     0.022 A 
ENDROOT
BRANCH   9  12
ATOM     12  O   UNL     1      10.306  35.835  49.677  1.00  0.00    -0.504 OA
ATOM     13  H   UNL     1       9.630  36.488  50.059  1.00  0.00     0.293 HD
ENDBRANCH   9  12
BRANCH   8  14
ATOM     14  O   UNL     1      11.275  35.727  47.028  1.00  0.00    -0.504 OA
ATOM     15  H   UNL     1      11.608  35.093  46.311  1.00  0.00     0.293 HD
ENDBRANCH   8  14
TORSDOF 2
ENDMDL
MODEL 4
REMARK VINA RESULT:    -4.629      1.686      2.619
REMARK INTER + INTRA:          -4.900
REMARK INTER:                  -4.900
REMARK INTRA:                   0.000
REMARK UNBOUND:                 0.000
REMARK SMILES O=c1ccc2cc(O)c(O)cc2o1
REMARK SMILES IDX 4 1 3 2 2 3 1 4 13 5 12 6 11 7 9 8 7 9 6 10 5 11 8 12 10 14
REMARK H PARENT 8 13 10 15
REMARK Flexibility Score: inf
ROOT
ATOM      1  C   UNL     1      13.162  36.955  50.549  1.00  0.00     0.019 A 
ATOM      2  C   UNL     1      11.836  36.526  50.520  1.00  0.00     0.094 A 
ATOM      3  C   UNL     1      11.275  36.140  49.297  1.00  0.00     0.336 A 
ATOM      4  O   UNL     1      10.080  35.750  49.250  1.00  0.00    -0.246 OA
ATOM      5  O   UNL     1      11.999  36.180  48.182  1.00  0.00    -0.423 OA
ATOM      6  C   UNL     1      13.268  36.582  48.166  1.00  0.00     0.142 A 
ATOM      7  C   UNL     1      13.979  36.603  46.963  1.00  0.00     0.098 A 
ATOM      8  C   UNL     1      15.314  37.025  46.937  1.00  0.00     0.161 A 
ATOM      9  C   UNL     1      15.946  37.429  48.127  1.00  0.00     0.158 A 
ATOM     10  C   UNL     1      15.236  37.409  49.338  1.00  0.00     0.062 A 
ATOM     11  C   UNL     1      13.900  36.988  49.361  1.00  0.00     0.022 A 
ENDROOT
BRANCH   9  12
ATOM     12  O   UNL     1      17.274  37.849  48.104  1.00  0.00    -0.504 OA
ATOM     13  H   UNL     1      17.796  38.012  48.958  1.00  0.00     0.293 HD
ENDBRANCH   9  12
BRANCH   8  14
ATOM     14  O   UNL     1      15.997  37.035  45.721  1.00  0.00    -0.504 OA
ATOM     15  H   UNL     1      16.938  36.672  45.629  1.00  0.00     0.293 HD
ENDBRANCH   8  14
TORSDOF 2
ENDMDL
MODEL 5
REMARK VINA RESULT:    -4.431      2.087      3.073
REMARK INTER + INTRA:          -4.690
REMARK INTER:                  -4.690
REMARK INTRA:                   0.000
REMARK UNBOUND:                 0.000
REMARK SMILES O=c1ccc2cc(O)c(O)cc2o1
REMARK SMILES IDX 4 1 3 2 2 3 1 4 13 5 12 6 11 7 9 8 7 9 6 10 5 11 8 12 10 14
REMARK H PARENT 8 13 10 15
REMARK Flexibility Score: inf
ROOT
ATOM      1  C   UNL     1      13.493  36.198  46.689  1.00  0.00     0.019 A 
ATOM      2  C   UNL     1      14.475  36.174  45.699  1.00  0.00     0.094 A 
ATOM      3  C   UNL     1      15.783  36.542  46.034  1.00  0.00     0.336 A 
ATOM      4  O   UNL     1      16.684  36.527  45.156  1.00  0.00    -0.246 OA
ATOM      5  O   UNL     1      16.083  36.908  47.278  1.00  0.00    -0.423 OA
ATOM      6  C   UNL     1      15.175  36.944  48.251  1.00  0.00     0.142 A 
ATOM      7  C   UNL     1      15.549  37.337  49.540  1.00  0.00     0.098 A 
ATOM      8  C   UNL     1      14.601  37.378  50.570  1.00  0.00     0.161 A 
ATOM      9  C   UNL     1      13.265  37.022  50.309  1.00  0.00     0.158 A 
ATOM     10  C   UNL     1      12.886  36.626  49.017  1.00  0.00     0.062 A 
ATOM     11  C   UNL     1      13.836  36.587  47.988  1.00  0.00     0.022 A 
ENDROOT
BRANCH   9  12
ATOM     12  O   UNL     1      12.320  37.062  51.333  1.00  0.00    -0.504 OA
ATOM     13  H   UNL     1      11.326  37.011  51.141  1.00  0.00     0.293 HD
ENDBRANCH   9  12
BRANCH   8  14
ATOM     14  O   UNL     1      15.004  37.774  51.845  1.00  0.00    -0.504 OA
ATOM     15  H   UNL     1      14.444  37.591  52.668  1.00  0.00     0.293 HD
ENDBRANCH   8  14
TORSDOF 2
ENDMDL
MODEL 6
REMARK VINA RESULT:    -4.403      1.418      5.143
REMARK INTER + INTRA:          -4.661
REMARK INTER:                  -4.661
REMARK INTRA:                   0.000
REMARK UNBOUND:                 0.000
REMARK SMILES O=c1ccc2cc(O)c(O)cc2o1
REMARK SMILES IDX 4 1 3 2 2 3 1 4 13 5 12 6 11 7 9 8 7 9 6 10 5 11 8 12 10 14
REMARK H PARENT 8 13 10 15
REMARK Flexibility Score: inf
ROOT
ATOM      1  C   UNL     1      15.299  37.181  48.483  1.00  0.00     0.019 A 
ATOM      2  C   UNL     1      16.070  37.604  49.565  1.00  0.00     0.094 A 
ATOM      3  C   UNL     1      15.477  37.678  50.831  1.00  0.00     0.336 A 
ATOM      4  O   UNL     1      16.156  38.057  51.820  1.00  0.00    -0.246 OA
ATOM      5  O   UNL     1      14.198  37.350  50.997  1.00  0.00    -0.423 OA
ATOM      6  C   UNL     1      13.429  36.942  49.990  1.00  0.00     0.142 A 
ATOM      7  C   UNL     1      12.091  36.611  50.225  1.00  0.00     0.098 A 
ATOM      8  C   UNL     1      11.273  36.181  49.173  1.00  0.00     0.161 A 
ATOM      9  C   UNL     1      11.798  36.081  47.871  1.00  0.00     0.158 A 
ATOM     10  C   UNL     1      13.141  36.412  47.631  1.00  0.00     0.062 A 
ATOM     11  C   UNL     1      13.957  36.843  48.685  1.00  0.00     0.022 A 
ENDROOT
BRANCH   9  12
ATOM     12  O   UNL     1      10.987  35.653  46.822  1.00  0.00    -0.504 OA
ATOM     13  H   UNL     1      10.175  36.185  46.527  1.00  0.00     0.293 HD
ENDBRANCH   9  12
BRANCH   8  14
ATOM     14  O   UNL     1       9.943  35.857  49.437  1.00  0.00    -0.504 OA
ATOM     15  H   UNL     1       9.217  35.946  48.737  1.00  0.00     0.293 HD
ENDBRANCH   8  14
TORSDOF 2
ENDMDL
MODEL 7
REMARK VINA RESULT:    -4.268      1.882      3.087
REMARK INTER + INTRA:          -4.517
REMARK INTER:                  -4.517
REMARK INTRA:                   0.000
REMARK UNBOUND:                 0.000
REMARK SMILES O=c1ccc2cc(O)c(O)cc2o1
REMARK SMILES IDX 4 1 3 2 2 3 1 4 13 5 12 6 11 7 9 8 7 9 6 10 5 11 8 12 10 14
REMARK H PARENT 8 13 10 15
REMARK Flexibility Score: inf
ROOT
ATOM      1  C   UNL     1      16.409  36.968  47.308  1.00  0.00     0.019 A 
ATOM      2  C   UNL     1      16.028  36.569  46.028  1.00  0.00     0.094 A 
ATOM      3  C   UNL     1      14.693  36.219  45.796  1.00  0.00     0.336 A 
ATOM      4  O   UNL     1      14.329  35.855  44.648  1.00  0.00    -0.246 OA
ATOM      5  O   UNL     1      13.803  36.268  46.784  1.00  0.00    -0.423 OA
ATOM      6  C   UNL     1      14.125  36.645  48.019  1.00  0.00     0.142 A 
ATOM      7  C   UNL     1      13.146  36.677  49.017  1.00  0.00     0.098 A 
ATOM      8  C   UNL     1      13.475  37.071  50.319  1.00  0.00     0.161 A 
ATOM      9  C   UNL     1      14.798  37.437  50.629  1.00  0.00     0.158 A 
ATOM     10  C   UNL     1      15.785  37.406  49.630  1.00  0.00     0.062 A 
ATOM     11  C   UNL     1      15.452  37.011  48.328  1.00  0.00     0.022 A 
ENDROOT
BRANCH   9  12
ATOM     12  O   UNL     1      15.129  37.830  51.924  1.00  0.00    -0.504 OA
ATOM     13  H   UNL     1      14.557  38.488  52.443  1.00  0.00     0.293 HD
ENDBRANCH   9  12
BRANCH   8  14
ATOM     14  O   UNL     1      12.477  37.094  51.293  1.00  0.00    -0.504 OA
ATOM     15  H   UNL     1      11.505  37.259  51.064  1.00  0.00     0.293 HD
ENDBRANCH   8  14
TORSDOF 2
ENDMDL
MODEL 8
REMARK VINA RESULT:    -4.090      2.536      3.114
REMARK INTER + INTRA:          -4.329
REMARK INTER:                  -4.329
REMARK INTRA:                   0.000
REMARK UNBOUND:                 0.000
REMARK SMILES O=c1ccc2cc(O)c(O)cc2o1
REMARK SMILES IDX 4 1 3 2 2 3 1 4 13 5 12 6 11 7 9 8 7 9 6 10 5 11 8 12 10 14
REMARK H PARENT 8 13 10 15
REMARK Flexibility Score: inf
ROOT
ATOM      1  C   UNL     1      13.096  36.982  49.906  1.00  0.00     0.019 A 
ATOM      2  C   UNL     1      12.294  36.152  50.689  1.00  0.00     0.094 A 
ATOM      3  C   UNL     1      12.892  35.099  51.391  1.00  0.00     0.336 A 
ATOM      4  O   UNL     1      12.186  34.340  52.103  1.00  0.00    -0.246 OA
ATOM      5  O   UNL     1      14.204  34.895  51.311  1.00  0.00    -0.423 OA
ATOM      6  C   UNL     1      15.004  35.664  50.575  1.00  0.00     0.142 A 
ATOM      7  C   UNL     1      16.377  35.401  50.529  1.00  0.00     0.098 A 
ATOM      8  C   UNL     1      17.226  36.203  49.757  1.00  0.00     0.161 A 
ATOM      9  C   UNL     1      16.698  37.281  49.023  1.00  0.00     0.158 A 
ATOM     10  C   UNL     1      15.320  37.549  49.067  1.00  0.00     0.062 A 
ATOM     11  C   UNL     1      14.473  36.744  49.839  1.00  0.00     0.022 A 
ENDROOT
BRANCH   9  12
ATOM     12  O   UNL     1      17.541  38.082  48.255  1.00  0.00    -0.504 OA
ATOM     13  H   UNL     1      18.094  38.823  48.669  1.00  0.00     0.293 HD
ENDBRANCH   9  12
BRANCH   8  14
ATOM     14  O   UNL     1      18.590  35.916  49.732  1.00  0.00    -0.504 OA
ATOM     15  H   UNL     1      19.293  36.644  49.693  1.00  0.00     0.293 HD
ENDBRANCH   8  14
TORSDOF 2
ENDMDL
