MODEL 1
REMARK VINA RESULT:    -5.543      0.000      0.000
REMARK INTER + INTRA:         -12.560
REMARK INTER:                 -10.729
REMARK INTRA:                  -1.831
REMARK UNBOUND:                -1.831
REMARK SMILES CCCCCCCCCCCCCCCCCC(=O)[O-]
REMARK SMILES IDX 10 1 11 2 12 3 13 4 14 5 15 6 16 7 17 8 18 9 19 10 20 11
REMARK SMILES IDX 9 12 8 13 7 14 6 15 5 16 4 17 3 18 2 19 1 20
REMARK H PARENT
REMARK Flexibility Score: inf
ROOT
ATOM      1  C   UNL     1      27.107 -10.693  15.572  1.00  0.00     0.000 C 
ENDROOT
BRANCH   1   2
ATOM      2  C   UNL     1      25.868 -11.282  14.878  1.00  0.00     0.000 C 
BRANCH   2   3
ATOM      3  C   UNL     1      24.580 -11.114  15.704  1.00  0.00     0.000 C 
BRANCH   3   4
ATOM      4  C   UNL     1      24.108 -12.377  16.454  1.00  0.00     0.000 C 
BRANCH   4   5
ATOM      5  C   UNL     1      24.128 -12.271  17.990  1.00  0.00     0.000 C 
BRANCH   5   6
ATOM      6  C   UNL     1      23.037 -13.086  18.709  1.00  0.00     0.000 C 
BRANCH   6   7
ATOM      7  C   UNL     1      22.814 -12.664  20.178  1.00  0.00     0.006 C 
BRANCH   7   8
ATOM      8  C   UNL     1      22.454 -11.179  20.314  1.00  0.00     0.053 C 
BRANCH   8   9
ATOM      9  C   UNL     1      23.384 -10.502  21.271  1.00  0.00     0.041 C 
ATOM     10  O   UNL     1      23.258 -10.681  22.511  1.00  0.00    -0.550 OA
ATOM     11  O   UNL     1      24.422  -9.714  20.792  1.00  0.00    -0.550 OA
ENDBRANCH   8   9
ENDBRANCH   7   8
ENDBRANCH   6   7
ENDBRANCH   5   6
ENDBRANCH   4   5
ENDBRANCH   3   4
ENDBRANCH   2   3
ENDBRANCH   1   2
BRANCH   1  12
ATOM     12  C   UNL     1      27.486 -11.457  16.853  1.00  0.00     0.000 C 
BRANCH  12  13
ATOM     13  C   UNL     1      27.747 -10.523  18.048  1.00  0.00    -0.000 C 
BRANCH  13  14
ATOM     14  C   UNL     1      26.998  -9.179  17.917  1.00  0.00    -0.000 C 
BRANCH  14  15
ATOM     15  C   UNL     1      27.912  -7.945  18.040  1.00  0.00    -0.000 C 
BRANCH  15  16
ATOM     16  C   UNL     1      29.405  -8.212  17.773  1.00  0.00    -0.000 C 
BRANCH  16  17
ATOM     17  C   UNL     1      29.809  -8.223  16.287  1.00  0.00    -0.000 C 
BRANCH  17  18
ATOM     18  C   UNL     1      30.737  -9.392  15.927  1.00  0.00    -0.000 C 
BRANCH  18  19
ATOM     19  C   UNL     1      31.755  -9.647  17.044  1.00  0.00    -0.003 C 
ATOM     20  C   UNL     1      33.160  -9.232  16.617  1.00  0.00     0.004 C 
ENDBRANCH  18  19
ENDBRANCH  17  18
ENDBRANCH  16  17
ENDBRANCH  15  16
ENDBRANCH  14  15
ENDBRANCH  13  14
ENDBRANCH  12  13
ENDBRANCH   1  12
TORSDOF 16
ENDMDL
MODEL 2
REMARK VINA RESULT:    -5.493      1.158      2.470
REMARK INTER + INTRA:         -12.463
REMARK INTER:                 -10.716
REMARK INTRA:                  -1.747
REMARK UNBOUND:                -1.831
REMARK SMILES CCCCCCCCCCCCCCCCCC(=O)[O-]
REMARK SMILES IDX 10 1 11 2 12 3 13 4 14 5 15 6 16 7 17 8 18 9 19 10 20 11
REMARK SMILES IDX 9 12 8 13 7 14 6 15 5 16 4 17 3 18 2 19 1 20
REMARK H PARENT
REMARK Flexibility Score: inf
ROOT
ATOM      1  C   UNL     1      27.268 -11.314  16.326  1.00  0.00     0.000 C 
ENDROOT
BRANCH   1   2
ATOM      2  C   UNL     1      25.857 -10.738  16.532  1.00  0.00     0.000 C 
BRANCH   2   3
ATOM      3  C   UNL     1      24.804 -11.392  15.618  1.00  0.00     0.000 C 
BRANCH   3   4
ATOM      4  C   UNL     1      23.858 -12.394  16.313  1.00  0.00     0.000 C 
BRANCH   4   5
ATOM      5  C   UNL     1      24.187 -12.688  17.788  1.00  0.00     0.000 C 
BRANCH   5   6
ATOM      6  C   UNL     1      22.979 -13.088  18.654  1.00  0.00     0.000 C 
BRANCH   6   7
ATOM      7  C   UNL     1      22.365 -11.912  19.444  1.00  0.00     0.006 C 
BRANCH   7   8
ATOM      8  C   UNL     1      22.672 -11.989  20.945  1.00  0.00     0.053 C 
BRANCH   8   9
ATOM      9  C   UNL     1      23.302 -10.715  21.415  1.00  0.00     0.041 C 
ATOM     10  O   UNL     1      23.134 -10.324  22.600  1.00  0.00    -0.550 OA
ATOM     11  O   UNL     1      24.117  -9.986  20.558  1.00  0.00    -0.550 OA
ENDBRANCH   8   9
ENDBRANCH   7   8
ENDBRANCH   6   7
ENDBRANCH   5   6
ENDBRANCH   4   5
ENDBRANCH   3   4
ENDBRANCH   2   3
ENDBRANCH   1   2
BRANCH   1  12
ATOM     12  C   UNL     1      27.935 -10.800  15.039  1.00  0.00     0.000 C 
BRANCH  12  13
ATOM     13  C   UNL     1      29.444 -11.095  14.991  1.00  0.00    -0.000 C 
BRANCH  13  14
ATOM     14  C   UNL     1      30.058 -11.242  16.400  1.00  0.00    -0.000 C 
BRANCH  14  15
ATOM     15  C   UNL     1      31.217 -10.267  16.677  1.00  0.00    -0.000 C 
BRANCH  15  16
ATOM     16  C   UNL     1      31.302  -9.067  15.715  1.00  0.00    -0.000 C 
BRANCH  16  17
ATOM     17  C   UNL     1      30.780  -7.736  16.289  1.00  0.00    -0.000 C 
BRANCH  17  18
ATOM     18  C   UNL     1      29.953  -6.931  15.276  1.00  0.00    -0.000 C 
BRANCH  18  19
ATOM     19  C   UNL     1      28.455  -7.199  15.455  1.00  0.00    -0.003 C 
ATOM     20  C   UNL     1      28.136  -7.624  16.885  1.00  0.00     0.004 C 
ENDBRANCH  18  19
ENDBRANCH  17  18
ENDBRANCH  16  17
ENDBRANCH  15  16
ENDBRANCH  14  15
ENDBRANCH  13  14
ENDBRANCH  12  13
ENDBRANCH   1  12
TORSDOF 16
ENDMDL
MODEL 3
REMARK VINA RESULT:    -5.430      2.812      7.610
REMARK INTER + INTRA:         -12.341
REMARK INTER:                 -10.835
REMARK INTRA:                  -1.506
REMARK UNBOUND:                -1.831
REMARK SMILES CCCCCCCCCCCCCCCCCC(=O)[O-]
REMARK SMILES IDX 10 1 11 2 12 3 13 4 14 5 15 6 16 7 17 8 18 9 19 10 20 11
REMARK SMILES IDX 9 12 8 13 7 14 6 15 5 16 4 17 3 18 2 19 1 20
REMARK H PARENT
REMARK Flexibility Score: inf
ROOT
ATOM      1  C   UNL     1      26.821 -10.256  16.926  1.00  0.00     0.000 C 
ENDROOT
BRANCH   1   2
ATOM      2  C   UNL     1      27.786 -11.335  16.407  1.00  0.00     0.000 C 
BRANCH   2   3
ATOM      3  C   UNL     1      28.419 -10.971  15.051  1.00  0.00     0.000 C 
BRANCH   3   4
ATOM      4  C   UNL     1      29.963 -10.950  15.029  1.00  0.00     0.000 C 
BRANCH   4   5
ATOM      5  C   UNL     1      30.632 -10.686  16.390  1.00  0.00     0.000 C 
BRANCH   5   6
ATOM      6  C   UNL     1      31.814  -9.700  16.349  1.00  0.00     0.000 C 
BRANCH   6   7
ATOM      7  C   UNL     1      31.487  -8.315  16.949  1.00  0.00     0.006 C 
BRANCH   7   8
ATOM      8  C   UNL     1      29.984  -8.116  17.184  1.00  0.00     0.053 C 
BRANCH   8   9
ATOM      9  C   UNL     1      29.426  -7.143  16.193  1.00  0.00     0.041 C 
ATOM     10  O   UNL     1      29.985  -6.029  16.014  1.00  0.00    -0.550 OA
ATOM     11  O   UNL     1      28.316  -7.487  15.432  1.00  0.00    -0.550 OA
ENDBRANCH   8   9
ENDBRANCH   7   8
ENDBRANCH   6   7
ENDBRANCH   5   6
ENDBRANCH   4   5
ENDBRANCH   3   4
ENDBRANCH   2   3
ENDBRANCH   1   2
BRANCH   1  12
ATOM     12  C   UNL     1      25.449 -10.830  17.318  1.00  0.00     0.000 C 
BRANCH  12  13
ATOM     13  C   UNL     1      24.690 -11.431  16.122  1.00  0.00    -0.000 C 
BRANCH  13  14
ATOM     14  C   UNL     1      23.693 -12.528  16.552  1.00  0.00    -0.000 C 
BRANCH  14  15
ATOM     15  C   UNL     1      23.898 -13.023  17.996  1.00  0.00    -0.000 C 
BRANCH  15  16
ATOM     16  C   UNL     1      22.652 -12.938  18.896  1.00  0.00    -0.000 C 
BRANCH  16  17
ATOM     17  C   UNL     1      22.578 -11.686  19.789  1.00  0.00    -0.000 C 
BRANCH  17  18
ATOM     18  C   UNL     1      22.490 -12.021  21.285  1.00  0.00    -0.000 C 
BRANCH  18  19
ATOM     19  C   UNL     1      23.155 -10.931  22.132  1.00  0.00    -0.003 C 
ATOM     20  C   UNL     1      23.907  -9.933  21.257  1.00  0.00     0.004 C 
ENDBRANCH  18  19
ENDBRANCH  17  18
ENDBRANCH  16  17
ENDBRANCH  15  16
ENDBRANCH  14  15
ENDBRANCH  13  14
ENDBRANCH  12  13
ENDBRANCH   1  12
TORSDOF 16
ENDMDL
MODEL 4
REMARK VINA RESULT:    -5.260      2.441      7.376
REMARK INTER + INTRA:         -12.012
REMARK INTER:                 -10.445
REMARK INTRA:                  -1.567
REMARK UNBOUND:                -1.831
REMARK SMILES CCCCCCCCCCCCCCCCCC(=O)[O-]
REMARK SMILES IDX 10 1 11 2 12 3 13 4 14 5 15 6 16 7 17 8 18 9 19 10 20 11
REMARK SMILES IDX 9 12 8 13 7 14 6 15 5 16 4 17 3 18 2 19 1 20
REMARK H PARENT
REMARK Flexibility Score: inf
ROOT
ATOM      1  C   UNL     1      26.868 -10.090  17.290  1.00  0.00     0.000 C 
ENDROOT
BRANCH   1   2
ATOM      2  C   UNL     1      27.870 -11.177  16.865  1.00  0.00     0.000 C 
BRANCH   2   3
ATOM      3  C   UNL     1      28.292 -11.060  15.389  1.00  0.00     0.000 C 
BRANCH   3   4
ATOM      4  C   UNL     1      29.747 -10.601  15.154  1.00  0.00     0.000 C 
BRANCH   4   5
ATOM      5  C   UNL     1      30.329  -9.685  16.247  1.00  0.00     0.000 C 
BRANCH   5   6
ATOM      6  C   UNL     1      30.999  -8.401  15.725  1.00  0.00     0.000 C 
BRANCH   6   7
ATOM      7  C   UNL     1      30.000  -7.354  15.186  1.00  0.00     0.006 C 
BRANCH   7   8
ATOM      8  C   UNL     1      28.690  -7.328  15.984  1.00  0.00     0.053 C 
BRANCH   8   9
ATOM      9  C   UNL     1      28.825  -6.440  17.181  1.00  0.00     0.041 C 
ATOM     10  O   UNL     1      28.095  -6.622  18.190  1.00  0.00    -0.550 OA
ATOM     11  O   UNL     1      29.793  -5.444  17.201  1.00  0.00    -0.550 OA
ENDBRANCH   8   9
ENDBRANCH   7   8
ENDBRANCH   6   7
ENDBRANCH   5   6
ENDBRANCH   4   5
ENDBRANCH   3   4
ENDBRANCH   2   3
ENDBRANCH   1   2
BRANCH   1  12
ATOM     12  C   UNL     1      25.480 -10.663  17.620  1.00  0.00     0.000 C 
BRANCH  12  13
ATOM     13  C   UNL     1      24.748 -11.203  16.379  1.00  0.00    -0.000 C 
BRANCH  13  14
ATOM     14  C   UNL     1      23.929 -12.474  16.687  1.00  0.00    -0.000 C 
BRANCH  14  15
ATOM     15  C   UNL     1      24.336 -13.171  18.000  1.00  0.00    -0.000 C 
BRANCH  15  16
ATOM     16  C   UNL     1      23.210 -13.306  19.041  1.00  0.00    -0.000 C 
BRANCH  16  17
ATOM     17  C   UNL     1      22.707 -11.976  19.632  1.00  0.00    -0.000 C 
BRANCH  17  18
ATOM     18  C   UNL     1      22.490 -12.039  21.151  1.00  0.00    -0.000 C 
BRANCH  18  19
ATOM     19  C   UNL     1      23.187 -10.870  21.854  1.00  0.00    -0.003 C 
ATOM     20  C   UNL     1      23.932  -9.989  20.856  1.00  0.00     0.004 C 
ENDBRANCH  18  19
ENDBRANCH  17  18
ENDBRANCH  16  17
ENDBRANCH  15  16
ENDBRANCH  14  15
ENDBRANCH  13  14
ENDBRANCH  12  13
ENDBRANCH   1  12
TORSDOF 16
ENDMDL
MODEL 5
REMARK VINA RESULT:    -5.235      1.196      2.779
REMARK INTER + INTRA:         -11.964
REMARK INTER:                 -10.369
REMARK INTRA:                  -1.595
REMARK UNBOUND:                -1.831
REMARK SMILES CCCCCCCCCCCCCCCCCC(=O)[O-]
REMARK SMILES IDX 10 1 11 2 12 3 13 4 14 5 15 6 16 7 17 8 18 9 19 10 20 11
REMARK SMILES IDX 9 12 8 13 7 14 6 15 5 16 4 17 3 18 2 19 1 20
REMARK H PARENT
REMARK Flexibility Score: inf
ROOT
ATOM      1  C   UNL     1      27.930 -11.383  17.006  1.00  0.00     0.000 C 
ENDROOT
BRANCH   1   2
ATOM      2  C   UNL     1      26.973 -10.867  15.919  1.00  0.00     0.000 C 
BRANCH   2   3
ATOM      3  C   UNL     1      25.503 -10.845  16.376  1.00  0.00     0.000 C 
BRANCH   3   4
ATOM      4  C   UNL     1      24.540 -11.719  15.545  1.00  0.00     0.000 C 
BRANCH   4   5
ATOM      5  C   UNL     1      23.793 -12.806  16.340  1.00  0.00     0.000 C 
BRANCH   5   6
ATOM      6  C   UNL     1      23.961 -12.721  17.868  1.00  0.00     0.000 C 
BRANCH   6   7
ATOM      7  C   UNL     1      22.642 -12.449  18.623  1.00  0.00     0.006 C 
BRANCH   7   8
ATOM      8  C   UNL     1      22.743 -12.775  20.118  1.00  0.00     0.053 C 
BRANCH   8   9
ATOM      9  C   UNL     1      22.955 -11.524  20.912  1.00  0.00     0.041 C 
ATOM     10  O   UNL     1      22.711 -11.507  22.147  1.00  0.00    -0.550 OA
ATOM     11  O   UNL     1      23.470 -10.390  20.296  1.00  0.00    -0.550 OA
ENDBRANCH   8   9
ENDBRANCH   7   8
ENDBRANCH   6   7
ENDBRANCH   5   6
ENDBRANCH   4   5
ENDBRANCH   3   4
ENDBRANCH   2   3
ENDBRANCH   1   2
BRANCH   1  12
ATOM     12  C   UNL     1      29.364 -11.579  16.487  1.00  0.00     0.000 C 
BRANCH  12  13
ATOM     13  C   UNL     1      29.801 -10.471  15.512  1.00  0.00    -0.000 C 
BRANCH  13  14
ATOM     14  C   UNL     1      30.374  -9.238  16.244  1.00  0.00    -0.000 C 
BRANCH  14  15
ATOM     15  C   UNL     1      30.805  -8.100  15.299  1.00  0.00    -0.000 C 
BRANCH  15  16
ATOM     16  C   UNL     1      29.727  -7.034  15.030  1.00  0.00    -0.000 C 
BRANCH  16  17
ATOM     17  C   UNL     1      28.427  -7.206  15.837  1.00  0.00    -0.000 C 
BRANCH  17  18
ATOM     18  C   UNL     1      28.201  -6.078  16.855  1.00  0.00    -0.000 C 
BRANCH  18  19
ATOM     19  C   UNL     1      28.264  -6.613  18.290  1.00  0.00    -0.003 C 
ATOM     20  C   UNL     1      27.723  -8.037  18.374  1.00  0.00     0.004 C 
ENDBRANCH  18  19
ENDBRANCH  17  18
ENDBRANCH  16  17
ENDBRANCH  15  16
ENDBRANCH  14  15
ENDBRANCH  13  14
ENDBRANCH  12  13
ENDBRANCH   1  12
TORSDOF 16
ENDMDL
MODEL 6
REMARK VINA RESULT:    -5.229      4.107      8.640
REMARK INTER + INTRA:         -11.952
REMARK INTER:                 -10.900
REMARK INTRA:                  -1.052
REMARK UNBOUND:                -1.831
REMARK SMILES CCCCCCCCCCCCCCCCCC(=O)[O-]
REMARK SMILES IDX 10 1 11 2 12 3 13 4 14 5 15 6 16 7 17 8 18 9 19 10 20 11
REMARK SMILES IDX 9 12 8 13 7 14 6 15 5 16 4 17 3 18 2 19 1 20
REMARK H PARENT
REMARK Flexibility Score: inf
ROOT
ATOM      1  C   UNL     1      26.810 -10.845  16.967  1.00  0.00     0.000 C 
ENDROOT
BRANCH   1   2
ATOM      2  C   UNL     1      27.325 -10.326  18.320  1.00  0.00     0.000 C 
BRANCH   2   3
ATOM      3  C   UNL     1      27.598  -8.810  18.317  1.00  0.00     0.000 C 
BRANCH   3   4
ATOM      4  C   UNL     1      28.715  -8.344  17.360  1.00  0.00     0.000 C 
BRANCH   4   5
ATOM      5  C   UNL     1      30.150  -8.598  17.857  1.00  0.00     0.000 C 
BRANCH   5   6
ATOM      6  C   UNL     1      31.015  -9.464  16.923  1.00  0.00     0.000 C 
BRANCH   6   7
ATOM      7  C   UNL     1      32.318  -8.773  16.467  1.00  0.00     0.006 C 
BRANCH   7   8
ATOM      8  C   UNL     1      33.555  -9.314  17.195  1.00  0.00     0.053 C 
BRANCH   8   9
ATOM      9  C   UNL     1      34.731  -9.352  16.270  1.00  0.00     0.041 C 
ATOM     10  O   UNL     1      34.559  -9.281  15.024  1.00  0.00    -0.550 OA
ATOM     11  O   UNL     1      36.019  -9.414  16.785  1.00  0.00    -0.550 OA
ENDBRANCH   8   9
ENDBRANCH   7   8
ENDBRANCH   6   7
ENDBRANCH   5   6
ENDBRANCH   4   5
ENDBRANCH   3   4
ENDBRANCH   2   3
ENDBRANCH   1   2
BRANCH   1  12
ATOM     12  C   UNL     1      25.290 -10.674  16.808  1.00  0.00     0.000 C 
BRANCH  12  13
ATOM     13  C   UNL     1      24.679 -11.677  15.814  1.00  0.00    -0.000 C 
BRANCH  13  14
ATOM     14  C   UNL     1      23.578 -12.545  16.460  1.00  0.00    -0.000 C 
BRANCH  14  15
ATOM     15  C   UNL     1      23.810 -12.830  17.956  1.00  0.00    -0.000 C 
BRANCH  15  16
ATOM     16  C   UNL     1      22.601 -12.548  18.867  1.00  0.00    -0.000 C 
BRANCH  16  17
ATOM     17  C   UNL     1      22.866 -12.728  20.374  1.00  0.00    -0.000 C 
BRANCH  17  18
ATOM     18  C   UNL     1      22.237 -11.619  21.229  1.00  0.00    -0.000 C 
BRANCH  18  19
ATOM     19  C   UNL     1      23.314 -10.709  21.829  1.00  0.00    -0.003 C 
ATOM     20  C   UNL     1      24.041  -9.923  20.742  1.00  0.00     0.004 C 
ENDBRANCH  18  19
ENDBRANCH  17  18
ENDBRANCH  16  17
ENDBRANCH  15  16
ENDBRANCH  14  15
ENDBRANCH  13  14
ENDBRANCH  12  13
ENDBRANCH   1  12
TORSDOF 16
ENDMDL
MODEL 7
REMARK VINA RESULT:    -5.195      2.745      7.475
REMARK INTER + INTRA:         -11.886
REMARK INTER:                 -10.608
REMARK INTRA:                  -1.278
REMARK UNBOUND:                -1.831
REMARK SMILES CCCCCCCCCCCCCCCCCC(=O)[O-]
REMARK SMILES IDX 10 1 11 2 12 3 13 4 14 5 15 6 16 7 17 8 18 9 19 10 20 11
REMARK SMILES IDX 9 12 8 13 7 14 6 15 5 16 4 17 3 18 2 19 1 20
REMARK H PARENT
REMARK Flexibility Score: inf
ROOT
ATOM      1  C   UNL     1      27.924 -11.122  17.021  1.00  0.00     0.000 C 
ENDROOT
BRANCH   1   2
ATOM      2  C   UNL     1      28.812 -11.150  15.766  1.00  0.00     0.000 C 
BRANCH   2   3
ATOM      3  C   UNL     1      30.316 -11.123  16.095  1.00  0.00     0.000 C 
BRANCH   3   4
ATOM      4  C   UNL     1      31.031  -9.787  15.800  1.00  0.00     0.000 C 
BRANCH   4   5
ATOM      5  C   UNL     1      31.479  -8.997  17.044  1.00  0.00     0.000 C 
BRANCH   5   6
ATOM      6  C   UNL     1      30.331  -8.413  17.888  1.00  0.00     0.000 C 
BRANCH   6   7
ATOM      7  C   UNL     1      29.262  -7.675  17.054  1.00  0.00     0.006 C 
BRANCH   7   8
ATOM      8  C   UNL     1      28.485  -6.641  17.878  1.00  0.00     0.053 C 
BRANCH   8   9
ATOM      9  C   UNL     1      29.302  -5.401  18.064  1.00  0.00     0.041 C 
ATOM     10  O   UNL     1      29.302  -4.802  19.172  1.00  0.00    -0.550 OA
ATOM     11  O   UNL     1      30.103  -4.935  17.029  1.00  0.00    -0.550 OA
ENDBRANCH   8   9
ENDBRANCH   7   8
ENDBRANCH   6   7
ENDBRANCH   5   6
ENDBRANCH   4   5
ENDBRANCH   3   4
ENDBRANCH   2   3
ENDBRANCH   1   2
BRANCH   1  12
ATOM     12  C   UNL     1      26.527 -10.541  16.744  1.00  0.00     0.000 C 
BRANCH  12  13
ATOM     13  C   UNL     1      25.878 -11.129  15.478  1.00  0.00    -0.000 C 
BRANCH  13  14
ATOM     14  C   UNL     1      24.356 -11.329  15.638  1.00  0.00    -0.000 C 
BRANCH  14  15
ATOM     15  C   UNL     1      23.969 -12.693  16.240  1.00  0.00    -0.000 C 
BRANCH  15  16
ATOM     16  C   UNL     1      24.004 -12.760  17.778  1.00  0.00    -0.000 C 
BRANCH  16  17
ATOM     17  C   UNL     1      22.651 -12.515  18.471  1.00  0.00    -0.000 C 
BRANCH  17  18
ATOM     18  C   UNL     1      22.747 -12.556  20.003  1.00  0.00    -0.000 C 
BRANCH  18  19
ATOM     19  C   UNL     1      23.091 -11.174  20.569  1.00  0.00    -0.003 C 
ATOM     20  C   UNL     1      22.908 -11.135  22.083  1.00  0.00     0.004 C 
ENDBRANCH  18  19
ENDBRANCH  17  18
ENDBRANCH  16  17
ENDBRANCH  15  16
ENDBRANCH  14  15
ENDBRANCH  13  14
ENDBRANCH  12  13
ENDBRANCH   1  12
TORSDOF 16
ENDMDL
MODEL 8
REMARK VINA RESULT:    -5.104      2.589      7.207
REMARK INTER + INTRA:         -11.710
REMARK INTER:                  -9.726
REMARK INTRA:                  -1.984
REMARK UNBOUND:                -1.831
REMARK SMILES CCCCCCCCCCCCCCCCCC(=O)[O-]
REMARK SMILES IDX 10 1 11 2 12 3 13 4 14 5 15 6 16 7 17 8 18 9 19 10 20 11
REMARK SMILES IDX 9 12 8 13 7 14 6 15 5 16 4 17 3 18 2 19 1 20
REMARK H PARENT
REMARK Flexibility Score: inf
ROOT
ATOM      1  C   UNL     1      25.659  -9.997  18.456  1.00  0.00     0.000 C 
ENDROOT
BRANCH   1   2
ATOM      2  C   UNL     1      27.137 -10.363  18.235  1.00  0.00     0.000 C 
BRANCH   2   3
ATOM      3  C   UNL     1      27.327 -11.499  17.213  1.00  0.00     0.000 C 
BRANCH   3   4
ATOM      4  C   UNL     1      27.678 -11.044  15.780  1.00  0.00     0.000 C 
BRANCH   4   5
ATOM      5  C   UNL     1      28.002  -9.546  15.630  1.00  0.00     0.000 C 
BRANCH   5   6
ATOM      6  C   UNL     1      29.479  -9.230  15.331  1.00  0.00     0.000 C 
BRANCH   6   7
ATOM      7  C   UNL     1      29.927  -7.836  15.822  1.00  0.00     0.006 C 
BRANCH   7   8
ATOM      8  C   UNL     1      28.865  -6.757  15.576  1.00  0.00     0.053 C 
BRANCH   8   9
ATOM      9  C   UNL     1      28.529  -6.055  16.854  1.00  0.00     0.041 C 
ATOM     10  O   UNL     1      28.925  -4.877  17.053  1.00  0.00    -0.550 OA
ATOM     11  O   UNL     1      27.735  -6.685  17.804  1.00  0.00    -0.550 OA
ENDBRANCH   8   9
ENDBRANCH   7   8
ENDBRANCH   6   7
ENDBRANCH   5   6
ENDBRANCH   4   5
ENDBRANCH   3   4
ENDBRANCH   2   3
ENDBRANCH   1   2
BRANCH   1  12
ATOM     12  C   UNL     1      25.316  -9.794  19.941  1.00  0.00     0.000 C 
BRANCH  12  13
ATOM     13  C   UNL     1      23.809  -9.914  20.226  1.00  0.00    -0.000 C 
BRANCH  13  14
ATOM     14  C   UNL     1      23.522 -10.514  21.619  1.00  0.00    -0.000 C 
BRANCH  14  15
ATOM     15  C   UNL     1      22.664 -11.794  21.578  1.00  0.00    -0.000 C 
BRANCH  15  16
ATOM     16  C   UNL     1      22.286 -12.279  20.167  1.00  0.00    -0.000 C 
BRANCH  16  17
ATOM     17  C   UNL     1      23.003 -13.562  19.706  1.00  0.00    -0.000 C 
BRANCH  17  18
ATOM     18  C   UNL     1      23.911 -13.336  18.488  1.00  0.00    -0.000 C 
BRANCH  18  19
ATOM     19  C   UNL     1      23.220 -12.450  17.445  1.00  0.00    -0.003 C 
ATOM     20  C   UNL     1      23.870 -12.603  16.073  1.00  0.00     0.004 C 
ENDBRANCH  18  19
ENDBRANCH  17  18
ENDBRANCH  16  17
ENDBRANCH  15  16
ENDBRANCH  14  15
ENDBRANCH  13  14
ENDBRANCH  12  13
ENDBRANCH   1  12
TORSDOF 16
ENDMDL
MODEL 9
REMARK VINA RESULT:    -5.081      1.156      2.330
REMARK INTER + INTRA:         -11.666
REMARK INTER:                  -9.685
REMARK INTRA:                  -1.981
REMARK UNBOUND:                -1.831
REMARK SMILES CCCCCCCCCCCCCCCCCC(=O)[O-]
REMARK SMILES IDX 10 1 11 2 12 3 13 4 14 5 15 6 16 7 17 8 18 9 19 10 20 11
REMARK SMILES IDX 9 12 8 13 7 14 6 15 5 16 4 17 3 18 2 19 1 20
REMARK H PARENT
REMARK Flexibility Score: inf
ROOT
ATOM      1  C   UNL     1      27.570 -10.013  18.397  1.00  0.00     0.000 C 
ENDROOT
BRANCH   1   2
ATOM      2  C   UNL     1      26.701 -10.235  17.147  1.00  0.00     0.000 C 
BRANCH   2   3
ATOM      3  C   UNL     1      25.251 -10.624  17.486  1.00  0.00     0.000 C 
BRANCH   3   4
ATOM      4  C   UNL     1      24.694 -11.836  16.710  1.00  0.00     0.000 C 
BRANCH   4   5
ATOM      5  C   UNL     1      23.461 -12.507  17.342  1.00  0.00     0.000 C 
BRANCH   5   6
ATOM      6  C   UNL     1      23.757 -13.362  18.587  1.00  0.00     0.000 C 
BRANCH   6   7
ATOM      7  C   UNL     1      22.885 -13.001  19.810  1.00  0.00     0.006 C 
BRANCH   7   8
ATOM      8  C   UNL     1      22.559 -11.503  19.876  1.00  0.00     0.053 C 
BRANCH   8   9
ATOM      9  C   UNL     1      23.262 -10.867  21.034  1.00  0.00     0.041 C 
ATOM     10  O   UNL     1      24.110  -9.957  20.838  1.00  0.00    -0.550 OA
ATOM     11  O   UNL     1      22.944 -11.244  22.332  1.00  0.00    -0.550 OA
ENDBRANCH   8   9
ENDBRANCH   7   8
ENDBRANCH   6   7
ENDBRANCH   5   6
ENDBRANCH   4   5
ENDBRANCH   3   4
ENDBRANCH   2   3
ENDBRANCH   1   2
BRANCH   1  12
ATOM     12  C   UNL     1      28.331  -8.678  18.358  1.00  0.00     0.000 C 
BRANCH  12  13
ATOM     13  C   UNL     1      27.869  -7.761  17.212  1.00  0.00    -0.000 C 
BRANCH  13  14
ATOM     14  C   UNL     1      29.049  -7.252  16.356  1.00  0.00    -0.000 C 
BRANCH  14  15
ATOM     15  C   UNL     1      30.432  -7.573  16.953  1.00  0.00    -0.000 C 
BRANCH  15  16
ATOM     16  C   UNL     1      31.522  -7.919  15.920  1.00  0.00    -0.000 C 
BRANCH  16  17
ATOM     17  C   UNL     1      31.880  -9.414  15.828  1.00  0.00    -0.000 C 
BRANCH  17  18
ATOM     18  C   UNL     1      31.219 -10.257  16.929  1.00  0.00    -0.000 C 
BRANCH  18  19
ATOM     19  C   UNL     1      30.237 -11.270  16.329  1.00  0.00    -0.003 C 
ATOM     20  C   UNL     1      29.804 -10.856  14.926  1.00  0.00     0.004 C 
ENDBRANCH  18  19
ENDBRANCH  17  18
ENDBRANCH  16  17
ENDBRANCH  15  16
ENDBRANCH  14  15
ENDBRANCH  13  14
ENDBRANCH  12  13
ENDBRANCH   1  12
TORSDOF 16
ENDMDL
