MODEL 1
REMARK VINA RESULT:    -7.541      0.000      0.000
REMARK INTER + INTRA:          -9.176
REMARK INTER:                  -9.084
REMARK INTRA:                  -0.092
REMARK UNBOUND:                -0.092
REMARK SMILES Oc1cc(O)c2cc(O)c(-c3ccc(O)c(O)c3)[o+]c2c1.[Cl-]
REMARK SMILES IDX 10 1 19 2 20 3 21 4 2 5 3 6 4 7 6 8 7 9 8 10 11 11 12 12
REMARK SMILES IDX 13 13 14 14 18 15 16 16 15 17 17 19 9 21 1 23 5 25
REMARK H PARENT 15 18 17 20 9 22 1 24 5 26
REMARK Flexibility Score: inf
ROOT
ATOM      1  C   UNL     1      33.855   4.580  17.281  1.00  0.00     0.402 A 
ATOM      2  O   UNL     1      35.112   4.142  17.275  1.00  0.00    -0.202 OA
ATOM      3  C   UNL     1      35.825   3.986  16.164  1.00  0.00     0.368 A 
ATOM      4  C   UNL     1      37.138   3.517  16.259  1.00  0.00     0.162 A 
ATOM      5  C   UNL     1      37.909   3.341  15.106  1.00  0.00     0.128 A 
ATOM      6  C   UNL     1      37.364   3.633  13.854  1.00  0.00     0.093 A 
ATOM      7  C   UNL     1      36.051   4.104  13.732  1.00  0.00     0.136 A 
ATOM      8  C   UNL     1      35.265   4.287  14.899  1.00  0.00     0.125 A 
ATOM      9  C   UNL     1      33.945   4.766  14.873  1.00  0.00     0.078 A 
ATOM     10  C   UNL     1      33.234   4.926  16.067  1.00  0.00     0.223 A 
ENDROOT
BRANCH   1  11
ATOM     11  C   UNL     1      33.164   4.702  18.584  1.00  0.00     0.087 A 
ATOM     12  C   UNL     1      31.902   4.120  18.801  1.00  0.00     0.022 A 
ATOM     13  C   UNL     1      31.279   4.229  20.047  1.00  0.00     0.051 A 
ATOM     14  C   UNL     1      31.907   4.906  21.096  1.00  0.00     0.157 A 
ATOM     15  C   UNL     1      33.802   5.363  19.647  1.00  0.00     0.068 A 
ATOM     16  C   UNL     1      33.177   5.474  20.898  1.00  0.00     0.158 A 
BRANCH  14  17
ATOM     17  O   UNL     1      31.259   5.000  22.327  1.00  0.00    -0.504 OA
ATOM     18  H   UNL     1      30.250   5.051  22.401  1.00  0.00     0.293 HD
ENDBRANCH  14  17
BRANCH  16  19
ATOM     19  O   UNL     1      33.813   6.143  21.942  1.00  0.00    -0.504 OA
ATOM     20  H   UNL     1      33.304   6.449  22.764  1.00  0.00     0.293 HD
ENDBRANCH  16  19
ENDBRANCH   1  11
BRANCH  10  21
ATOM     21  O   UNL     1      31.941   5.449  16.046  1.00  0.00    -0.500 OA
ATOM     22  H   UNL     1      31.752   6.412  16.297  1.00  0.00     0.294 HD
ENDBRANCH  10  21
BRANCH   5  23
ATOM     23  O   UNL     1      39.220   2.875  15.194  1.00  0.00    -0.507 OA
ATOM     24  H   UNL     1      39.873   3.254  15.869  1.00  0.00     0.293 HD
ENDBRANCH   5  23
BRANCH   7  25
ATOM     25  O   UNL     1      35.580   4.370  12.443  1.00  0.00    -0.507 OA
ATOM     26  H   UNL     1      35.926   5.110  11.851  1.00  0.00     0.293 HD
ENDBRANCH   7  25
TORSDOF 6
ENDMDL
MODEL 2
REMARK VINA RESULT:    -6.701     18.800     21.173
REMARK INTER + INTRA:          -8.164
REMARK INTER:                  -8.079
REMARK INTRA:                  -0.085
REMARK UNBOUND:                -0.092
REMARK SMILES Oc1cc(O)c2cc(O)c(-c3ccc(O)c(O)c3)[o+]c2c1.[Cl-]
REMARK SMILES IDX 10 1 19 2 20 3 21 4 2 5 3 6 4 7 6 8 7 9 8 10 11 11 12 12
REMARK SMILES IDX 13 13 14 14 18 15 16 16 15 17 17 19 9 21 1 23 5 25
REMARK H PARENT 15 18 17 20 9 22 1 24 5 26
REMARK Flexibility Score: inf
ROOT
ATOM      1  C   UNL     1      42.537  20.861   8.437  1.00  0.00     0.402 A 
ATOM      2  O   UNL     1      43.100  20.874   9.643  1.00  0.00    -0.202 OA
ATOM      3  C   UNL     1      42.484  20.446  10.741  1.00  0.00     0.368 A 
ATOM      4  C   UNL     1      43.157  20.503  11.964  1.00  0.00     0.162 A 
ATOM      5  C   UNL     1      42.531  20.062  13.134  1.00  0.00     0.128 A 
ATOM      6  C   UNL     1      41.227  19.565  13.081  1.00  0.00     0.093 A 
ATOM      7  C   UNL     1      40.531  19.499  11.867  1.00  0.00     0.136 A 
ATOM      8  C   UNL     1      41.162  19.942  10.676  1.00  0.00     0.125 A 
ATOM      9  C   UNL     1      40.546  19.901   9.415  1.00  0.00     0.078 A 
ATOM     10  C   UNL     1      41.235  20.351   8.284  1.00  0.00     0.223 A 
ENDROOT
BRANCH   1  11
ATOM     11  C   UNL     1      43.324  21.374   7.293  1.00  0.00     0.087 A 
ATOM     12  C   UNL     1      43.867  22.672   7.301  1.00  0.00     0.022 A 
ATOM     13  C   UNL     1      44.626  23.125   6.219  1.00  0.00     0.051 A 
ATOM     14  C   UNL     1      44.865  22.292   5.123  1.00  0.00     0.157 A 
ATOM     15  C   UNL     1      43.584  20.532   6.200  1.00  0.00     0.068 A 
ATOM     16  C   UNL     1      44.345  20.987   5.112  1.00  0.00     0.158 A 
BRANCH  14  17
ATOM     17  O   UNL     1      45.625  22.774   4.058  1.00  0.00    -0.504 OA
ATOM     18  H   UNL     1      46.207  23.600   4.142  1.00  0.00     0.293 HD
ENDBRANCH  14  17
BRANCH  16  19
ATOM     19  O   UNL     1      44.586  20.148   4.026  1.00  0.00    -0.504 OA
ATOM     20  H   UNL     1      44.964  20.504   3.155  1.00  0.00     0.293 HD
ENDBRANCH  16  19
ENDBRANCH   1  11
BRANCH  10  21
ATOM     21  O   UNL     1      40.642  20.263   7.024  1.00  0.00    -0.500 OA
ATOM     22  H   UNL     1      40.211  19.408   6.696  1.00  0.00     0.294 HD
ENDBRANCH  10  21
BRANCH   5  23
ATOM     23  O   UNL     1      43.197  20.114  14.357  1.00  0.00    -0.507 OA
ATOM     24  H   UNL     1      42.718  19.924  15.230  1.00  0.00     0.293 HD
ENDBRANCH   5  23
BRANCH   7  25
ATOM     25  O   UNL     1      39.229  18.992  11.899  1.00  0.00    -0.507 OA
ATOM     26  H   UNL     1      38.406  19.515  11.640  1.00  0.00     0.293 HD
ENDBRANCH   7  25
TORSDOF 6
ENDMDL
MODEL 3
REMARK VINA RESULT:    -6.410     19.024     21.248
REMARK INTER + INTRA:          -7.814
REMARK INTER:                  -8.261
REMARK INTRA:                   0.448
REMARK UNBOUND:                -0.092
REMARK SMILES Oc1cc(O)c2cc(O)c(-c3ccc(O)c(O)c3)[o+]c2c1.[Cl-]
REMARK SMILES IDX 10 1 19 2 20 3 21 4 2 5 3 6 4 7 6 8 7 9 8 10 11 11 12 12
REMARK SMILES IDX 13 13 14 14 18 15 16 16 15 17 17 19 9 21 1 23 5 25
REMARK H PARENT 15 18 17 20 9 22 1 24 5 26
REMARK Flexibility Score: inf
ROOT
ATOM      1  C   UNL     1      42.764  21.043   9.457  1.00  0.00     0.402 A 
ATOM      2  O   UNL     1      43.041  21.792  10.521  1.00  0.00    -0.202 OA
ATOM      3  C   UNL     1      42.612  21.507  11.747  1.00  0.00     0.368 A 
ATOM      4  C   UNL     1      42.953  22.358  12.802  1.00  0.00     0.162 A 
ATOM      5  C   UNL     1      42.513  22.083  14.100  1.00  0.00     0.128 A 
ATOM      6  C   UNL     1      41.726  20.954  14.344  1.00  0.00     0.093 A 
ATOM      7  C   UNL     1      41.370  20.087  13.303  1.00  0.00     0.136 A 
ATOM      8  C   UNL     1      41.817  20.360  11.984  1.00  0.00     0.125 A 
ATOM      9  C   UNL     1      41.520  19.540  10.884  1.00  0.00     0.078 A 
ATOM     10  C   UNL     1      42.001  19.871   9.613  1.00  0.00     0.223 A 
ENDROOT
BRANCH   1  11
ATOM     11  C   UNL     1      43.293  21.472   8.143  1.00  0.00     0.087 A 
ATOM     12  C   UNL     1      43.849  22.751   7.960  1.00  0.00     0.022 A 
ATOM     13  C   UNL     1      44.363  23.125   6.716  1.00  0.00     0.051 A 
ATOM     14  C   UNL     1      44.342  22.230   5.643  1.00  0.00     0.157 A 
ATOM     15  C   UNL     1      43.293  20.567   7.069  1.00  0.00     0.068 A 
ATOM     16  C   UNL     1      43.808  20.943   5.819  1.00  0.00     0.158 A 
BRANCH  14  17
ATOM     17  O   UNL     1      44.861  22.633   4.413  1.00  0.00    -0.504 OA
ATOM     18  H   UNL     1      44.272  22.778   3.601  1.00  0.00     0.293 HD
ENDBRANCH  14  17
BRANCH  16  19
ATOM     19  O   UNL     1      43.792  20.042   4.756  1.00  0.00    -0.504 OA
ATOM     20  H   UNL     1      43.898  20.352   3.796  1.00  0.00     0.293 HD
ENDBRANCH  16  19
ENDBRANCH   1  11
BRANCH  10  21
ATOM     21  O   UNL     1      41.749  19.030   8.529  1.00  0.00    -0.500 OA
ATOM     22  H   UNL     1      40.825  18.656   8.348  1.00  0.00     0.294 HD
ENDBRANCH  10  21
BRANCH   5  23
ATOM     23  O   UNL     1      42.850  22.926  15.157  1.00  0.00    -0.507 OA
ATOM     24  H   UNL     1      43.577  22.681  15.820  1.00  0.00     0.293 HD
ENDBRANCH   5  23
BRANCH   7  25
ATOM     25  O   UNL     1      40.579  18.982  13.629  1.00  0.00    -0.507 OA
ATOM     26  H   UNL     1      39.616  19.038  13.927  1.00  0.00     0.293 HD
ENDBRANCH   7  25
TORSDOF 6
ENDMDL
MODEL 4
REMARK VINA RESULT:    -6.131      1.442      6.881
REMARK INTER + INTRA:          -7.478
REMARK INTER:                  -7.646
REMARK INTRA:                   0.168
REMARK UNBOUND:                -0.092
REMARK SMILES Oc1cc(O)c2cc(O)c(-c3ccc(O)c(O)c3)[o+]c2c1.[Cl-]
REMARK SMILES IDX 10 1 19 2 20 3 21 4 2 5 3 6 4 7 6 8 7 9 8 10 11 11 12 12
REMARK SMILES IDX 13 13 14 14 18 15 16 16 15 17 17 19 9 21 1 23 5 25
REMARK H PARENT 15 18 17 20 9 22 1 24 5 26
REMARK Flexibility Score: inf
ROOT
ATOM      1  C   UNL     1      33.633   4.199  17.067  1.00  0.00     0.402 A 
ATOM      2  O   UNL     1      33.681   4.521  18.357  1.00  0.00    -0.202 OA
ATOM      3  C   UNL     1      32.602   4.804  19.080  1.00  0.00     0.368 A 
ATOM      4  C   UNL     1      32.755   5.135  20.428  1.00  0.00     0.162 A 
ATOM      5  C   UNL     1      31.636   5.440  21.211  1.00  0.00     0.128 A 
ATOM      6  C   UNL     1      30.361   5.416  20.641  1.00  0.00     0.093 A 
ATOM      7  C   UNL     1      30.182   5.088  19.291  1.00  0.00     0.136 A 
ATOM      8  C   UNL     1      31.313   4.775  18.494  1.00  0.00     0.125 A 
ATOM      9  C   UNL     1      31.227   4.423  17.137  1.00  0.00     0.078 A 
ATOM     10  C   UNL     1      32.387   4.122  16.416  1.00  0.00     0.223 A 
ENDROOT
BRANCH   1  11
ATOM     11  C   UNL     1      34.907   3.914  16.369  1.00  0.00     0.087 A 
ATOM     12  C   UNL     1      35.946   3.207  17.001  1.00  0.00     0.022 A 
ATOM     13  C   UNL     1      37.130   2.930  16.314  1.00  0.00     0.051 A 
ATOM     14  C   UNL     1      37.293   3.340  14.988  1.00  0.00     0.157 A 
ATOM     15  C   UNL     1      35.064   4.305  15.029  1.00  0.00     0.068 A 
ATOM     16  C   UNL     1      36.254   4.029  14.340  1.00  0.00     0.158 A 
BRANCH  14  17
ATOM     17  O   UNL     1      38.487   3.050  14.330  1.00  0.00    -0.504 OA
ATOM     18  H   UNL     1      39.107   2.311  14.641  1.00  0.00     0.293 HD
ENDBRANCH  14  17
BRANCH  16  19
ATOM     19  O   UNL     1      36.406   4.434  13.015  1.00  0.00    -0.504 OA
ATOM     20  H   UNL     1      35.804   4.080  12.279  1.00  0.00     0.293 HD
ENDBRANCH  16  19
ENDBRANCH   1  11
BRANCH  10  21
ATOM     21  O   UNL     1      32.298   3.723  15.082  1.00  0.00    -0.500 OA
ATOM     22  H   UNL     1      31.416   3.719  14.585  1.00  0.00     0.294 HD
ENDBRANCH  10  21
BRANCH   5  23
ATOM     23  O   UNL     1      31.781   5.769  22.557  1.00  0.00    -0.507 OA
ATOM     24  H   UNL     1      31.887   6.731  22.859  1.00  0.00     0.293 HD
ENDBRANCH   5  23
BRANCH   7  25
ATOM     25  O   UNL     1      28.875   5.089  18.797  1.00  0.00    -0.507 OA
ATOM     26  H   UNL     1      28.613   4.769  17.877  1.00  0.00     0.293 HD
ENDBRANCH   7  25
TORSDOF 6
ENDMDL
MODEL 5
REMARK VINA RESULT:    -6.112      1.557      7.224
REMARK INTER + INTRA:          -7.455
REMARK INTER:                  -7.136
REMARK INTRA:                  -0.319
REMARK UNBOUND:                -0.092
REMARK SMILES Oc1cc(O)c2cc(O)c(-c3ccc(O)c(O)c3)[o+]c2c1.[Cl-]
REMARK SMILES IDX 10 1 19 2 20 3 21 4 2 5 3 6 4 7 6 8 7 9 8 10 11 11 12 12
REMARK SMILES IDX 13 13 14 14 18 15 16 16 15 17 17 19 9 21 1 23 5 25
REMARK H PARENT 15 18 17 20 9 22 1 24 5 26
REMARK Flexibility Score: inf
ROOT
ATOM      1  C   UNL     1      33.798   4.933  18.176  1.00  0.00     0.402 A 
ATOM      2  O   UNL     1      32.701   4.214  18.402  1.00  0.00    -0.202 OA
ATOM      3  C   UNL     1      31.948   4.354  19.489  1.00  0.00     0.368 A 
ATOM      4  C   UNL     1      30.815   3.549  19.639  1.00  0.00     0.162 A 
ATOM      5  C   UNL     1      30.007   3.673  20.773  1.00  0.00     0.128 A 
ATOM      6  C   UNL     1      30.336   4.603  21.763  1.00  0.00     0.093 A 
ATOM      7  C   UNL     1      31.466   5.419  21.637  1.00  0.00     0.136 A 
ATOM      8  C   UNL     1      32.288   5.300  20.486  1.00  0.00     0.125 A 
ATOM      9  C   UNL     1      33.432   6.085  20.269  1.00  0.00     0.078 A 
ATOM     10  C   UNL     1      34.190   5.914  19.106  1.00  0.00     0.223 A 
ENDROOT
BRANCH   1  11
ATOM     11  C   UNL     1      34.557   4.677  16.932  1.00  0.00     0.087 A 
ATOM     12  C   UNL     1      34.154   5.228  15.702  1.00  0.00     0.022 A 
ATOM     13  C   UNL     1      34.899   4.992  14.545  1.00  0.00     0.051 A 
ATOM     14  C   UNL     1      36.061   4.217  14.596  1.00  0.00     0.157 A 
ATOM     15  C   UNL     1      35.737   3.917  16.985  1.00  0.00     0.068 A 
ATOM     16  C   UNL     1      36.486   3.678  15.822  1.00  0.00     0.158 A 
BRANCH  14  17
ATOM     17  O   UNL     1      36.783   3.998  13.423  1.00  0.00    -0.504 OA
ATOM     18  H   UNL     1      36.327   3.790  12.542  1.00  0.00     0.293 HD
ENDBRANCH  14  17
BRANCH  16  19
ATOM     19  O   UNL     1      37.648   2.911  15.883  1.00  0.00    -0.504 OA
ATOM     20  H   UNL     1      37.702   1.996  15.450  1.00  0.00     0.293 HD
ENDBRANCH  16  19
ENDBRANCH   1  11
BRANCH  10  21
ATOM     21  O   UNL     1      35.297   6.728  18.867  1.00  0.00    -0.500 OA
ATOM     22  H   UNL     1      35.838   6.654  18.014  1.00  0.00     0.294 HD
ENDBRANCH  10  21
BRANCH   5  23
ATOM     23  O   UNL     1      28.875   2.876  20.928  1.00  0.00    -0.507 OA
ATOM     24  H   UNL     1      28.698   2.083  20.322  1.00  0.00     0.293 HD
ENDBRANCH   5  23
BRANCH   7  25
ATOM     25  O   UNL     1      31.727   6.321  22.672  1.00  0.00    -0.507 OA
ATOM     26  H   UNL     1      32.270   7.166  22.569  1.00  0.00     0.293 HD
ENDBRANCH   7  25
TORSDOF 6
ENDMDL
MODEL 6
REMARK VINA RESULT:    -5.838      2.047      7.109
REMARK INTER + INTRA:          -7.125
REMARK INTER:                  -7.004
REMARK INTRA:                  -0.122
REMARK UNBOUND:                -0.092
REMARK SMILES Oc1cc(O)c2cc(O)c(-c3ccc(O)c(O)c3)[o+]c2c1.[Cl-]
REMARK SMILES IDX 10 1 19 2 20 3 21 4 2 5 3 6 4 7 6 8 7 9 8 10 11 11 12 12
REMARK SMILES IDX 13 13 14 14 18 15 16 16 15 17 17 19 9 21 1 23 5 25
REMARK H PARENT 15 18 17 20 9 22 1 24 5 26
REMARK Flexibility Score: inf
ROOT
ATOM      1  C   UNL     1      32.589   5.155  17.885  1.00  0.00     0.402 A 
ATOM      2  O   UNL     1      32.270   4.511  19.004  1.00  0.00    -0.202 OA
ATOM      3  C   UNL     1      31.385   4.971  19.884  1.00  0.00     0.368 A 
ATOM      4  C   UNL     1      31.118   4.223  21.034  1.00  0.00     0.162 A 
ATOM      5  C   UNL     1      30.195   4.685  21.977  1.00  0.00     0.128 A 
ATOM      6  C   UNL     1      29.539   5.901  21.770  1.00  0.00     0.093 A 
ATOM      7  C   UNL     1      29.790   6.669  20.626  1.00  0.00     0.136 A 
ATOM      8  C   UNL     1      30.723   6.203  19.665  1.00  0.00     0.125 A 
ATOM      9  C   UNL     1      31.028   6.899  18.484  1.00  0.00     0.078 A 
ATOM     10  C   UNL     1      31.956   6.374  17.580  1.00  0.00     0.223 A 
ENDROOT
BRANCH   1  11
ATOM     11  C   UNL     1      33.597   4.542  16.989  1.00  0.00     0.087 A 
ATOM     12  C   UNL     1      33.294   4.232  15.651  1.00  0.00     0.022 A 
ATOM     13  C   UNL     1      34.269   3.676  14.818  1.00  0.00     0.051 A 
ATOM     14  C   UNL     1      35.558   3.433  15.301  1.00  0.00     0.157 A 
ATOM     15  C   UNL     1      34.899   4.317  17.465  1.00  0.00     0.068 A 
ATOM     16  C   UNL     1      35.877   3.757  16.630  1.00  0.00     0.158 A 
BRANCH  14  17
ATOM     17  O   UNL     1      36.507   2.875  14.446  1.00  0.00    -0.504 OA
ATOM     18  H   UNL     1      36.807   1.910  14.529  1.00  0.00     0.293 HD
ENDBRANCH  14  17
BRANCH  16  19
ATOM     19  O   UNL     1      37.163   3.525  17.115  1.00  0.00    -0.504 OA
ATOM     20  H   UNL     1      37.330   2.903  17.898  1.00  0.00     0.293 HD
ENDBRANCH  16  19
ENDBRANCH   1  11
BRANCH  10  21
ATOM     21  O   UNL     1      32.222   7.040  16.383  1.00  0.00    -0.500 OA
ATOM     22  H   UNL     1      33.148   7.053  15.974  1.00  0.00     0.294 HD
ENDBRANCH  10  21
BRANCH   5  23
ATOM     23  O   UNL     1      29.922   3.944  23.125  1.00  0.00    -0.507 OA
ATOM     24  H   UNL     1      29.197   3.236  23.140  1.00  0.00     0.293 HD
ENDBRANCH   5  23
BRANCH   7  25
ATOM     25  O   UNL     1      29.095   7.874  20.495  1.00  0.00    -0.507 OA
ATOM     26  H   UNL     1      28.262   8.112  21.013  1.00  0.00     0.293 HD
ENDBRANCH   7  25
TORSDOF 6
ENDMDL
MODEL 7
REMARK VINA RESULT:    -5.761      2.519      7.682
REMARK INTER + INTRA:          -7.032
REMARK INTER:                  -6.852
REMARK INTRA:                  -0.180
REMARK UNBOUND:                -0.092
REMARK SMILES Oc1cc(O)c2cc(O)c(-c3ccc(O)c(O)c3)[o+]c2c1.[Cl-]
REMARK SMILES IDX 10 1 19 2 20 3 21 4 2 5 3 6 4 7 6 8 7 9 8 10 11 11 12 12
REMARK SMILES IDX 13 13 14 14 18 15 16 16 15 17 17 19 9 21 1 23 5 25
REMARK H PARENT 15 18 17 20 9 22 1 24 5 26
REMARK Flexibility Score: inf
ROOT
ATOM      1  C   UNL     1      32.508   5.203  18.334  1.00  0.00     0.402 A 
ATOM      2  O   UNL     1      31.910   6.387  18.433  1.00  0.00    -0.202 OA
ATOM      3  C   UNL     1      30.993   6.668  19.354  1.00  0.00     0.368 A 
ATOM      4  C   UNL     1      30.420   7.942  19.376  1.00  0.00     0.162 A 
ATOM      5  C   UNL     1      29.450   8.262  20.332  1.00  0.00     0.128 A 
ATOM      6  C   UNL     1      29.052   7.304  21.267  1.00  0.00     0.093 A 
ATOM      7  C   UNL     1      29.611   6.020  21.264  1.00  0.00     0.136 A 
ATOM      8  C   UNL     1      30.597   5.691  20.299  1.00  0.00     0.125 A 
ATOM      9  C   UNL     1      31.221   4.434  20.230  1.00  0.00     0.078 A 
ATOM     10  C   UNL     1      32.189   4.185  19.252  1.00  0.00     0.223 A 
ENDROOT
BRANCH   1  11
ATOM     11  C   UNL     1      33.507   5.011  17.259  1.00  0.00     0.087 A 
ATOM     12  C   UNL     1      34.710   5.740  17.240  1.00  0.00     0.022 A 
ATOM     13  C   UNL     1      35.649   5.525  16.228  1.00  0.00     0.051 A 
ATOM     14  C   UNL     1      35.410   4.577  15.229  1.00  0.00     0.157 A 
ATOM     15  C   UNL     1      33.279   4.043  16.267  1.00  0.00     0.068 A 
ATOM     16  C   UNL     1      34.220   3.828  15.249  1.00  0.00     0.158 A 
BRANCH  14  17
ATOM     17  O   UNL     1      36.365   4.387  14.232  1.00  0.00    -0.504 OA
ATOM     18  H   UNL     1      36.801   3.487  14.068  1.00  0.00     0.293 HD
ENDBRANCH  14  17
BRANCH  16  19
ATOM     19  O   UNL     1      33.979   2.875  14.262  1.00  0.00    -0.504 OA
ATOM     20  H   UNL     1      33.685   1.933  14.495  1.00  0.00     0.293 HD
ENDBRANCH  16  19
ENDBRANCH   1  11
BRANCH  10  21
ATOM     21  O   UNL     1      32.845   2.954  19.215  1.00  0.00    -0.500 OA
ATOM     22  H   UNL     1      33.838   2.885  19.026  1.00  0.00     0.294 HD
ENDBRANCH  10  21
BRANCH   5  23
ATOM     23  O   UNL     1      28.875   9.531  20.361  1.00  0.00    -0.507 OA
ATOM     24  H   UNL     1      28.191   9.819  19.671  1.00  0.00     0.293 HD
ENDBRANCH   5  23
BRANCH   7  25
ATOM     25  O   UNL     1      29.156   5.119  22.231  1.00  0.00    -0.507 OA
ATOM     26  H   UNL     1      29.732   4.418  22.673  1.00  0.00     0.293 HD
ENDBRANCH   7  25
TORSDOF 6
ENDMDL
MODEL 8
REMARK VINA RESULT:    -5.743     19.141     20.833
REMARK INTER + INTRA:          -7.011
REMARK INTER:                  -6.733
REMARK INTRA:                  -0.278
REMARK UNBOUND:                -0.092
REMARK SMILES Oc1cc(O)c2cc(O)c(-c3ccc(O)c(O)c3)[o+]c2c1.[Cl-]
REMARK SMILES IDX 10 1 19 2 20 3 21 4 2 5 3 6 4 7 6 8 7 9 8 10 11 11 12 12
REMARK SMILES IDX 13 13 14 14 18 15 16 16 15 17 17 19 9 21 1 23 5 25
REMARK H PARENT 15 18 17 20 9 22 1 24 5 26
REMARK Flexibility Score: inf
ROOT
ATOM      1  C   UNL     1      42.623  21.021   8.158  1.00  0.00     0.402 A 
ATOM      2  O   UNL     1      42.845  20.448   6.978  1.00  0.00    -0.202 OA
ATOM      3  C   UNL     1      43.855  20.785   6.181  1.00  0.00     0.368 A 
ATOM      4  C   UNL     1      44.003  20.128   4.957  1.00  0.00     0.162 A 
ATOM      5  C   UNL     1      45.055  20.464   4.099  1.00  0.00     0.128 A 
ATOM      6  C   UNL     1      45.960  21.463   4.466  1.00  0.00     0.093 A 
ATOM      7  C   UNL     1      45.832  22.137   5.687  1.00  0.00     0.136 A 
ATOM      8  C   UNL     1      44.768  21.797   6.563  1.00  0.00     0.125 A 
ATOM      9  C   UNL     1      44.570  22.410   7.811  1.00  0.00     0.078 A 
ATOM     10  C   UNL     1      43.501  22.018   8.623  1.00  0.00     0.223 A 
ENDROOT
BRANCH   1  11
ATOM     11  C   UNL     1      41.458  20.564   8.949  1.00  0.00     0.087 A 
ATOM     12  C   UNL     1      40.331  21.386   9.135  1.00  0.00     0.022 A 
ATOM     13  C   UNL     1      39.234  20.924   9.865  1.00  0.00     0.051 A 
ATOM     14  C   UNL     1      39.237  19.637  10.410  1.00  0.00     0.157 A 
ATOM     15  C   UNL     1      41.449  19.263   9.479  1.00  0.00     0.068 A 
ATOM     16  C   UNL     1      40.348  18.799  10.214  1.00  0.00     0.158 A 
BRANCH  14  17
ATOM     17  O   UNL     1      38.127  19.206  11.136  1.00  0.00    -0.504 OA
ATOM     18  H   UNL     1      37.822  19.673  11.982  1.00  0.00     0.293 HD
ENDBRANCH  14  17
BRANCH  16  19
ATOM     19  O   UNL     1      40.354  17.512  10.747  1.00  0.00    -0.504 OA
ATOM     20  H   UNL     1      39.673  17.221  11.440  1.00  0.00     0.293 HD
ENDBRANCH  16  19
ENDBRANCH   1  11
BRANCH  10  21
ATOM     21  O   UNL     1      43.333  22.590   9.884  1.00  0.00    -0.500 OA
ATOM     22  H   UNL     1      43.454  23.584  10.038  1.00  0.00     0.294 HD
ENDBRANCH  10  21
BRANCH   5  23
ATOM     23  O   UNL     1      45.210  19.812   2.878  1.00  0.00    -0.507 OA
ATOM     24  H   UNL     1      46.008  19.990   2.279  1.00  0.00     0.293 HD
ENDBRANCH   5  23
BRANCH   7  25
ATOM     25  O   UNL     1      46.776  23.125   5.979  1.00  0.00    -0.507 OA
ATOM     26  H   UNL     1      47.338  23.147   6.816  1.00  0.00     0.293 HD
ENDBRANCH   7  25
TORSDOF 6
ENDMDL
MODEL 9
REMARK VINA RESULT:    -5.627      1.972      2.967
REMARK INTER + INTRA:          -6.871
REMARK INTER:                  -6.522
REMARK INTRA:                  -0.349
REMARK UNBOUND:                -0.092
REMARK SMILES Oc1cc(O)c2cc(O)c(-c3ccc(O)c(O)c3)[o+]c2c1.[Cl-]
REMARK SMILES IDX 10 1 19 2 20 3 21 4 2 5 3 6 4 7 6 8 7 9 8 10 11 11 12 12
REMARK SMILES IDX 13 13 14 14 18 15 16 16 15 17 17 19 9 21 1 23 5 25
REMARK H PARENT 15 18 17 20 9 22 1 24 5 26
REMARK Flexibility Score: inf
ROOT
ATOM      1  C   UNL     1      33.925   3.900  16.868  1.00  0.00     0.402 A 
ATOM      2  O   UNL     1      34.049   4.053  15.552  1.00  0.00    -0.202 OA
ATOM      3  C   UNL     1      35.190   3.853  14.899  1.00  0.00     0.368 A 
ATOM      4  C   UNL     1      35.222   4.042  13.515  1.00  0.00     0.162 A 
ATOM      5  C   UNL     1      36.409   3.842  12.803  1.00  0.00     0.128 A 
ATOM      6  C   UNL     1      37.569   3.455  13.479  1.00  0.00     0.093 A 
ATOM      7  C   UNL     1      37.562   3.260  14.866  1.00  0.00     0.136 A 
ATOM      8  C   UNL     1      36.359   3.458  15.592  1.00  0.00     0.125 A 
ATOM      9  C   UNL     1      36.256   3.273  16.981  1.00  0.00     0.078 A 
ATOM     10  C   UNL     1      35.034   3.483  17.627  1.00  0.00     0.223 A 
ENDROOT
BRANCH   1  11
ATOM     11  C   UNL     1      32.602   4.161  17.480  1.00  0.00     0.087 A 
ATOM     12  C   UNL     1      31.636   3.145  17.597  1.00  0.00     0.022 A 
ATOM     13  C   UNL     1      30.404   3.410  18.200  1.00  0.00     0.051 A 
ATOM     14  C   UNL     1      30.121   4.682  18.704  1.00  0.00     0.157 A 
ATOM     15  C   UNL     1      32.324   5.432  18.008  1.00  0.00     0.068 A 
ATOM     16  C   UNL     1      31.086   5.699  18.612  1.00  0.00     0.158 A 
BRANCH  14  17
ATOM     17  O   UNL     1      28.881   4.915  19.299  1.00  0.00    -0.504 OA
ATOM     18  H   UNL     1      28.691   5.754  19.835  1.00  0.00     0.293 HD
ENDBRANCH  14  17
BRANCH  16  19
ATOM     19  O   UNL     1      30.814   6.968  19.121  1.00  0.00    -0.504 OA
ATOM     20  H   UNL     1      30.006   7.141  19.709  1.00  0.00     0.293 HD
ENDBRANCH  16  19
ENDBRANCH   1  11
BRANCH  10  21
ATOM     21  O   UNL     1      34.919   3.251  18.998  1.00  0.00    -0.500 OA
ATOM     22  H   UNL     1      34.356   3.846  19.594  1.00  0.00     0.294 HD
ENDBRANCH  10  21
BRANCH   5  23
ATOM     23  O   UNL     1      36.449   4.028  11.423  1.00  0.00    -0.507 OA
ATOM     24  H   UNL     1      36.136   4.891  10.994  1.00  0.00     0.293 HD
ENDBRANCH   5  23
BRANCH   7  25
ATOM     25  O   UNL     1      38.763   2.875  15.467  1.00  0.00    -0.507 OA
ATOM     26  H   UNL     1      39.358   3.492  16.001  1.00  0.00     0.293 HD
ENDBRANCH   7  25
TORSDOF 6
ENDMDL
