MODEL 1
REMARK VINA RESULT:    -4.218      0.000      0.000
REMARK INTER + INTRA:          -7.149
REMARK INTER:                  -6.191
REMARK INTRA:                  -0.958
REMARK UNBOUND:                -0.958
REMARK SMILES O=c1c(O[C@@H]2O[C@H](CO)[C@@H](O)[C@@H](O)[C@@H]2O)c(-c2ccc(O)c(O)c2)oc2cc(O)cc(O)c12
REMARK SMILES IDX 4 1 3 2 16 3 25 4 2 5 26 6 1 7 33 8 27 9 31 10 28 11 30 12
REMARK SMILES IDX 17 13 18 14 19 15 20 16 24 17 22 18 21 19 23 21 32 23 29 25
REMARK SMILES IDX 5 27 14 28 6 29 12 30 7 31 10 32 15 33 13 35 8 37 9 38 11 40
REMARK H PARENT 21 20 23 22 32 24 29 26 15 34 13 36 9 39 11 41
REMARK Flexibility Score: inf
ROOT
ATOM      1  O   UNL     1     -10.184 -11.485  -5.447  1.00  0.00    -0.454 OA
ENDROOT
BRANCH   1   2
ATOM      2  C   UNL     1     -10.254 -10.078  -5.430  1.00  0.00     0.214 A 
ATOM      3  C   UNL     1      -9.073  -9.344  -5.653  1.00  0.00     0.180 A 
ATOM      4  O   UNL     1      -9.108  -8.018  -5.681  1.00  0.00    -0.452 OA
ATOM      5  C   UNL     1     -11.458  -9.365  -5.229  1.00  0.00     0.239 A 
ATOM      6  C   UNL     1     -10.213  -7.310  -5.499  1.00  0.00     0.146 A 
ATOM      7  O   UNL     1     -12.517  -9.998  -4.991  1.00  0.00    -0.285 OA
ATOM      8  C   UNL     1     -11.461  -7.950  -5.290  1.00  0.00     0.111 A 
ATOM      9  C   UNL     1     -10.117  -5.917  -5.500  1.00  0.00     0.094 A 
ATOM     10  C   UNL     1     -12.624  -7.134  -5.135  1.00  0.00     0.134 A 
ATOM     11  C   UNL     1     -11.245  -5.132  -5.270  1.00  0.00     0.123 A 
ATOM     12  C   UNL     1     -12.489  -5.741  -5.088  1.00  0.00     0.093 A 
BRANCH   3  13
ATOM     13  C   UNL     1      -7.759 -10.002  -5.840  1.00  0.00     0.025 A 
ATOM     14  C   UNL     1      -6.831 -10.005  -4.787  1.00  0.00     0.016 A 
ATOM     15  C   UNL     1      -5.613 -10.677  -4.919  1.00  0.00     0.051 A 
ATOM     16  C   UNL     1      -5.307 -11.364  -6.102  1.00  0.00     0.157 A 
ATOM     17  C   UNL     1      -7.457 -10.710  -7.020  1.00  0.00     0.062 A 
ATOM     18  C   UNL     1      -6.234 -11.375  -7.158  1.00  0.00     0.158 A 
BRANCH  16  19
ATOM     19  O   UNL     1      -4.091 -12.034  -6.228  1.00  0.00    -0.504 OA
ATOM     20  H   UNL     1      -3.937 -12.720  -6.957  1.00  0.00     0.293 HD
ENDBRANCH  16  19
BRANCH  18  21
ATOM     21  O   UNL     1      -5.958 -12.047  -8.349  1.00  0.00    -0.504 OA
ATOM     22  H   UNL     1      -5.042 -12.423  -8.557  1.00  0.00     0.293 HD
ENDBRANCH  18  21
ENDBRANCH   3  13
BRANCH  10  23
ATOM     23  O   UNL     1     -13.927  -7.632  -5.047  1.00  0.00    -0.507 OA
ATOM     24  H   UNL     1     -14.695  -7.343  -5.633  1.00  0.00     0.293 HD
ENDBRANCH  10  23
BRANCH  11  25
ATOM     25  O   UNL     1     -11.117  -3.748  -5.221  1.00  0.00    -0.508 OA
ATOM     26  H   UNL     1     -10.410  -3.261  -5.759  1.00  0.00     0.293 HD
ENDBRANCH  11  25
ENDBRANCH   1   2
BRANCH   1  27
ATOM     27  C   UNL     1     -10.761 -12.347  -6.431  1.00  0.00     0.339 C 
ATOM     28  C   UNL     1     -11.707 -13.375  -5.739  1.00  0.00     0.214 C 
ATOM     29  O   UNL     1     -11.434 -11.539  -7.391  1.00  0.00    -0.332 OA
ATOM     30  C   UNL     1     -13.183 -12.997  -5.968  1.00  0.00     0.180 C 
ATOM     31  C   UNL     1     -12.244 -12.325  -8.245  1.00  0.00     0.179 C 
ATOM     32  C   UNL     1     -13.481 -12.873  -7.482  1.00  0.00     0.177 C 
BRANCH  28  33
ATOM     33  O   UNL     1     -11.414 -13.512  -4.368  1.00  0.00    -0.384 OA
ATOM     34  H   UNL     1     -10.984 -14.394  -4.241  1.00  0.00     0.211 HD
ENDBRANCH  28  33
BRANCH  30  35
ATOM     35  O   UNL     1     -14.021 -13.953  -5.369  1.00  0.00    -0.387 OA
ATOM     36  H   UNL     1     -13.560 -14.827  -5.452  1.00  0.00     0.211 HD
ENDBRANCH  30  35
BRANCH  31  37
ATOM     37  C   UNL     1     -12.655 -11.484  -9.459  1.00  0.00     0.191 C 
BRANCH  37  38
ATOM     38  O   UNL     1     -12.976 -12.311 -10.543  1.00  0.00    -0.394 OA
ATOM     39  H   UNL     1     -12.636 -13.214 -10.310  1.00  0.00     0.210 HD
ENDBRANCH  37  38
ENDBRANCH  31  37
BRANCH  32  40
ATOM     40  O   UNL     1     -13.828 -14.125  -8.022  1.00  0.00    -0.387 OA
ATOM     41  H   UNL     1     -13.014 -14.691  -7.997  1.00  0.00     0.211 HD
ENDBRANCH  32  40
ENDBRANCH   1  27
TORSDOF 12
ENDMDL
MODEL 2
REMARK VINA RESULT:    -4.017      1.664      5.218
REMARK INTER + INTRA:          -6.854
REMARK INTER:                  -5.788
REMARK INTRA:                  -1.066
REMARK UNBOUND:                -0.958
REMARK SMILES O=c1c(O[C@@H]2O[C@H](CO)[C@@H](O)[C@@H](O)[C@@H]2O)c(-c2ccc(O)c(O)c2)oc2cc(O)cc(O)c12
REMARK SMILES IDX 4 1 3 2 16 3 25 4 2 5 26 6 1 7 33 8 27 9 31 10 28 11 30 12
REMARK SMILES IDX 17 13 18 14 19 15 20 16 24 17 22 18 21 19 23 21 32 23 29 25
REMARK SMILES IDX 5 27 14 28 6 29 12 30 7 31 10 32 15 33 13 35 8 37 9 38 11 40
REMARK H PARENT 21 20 23 22 32 24 29 26 15 34 13 36 9 39 11 41
REMARK Flexibility Score: inf
ROOT
ATOM      1  O   UNL     1      -9.956 -10.696  -4.776  1.00  0.00    -0.454 OA
ENDROOT
BRANCH   1   2
ATOM      2  C   UNL     1     -10.370  -9.460  -5.313  1.00  0.00     0.214 A 
ATOM      3  C   UNL     1     -11.436  -9.451  -6.233  1.00  0.00     0.180 A 
ATOM      4  O   UNL     1     -11.876  -8.303  -6.730  1.00  0.00    -0.452 OA
ATOM      5  C   UNL     1      -9.786  -8.225  -4.951  1.00  0.00     0.239 A 
ATOM      6  C   UNL     1     -11.360  -7.123  -6.419  1.00  0.00     0.146 A 
ATOM      7  O   UNL     1      -8.810  -8.212  -4.160  1.00  0.00    -0.285 OA
ATOM      8  C   UNL     1     -10.298  -7.017  -5.484  1.00  0.00     0.111 A 
ATOM      9  C   UNL     1     -11.874  -5.986  -7.046  1.00  0.00     0.094 A 
ATOM     10  C   UNL     1      -9.808  -5.715  -5.161  1.00  0.00     0.134 A 
ATOM     11  C   UNL     1     -11.334  -4.730  -6.782  1.00  0.00     0.123 A 
ATOM     12  C   UNL     1     -10.306  -4.599  -5.844  1.00  0.00     0.093 A 
BRANCH   3  13
ATOM     13  C   UNL     1     -12.087 -10.698  -6.697  1.00  0.00     0.025 A 
ATOM     14  C   UNL     1     -13.116 -11.267  -5.931  1.00  0.00     0.016 A 
ATOM     15  C   UNL     1     -13.789 -12.405  -6.383  1.00  0.00     0.051 A 
ATOM     16  C   UNL     1     -13.449 -12.988  -7.612  1.00  0.00     0.157 A 
ATOM     17  C   UNL     1     -11.761 -11.275  -7.940  1.00  0.00     0.062 A 
ATOM     18  C   UNL     1     -12.427 -12.420  -8.390  1.00  0.00     0.158 A 
BRANCH  16  19
ATOM     19  O   UNL     1     -14.123 -14.123  -8.059  1.00  0.00    -0.504 OA
ATOM     20  H   UNL     1     -14.603 -14.138  -8.951  1.00  0.00     0.293 HD
ENDBRANCH  16  19
BRANCH  18  21
ATOM     21  O   UNL     1     -12.062 -12.977  -9.616  1.00  0.00    -0.504 OA
ATOM     22  H   UNL     1     -12.064 -12.441 -10.474  1.00  0.00     0.293 HD
ENDBRANCH  18  21
ENDBRANCH   3  13
BRANCH  10  23
ATOM     23  O   UNL     1      -8.855  -5.458  -4.171  1.00  0.00    -0.507 OA
ATOM     24  H   UNL     1      -9.036  -4.958  -3.313  1.00  0.00     0.293 HD
ENDBRANCH  10  23
BRANCH  11  25
ATOM     25  O   UNL     1     -11.825  -3.618  -7.458  1.00  0.00    -0.508 OA
ATOM     26  H   UNL     1     -12.331  -3.708  -8.331  1.00  0.00     0.293 HD
ENDBRANCH  11  25
ENDBRANCH   1   2
BRANCH   1  27
ATOM     27  C   UNL     1      -8.691 -11.327  -4.986  1.00  0.00     0.339 C 
ATOM     28  C   UNL     1      -8.898 -12.686  -5.723  1.00  0.00     0.214 C 
ATOM     29  O   UNL     1      -7.861 -10.427  -5.714  1.00  0.00    -0.332 OA
ATOM     30  C   UNL     1      -8.493 -12.570  -7.204  1.00  0.00     0.180 C 
ATOM     31  C   UNL     1      -6.692 -11.075  -6.184  1.00  0.00     0.179 C 
ATOM     32  C   UNL     1      -7.033 -12.067  -7.328  1.00  0.00     0.177 C 
BRANCH  28  33
ATOM     33  O   UNL     1     -10.216 -13.159  -5.581  1.00  0.00    -0.384 OA
ATOM     34  H   UNL     1     -10.580 -13.309  -6.490  1.00  0.00     0.211 HD
ENDBRANCH  28  33
BRANCH  30  35
ATOM     35  O   UNL     1      -8.651 -13.812  -7.842  1.00  0.00    -0.387 OA
ATOM     36  H   UNL     1      -7.940 -14.406  -7.489  1.00  0.00     0.211 HD
ENDBRANCH  30  35
BRANCH  31  37
ATOM     37  C   UNL     1      -5.681 -10.014  -6.636  1.00  0.00     0.191 C 
BRANCH  37  38
ATOM     38  O   UNL     1      -4.471 -10.616  -7.003  1.00  0.00    -0.394 OA
ATOM     39  H   UNL     1      -4.290 -10.327  -7.935  1.00  0.00     0.210 HD
ENDBRANCH  37  38
ENDBRANCH  31  37
BRANCH  32  40
ATOM     40  O   UNL     1      -6.132 -13.146  -7.277  1.00  0.00    -0.387 OA
ATOM     41  H   UNL     1      -5.232 -12.785  -7.483  1.00  0.00     0.211 HD
ENDBRANCH  32  40
ENDBRANCH   1  27
TORSDOF 12
ENDMDL
MODEL 3
REMARK VINA RESULT:    -3.728      1.873      6.131
REMARK INTER + INTRA:          -6.430
REMARK INTER:                  -6.031
REMARK INTRA:                  -0.399
REMARK UNBOUND:                -0.958
REMARK SMILES O=c1c(O[C@@H]2O[C@H](CO)[C@@H](O)[C@@H](O)[C@@H]2O)c(-c2ccc(O)c(O)c2)oc2cc(O)cc(O)c12
REMARK SMILES IDX 4 1 3 2 16 3 25 4 2 5 26 6 1 7 33 8 27 9 31 10 28 11 30 12
REMARK SMILES IDX 17 13 18 14 19 15 20 16 24 17 22 18 21 19 23 21 32 23 29 25
REMARK SMILES IDX 5 27 14 28 6 29 12 30 7 31 10 32 15 33 13 35 8 37 9 38 11 40
REMARK H PARENT 21 20 23 22 32 24 29 26 15 34 13 36 9 39 11 41
REMARK Flexibility Score: inf
ROOT
ATOM      1  O   UNL     1     -11.806 -10.097  -5.874  1.00  0.00    -0.454 OA
ENDROOT
BRANCH   1   2
ATOM      2  C   UNL     1     -10.427 -10.299  -6.080  1.00  0.00     0.214 A 
ATOM      3  C   UNL     1      -9.548  -9.225  -5.835  1.00  0.00     0.180 A 
ATOM      4  O   UNL     1      -8.240  -9.390  -5.982  1.00  0.00    -0.452 OA
ATOM      5  C   UNL     1      -9.878 -11.534  -6.490  1.00  0.00     0.239 A 
ATOM      6  C   UNL     1      -7.682 -10.530  -6.364  1.00  0.00     0.146 A 
ATOM      7  O   UNL     1     -10.645 -12.495  -6.749  1.00  0.00    -0.285 OA
ATOM      8  C   UNL     1      -8.475 -11.680  -6.613  1.00  0.00     0.111 A 
ATOM      9  C   UNL     1      -6.297 -10.568  -6.533  1.00  0.00     0.094 A 
ATOM     10  C   UNL     1      -7.813 -12.890  -6.987  1.00  0.00     0.134 A 
ATOM     11  C   UNL     1      -5.672 -11.732  -6.975  1.00  0.00     0.123 A 
ATOM     12  C   UNL     1      -6.429 -12.884  -7.200  1.00  0.00     0.093 A 
BRANCH   3  13
ATOM     13  C   UNL     1     -10.033  -7.884  -5.435  1.00  0.00     0.025 A 
ATOM     14  C   UNL     1      -9.159  -6.999  -4.786  1.00  0.00     0.016 A 
ATOM     15  C   UNL     1      -9.575  -5.706  -4.459  1.00  0.00     0.051 A 
ATOM     16  C   UNL     1     -10.870  -5.275  -4.782  1.00  0.00     0.157 A 
ATOM     17  C   UNL     1     -11.327  -7.443  -5.775  1.00  0.00     0.062 A 
ATOM     18  C   UNL     1     -11.749  -6.152  -5.440  1.00  0.00     0.158 A 
BRANCH  16  19
ATOM     19  O   UNL     1     -11.281  -3.984  -4.455  1.00  0.00    -0.504 OA
ATOM     20  H   UNL     1     -11.564  -3.740  -3.513  1.00  0.00     0.293 HD
ENDBRANCH  16  19
BRANCH  18  21
ATOM     21  O   UNL     1     -13.044  -5.755  -5.773  1.00  0.00    -0.504 OA
ATOM     22  H   UNL     1     -13.851  -6.339  -5.591  1.00  0.00     0.293 HD
ENDBRANCH  18  21
ENDBRANCH   3  13
BRANCH  10  23
ATOM     23  O   UNL     1      -8.457 -14.121  -7.140  1.00  0.00    -0.507 OA
ATOM     24  H   UNL     1      -8.619 -14.581  -8.024  1.00  0.00     0.293 HD
ENDBRANCH  10  23
BRANCH  11  25
ATOM     25  O   UNL     1      -4.297 -11.732  -7.188  1.00  0.00    -0.508 OA
ATOM     26  H   UNL     1      -3.644 -11.910  -6.435  1.00  0.00     0.293 HD
ENDBRANCH  11  25
ENDBRANCH   1   2
BRANCH   1  27
ATOM     27  C   UNL     1     -12.593 -10.658  -4.821  1.00  0.00     0.339 C 
ATOM     28  C   UNL     1     -13.581 -11.713  -5.409  1.00  0.00     0.214 C 
ATOM     29  O   UNL     1     -11.710 -11.212  -3.852  1.00  0.00    -0.332 OA
ATOM     30  C   UNL     1     -13.100 -13.143  -5.097  1.00  0.00     0.180 C 
ATOM     31  C   UNL     1     -12.412 -12.010  -2.915  1.00  0.00     0.179 C 
ATOM     32  C   UNL     1     -12.904 -13.327  -3.572  1.00  0.00     0.177 C 
BRANCH  28  33
ATOM     33  O   UNL     1     -13.785 -11.523  -6.789  1.00  0.00    -0.384 OA
ATOM     34  H   UNL     1     -13.204 -10.775  -7.078  1.00  0.00     0.211 HD
ENDBRANCH  28  33
BRANCH  30  35
ATOM     35  O   UNL     1     -14.019 -14.077  -5.602  1.00  0.00    -0.387 OA
ATOM     36  H   UNL     1     -13.705 -14.326  -6.508  1.00  0.00     0.211 HD
ENDBRANCH  30  35
BRANCH  31  37
ATOM     37  C   UNL     1     -11.503 -12.282  -1.711  1.00  0.00     0.191 C 
BRANCH  37  38
ATOM     38  O   UNL     1     -11.333 -11.118  -0.951  1.00  0.00    -0.394 OA
ATOM     39  H   UNL     1     -12.183 -10.986  -0.454  1.00  0.00     0.210 HD
ENDBRANCH  37  38
ENDBRANCH  31  37
BRANCH  32  40
ATOM     40  O   UNL     1     -14.111 -13.715  -2.962  1.00  0.00    -0.387 OA
ATOM     41  H   UNL     1     -14.245 -13.124  -2.178  1.00  0.00     0.211 HD
ENDBRANCH  32  40
ENDBRANCH   1  27
TORSDOF 12
ENDMDL
MODEL 4
REMARK VINA RESULT:    -3.672      2.425      5.845
REMARK INTER + INTRA:          -6.347
REMARK INTER:                  -7.247
REMARK INTRA:                   0.900
REMARK UNBOUND:                -0.958
REMARK SMILES O=c1c(O[C@@H]2O[C@H](CO)[C@@H](O)[C@@H](O)[C@@H]2O)c(-c2ccc(O)c(O)c2)oc2cc(O)cc(O)c12
REMARK SMILES IDX 4 1 3 2 16 3 25 4 2 5 26 6 1 7 33 8 27 9 31 10 28 11 30 12
REMARK SMILES IDX 17 13 18 14 19 15 20 16 24 17 22 18 21 19 23 21 32 23 29 25
REMARK SMILES IDX 5 27 14 28 6 29 12 30 7 31 10 32 15 33 13 35 8 37 9 38 11 40
REMARK H PARENT 21 20 23 22 32 24 29 26 15 34 13 36 9 39 11 41
REMARK Flexibility Score: inf
ROOT
ATOM      1  O   UNL     1      -9.421  -8.267  -6.283  1.00  0.00    -0.454 OA
ENDROOT
BRANCH   1   2
ATOM      2  C   UNL     1     -10.010  -9.376  -5.644  1.00  0.00     0.214 A 
ATOM      3  C   UNL     1      -9.210 -10.508  -5.391  1.00  0.00     0.180 A 
ATOM      4  O   UNL     1      -9.722 -11.556  -4.758  1.00  0.00    -0.452 OA
ATOM      5  C   UNL     1     -11.357  -9.398  -5.217  1.00  0.00     0.239 A 
ATOM      6  C   UNL     1     -10.978 -11.619  -4.340  1.00  0.00     0.146 A 
ATOM      7  O   UNL     1     -12.099  -8.415  -5.464  1.00  0.00    -0.285 OA
ATOM      8  C   UNL     1     -11.861 -10.525  -4.523  1.00  0.00     0.111 A 
ATOM      9  C   UNL     1     -11.416 -12.796  -3.730  1.00  0.00     0.094 A 
ATOM     10  C   UNL     1     -13.193 -10.639  -4.019  1.00  0.00     0.134 A 
ATOM     11  C   UNL     1     -12.739 -12.924  -3.314  1.00  0.00     0.123 A 
ATOM     12  C   UNL     1     -13.620 -11.849  -3.459  1.00  0.00     0.093 A 
BRANCH   3  13
ATOM     13  C   UNL     1      -7.798 -10.590  -5.831  1.00  0.00     0.025 A 
ATOM     14  C   UNL     1      -6.804  -9.933  -5.089  1.00  0.00     0.016 A 
ATOM     15  C   UNL     1      -5.459 -10.052  -5.447  1.00  0.00     0.051 A 
ATOM     16  C   UNL     1      -5.085 -10.835  -6.549  1.00  0.00     0.157 A 
ATOM     17  C   UNL     1      -7.418 -11.392  -6.925  1.00  0.00     0.062 A 
ATOM     18  C   UNL     1      -6.073 -11.504  -7.292  1.00  0.00     0.158 A 
BRANCH  16  19
ATOM     19  O   UNL     1      -3.743 -10.952  -6.902  1.00  0.00    -0.504 OA
ATOM     20  H   UNL     1      -3.001 -10.727  -6.250  1.00  0.00     0.293 HD
ENDBRANCH  16  19
BRANCH  18  21
ATOM     21  O   UNL     1      -5.735 -12.289  -8.394  1.00  0.00    -0.504 OA
ATOM     22  H   UNL     1      -5.973 -12.021  -9.341  1.00  0.00     0.293 HD
ENDBRANCH  18  21
ENDBRANCH   3  13
BRANCH  10  23
ATOM     23  O   UNL     1     -14.125  -9.597  -4.020  1.00  0.00    -0.507 OA
ATOM     24  H   UNL     1     -13.933  -8.652  -4.319  1.00  0.00     0.293 HD
ENDBRANCH  10  23
BRANCH  11  25
ATOM     25  O   UNL     1     -13.169 -14.125  -2.758  1.00  0.00    -0.508 OA
ATOM     26  H   UNL     1     -13.775 -14.757  -3.266  1.00  0.00     0.293 HD
ENDBRANCH  11  25
ENDBRANCH   1   2
BRANCH   1  27
ATOM     27  C   UNL     1      -9.547  -6.899  -5.886  1.00  0.00     0.339 C 
ATOM     28  C   UNL     1      -9.502  -5.981  -7.145  1.00  0.00     0.214 C 
ATOM     29  O   UNL     1     -10.756  -6.760  -5.147  1.00  0.00    -0.332 OA
ATOM     30  C   UNL     1     -10.909  -5.461  -7.492  1.00  0.00     0.180 C 
ATOM     31  C   UNL     1     -11.079  -5.396  -4.945  1.00  0.00     0.179 C 
ATOM     32  C   UNL     1     -11.532  -4.734  -6.274  1.00  0.00     0.177 C 
BRANCH  28  33
ATOM     33  O   UNL     1      -8.904  -6.631  -8.242  1.00  0.00    -0.384 OA
ATOM     34  H   UNL     1      -8.669  -7.549  -7.955  1.00  0.00     0.211 HD
ENDBRANCH  28  33
BRANCH  30  35
ATOM     35  O   UNL     1     -10.844  -4.607  -8.605  1.00  0.00    -0.387 OA
ATOM     36  H   UNL     1     -10.131  -3.944  -8.415  1.00  0.00     0.211 HD
ENDBRANCH  30  35
BRANCH  31  37
ATOM     37  C   UNL     1     -12.161  -5.294  -3.863  1.00  0.00     0.191 C 
BRANCH  37  38
ATOM     38  O   UNL     1     -13.238  -6.136  -4.167  1.00  0.00    -0.394 OA
ATOM     39  H   UNL     1     -13.949  -5.552  -4.540  1.00  0.00     0.210 HD
ENDBRANCH  37  38
ENDBRANCH  31  37
BRANCH  32  40
ATOM     40  O   UNL     1     -11.152  -3.380  -6.259  1.00  0.00    -0.387 OA
ATOM     41  H   UNL     1     -11.788  -2.904  -5.665  1.00  0.00     0.211 HD
ENDBRANCH  32  40
ENDBRANCH   1  27
TORSDOF 12
ENDMDL
MODEL 5
REMARK VINA RESULT:    -3.102      1.490      7.060
REMARK INTER + INTRA:          -5.511
REMARK INTER:                  -4.491
REMARK INTRA:                  -1.020
REMARK UNBOUND:                -0.958
REMARK SMILES O=c1c(O[C@@H]2O[C@H](CO)[C@@H](O)[C@@H](O)[C@@H]2O)c(-c2ccc(O)c(O)c2)oc2cc(O)cc(O)c12
REMARK SMILES IDX 4 1 3 2 16 3 25 4 2 5 26 6 1 7 33 8 27 9 31 10 28 11 30 12
REMARK SMILES IDX 17 13 18 14 19 15 20 16 24 17 22 18 21 19 23 21 32 23 29 25
REMARK SMILES IDX 5 27 14 28 6 29 12 30 7 31 10 32 15 33 13 35 8 37 9 38 11 40
REMARK H PARENT 21 20 23 22 32 24 29 26 15 34 13 36 9 39 11 41
REMARK Flexibility Score: inf
ROOT
ATOM      1  O   UNL     1      -9.668 -10.045  -5.395  1.00  0.00    -0.454 OA
ENDROOT
BRANCH   1   2
ATOM      2  C   UNL     1      -8.595 -10.821  -5.877  1.00  0.00     0.214 A 
ATOM      3  C   UNL     1      -8.885 -12.024  -6.550  1.00  0.00     0.180 A 
ATOM      4  O   UNL     1      -7.902 -12.760  -7.050  1.00  0.00    -0.452 OA
ATOM      5  C   UNL     1      -7.242 -10.437  -5.744  1.00  0.00     0.239 A 
ATOM      6  C   UNL     1      -6.620 -12.439  -6.949  1.00  0.00     0.146 A 
ATOM      7  O   UNL     1      -6.957  -9.387  -5.115  1.00  0.00    -0.285 OA
ATOM      8  C   UNL     1      -6.220 -11.237  -6.311  1.00  0.00     0.111 A 
ATOM      9  C   UNL     1      -5.671 -13.320  -7.471  1.00  0.00     0.094 A 
ATOM     10  C   UNL     1      -4.826 -10.926  -6.265  1.00  0.00     0.134 A 
ATOM     11  C   UNL     1      -4.311 -13.044  -7.350  1.00  0.00     0.123 A 
ATOM     12  C   UNL     1      -3.895 -11.853  -6.750  1.00  0.00     0.093 A 
BRANCH   3  13
ATOM     13  C   UNL     1     -10.270 -12.524  -6.709  1.00  0.00     0.025 A 
ATOM     14  C   UNL     1     -10.860 -12.533  -7.982  1.00  0.00     0.016 A 
ATOM     15  C   UNL     1     -12.140 -13.061  -8.165  1.00  0.00     0.051 A 
ATOM     16  C   UNL     1     -12.848 -13.597  -7.080  1.00  0.00     0.157 A 
ATOM     17  C   UNL     1     -10.976 -13.081  -5.624  1.00  0.00     0.062 A 
ATOM     18  C   UNL     1     -12.262 -13.602  -5.803  1.00  0.00     0.158 A 
BRANCH  16  19
ATOM     19  O   UNL     1     -14.124 -14.125  -7.267  1.00  0.00    -0.504 OA
ATOM     20  H   UNL     1     -14.269 -15.008  -7.742  1.00  0.00     0.293 HD
ENDBRANCH  16  19
BRANCH  18  21
ATOM     21  O   UNL     1     -12.940 -14.125  -4.702  1.00  0.00    -0.504 OA
ATOM     22  H   UNL     1     -13.624 -14.865  -4.792  1.00  0.00     0.293 HD
ENDBRANCH  18  21
ENDBRANCH   3  13
BRANCH  10  23
ATOM     23  O   UNL     1      -4.305  -9.723  -5.780  1.00  0.00    -0.507 OA
ATOM     24  H   UNL     1      -4.433  -9.377  -4.841  1.00  0.00     0.293 HD
ENDBRANCH  10  23
BRANCH  11  25
ATOM     25  O   UNL     1      -3.381 -13.961  -7.829  1.00  0.00    -0.508 OA
ATOM     26  H   UNL     1      -3.582 -14.553  -8.627  1.00  0.00     0.293 HD
ENDBRANCH  11  25
ENDBRANCH   1   2
BRANCH   1  27
ATOM     27  C   UNL     1     -10.350  -9.012  -6.110  1.00  0.00     0.339 C 
ATOM     28  C   UNL     1     -11.877  -9.077  -5.797  1.00  0.00     0.214 C 
ATOM     29  O   UNL     1      -9.767  -7.764  -5.751  1.00  0.00    -0.332 OA
ATOM     30  C   UNL     1     -12.283  -7.948  -4.830  1.00  0.00     0.180 C 
ATOM     31  C   UNL     1     -10.552  -6.680  -6.214  1.00  0.00     0.179 C 
ATOM     32  C   UNL     1     -11.873  -6.570  -5.405  1.00  0.00     0.177 C 
BRANCH  28  33
ATOM     33  O   UNL     1     -12.255 -10.341  -5.307  1.00  0.00    -0.384 OA
ATOM     34  H   UNL     1     -11.772 -11.025  -5.836  1.00  0.00     0.211 HD
ENDBRANCH  28  33
BRANCH  30  35
ATOM     35  O   UNL     1     -13.666  -7.999  -4.589  1.00  0.00    -0.387 OA
ATOM     36  H   UNL     1     -13.855  -7.342  -3.872  1.00  0.00     0.211 HD
ENDBRANCH  30  35
BRANCH  31  37
ATOM     37  C   UNL     1      -9.726  -5.391  -6.127  1.00  0.00     0.191 C 
BRANCH  37  38
ATOM     38  O   UNL     1     -10.197  -4.444  -7.046  1.00  0.00    -0.394 OA
ATOM     39  H   UNL     1     -10.718  -3.783  -6.518  1.00  0.00     0.210 HD
ENDBRANCH  37  38
ENDBRANCH  31  37
BRANCH  32  40
ATOM     40  O   UNL     1     -12.880  -6.066  -6.247  1.00  0.00    -0.387 OA
ATOM     41  H   UNL     1     -12.718  -5.093  -6.348  1.00  0.00     0.211 HD
ENDBRANCH  32  40
ENDBRANCH   1  27
TORSDOF 12
ENDMDL
MODEL 6
REMARK VINA RESULT:    -3.004      1.661      3.006
REMARK INTER + INTRA:          -5.366
REMARK INTER:                  -5.189
REMARK INTRA:                  -0.177
REMARK UNBOUND:                -0.958
REMARK SMILES O=c1c(O[C@@H]2O[C@H](CO)[C@@H](O)[C@@H](O)[C@@H]2O)c(-c2ccc(O)c(O)c2)oc2cc(O)cc(O)c12
REMARK SMILES IDX 4 1 3 2 16 3 25 4 2 5 26 6 1 7 33 8 27 9 31 10 28 11 30 12
REMARK SMILES IDX 17 13 18 14 19 15 20 16 24 17 22 18 21 19 23 21 32 23 29 25
REMARK SMILES IDX 5 27 14 28 6 29 12 30 7 31 10 32 15 33 13 35 8 37 9 38 11 40
REMARK H PARENT 21 20 23 22 32 24 29 26 15 34 13 36 9 39 11 41
REMARK Flexibility Score: inf
ROOT
ATOM      1  O   UNL     1     -11.444  -9.717  -6.390  1.00  0.00    -0.454 OA
ENDROOT
BRANCH   1   2
ATOM      2  C   UNL     1     -10.982  -8.540  -5.768  1.00  0.00     0.214 A 
ATOM      3  C   UNL     1      -9.604  -8.418  -5.502  1.00  0.00     0.180 A 
ATOM      4  O   UNL     1      -9.129  -7.309  -4.951  1.00  0.00    -0.452 OA
ATOM      5  C   UNL     1     -11.829  -7.463  -5.424  1.00  0.00     0.239 A 
ATOM      6  C   UNL     1      -9.885  -6.275  -4.613  1.00  0.00     0.146 A 
ATOM      7  O   UNL     1     -13.066  -7.564  -5.618  1.00  0.00    -0.285 OA
ATOM      8  C   UNL     1     -11.282  -6.285  -4.859  1.00  0.00     0.111 A 
ATOM      9  C   UNL     1      -9.278  -5.181  -3.993  1.00  0.00     0.094 A 
ATOM     10  C   UNL     1     -12.040  -5.126  -4.506  1.00  0.00     0.134 A 
ATOM     11  C   UNL     1     -10.040  -4.091  -3.582  1.00  0.00     0.123 A 
ATOM     12  C   UNL     1     -11.413  -4.067  -3.838  1.00  0.00     0.093 A 
BRANCH   3  13
ATOM     13  C   UNL     1      -8.644  -9.507  -5.796  1.00  0.00     0.025 A 
ATOM     14  C   UNL     1      -9.107 -10.829  -5.892  1.00  0.00     0.016 A 
ATOM     15  C   UNL     1      -8.232 -11.863  -6.234  1.00  0.00     0.051 A 
ATOM     16  C   UNL     1      -6.881 -11.591  -6.494  1.00  0.00     0.157 A 
ATOM     17  C   UNL     1      -7.291  -9.234  -6.077  1.00  0.00     0.062 A 
ATOM     18  C   UNL     1      -6.410 -10.269  -6.411  1.00  0.00     0.158 A 
BRANCH  16  19
ATOM     19  O   UNL     1      -6.011 -12.624  -6.836  1.00  0.00    -0.504 OA
ATOM     20  H   UNL     1      -5.785 -12.830  -7.802  1.00  0.00     0.293 HD
ENDBRANCH  16  19
BRANCH  18  21
ATOM     21  O   UNL     1      -5.072  -9.965  -6.660  1.00  0.00    -0.504 OA
ATOM     22  H   UNL     1      -4.331 -10.640  -6.522  1.00  0.00     0.293 HD
ENDBRANCH  18  21
ENDBRANCH   3  13
BRANCH  10  23
ATOM     23  O   UNL     1     -13.395  -4.954  -4.804  1.00  0.00    -0.507 OA
ATOM     24  H   UNL     1     -14.122  -4.814  -4.119  1.00  0.00     0.293 HD
ENDBRANCH  10  23
BRANCH  11  25
ATOM     25  O   UNL     1      -9.423  -3.036  -2.917  1.00  0.00    -0.508 OA
ATOM     26  H   UNL     1      -9.953  -2.245  -2.570  1.00  0.00     0.293 HD
ENDBRANCH  11  25
ENDBRANCH   1   2
BRANCH   1  27
ATOM     27  C   UNL     1     -12.476 -10.579  -5.905  1.00  0.00     0.339 C 
ATOM     28  C   UNL     1     -12.677 -11.766  -6.896  1.00  0.00     0.214 C 
ATOM     29  O   UNL     1     -12.119 -11.009  -4.596  1.00  0.00    -0.332 OA
ATOM     30  C   UNL     1     -12.061 -13.059  -6.330  1.00  0.00     0.180 C 
ATOM     31  C   UNL     1     -12.957 -12.062  -4.156  1.00  0.00     0.179 C 
ATOM     32  C   UNL     1     -12.649 -13.372  -4.932  1.00  0.00     0.177 C 
BRANCH  28  33
ATOM     33  O   UNL     1     -12.172 -11.468  -8.176  1.00  0.00    -0.384 OA
ATOM     34  H   UNL     1     -11.919 -12.324  -8.605  1.00  0.00     0.211 HD
ENDBRANCH  28  33
BRANCH  30  35
ATOM     35  O   UNL     1     -12.283 -14.125  -7.217  1.00  0.00    -0.387 OA
ATOM     36  H   UNL     1     -12.080 -14.958  -6.719  1.00  0.00     0.211 HD
ENDBRANCH  30  35
BRANCH  31  37
ATOM     37  C   UNL     1     -12.779 -12.244  -2.644  1.00  0.00     0.191 C 
BRANCH  37  38
ATOM     38  O   UNL     1     -11.478 -11.897  -2.259  1.00  0.00    -0.394 OA
ATOM     39  H   UNL     1     -11.014 -12.750  -2.053  1.00  0.00     0.210 HD
ENDBRANCH  37  38
ENDBRANCH  31  37
BRANCH  32  40
ATOM     40  O   UNL     1     -13.836 -14.117  -5.051  1.00  0.00    -0.387 OA
ATOM     41  H   UNL     1     -14.480 -13.563  -5.563  1.00  0.00     0.211 HD
ENDBRANCH  32  40
ENDBRANCH   1  27
TORSDOF 12
ENDMDL
MODEL 7
REMARK VINA RESULT:    -2.599      1.850      2.618
REMARK INTER + INTRA:          -4.772
REMARK INTER:                  -5.161
REMARK INTRA:                   0.389
REMARK UNBOUND:                -0.958
REMARK SMILES O=c1c(O[C@@H]2O[C@H](CO)[C@@H](O)[C@@H](O)[C@@H]2O)c(-c2ccc(O)c(O)c2)oc2cc(O)cc(O)c12
REMARK SMILES IDX 4 1 3 2 16 3 25 4 2 5 26 6 1 7 33 8 27 9 31 10 28 11 30 12
REMARK SMILES IDX 17 13 18 14 19 15 20 16 24 17 22 18 21 19 23 21 32 23 29 25
REMARK SMILES IDX 5 27 14 28 6 29 12 30 7 31 10 32 15 33 13 35 8 37 9 38 11 40
REMARK H PARENT 21 20 23 22 32 24 29 26 15 34 13 36 9 39 11 41
REMARK Flexibility Score: inf
ROOT
ATOM      1  O   UNL     1     -10.473 -10.740  -6.391  1.00  0.00    -0.454 OA
ENDROOT
BRANCH   1   2
ATOM      2  C   UNL     1     -10.360  -9.415  -5.924  1.00  0.00     0.214 A 
ATOM      3  C   UNL     1      -9.072  -8.890  -5.704  1.00  0.00     0.180 A 
ATOM      4  O   UNL     1      -8.926  -7.634  -5.301  1.00  0.00    -0.452 OA
ATOM      5  C   UNL     1     -11.474  -8.578  -5.695  1.00  0.00     0.239 A 
ATOM      6  C   UNL     1      -9.942  -6.814  -5.074  1.00  0.00     0.146 A 
ATOM      7  O   UNL     1     -12.634  -9.037  -5.849  1.00  0.00    -0.285 OA
ATOM      8  C   UNL     1     -11.279  -7.236  -5.288  1.00  0.00     0.111 A 
ATOM      9  C   UNL     1      -9.666  -5.529  -4.602  1.00  0.00     0.094 A 
ATOM     10  C   UNL     1     -12.330  -6.295  -5.060  1.00  0.00     0.134 A 
ATOM     11  C   UNL     1     -10.703  -4.647  -4.309  1.00  0.00     0.123 A 
ATOM     12  C   UNL     1     -12.027  -5.032  -4.538  1.00  0.00     0.093 A 
BRANCH   3  13
ATOM     13  C   UNL     1      -7.847  -9.702  -5.886  1.00  0.00     0.025 A 
ATOM     14  C   UNL     1      -6.998  -9.926  -4.791  1.00  0.00     0.016 A 
ATOM     15  C   UNL     1      -5.873 -10.744  -4.923  1.00  0.00     0.051 A 
ATOM     16  C   UNL     1      -5.582 -11.357  -6.151  1.00  0.00     0.157 A 
ATOM     17  C   UNL     1      -7.564 -10.335  -7.112  1.00  0.00     0.062 A 
ATOM     18  C   UNL     1      -6.432 -11.146  -7.250  1.00  0.00     0.158 A 
BRANCH  16  19
ATOM     19  O   UNL     1      -4.460 -12.173  -6.278  1.00  0.00    -0.504 OA
ATOM     20  H   UNL     1      -4.340 -13.003  -5.711  1.00  0.00     0.293 HD
ENDBRANCH  16  19
BRANCH  18  21
ATOM     21  O   UNL     1      -6.170 -11.739  -8.485  1.00  0.00    -0.504 OA
ATOM     22  H   UNL     1      -5.242 -12.039  -8.754  1.00  0.00     0.293 HD
ENDBRANCH  18  21
ENDBRANCH   3  13
BRANCH  10  23
ATOM     23  O   UNL     1     -13.676  -6.537  -5.349  1.00  0.00    -0.507 OA
ATOM     24  H   UNL     1     -14.039  -7.401  -5.723  1.00  0.00     0.293 HD
ENDBRANCH  10  23
BRANCH  11  25
ATOM     25  O   UNL     1     -10.408  -3.391  -3.790  1.00  0.00    -0.508 OA
ATOM     26  H   UNL     1      -9.648  -3.254  -3.134  1.00  0.00     0.293 HD
ENDBRANCH  11  25
ENDBRANCH   1   2
BRANCH   1  27
ATOM     27  C   UNL     1     -11.325 -11.755  -5.853  1.00  0.00     0.339 C 
ATOM     28  C   UNL     1     -10.459 -12.871  -5.193  1.00  0.00     0.214 C 
ATOM     29  O   UNL     1     -12.224 -11.141  -4.936  1.00  0.00    -0.332 OA
ATOM     30  C   UNL     1     -10.505 -12.760  -3.657  1.00  0.00     0.180 C 
ATOM     31  C   UNL     1     -12.919 -12.110  -4.173  1.00  0.00     0.179 C 
ATOM     32  C   UNL     1     -11.969 -12.797  -3.155  1.00  0.00     0.177 C 
BRANCH  28  33
ATOM     33  O   UNL     1      -9.136 -12.858  -5.675  1.00  0.00    -0.384 OA
ATOM     34  H   UNL     1      -8.946 -13.753  -6.054  1.00  0.00     0.211 HD
ENDBRANCH  28  33
BRANCH  30  35
ATOM     35  O   UNL     1      -9.750 -13.794  -3.079  1.00  0.00    -0.387 OA
ATOM     36  H   UNL     1      -9.090 -14.080  -3.761  1.00  0.00     0.211 HD
ENDBRANCH  30  35
BRANCH  31  37
ATOM     37  C   UNL     1     -14.107 -11.438  -3.475  1.00  0.00     0.191 C 
BRANCH  37  38
ATOM     38  O   UNL     1     -14.070 -10.052  -3.669  1.00  0.00    -0.394 OA
ATOM     39  H   UNL     1     -13.110  -9.799  -3.671  1.00  0.00     0.210 HD
ENDBRANCH  37  38
ENDBRANCH  31  37
BRANCH  32  40
ATOM     40  O   UNL     1     -12.392 -14.125  -2.965  1.00  0.00    -0.387 OA
ATOM     41  H   UNL     1     -13.000 -14.349  -3.716  1.00  0.00     0.211 HD
ENDBRANCH  32  40
ENDBRANCH   1  27
TORSDOF 12
ENDMDL
MODEL 8
REMARK VINA RESULT:    -1.989      1.609      5.304
REMARK INTER + INTRA:          -3.877
REMARK INTER:                  -3.342
REMARK INTRA:                  -0.535
REMARK UNBOUND:                -0.958
REMARK SMILES O=c1c(O[C@@H]2O[C@H](CO)[C@@H](O)[C@@H](O)[C@@H]2O)c(-c2ccc(O)c(O)c2)oc2cc(O)cc(O)c12
REMARK SMILES IDX 4 1 3 2 16 3 25 4 2 5 26 6 1 7 33 8 27 9 31 10 28 11 30 12
REMARK SMILES IDX 17 13 18 14 19 15 20 16 24 17 22 18 21 19 23 21 32 23 29 25
REMARK SMILES IDX 5 27 14 28 6 29 12 30 7 31 10 32 15 33 13 35 8 37 9 38 11 40
REMARK H PARENT 21 20 23 22 32 24 29 26 15 34 13 36 9 39 11 41
REMARK Flexibility Score: inf
ROOT
ATOM      1  O   UNL     1      -9.237 -10.335  -5.556  1.00  0.00    -0.454 OA
ENDROOT
BRANCH   1   2
ATOM      2  C   UNL     1     -10.056  -9.188  -5.556  1.00  0.00     0.214 A 
ATOM      3  C   UNL     1     -11.384  -9.312  -6.008  1.00  0.00     0.180 A 
ATOM      4  O   UNL     1     -12.194  -8.262  -5.987  1.00  0.00    -0.452 OA
ATOM      5  C   UNL     1      -9.619  -7.926  -5.097  1.00  0.00     0.239 A 
ATOM      6  C   UNL     1     -11.828  -7.061  -5.565  1.00  0.00     0.146 A 
ATOM      7  O   UNL     1      -8.428  -7.783  -4.724  1.00  0.00    -0.285 OA
ATOM      8  C   UNL     1     -10.519  -6.833  -5.067  1.00  0.00     0.111 A 
ATOM      9  C   UNL     1     -12.754  -6.019  -5.638  1.00  0.00     0.094 A 
ATOM     10  C   UNL     1     -10.193  -5.525  -4.592  1.00  0.00     0.134 A 
ATOM     11  C   UNL     1     -12.400  -4.731  -5.246  1.00  0.00     0.123 A 
ATOM     12  C   UNL     1     -11.125  -4.489  -4.727  1.00  0.00     0.093 A 
BRANCH   3  13
ATOM     13  C   UNL     1     -11.921 -10.587  -6.538  1.00  0.00     0.025 A 
ATOM     14  C   UNL     1     -12.667 -11.426  -5.696  1.00  0.00     0.016 A 
ATOM     15  C   UNL     1     -13.239 -12.600  -6.193  1.00  0.00     0.051 A 
ATOM     16  C   UNL     1     -13.081 -12.950  -7.542  1.00  0.00     0.157 A 
ATOM     17  C   UNL     1     -11.780 -10.931  -7.897  1.00  0.00     0.062 A 
ATOM     18  C   UNL     1     -12.343 -12.111  -8.395  1.00  0.00     0.158 A 
BRANCH  16  19
ATOM     19  O   UNL     1     -13.654 -14.121  -8.033  1.00  0.00    -0.504 OA
ATOM     20  H   UNL     1     -13.177 -15.013  -7.968  1.00  0.00     0.293 HD
ENDBRANCH  16  19
BRANCH  18  21
ATOM     21  O   UNL     1     -12.165 -12.432  -9.740  1.00  0.00    -0.504 OA
ATOM     22  H   UNL     1     -11.253 -12.431 -10.179  1.00  0.00     0.293 HD
ENDBRANCH  18  21
ENDBRANCH   3  13
BRANCH  10  23
ATOM     23  O   UNL     1      -8.989  -5.195  -3.965  1.00  0.00    -0.507 OA
ATOM     24  H   UNL     1      -8.905  -4.607  -3.150  1.00  0.00     0.293 HD
ENDBRANCH  10  23
BRANCH  11  25
ATOM     25  O   UNL     1     -13.321  -3.697  -5.377  1.00  0.00    -0.508 OA
ATOM     26  H   UNL     1     -14.213  -3.836  -5.838  1.00  0.00     0.293 HD
ENDBRANCH  11  25
ENDBRANCH   1   2
BRANCH   1  27
ATOM     27  C   UNL     1      -8.374 -10.756  -6.615  1.00  0.00     0.339 C 
ATOM     28  C   UNL     1      -6.901 -10.374  -6.274  1.00  0.00     0.214 C 
ATOM     29  O   UNL     1      -8.550 -12.156  -6.802  1.00  0.00    -0.332 OA
ATOM     30  C   UNL     1      -6.102 -11.617  -5.838  1.00  0.00     0.180 C 
ATOM     31  C   UNL     1      -7.548 -12.690  -7.649  1.00  0.00     0.179 C 
ATOM     32  C   UNL     1      -6.173 -12.715  -6.929  1.00  0.00     0.177 C 
BRANCH  28  33
ATOM     33  O   UNL     1      -6.838  -9.353  -5.307  1.00  0.00    -0.384 OA
ATOM     34  H   UNL     1      -5.984  -8.868  -5.438  1.00  0.00     0.211 HD
ENDBRANCH  28  33
BRANCH  30  35
ATOM     35  O   UNL     1      -4.770 -11.261  -5.571  1.00  0.00    -0.387 OA
ATOM     36  H   UNL     1      -4.397 -10.899  -6.415  1.00  0.00     0.211 HD
ENDBRANCH  30  35
BRANCH  31  37
ATOM     37  C   UNL     1      -7.973 -14.090  -8.107  1.00  0.00     0.191 C 
BRANCH  37  38
ATOM     38  O   UNL     1      -9.198 -14.033  -8.783  1.00  0.00    -0.394 OA
ATOM     39  H   UNL     1      -9.072 -13.389  -9.528  1.00  0.00     0.210 HD
ENDBRANCH  37  38
ENDBRANCH  31  37
BRANCH  32  40
ATOM     40  O   UNL     1      -5.157 -12.529  -7.884  1.00  0.00    -0.387 OA
ATOM     41  H   UNL     1      -4.301 -12.788  -7.455  1.00  0.00     0.211 HD
ENDBRANCH  32  40
ENDBRANCH   1  27
TORSDOF 12
ENDMDL
MODEL 9
REMARK VINA RESULT:    -1.307      2.144      7.067
REMARK INTER + INTRA:          -2.876
REMARK INTER:                  -3.292
REMARK INTRA:                   0.416
REMARK UNBOUND:                -0.958
REMARK SMILES O=c1c(O[C@@H]2O[C@H](CO)[C@@H](O)[C@@H](O)[C@@H]2O)c(-c2ccc(O)c(O)c2)oc2cc(O)cc(O)c12
REMARK SMILES IDX 4 1 3 2 16 3 25 4 2 5 26 6 1 7 33 8 27 9 31 10 28 11 30 12
REMARK SMILES IDX 17 13 18 14 19 15 20 16 24 17 22 18 21 19 23 21 32 23 29 25
REMARK SMILES IDX 5 27 14 28 6 29 12 30 7 31 10 32 15 33 13 35 8 37 9 38 11 40
REMARK H PARENT 21 20 23 22 32 24 29 26 15 34 13 36 9 39 11 41
REMARK Flexibility Score: inf
ROOT
ATOM      1  O   UNL     1      -8.820 -10.686  -4.397  1.00  0.00    -0.454 OA
ENDROOT
BRANCH   1   2
ATOM      2  C   UNL     1      -8.210 -11.361  -5.473  1.00  0.00     0.214 A 
ATOM      3  C   UNL     1      -8.944 -12.361  -6.140  1.00  0.00     0.180 A 
ATOM      4  O   UNL     1      -8.416 -12.991  -7.181  1.00  0.00    -0.452 OA
ATOM      5  C   UNL     1      -6.909 -11.063  -5.936  1.00  0.00     0.239 A 
ATOM      6  C   UNL     1      -7.201 -12.744  -7.649  1.00  0.00     0.146 A 
ATOM      7  O   UNL     1      -6.222 -10.200  -5.334  1.00  0.00    -0.285 OA
ATOM      8  C   UNL     1      -6.387 -11.740  -7.065  1.00  0.00     0.111 A 
ATOM      9  C   UNL     1      -6.733 -13.508  -8.720  1.00  0.00     0.094 A 
ATOM     10  C   UNL     1      -5.101 -11.494  -7.637  1.00  0.00     0.134 A 
ATOM     11  C   UNL     1      -5.447 -13.313  -9.217  1.00  0.00     0.123 A 
ATOM     12  C   UNL     1      -4.638 -12.311  -8.676  1.00  0.00     0.093 A 
BRANCH   3  13
ATOM     13  C   UNL     1     -10.301 -12.765  -5.706  1.00  0.00     0.025 A 
ATOM     14  C   UNL     1     -11.275 -13.065  -6.671  1.00  0.00     0.016 A 
ATOM     15  C   UNL     1     -12.541 -13.511  -6.284  1.00  0.00     0.051 A 
ATOM     16  C   UNL     1     -12.852 -13.673  -4.926  1.00  0.00     0.157 A 
ATOM     17  C   UNL     1     -10.609 -12.947  -4.343  1.00  0.00     0.062 A 
ATOM     18  C   UNL     1     -11.880 -13.385  -3.953  1.00  0.00     0.158 A 
BRANCH  16  19
ATOM     19  O   UNL     1     -14.115 -14.120  -4.545  1.00  0.00    -0.504 OA
ATOM     20  H   UNL     1     -14.300 -15.100  -4.366  1.00  0.00     0.293 HD
ENDBRANCH  16  19
BRANCH  18  21
ATOM     21  O   UNL     1     -12.158 -13.532  -2.594  1.00  0.00    -0.504 OA
ATOM     22  H   UNL     1     -13.101 -13.648  -2.245  1.00  0.00     0.293 HD
ENDBRANCH  18  21
ENDBRANCH   3  13
BRANCH  10  23
ATOM     23  O   UNL     1      -4.251 -10.457  -7.242  1.00  0.00    -0.507 OA
ATOM     24  H   UNL     1      -3.279 -10.569  -6.996  1.00  0.00     0.293 HD
ENDBRANCH  10  23
BRANCH  11  25
ATOM     25  O   UNL     1      -4.982 -14.122 -10.249  1.00  0.00    -0.508 OA
ATOM     26  H   UNL     1      -5.278 -15.086 -10.342  1.00  0.00     0.293 HD
ENDBRANCH  11  25
ENDBRANCH   1   2
BRANCH   1  27
ATOM     27  C   UNL     1      -9.851  -9.700  -4.494  1.00  0.00     0.339 C 
ATOM     28  C   UNL     1      -9.216  -8.302  -4.770  1.00  0.00     0.214 C 
ATOM     29  O   UNL     1     -10.758 -10.104  -5.515  1.00  0.00    -0.332 OA
ATOM     30  C   UNL     1      -9.416  -7.894  -6.242  1.00  0.00     0.180 C 
ATOM     31  C   UNL     1     -11.654  -9.059  -5.847  1.00  0.00     0.179 C 
ATOM     32  C   UNL     1     -10.920  -7.925  -6.613  1.00  0.00     0.177 C 
BRANCH  28  33
ATOM     33  O   UNL     1      -7.858  -8.265  -4.402  1.00  0.00    -0.384 OA
ATOM     34  H   UNL     1      -7.760  -7.587  -3.687  1.00  0.00     0.211 HD
ENDBRANCH  28  33
BRANCH  30  35
ATOM     35  O   UNL     1      -8.872  -6.618  -6.464  1.00  0.00    -0.387 OA
ATOM     36  H   UNL     1      -9.406  -6.202  -7.188  1.00  0.00     0.211 HD
ENDBRANCH  30  35
BRANCH  31  37
ATOM     37  C   UNL     1     -12.814  -9.637  -6.666  1.00  0.00     0.191 C 
BRANCH  37  38
ATOM     38  O   UNL     1     -13.632 -10.439  -5.860  1.00  0.00    -0.394 OA
ATOM     39  H   UNL     1     -14.376  -9.856  -5.556  1.00  0.00     0.210 HD
ENDBRANCH  37  38
ENDBRANCH  31  37
BRANCH  32  40
ATOM     40  O   UNL     1     -11.531  -6.698  -6.300  1.00  0.00    -0.387 OA
ATOM     41  H   UNL     1     -11.533  -6.615  -5.312  1.00  0.00     0.211 HD
ENDBRANCH  32  40
ENDBRANCH   1  27
TORSDOF 12
ENDMDL
