MODEL 1
REMARK VINA RESULT:     1.491      0.000      0.000
REMARK INTER + INTRA:           1.871
REMARK INTER:                   1.796
REMARK INTRA:                   0.076
REMARK UNBOUND:                 0.076
REMARK SMILES O=c1c(O)c(-c2ccc(O)cc2O)oc2cc(O)cc(O)c12
REMARK SMILES IDX 5 1 3 2 2 3 1 4 22 5 20 6 19 7 17 8 16 9 15 10 14 11 6 12
REMARK SMILES IDX 8 13 7 14 9 15 11 16 12 17 10 18 13 20 4 22 21 24 18 26
REMARK H PARENT 10 19 13 21 4 23 21 25 18 27
REMARK Flexibility Score: inf
ROOT
ATOM      1  C   UNL     1       8.519  17.037  38.155  1.00  0.00     0.184 A 
ATOM      2  C   UNL     1       8.779  15.904  38.946  1.00  0.00     0.208 A 
ATOM      3  C   UNL     1       8.470  15.947  40.314  1.00  0.00     0.238 A 
ATOM      4  O   UNL     1       8.687  14.933  41.032  1.00  0.00    -0.285 OA
ATOM      5  C   UNL     1       7.928  17.125  40.869  1.00  0.00     0.111 A 
ATOM      6  C   UNL     1       7.591  17.254  42.237  1.00  0.00     0.134 A 
ATOM      7  C   UNL     1       7.064  18.463  42.715  1.00  0.00     0.093 A 
ATOM      8  C   UNL     1       6.868  19.544  41.852  1.00  0.00     0.123 A 
ATOM      9  C   UNL     1       7.197  19.424  40.498  1.00  0.00     0.094 A 
ATOM     10  C   UNL     1       7.722  18.227  40.003  1.00  0.00     0.146 A 
ATOM     11  O   UNL     1       8.023  18.137  38.712  1.00  0.00    -0.451 OA
ENDROOT
BRANCH   1  12
ATOM     12  C   UNL     1       8.811  17.055  36.706  1.00  0.00     0.063 A 
ATOM     13  C   UNL     1       9.806  18.191  34.802  1.00  0.00     0.047 A 
ATOM     14  C   UNL     1       9.519  18.140  36.168  1.00  0.00     0.020 A 
ATOM     15  C   UNL     1       9.379  17.167  33.954  1.00  0.00     0.119 A 
ATOM     16  C   UNL     1       8.651  16.090  34.478  1.00  0.00     0.093 A 
ATOM     17  C   UNL     1       8.353  16.034  35.848  1.00  0.00     0.130 A 
BRANCH  15  18
ATOM     18  O   UNL     1       9.676  17.229  32.595  1.00  0.00    -0.508 OA
ATOM     19  H   UNL     1       9.238  17.913  31.988  1.00  0.00     0.293 HD
ENDBRANCH  15  18
BRANCH  17  20
ATOM     20  O   UNL     1       7.585  14.982  36.349  1.00  0.00    -0.507 OA
ATOM     21  H   UNL     1       7.946  14.037  36.397  1.00  0.00     0.293 HD
ENDBRANCH  17  20
ENDBRANCH   1  12
BRANCH   2  22
ATOM     22  O   UNL     1       9.359  14.767  38.376  1.00  0.00    -0.502 OA
ATOM     23  H   UNL     1       9.727  14.008  38.936  1.00  0.00     0.293 HD
ENDBRANCH   2  22
BRANCH   6  24
ATOM     24  O   UNL     1       7.776  16.193  43.125  1.00  0.00    -0.507 OA
ATOM     25  H   UNL     1       8.515  16.199  43.818  1.00  0.00     0.293 HD
ENDBRANCH   6  24
BRANCH   8  26
ATOM     26  O   UNL     1       6.343  20.734  42.352  1.00  0.00    -0.508 OA
ATOM     27  H   UNL     1       5.755  21.333  41.784  1.00  0.00     0.293 HD
ENDBRANCH   8  26
TORSDOF 6
ENDMDL
MODEL 2
REMARK VINA RESULT:     1.911      0.874      1.472
REMARK INTER + INTRA:           2.377
REMARK INTER:                   2.780
REMARK INTRA:                  -0.403
REMARK UNBOUND:                 0.076
REMARK SMILES O=c1c(O)c(-c2ccc(O)cc2O)oc2cc(O)cc(O)c12
REMARK SMILES IDX 5 1 3 2 2 3 1 4 22 5 20 6 19 7 17 8 16 9 15 10 14 11 6 12
REMARK SMILES IDX 8 13 7 14 9 15 11 16 12 17 10 18 13 20 4 22 21 24 18 26
REMARK H PARENT 10 19 13 21 4 23 21 25 18 27
REMARK Flexibility Score: inf
ROOT
ATOM      1  C   UNL     1       8.323  16.938  38.031  1.00  0.00     0.184 A 
ATOM      2  C   UNL     1       8.636  15.861  38.879  1.00  0.00     0.208 A 
ATOM      3  C   UNL     1       8.485  16.023  40.264  1.00  0.00     0.238 A 
ATOM      4  O   UNL     1       8.751  15.061  41.035  1.00  0.00    -0.285 OA
ATOM      5  C   UNL     1       8.044  17.261  40.776  1.00  0.00     0.111 A 
ATOM      6  C   UNL     1       7.868  17.509  42.158  1.00  0.00     0.134 A 
ATOM      7  C   UNL     1       7.434  18.772  42.590  1.00  0.00     0.093 A 
ATOM      8  C   UNL     1       7.174  19.789  41.668  1.00  0.00     0.123 A 
ATOM      9  C   UNL     1       7.345  19.550  40.301  1.00  0.00     0.094 A 
ATOM     10  C   UNL     1       7.775  18.298  39.851  1.00  0.00     0.146 A 
ATOM     11  O   UNL     1       7.925  18.096  38.546  1.00  0.00    -0.451 OA
ENDROOT
BRANCH   1  12
ATOM     12  C   UNL     1       8.450  16.830  36.562  1.00  0.00     0.063 A 
ATOM     13  C   UNL     1       7.667  15.858  34.476  1.00  0.00     0.047 A 
ATOM     14  C   UNL     1       7.571  15.987  35.864  1.00  0.00     0.020 A 
ATOM     15  C   UNL     1       8.650  16.557  33.770  1.00  0.00     0.119 A 
ATOM     16  C   UNL     1       9.546  17.382  34.462  1.00  0.00     0.093 A 
ATOM     17  C   UNL     1       9.461  17.514  35.855  1.00  0.00     0.130 A 
BRANCH  15  18
ATOM     18  O   UNL     1       8.731  16.421  32.387  1.00  0.00    -0.508 OA
ATOM     19  H   UNL     1       8.336  15.619  31.910  1.00  0.00     0.293 HD
ENDBRANCH  15  18
BRANCH  17  20
ATOM     20  O   UNL     1      10.390  18.300  36.537  1.00  0.00    -0.507 OA
ATOM     21  H   UNL     1      10.795  18.002  37.416  1.00  0.00     0.293 HD
ENDBRANCH  17  20
ENDBRANCH   1  12
BRANCH   2  22
ATOM     22  O   UNL     1       9.114  14.661  38.344  1.00  0.00    -0.502 OA
ATOM     23  H   UNL     1      10.102  14.445  38.297  1.00  0.00     0.293 HD
ENDBRANCH   2  22
BRANCH   6  24
ATOM     24  O   UNL     1       8.120  16.515  43.105  1.00  0.00    -0.507 OA
ATOM     25  H   UNL     1       9.062  16.281  43.395  1.00  0.00     0.293 HD
ENDBRANCH   6  24
BRANCH   8  26
ATOM     26  O   UNL     1       6.745  21.033  42.123  1.00  0.00    -0.508 OA
ATOM     27  H   UNL     1       7.391  21.805  42.242  1.00  0.00     0.293 HD
ENDBRANCH   8  26
TORSDOF 6
ENDMDL
MODEL 3
REMARK VINA RESULT:     3.936      1.242      2.931
REMARK INTER + INTRA:           4.817
REMARK INTER:                   4.720
REMARK INTRA:                   0.097
REMARK UNBOUND:                 0.076
REMARK SMILES O=c1c(O)c(-c2ccc(O)cc2O)oc2cc(O)cc(O)c12
REMARK SMILES IDX 5 1 3 2 2 3 1 4 22 5 20 6 19 7 17 8 16 9 15 10 14 11 6 12
REMARK SMILES IDX 8 13 7 14 9 15 11 16 12 17 10 18 13 20 4 22 21 24 18 26
REMARK H PARENT 10 19 13 21 4 23 21 25 18 27
REMARK Flexibility Score: inf
ROOT
ATOM      1  C   UNL     1       8.400  17.123  38.320  1.00  0.00     0.184 A 
ATOM      2  C   UNL     1       7.927  18.304  38.917  1.00  0.00     0.208 A 
ATOM      3  C   UNL     1       7.619  18.295  40.286  1.00  0.00     0.238 A 
ATOM      4  O   UNL     1       7.204  19.351  40.837  1.00  0.00    -0.285 OA
ATOM      5  C   UNL     1       7.769  17.103  41.026  1.00  0.00     0.111 A 
ATOM      6  C   UNL     1       7.478  17.007  42.407  1.00  0.00     0.134 A 
ATOM      7  C   UNL     1       7.645  15.782  43.071  1.00  0.00     0.093 A 
ATOM      8  C   UNL     1       8.096  14.654  42.381  1.00  0.00     0.123 A 
ATOM      9  C   UNL     1       8.386  14.743  41.016  1.00  0.00     0.094 A 
ATOM     10  C   UNL     1       8.228  15.955  40.337  1.00  0.00     0.146 A 
ATOM     11  O   UNL     1       8.515  16.013  39.041  1.00  0.00    -0.451 OA
ENDROOT
BRANCH   1  12
ATOM     12  C   UNL     1       8.753  17.067  36.885  1.00  0.00     0.063 A 
ATOM     13  C   UNL     1       9.612  18.200  34.913  1.00  0.00     0.047 A 
ATOM     14  C   UNL     1       9.273  18.215  36.268  1.00  0.00     0.020 A 
ATOM     15  C   UNL     1       9.423  17.042  34.154  1.00  0.00     0.119 A 
ATOM     16  C   UNL     1       8.882  15.898  34.756  1.00  0.00     0.093 A 
ATOM     17  C   UNL     1       8.534  15.907  36.114  1.00  0.00     0.130 A 
BRANCH  15  18
ATOM     18  O   UNL     1       9.769  17.040  32.806  1.00  0.00    -0.508 OA
ATOM     19  H   UNL     1      10.020  17.894  32.322  1.00  0.00     0.293 HD
ENDBRANCH  15  18
BRANCH  17  20
ATOM     20  O   UNL     1       7.951  14.778  36.690  1.00  0.00    -0.507 OA
ATOM     21  H   UNL     1       8.245  14.430  37.595  1.00  0.00     0.293 HD
ENDBRANCH  17  20
ENDBRANCH   1  12
BRANCH   2  22
ATOM     22  O   UNL     1       7.745  19.457  38.148  1.00  0.00    -0.502 OA
ATOM     23  H   UNL     1       8.364  20.256  38.213  1.00  0.00     0.293 HD
ENDBRANCH   2  22
BRANCH   6  24
ATOM     24  O   UNL     1       7.025  18.115  43.125  1.00  0.00    -0.507 OA
ATOM     25  H   UNL     1       6.894  19.018  42.686  1.00  0.00     0.293 HD
ENDBRANCH   6  24
BRANCH   8  26
ATOM     26  O   UNL     1       8.253  13.450  43.063  1.00  0.00    -0.508 OA
ATOM     27  H   UNL     1       7.511  12.760  43.097  1.00  0.00     0.293 HD
ENDBRANCH   8  26
TORSDOF 6
ENDMDL
