MODEL 1
REMARK VINA RESULT:    18.058      0.000      0.000
REMARK INTER + INTRA:          44.064
REMARK INTER:                  45.505
REMARK INTRA:                  -1.441
REMARK UNBOUND:                -1.441
REMARK SMILES CCCCCCCCCCCCCCCCCCCCCCCCCCCC(=O)[O-]
REMARK SMILES IDX 15 1 16 2 17 3 18 4 19 5 20 6 21 7 22 8 23 9 24 10 25 11
REMARK SMILES IDX 26 12 27 13 28 14 29 15 30 16 14 17 13 18 12 19 11 20 10 21
REMARK SMILES IDX 9 22 8 23 7 24 6 25 5 26 4 27 3 28 2 29 1 30
REMARK H PARENT
REMARK Flexibility Score: inf
ROOT
ATOM      1  C   UNL     1      -4.360  -7.698  12.665  1.00  0.00     0.000 C 
ENDROOT
BRANCH   1   2
ATOM      2  C   UNL     1      -3.425  -8.662  13.421  1.00  0.00     0.000 C 
BRANCH   2   3
ATOM      3  C   UNL     1      -3.253  -8.364  14.921  1.00  0.00     0.000 C 
BRANCH   3   4
ATOM      4  C   UNL     1      -1.957  -7.601  15.239  1.00  0.00     0.000 C 
BRANCH   4   5
ATOM      5  C   UNL     1      -2.227  -6.296  16.006  1.00  0.00     0.000 C 
BRANCH   5   6
ATOM      6  C   UNL     1      -1.985  -6.442  17.520  1.00  0.00     0.000 C 
BRANCH   6   7
ATOM      7  C   UNL     1      -3.283  -6.759  18.284  1.00  0.00     0.000 C 
BRANCH   7   8
ATOM      8  C   UNL     1      -3.057  -7.704  19.478  1.00  0.00     0.000 C 
BRANCH   8   9
ATOM      9  C   UNL     1      -1.580  -8.131  19.605  1.00  0.00     0.000 C 
BRANCH   9  10
ATOM     10  C   UNL     1      -1.117  -8.252  21.068  1.00  0.00     0.000 C 
BRANCH  10  11
ATOM     11  C   UNL     1      -1.036  -6.899  21.812  1.00  0.00     0.000 C 
BRANCH  11  12
ATOM     12  C   UNL     1      -2.228  -6.640  22.750  1.00  0.00     0.006 C 
BRANCH  12  13
ATOM     13  C   UNL     1      -1.884  -5.688  23.901  1.00  0.00     0.053 C 
BRANCH  13  14
ATOM     14  C   UNL     1      -3.127  -5.260  24.613  1.00  0.00     0.041 C 
ATOM     15  O   UNL     1      -3.102  -4.272  25.391  1.00  0.00    -0.550 OA
ATOM     16  O   UNL     1      -4.328  -5.913  24.365  1.00  0.00    -0.550 OA
ENDBRANCH  13  14
ENDBRANCH  12  13
ENDBRANCH  11  12
ENDBRANCH  10  11
ENDBRANCH   9  10
ENDBRANCH   8   9
ENDBRANCH   7   8
ENDBRANCH   6   7
ENDBRANCH   5   6
ENDBRANCH   4   5
ENDBRANCH   3   4
ENDBRANCH   2   3
ENDBRANCH   1   2
BRANCH   1  17
ATOM     17  C   UNL     1      -4.501  -8.053  11.175  1.00  0.00     0.000 C 
BRANCH  17  18
ATOM     18  C   UNL     1      -3.468  -9.101  10.723  1.00  0.00     0.000 C 
BRANCH  18  19
ATOM     19  C   UNL     1      -4.033 -10.062   9.667  1.00  0.00     0.000 C 
BRANCH  19  20
ATOM     20  C   UNL     1      -2.906 -10.737   8.874  1.00  0.00     0.000 C 
BRANCH  20  21
ATOM     21  C   UNL     1      -3.435 -11.302   7.549  1.00  0.00     0.000 C 
BRANCH  21  22
ATOM     22  C   UNL     1      -4.527 -12.354   7.782  1.00  0.00    -0.000 C 
BRANCH  22  23
ATOM     23  C   UNL     1      -5.590 -12.283   6.676  1.00  0.00    -0.000 C 
BRANCH  23  24
ATOM     24  C   UNL     1      -5.986 -13.668   6.136  1.00  0.00    -0.000 C 
BRANCH  24  25
ATOM     25  C   UNL     1      -5.456 -14.813   7.018  1.00  0.00    -0.000 C 
BRANCH  25  26
ATOM     26  C   UNL     1      -4.085 -15.344   6.553  1.00  0.00    -0.000 C 
BRANCH  26  27
ATOM     27  C   UNL     1      -2.932 -15.151   7.555  1.00  0.00    -0.000 C 
BRANCH  27  28
ATOM     28  C   UNL     1      -1.654 -14.597   6.906  1.00  0.00    -0.000 C 
BRANCH  28  29
ATOM     29  C   UNL     1      -0.933 -13.628   7.854  1.00  0.00    -0.003 C 
ATOM     30  C   UNL     1       0.444 -14.164   8.244  1.00  0.00     0.004 C 
ENDBRANCH  28  29
ENDBRANCH  27  28
ENDBRANCH  26  27
ENDBRANCH  25  26
ENDBRANCH  24  25
ENDBRANCH  23  24
ENDBRANCH  22  23
ENDBRANCH  21  22
ENDBRANCH  20  21
ENDBRANCH  19  20
ENDBRANCH  18  19
ENDBRANCH  17  18
ENDBRANCH   1  17
TORSDOF 26
ENDMDL
MODEL 2
REMARK VINA RESULT:    18.931      2.045      3.527
REMARK INTER + INTRA:          46.265
REMARK INTER:                  47.874
REMARK INTRA:                  -1.610
REMARK UNBOUND:                -1.441
REMARK SMILES CCCCCCCCCCCCCCCCCCCCCCCCCCCC(=O)[O-]
REMARK SMILES IDX 15 1 16 2 17 3 18 4 19 5 20 6 21 7 22 8 23 9 24 10 25 11
REMARK SMILES IDX 26 12 27 13 28 14 29 15 30 16 14 17 13 18 12 19 11 20 10 21
REMARK SMILES IDX 9 22 8 23 7 24 6 25 5 26 4 27 3 28 2 29 1 30
REMARK H PARENT
REMARK Flexibility Score: inf
ROOT
ATOM      1  C   UNL     1       1.364  -9.203  12.757  1.00  0.00     0.000 C 
ENDROOT
BRANCH   1   2
ATOM      2  C   UNL     1      -0.157  -9.309  12.983  1.00  0.00     0.000 C 
BRANCH   2   3
ATOM      3  C   UNL     1      -0.696  -8.508  14.182  1.00  0.00     0.000 C 
BRANCH   3   4
ATOM      4  C   UNL     1       0.143  -7.258  14.497  1.00  0.00     0.000 C 
BRANCH   4   5
ATOM      5  C   UNL     1      -0.506  -6.386  15.585  1.00  0.00     0.000 C 
BRANCH   5   6
ATOM      6  C   UNL     1      -1.933  -6.847  15.934  1.00  0.00     0.000 C 
BRANCH   6   7
ATOM      7  C   UNL     1      -2.282  -6.575  17.409  1.00  0.00     0.000 C 
BRANCH   7   8
ATOM      8  C   UNL     1      -2.387  -7.863  18.246  1.00  0.00     0.000 C 
BRANCH   8   9
ATOM      9  C   UNL     1      -2.280  -7.580  19.758  1.00  0.00     0.000 C 
BRANCH   9  10
ATOM     10  C   UNL     1      -1.016  -8.191  20.392  1.00  0.00     0.000 C 
BRANCH  10  11
ATOM     11  C   UNL     1      -0.881  -7.916  21.907  1.00  0.00     0.000 C 
BRANCH  11  12
ATOM     12  C   UNL     1      -1.995  -7.019  22.472  1.00  0.00     0.006 C 
BRANCH  12  13
ATOM     13  C   UNL     1      -1.556  -6.233  23.713  1.00  0.00     0.053 C 
BRANCH  13  14
ATOM     14  C   UNL     1      -2.664  -5.350  24.190  1.00  0.00     0.041 C 
ATOM     15  O   UNL     1      -3.855  -5.755  24.153  1.00  0.00    -0.550 OA
ATOM     16  O   UNL     1      -2.374  -4.107  24.736  1.00  0.00    -0.550 OA
ENDBRANCH  13  14
ENDBRANCH  12  13
ENDBRANCH  11  12
ENDBRANCH  10  11
ENDBRANCH   9  10
ENDBRANCH   8   9
ENDBRANCH   7   8
ENDBRANCH   6   7
ENDBRANCH   5   6
ENDBRANCH   4   5
ENDBRANCH   3   4
ENDBRANCH   2   3
ENDBRANCH   1   2
BRANCH   1  17
ATOM     17  C   UNL     1       1.876 -10.183  11.687  1.00  0.00     0.000 C 
BRANCH  17  18
ATOM     18  C   UNL     1       0.845 -11.278  11.356  1.00  0.00     0.000 C 
BRANCH  18  19
ATOM     19  C   UNL     1       1.424 -12.372  10.447  1.00  0.00     0.000 C 
BRANCH  19  20
ATOM     20  C   UNL     1       0.648 -12.461   9.125  1.00  0.00     0.000 C 
BRANCH  20  21
ATOM     21  C   UNL     1       0.329 -13.921   8.779  1.00  0.00     0.000 C 
BRANCH  21  22
ATOM     22  C   UNL     1      -0.742 -14.018   7.686  1.00  0.00    -0.000 C 
BRANCH  22  23
ATOM     23  C   UNL     1      -2.147 -13.903   8.295  1.00  0.00    -0.000 C 
BRANCH  23  24
ATOM     24  C   UNL     1      -2.960 -12.735   7.710  1.00  0.00    -0.000 C 
BRANCH  24  25
ATOM     25  C   UNL     1      -3.868 -13.177   6.549  1.00  0.00    -0.000 C 
BRANCH  25  26
ATOM     26  C   UNL     1      -5.365 -13.157   6.916  1.00  0.00    -0.000 C 
BRANCH  26  27
ATOM     27  C   UNL     1      -6.206 -14.295   6.307  1.00  0.00    -0.000 C 
BRANCH  27  28
ATOM     28  C   UNL     1      -6.011 -15.640   7.024  1.00  0.00    -0.000 C 
BRANCH  28  29
ATOM     29  C   UNL     1      -4.997 -16.518   6.278  1.00  0.00    -0.003 C 
ATOM     30  C   UNL     1      -3.894 -17.003   7.217  1.00  0.00     0.004 C 
ENDBRANCH  28  29
ENDBRANCH  27  28
ENDBRANCH  26  27
ENDBRANCH  25  26
ENDBRANCH  24  25
ENDBRANCH  23  24
ENDBRANCH  22  23
ENDBRANCH  21  22
ENDBRANCH  20  21
ENDBRANCH  19  20
ENDBRANCH  18  19
ENDBRANCH  17  18
ENDBRANCH   1  17
TORSDOF 26
ENDMDL
MODEL 3
REMARK VINA RESULT:    19.245      4.895     14.489
REMARK INTER + INTRA:          47.055
REMARK INTER:                  47.306
REMARK INTRA:                  -0.251
REMARK UNBOUND:                -1.441
REMARK SMILES CCCCCCCCCCCCCCCCCCCCCCCCCCCC(=O)[O-]
REMARK SMILES IDX 15 1 16 2 17 3 18 4 19 5 20 6 21 7 22 8 23 9 24 10 25 11
REMARK SMILES IDX 26 12 27 13 28 14 29 15 30 16 14 17 13 18 12 19 11 20 10 21
REMARK SMILES IDX 9 22 8 23 7 24 6 25 5 26 4 27 3 28 2 29 1 30
REMARK H PARENT
REMARK Flexibility Score: inf
ROOT
ATOM      1  C   UNL     1      -2.863  -9.127  11.846  1.00  0.00     0.000 C 
ENDROOT
BRANCH   1   2
ATOM      2  C   UNL     1      -3.780  -9.356  10.629  1.00  0.00     0.000 C 
BRANCH   2   3
ATOM      3  C   UNL     1      -3.059  -9.799   9.343  1.00  0.00     0.000 C 
BRANCH   3   4
ATOM      4  C   UNL     1      -3.428 -11.226   8.906  1.00  0.00     0.000 C 
BRANCH   4   5
ATOM      5  C   UNL     1      -4.302 -11.236   7.641  1.00  0.00     0.000 C 
BRANCH   5   6
ATOM      6  C   UNL     1      -4.496 -12.654   7.072  1.00  0.00     0.000 C 
BRANCH   6   7
ATOM      7  C   UNL     1      -5.803 -12.778   6.266  1.00  0.00     0.000 C 
BRANCH   7   8
ATOM      8  C   UNL     1      -6.733 -13.881   6.804  1.00  0.00     0.000 C 
BRANCH   8   9
ATOM      9  C   UNL     1      -5.943 -15.111   7.298  1.00  0.00     0.000 C 
BRANCH   9  10
ATOM     10  C   UNL     1      -4.883 -15.586   6.287  1.00  0.00     0.000 C 
BRANCH  10  11
ATOM     11  C   UNL     1      -3.618 -16.184   6.943  1.00  0.00     0.000 C 
BRANCH  11  12
ATOM     12  C   UNL     1      -2.308 -15.759   6.256  1.00  0.00     0.006 C 
BRANCH  12  13
ATOM     13  C   UNL     1      -1.958 -14.286   6.501  1.00  0.00     0.053 C 
BRANCH  13  14
ATOM     14  C   UNL     1      -1.390 -14.107   7.873  1.00  0.00     0.041 C 
ATOM     15  O   UNL     1      -2.114 -14.291   8.885  1.00  0.00    -0.550 OA
ATOM     16  O   UNL     1      -0.045 -13.801   8.032  1.00  0.00    -0.550 OA
ENDBRANCH  13  14
ENDBRANCH  12  13
ENDBRANCH  11  12
ENDBRANCH  10  11
ENDBRANCH   9  10
ENDBRANCH   8   9
ENDBRANCH   7   8
ENDBRANCH   6   7
ENDBRANCH   5   6
ENDBRANCH   4   5
ENDBRANCH   3   4
ENDBRANCH   2   3
ENDBRANCH   1   2
BRANCH   1  17
ATOM     17  C   UNL     1      -3.609  -8.515  13.045  1.00  0.00     0.000 C 
BRANCH  17  18
ATOM     18  C   UNL     1      -2.770  -8.552  14.335  1.00  0.00     0.000 C 
BRANCH  18  19
ATOM     19  C   UNL     1      -3.639  -8.486  15.600  1.00  0.00     0.000 C 
BRANCH  19  20
ATOM     20  C   UNL     1      -2.801  -8.102  16.827  1.00  0.00     0.000 C 
BRANCH  20  21
ATOM     21  C   UNL     1      -3.445  -6.933  17.583  1.00  0.00     0.000 C 
BRANCH  21  22
ATOM     22  C   UNL     1      -2.892  -6.811  19.008  1.00  0.00    -0.000 C 
BRANCH  22  23
ATOM     23  C   UNL     1      -2.440  -8.183  19.530  1.00  0.00    -0.000 C 
BRANCH  23  24
ATOM     24  C   UNL     1      -1.000  -8.175  20.069  1.00  0.00    -0.000 C 
BRANCH  24  25
ATOM     25  C   UNL     1      -0.949  -7.995  21.597  1.00  0.00    -0.000 C 
BRANCH  25  26
ATOM     26  C   UNL     1      -1.852  -6.850  22.098  1.00  0.00    -0.000 C 
BRANCH  26  27
ATOM     27  C   UNL     1      -1.829  -6.613  23.620  1.00  0.00    -0.000 C 
BRANCH  27  28
ATOM     28  C   UNL     1      -1.340  -5.209  24.005  1.00  0.00    -0.000 C 
BRANCH  28  29
ATOM     29  C   UNL     1      -2.523  -4.268  24.270  1.00  0.00    -0.003 C 
ATOM     30  C   UNL     1      -3.484  -4.868  25.295  1.00  0.00     0.004 C 
ENDBRANCH  28  29
ENDBRANCH  27  28
ENDBRANCH  26  27
ENDBRANCH  25  26
ENDBRANCH  24  25
ENDBRANCH  23  24
ENDBRANCH  22  23
ENDBRANCH  21  22
ENDBRANCH  20  21
ENDBRANCH  19  20
ENDBRANCH  18  19
ENDBRANCH  17  18
ENDBRANCH   1  17
TORSDOF 26
ENDMDL
MODEL 4
REMARK VINA RESULT:    19.734      1.935      4.351
REMARK INTER + INTRA:          48.289
REMARK INTER:                  49.494
REMARK INTRA:                  -1.206
REMARK UNBOUND:                -1.441
REMARK SMILES CCCCCCCCCCCCCCCCCCCCCCCCCCCC(=O)[O-]
REMARK SMILES IDX 15 1 16 2 17 3 18 4 19 5 20 6 21 7 22 8 23 9 24 10 25 11
REMARK SMILES IDX 26 12 27 13 28 14 29 15 30 16 14 17 13 18 12 19 11 20 10 21
REMARK SMILES IDX 9 22 8 23 7 24 6 25 5 26 4 27 3 28 2 29 1 30
REMARK H PARENT
REMARK Flexibility Score: inf
ROOT
ATOM      1  C   UNL     1      -3.539 -11.306   8.881  1.00  0.00     0.000 C 
ENDROOT
BRANCH   1   2
ATOM      2  C   UNL     1      -3.297  -9.829   9.248  1.00  0.00     0.000 C 
BRANCH   2   3
ATOM      3  C   UNL     1      -3.532  -9.477  10.728  1.00  0.00     0.000 C 
BRANCH   3   4
ATOM      4  C   UNL     1      -4.073  -8.051  10.930  1.00  0.00     0.000 C 
BRANCH   4   5
ATOM      5  C   UNL     1      -4.868  -7.914  12.239  1.00  0.00     0.000 C 
BRANCH   5   6
ATOM      6  C   UNL     1      -4.034  -7.283  13.369  1.00  0.00     0.000 C 
BRANCH   6   7
ATOM      7  C   UNL     1      -3.331  -8.348  14.231  1.00  0.00     0.000 C 
BRANCH   7   8
ATOM      8  C   UNL     1      -1.974  -7.870  14.780  1.00  0.00     0.000 C 
BRANCH   8   9
ATOM      9  C   UNL     1      -2.110  -6.575  15.607  1.00  0.00     0.000 C 
BRANCH   9  10
ATOM     10  C   UNL     1      -1.915  -6.808  17.117  1.00  0.00     0.000 C 
BRANCH  10  11
ATOM     11  C   UNL     1      -3.237  -6.918  17.909  1.00  0.00     0.000 C 
BRANCH  11  12
ATOM     12  C   UNL     1      -3.035  -7.153  19.416  1.00  0.00     0.006 C 
BRANCH  12  13
ATOM     13  C   UNL     1      -2.272  -8.448  19.720  1.00  0.00     0.053 C 
BRANCH  13  14
ATOM     14  C   UNL     1      -1.170  -8.186  20.695  1.00  0.00     0.041 C 
ATOM     15  O   UNL     1      -0.058  -8.760  20.561  1.00  0.00    -0.550 OA
ATOM     16  O   UNL     1      -1.349  -7.259  21.713  1.00  0.00    -0.550 OA
ENDBRANCH  13  14
ENDBRANCH  12  13
ENDBRANCH  11  12
ENDBRANCH  10  11
ENDBRANCH   9  10
ENDBRANCH   8   9
ENDBRANCH   7   8
ENDBRANCH   6   7
ENDBRANCH   5   6
ENDBRANCH   4   5
ENDBRANCH   3   4
ENDBRANCH   2   3
ENDBRANCH   1   2
BRANCH   1  17
ATOM     17  C   UNL     1      -3.879 -11.501   7.393  1.00  0.00     0.000 C 
BRANCH  17  18
ATOM     18  C   UNL     1      -4.665 -12.800   7.139  1.00  0.00     0.000 C 
BRANCH  18  19
ATOM     19  C   UNL     1      -5.725 -12.637   6.040  1.00  0.00     0.000 C 
BRANCH  19  20
ATOM     20  C   UNL     1      -6.685 -13.833   6.014  1.00  0.00     0.000 C 
BRANCH  20  21
ATOM     21  C   UNL     1      -6.859 -14.421   7.421  1.00  0.00     0.000 C 
BRANCH  21  22
ATOM     22  C   UNL     1      -6.761 -15.952   7.406  1.00  0.00    -0.000 C 
BRANCH  22  23
ATOM     23  C   UNL     1      -5.695 -16.414   6.401  1.00  0.00    -0.000 C 
BRANCH  23  24
ATOM     24  C   UNL     1      -4.362 -16.789   7.070  1.00  0.00    -0.000 C 
BRANCH  24  25
ATOM     25  C   UNL     1      -3.173 -16.007   6.482  1.00  0.00    -0.000 C 
BRANCH  25  26
ATOM     26  C   UNL     1      -2.690 -14.868   7.401  1.00  0.00    -0.000 C 
BRANCH  26  27
ATOM     27  C   UNL     1      -1.682 -13.892   6.764  1.00  0.00    -0.000 C 
BRANCH  27  28
ATOM     28  C   UNL     1      -0.226 -14.187   7.155  1.00  0.00    -0.000 C 
BRANCH  28  29
ATOM     29  C   UNL     1      -0.044 -14.129   8.678  1.00  0.00    -0.003 C 
ATOM     30  C   UNL     1       1.431 -14.231   9.059  1.00  0.00     0.004 C 
ENDBRANCH  28  29
ENDBRANCH  27  28
ENDBRANCH  26  27
ENDBRANCH  25  26
ENDBRANCH  24  25
ENDBRANCH  23  24
ENDBRANCH  22  23
ENDBRANCH  21  22
ENDBRANCH  20  21
ENDBRANCH  19  20
ENDBRANCH  18  19
ENDBRANCH  17  18
ENDBRANCH   1  17
TORSDOF 26
ENDMDL
MODEL 5
REMARK VINA RESULT:    19.998      5.607     14.500
REMARK INTER + INTRA:          48.954
REMARK INTER:                  50.256
REMARK INTRA:                  -1.302
REMARK UNBOUND:                -1.441
REMARK SMILES CCCCCCCCCCCCCCCCCCCCCCCCCCCC(=O)[O-]
REMARK SMILES IDX 15 1 16 2 17 3 18 4 19 5 20 6 21 7 22 8 23 9 24 10 25 11
REMARK SMILES IDX 26 12 27 13 28 14 29 15 30 16 14 17 13 18 12 19 11 20 10 21
REMARK SMILES IDX 9 22 8 23 7 24 6 25 5 26 4 27 3 28 2 29 1 30
REMARK H PARENT
REMARK Flexibility Score: inf
ROOT
ATOM      1  C   UNL     1       1.355  -8.389  13.110  1.00  0.00     0.000 C 
ENDROOT
BRANCH   1   2
ATOM      2  C   UNL     1       0.230  -9.385  12.767  1.00  0.00     0.000 C 
BRANCH   2   3
ATOM      3  C   UNL     1       0.698 -10.695  12.107  1.00  0.00     0.000 C 
BRANCH   3   4
ATOM      4  C   UNL     1       1.932 -10.510  11.208  1.00  0.00     0.000 C 
BRANCH   4   5
ATOM      5  C   UNL     1       2.328 -11.813  10.494  1.00  0.00     0.000 C 
BRANCH   5   6
ATOM      6  C   UNL     1       1.150 -12.447   9.732  1.00  0.00     0.000 C 
BRANCH   6   7
ATOM      7  C   UNL     1       1.467 -13.882   9.270  1.00  0.00     0.000 C 
BRANCH   7   8
ATOM      8  C   UNL     1       0.260 -14.579   8.618  1.00  0.00     0.000 C 
BRANCH   8   9
ATOM      9  C   UNL     1      -0.530 -13.625   7.698  1.00  0.00     0.000 C 
BRANCH   9  10
ATOM     10  C   UNL     1      -2.055 -13.787   7.839  1.00  0.00     0.000 C 
BRANCH  10  11
ATOM     11  C   UNL     1      -2.828 -12.449   7.846  1.00  0.00     0.000 C 
BRANCH  11  12
ATOM     12  C   UNL     1      -4.352 -12.618   7.718  1.00  0.00     0.006 C 
BRANCH  12  13
ATOM     13  C   UNL     1      -4.762 -13.392   6.460  1.00  0.00     0.053 C 
BRANCH  13  14
ATOM     14  C   UNL     1      -5.550 -14.608   6.830  1.00  0.00     0.041 C 
ATOM     15  O   UNL     1      -4.978 -15.724   6.936  1.00  0.00    -0.550 OA
ATOM     16  O   UNL     1      -6.903 -14.495   7.122  1.00  0.00    -0.550 OA
ENDBRANCH  13  14
ENDBRANCH  12  13
ENDBRANCH  11  12
ENDBRANCH  10  11
ENDBRANCH   9  10
ENDBRANCH   8   9
ENDBRANCH   7   8
ENDBRANCH   6   7
ENDBRANCH   5   6
ENDBRANCH   4   5
ENDBRANCH   3   4
ENDBRANCH   2   3
ENDBRANCH   1   2
BRANCH   1  17
ATOM     17  C   UNL     1       0.895  -7.284  14.078  1.00  0.00     0.000 C 
BRANCH  17  18
ATOM     18  C   UNL     1      -0.588  -7.425  14.463  1.00  0.00     0.000 C 
BRANCH  18  19
ATOM     19  C   UNL     1      -0.969  -6.540  15.659  1.00  0.00     0.000 C 
BRANCH  19  20
ATOM     20  C   UNL     1      -2.246  -7.049  16.341  1.00  0.00     0.000 C 
BRANCH  20  21
ATOM     21  C   UNL     1      -2.507  -6.287  17.646  1.00  0.00     0.000 C 
BRANCH  21  22
ATOM     22  C   UNL     1      -2.786  -7.246  18.810  1.00  0.00    -0.000 C 
BRANCH  22  23
ATOM     23  C   UNL     1      -2.053  -6.784  20.078  1.00  0.00    -0.000 C 
BRANCH  23  24
ATOM     24  C   UNL     1      -1.484  -7.952  20.901  1.00  0.00    -0.000 C 
BRANCH  24  25
ATOM     25  C   UNL     1      -1.294  -7.585  22.384  1.00  0.00    -0.000 C 
BRANCH  25  26
ATOM     26  C   UNL     1      -1.591  -6.100  22.678  1.00  0.00    -0.000 C 
BRANCH  26  27
ATOM     27  C   UNL     1      -1.695  -5.735  24.171  1.00  0.00    -0.000 C 
BRANCH  27  28
ATOM     28  C   UNL     1      -2.932  -4.885  24.500  1.00  0.00    -0.000 C 
BRANCH  28  29
ATOM     29  C   UNL     1      -4.172  -5.770  24.690  1.00  0.00    -0.003 C 
ATOM     30  C   UNL     1      -5.190  -5.098  25.609  1.00  0.00     0.004 C 
ENDBRANCH  28  29
ENDBRANCH  27  28
ENDBRANCH  26  27
ENDBRANCH  25  26
ENDBRANCH  24  25
ENDBRANCH  23  24
ENDBRANCH  22  23
ENDBRANCH  21  22
ENDBRANCH  20  21
ENDBRANCH  19  20
ENDBRANCH  18  19
ENDBRANCH  17  18
ENDBRANCH   1  17
TORSDOF 26
ENDMDL
MODEL 6
REMARK VINA RESULT:    20.063      4.929     14.101
REMARK INTER + INTRA:          49.118
REMARK INTER:                  47.602
REMARK INTRA:                   1.516
REMARK UNBOUND:                -1.441
REMARK SMILES CCCCCCCCCCCCCCCCCCCCCCCCCCCC(=O)[O-]
REMARK SMILES IDX 15 1 16 2 17 3 18 4 19 5 20 6 21 7 22 8 23 9 24 10 25 11
REMARK SMILES IDX 26 12 27 13 28 14 29 15 30 16 14 17 13 18 12 19 11 20 10 21
REMARK SMILES IDX 9 22 8 23 7 24 6 25 5 26 4 27 3 28 2 29 1 30
REMARK H PARENT
REMARK Flexibility Score: inf
ROOT
ATOM      1  C   UNL     1      -5.434  -6.458  12.642  1.00  0.00     0.000 C 
ENDROOT
BRANCH   1   2
ATOM      2  C   UNL     1      -5.443  -7.802  11.889  1.00  0.00     0.000 C 
BRANCH   2   3
ATOM      3  C   UNL     1      -4.144  -8.136  11.133  1.00  0.00     0.000 C 
BRANCH   3   4
ATOM      4  C   UNL     1      -4.014  -9.629  10.789  1.00  0.00     0.000 C 
BRANCH   4   5
ATOM      5  C   UNL     1      -3.279  -9.853   9.457  1.00  0.00     0.000 C 
BRANCH   5   6
ATOM      6  C   UNL     1      -4.103 -10.696   8.465  1.00  0.00     0.000 C 
BRANCH   6   7
ATOM      7  C   UNL     1      -3.312 -11.912   7.947  1.00  0.00     0.000 C 
BRANCH   7   8
ATOM      8  C   UNL     1      -3.918 -12.514   6.666  1.00  0.00     0.000 C 
BRANCH   8   9
ATOM      9  C   UNL     1      -5.331 -13.082   6.907  1.00  0.00     0.000 C 
BRANCH   9  10
ATOM     10  C   UNL     1      -5.328 -14.599   7.172  1.00  0.00     0.000 C 
BRANCH  10  11
ATOM     11  C   UNL     1      -4.101 -15.334   6.586  1.00  0.00     0.000 C 
BRANCH  11  12
ATOM     12  C   UNL     1      -2.953 -14.392   6.184  1.00  0.00     0.006 C 
BRANCH  12  13
ATOM     13  C   UNL     1      -1.570 -14.960   6.521  1.00  0.00     0.053 C 
BRANCH  13  14
ATOM     14  C   UNL     1      -1.130 -14.495   7.873  1.00  0.00     0.041 C 
ATOM     15  O   UNL     1      -0.033 -13.893   8.008  1.00  0.00    -0.550 OA
ATOM     16  O   UNL     1      -1.962 -14.668   8.971  1.00  0.00    -0.550 OA
ENDBRANCH  13  14
ENDBRANCH  12  13
ENDBRANCH  11  12
ENDBRANCH  10  11
ENDBRANCH   9  10
ENDBRANCH   8   9
ENDBRANCH   7   8
ENDBRANCH   6   7
ENDBRANCH   5   6
ENDBRANCH   4   5
ENDBRANCH   3   4
ENDBRANCH   2   3
ENDBRANCH   1   2
BRANCH   1  17
ATOM     17  C   UNL     1      -4.024  -5.854  12.762  1.00  0.00     0.000 C 
BRANCH  17  18
ATOM     18  C   UNL     1      -3.550  -5.764  14.224  1.00  0.00     0.000 C 
BRANCH  18  19
ATOM     19  C   UNL     1      -2.567  -6.886  14.591  1.00  0.00     0.000 C 
BRANCH  19  20
ATOM     20  C   UNL     1      -1.646  -6.461  15.742  1.00  0.00     0.000 C 
BRANCH  20  21
ATOM     21  C   UNL     1      -2.442  -6.295  17.043  1.00  0.00     0.000 C 
BRANCH  21  22
ATOM     22  C   UNL     1      -2.272  -7.510  17.964  1.00  0.00    -0.000 C 
BRANCH  22  23
ATOM     23  C   UNL     1      -2.586  -7.132  19.419  1.00  0.00    -0.000 C 
BRANCH  23  24
ATOM     24  C   UNL     1      -2.447  -8.317  20.389  1.00  0.00    -0.000 C 
BRANCH  24  25
ATOM     25  C   UNL     1      -1.182  -8.214  21.261  1.00  0.00    -0.000 C 
BRANCH  25  26
ATOM     26  C   UNL     1      -1.039  -6.842  21.951  1.00  0.00    -0.000 C 
BRANCH  26  27
ATOM     27  C   UNL     1      -1.487  -6.799  23.425  1.00  0.00    -0.000 C 
BRANCH  27  28
ATOM     28  C   UNL     1      -2.222  -5.502  23.794  1.00  0.00    -0.000 C 
BRANCH  28  29
ATOM     29  C   UNL     1      -3.546  -5.807  24.509  1.00  0.00    -0.003 C 
ATOM     30  C   UNL     1      -3.973  -4.638  25.395  1.00  0.00     0.004 C 
ENDBRANCH  28  29
ENDBRANCH  27  28
ENDBRANCH  26  27
ENDBRANCH  25  26
ENDBRANCH  24  25
ENDBRANCH  23  24
ENDBRANCH  22  23
ENDBRANCH  21  22
ENDBRANCH  20  21
ENDBRANCH  19  20
ENDBRANCH  18  19
ENDBRANCH  17  18
ENDBRANCH   1  17
TORSDOF 26
ENDMDL
MODEL 7
REMARK VINA RESULT:    20.444      5.011     14.627
REMARK INTER + INTRA:          50.077
REMARK INTER:                  51.262
REMARK INTRA:                  -1.185
REMARK UNBOUND:                -1.441
REMARK SMILES CCCCCCCCCCCCCCCCCCCCCCCCCCCC(=O)[O-]
REMARK SMILES IDX 15 1 16 2 17 3 18 4 19 5 20 6 21 7 22 8 23 9 24 10 25 11
REMARK SMILES IDX 26 12 27 13 28 14 29 15 30 16 14 17 13 18 12 19 11 20 10 21
REMARK SMILES IDX 9 22 8 23 7 24 6 25 5 26 4 27 3 28 2 29 1 30
REMARK H PARENT
REMARK Flexibility Score: inf
ROOT
ATOM      1  C   UNL     1      -3.011  -8.871  13.590  1.00  0.00     0.000 C 
ENDROOT
BRANCH   1   2
ATOM      2  C   UNL     1      -4.204  -8.336  12.773  1.00  0.00     0.000 C 
BRANCH   2   3
ATOM      3  C   UNL     1      -3.972  -8.260  11.253  1.00  0.00     0.000 C 
BRANCH   3   4
ATOM      4  C   UNL     1      -3.172  -9.454  10.705  1.00  0.00     0.000 C 
BRANCH   4   5
ATOM      5  C   UNL     1      -3.517  -9.755   9.237  1.00  0.00     0.000 C 
BRANCH   5   6
ATOM      6  C   UNL     1      -3.378 -11.251   8.896  1.00  0.00     0.000 C 
BRANCH   6   7
ATOM      7  C   UNL     1      -3.797 -11.552   7.445  1.00  0.00     0.000 C 
BRANCH   7   8
ATOM      8  C   UNL     1      -5.192 -12.197   7.348  1.00  0.00     0.000 C 
BRANCH   8   9
ATOM      9  C   UNL     1      -5.130 -13.620   6.755  1.00  0.00     0.000 C 
BRANCH   9  10
ATOM     10  C   UNL     1      -3.794 -13.914   6.047  1.00  0.00     0.000 C 
BRANCH  10  11
ATOM     11  C   UNL     1      -3.098 -15.204   6.536  1.00  0.00     0.000 C 
BRANCH  11  12
ATOM     12  C   UNL     1      -1.616 -15.006   6.895  1.00  0.00     0.006 C 
BRANCH  12  13
ATOM     13  C   UNL     1      -1.418 -14.215   8.193  1.00  0.00     0.053 C 
BRANCH  13  14
ATOM     14  C   UNL     1       0.039 -14.006   8.459  1.00  0.00     0.041 C 
ATOM     15  O   UNL     1       0.718 -14.912   9.006  1.00  0.00    -0.550 OA
ATOM     16  O   UNL     1       0.658 -12.835   8.043  1.00  0.00    -0.550 OA
ENDBRANCH  13  14
ENDBRANCH  12  13
ENDBRANCH  11  12
ENDBRANCH  10  11
ENDBRANCH   9  10
ENDBRANCH   8   9
ENDBRANCH   7   8
ENDBRANCH   6   7
ENDBRANCH   5   6
ENDBRANCH   4   5
ENDBRANCH   3   4
ENDBRANCH   2   3
ENDBRANCH   1   2
BRANCH   1  17
ATOM     17  C   UNL     1      -2.778  -8.080  14.889  1.00  0.00     0.000 C 
BRANCH  17  18
ATOM     18  C   UNL     1      -3.635  -8.604  16.054  1.00  0.00     0.000 C 
BRANCH  18  19
ATOM     19  C   UNL     1      -3.319  -7.895  17.380  1.00  0.00     0.000 C 
BRANCH  19  20
ATOM     20  C   UNL     1      -3.298  -8.889  18.548  1.00  0.00     0.000 C 
BRANCH  20  21
ATOM     21  C   UNL     1      -2.837  -8.202  19.840  1.00  0.00     0.000 C 
BRANCH  21  22
ATOM     22  C   UNL     1      -1.323  -7.961  19.839  1.00  0.00    -0.000 C 
BRANCH  22  23
ATOM     23  C   UNL     1      -0.722  -8.297  21.212  1.00  0.00    -0.000 C 
BRANCH  23  24
ATOM     24  C   UNL     1      -1.372  -7.509  22.361  1.00  0.00    -0.000 C 
BRANCH  24  25
ATOM     25  C   UNL     1      -1.483  -6.006  22.049  1.00  0.00    -0.000 C 
BRANCH  25  26
ATOM     26  C   UNL     1      -0.951  -5.115  23.190  1.00  0.00    -0.000 C 
BRANCH  26  27
ATOM     27  C   UNL     1      -1.744  -5.193  24.508  1.00  0.00    -0.000 C 
BRANCH  27  28
ATOM     28  C   UNL     1      -3.229  -5.531  24.301  1.00  0.00    -0.000 C 
BRANCH  28  29
ATOM     29  C   UNL     1      -4.102  -4.836  25.354  1.00  0.00    -0.003 C 
ATOM     30  C   UNL     1      -5.575  -5.199  25.172  1.00  0.00     0.004 C 
ENDBRANCH  28  29
ENDBRANCH  27  28
ENDBRANCH  26  27
ENDBRANCH  25  26
ENDBRANCH  24  25
ENDBRANCH  23  24
ENDBRANCH  22  23
ENDBRANCH  21  22
ENDBRANCH  20  21
ENDBRANCH  19  20
ENDBRANCH  18  19
ENDBRANCH  17  18
ENDBRANCH   1  17
TORSDOF 26
ENDMDL
MODEL 8
REMARK VINA RESULT:    20.457      5.088     13.181
REMARK INTER + INTRA:          50.111
REMARK INTER:                  51.113
REMARK INTRA:                  -1.003
REMARK UNBOUND:                -1.441
REMARK SMILES CCCCCCCCCCCCCCCCCCCCCCCCCCCC(=O)[O-]
REMARK SMILES IDX 15 1 16 2 17 3 18 4 19 5 20 6 21 7 22 8 23 9 24 10 25 11
REMARK SMILES IDX 26 12 27 13 28 14 29 15 30 16 14 17 13 18 12 19 11 20 10 21
REMARK SMILES IDX 9 22 8 23 7 24 6 25 5 26 4 27 3 28 2 29 1 30
REMARK H PARENT
REMARK Flexibility Score: inf
ROOT
ATOM      1  C   UNL     1      -3.183  -9.753   9.241  1.00  0.00     0.000 C 
ENDROOT
BRANCH   1   2
ATOM      2  C   UNL     1      -3.317 -11.193   8.710  1.00  0.00     0.000 C 
BRANCH   2   3
ATOM      3  C   UNL     1      -4.098 -11.331   7.390  1.00  0.00     0.000 C 
BRANCH   3   4
ATOM      4  C   UNL     1      -4.822 -12.681   7.257  1.00  0.00     0.000 C 
BRANCH   4   5
ATOM      5  C   UNL     1      -5.973 -12.623   6.238  1.00  0.00     0.000 C 
BRANCH   5   6
ATOM      6  C   UNL     1      -6.768 -13.939   6.173  1.00  0.00     0.000 C 
BRANCH   6   7
ATOM      7  C   UNL     1      -6.243 -14.981   7.178  1.00  0.00     0.000 C 
BRANCH   7   8
ATOM      8  C   UNL     1      -6.226 -16.409   6.604  1.00  0.00     0.000 C 
BRANCH   8   9
ATOM      9  C   UNL     1      -4.831 -17.058   6.713  1.00  0.00     0.000 C 
BRANCH   9  10
ATOM     10  C   UNL     1      -3.788 -16.128   7.361  1.00  0.00     0.000 C 
BRANCH  10  11
ATOM     11  C   UNL     1      -2.609 -15.766   6.429  1.00  0.00     0.000 C 
BRANCH  11  12
ATOM     12  C   UNL     1      -2.576 -14.282   6.026  1.00  0.00     0.006 C 
BRANCH  12  13
ATOM     13  C   UNL     1      -1.287 -13.575   6.462  1.00  0.00     0.053 C 
BRANCH  13  14
ATOM     14  C   UNL     1      -0.934 -13.954   7.865  1.00  0.00     0.041 C 
ATOM     15  O   UNL     1       0.272 -14.022   8.217  1.00  0.00    -0.550 OA
ATOM     16  O   UNL     1      -1.939 -14.167   8.800  1.00  0.00    -0.550 OA
ENDBRANCH  13  14
ENDBRANCH  12  13
ENDBRANCH  11  12
ENDBRANCH  10  11
ENDBRANCH   9  10
ENDBRANCH   8   9
ENDBRANCH   7   8
ENDBRANCH   6   7
ENDBRANCH   5   6
ENDBRANCH   4   5
ENDBRANCH   3   4
ENDBRANCH   2   3
ENDBRANCH   1   2
BRANCH   1  17
ATOM     17  C   UNL     1      -3.772  -9.583  10.653  1.00  0.00     0.000 C 
BRANCH  17  18
ATOM     18  C   UNL     1      -4.059  -8.110  10.993  1.00  0.00     0.000 C 
BRANCH  18  19
ATOM     19  C   UNL     1      -5.162  -7.957  12.050  1.00  0.00     0.000 C 
BRANCH  19  20
ATOM     20  C   UNL     1      -5.536  -6.482  12.251  1.00  0.00     0.000 C 
BRANCH  20  21
ATOM     21  C   UNL     1      -4.390  -5.716  12.924  1.00  0.00     0.000 C 
BRANCH  21  22
ATOM     22  C   UNL     1      -3.678  -6.579  13.973  1.00  0.00    -0.000 C 
BRANCH  22  23
ATOM     23  C   UNL     1      -2.555  -5.783  14.655  1.00  0.00    -0.000 C 
BRANCH  23  24
ATOM     24  C   UNL     1      -1.527  -6.682  15.362  1.00  0.00    -0.000 C 
BRANCH  24  25
ATOM     25  C   UNL     1      -1.609  -6.571  16.895  1.00  0.00    -0.000 C 
BRANCH  25  26
ATOM     26  C   UNL     1      -2.858  -7.260  17.481  1.00  0.00    -0.000 C 
BRANCH  26  27
ATOM     27  C   UNL     1      -3.310  -6.739  18.859  1.00  0.00    -0.000 C 
BRANCH  27  28
ATOM     28  C   UNL     1      -2.494  -7.323  20.022  1.00  0.00    -0.000 C 
BRANCH  28  29
ATOM     29  C   UNL     1      -1.950  -8.714  19.668  1.00  0.00    -0.003 C 
ATOM     30  C   UNL     1      -2.968  -9.803  20.002  1.00  0.00     0.004 C 
ENDBRANCH  28  29
ENDBRANCH  27  28
ENDBRANCH  26  27
ENDBRANCH  25  26
ENDBRANCH  24  25
ENDBRANCH  23  24
ENDBRANCH  22  23
ENDBRANCH  21  22
ENDBRANCH  20  21
ENDBRANCH  19  20
ENDBRANCH  18  19
ENDBRANCH  17  18
ENDBRANCH   1  17
TORSDOF 26
ENDMDL
