MODEL 1
REMARK VINA RESULT:    -3.153      0.000      0.000
REMARK INTER + INTRA:         -12.697
REMARK INTER:                  -8.314
REMARK INTRA:                  -4.382
REMARK UNBOUND:                -4.382
REMARK SMILES CCCCCCCCCCCCCCCCCCCCCCCCCCCCCC(=O)[O-]
REMARK SMILES IDX 16 1 17 2 18 3 19 4 20 5 21 6 22 7 23 8 24 9 25 10 26 11
REMARK SMILES IDX 27 12 28 13 29 14 30 15 31 16 32 17 15 18 14 19 13 20 12 21
REMARK SMILES IDX 11 22 10 23 9 24 8 25 7 26 6 27 5 28 4 29 3 30 2 31 1 32
REMARK H PARENT
REMARK Flexibility Score: inf
ROOT
ATOM      1  C   UNL     1       8.366  -3.828  -2.188  1.00  0.00     0.000 C 
ENDROOT
BRANCH   1   2
ATOM      2  C   UNL     1       8.523  -2.438  -2.830  1.00  0.00     0.000 C 
BRANCH   2   3
ATOM      3  C   UNL     1       7.939  -1.303  -1.963  1.00  0.00     0.000 C 
BRANCH   3   4
ATOM      4  C   UNL     1       7.315  -0.124  -2.744  1.00  0.00     0.000 C 
BRANCH   4   5
ATOM      5  C   UNL     1       7.559   1.262  -2.115  1.00  0.00     0.000 C 
BRANCH   5   6
ATOM      6  C   UNL     1       6.701   2.360  -2.766  1.00  0.00     0.000 C 
BRANCH   6   7
ATOM      7  C   UNL     1       5.611   1.782  -3.685  1.00  0.00     0.000 C 
BRANCH   7   8
ATOM      8  C   UNL     1       4.993   2.787  -4.684  1.00  0.00     0.000 C 
BRANCH   8   9
ATOM      9  C   UNL     1       3.924   3.738  -4.097  1.00  0.00     0.000 C 
BRANCH   9  10
ATOM     10  C   UNL     1       2.607   3.044  -3.695  1.00  0.00     0.000 C 
BRANCH  10  11
ATOM     11  C   UNL     1       2.032   3.599  -2.380  1.00  0.00     0.000 C 
BRANCH  11  12
ATOM     12  C   UNL     1       0.987   2.649  -1.756  1.00  0.00     0.000 C 
BRANCH  12  13
ATOM     13  C   UNL     1       0.410   1.632  -2.757  1.00  0.00     0.006 C 
BRANCH  13  14
ATOM     14  C   UNL     1      -1.095   1.817  -2.998  1.00  0.00     0.053 C 
BRANCH  14  15
ATOM     15  C   UNL     1      -1.460   1.390  -4.384  1.00  0.00     0.041 C 
ATOM     16  O   UNL     1      -2.106   0.324  -4.568  1.00  0.00    -0.550 OA
ATOM     17  O   UNL     1      -1.125   2.190  -5.469  1.00  0.00    -0.550 OA
ENDBRANCH  14  15
ENDBRANCH  13  14
ENDBRANCH  12  13
ENDBRANCH  11  12
ENDBRANCH  10  11
ENDBRANCH   9  10
ENDBRANCH   8   9
ENDBRANCH   7   8
ENDBRANCH   6   7
ENDBRANCH   5   6
ENDBRANCH   4   5
ENDBRANCH   3   4
ENDBRANCH   2   3
ENDBRANCH   1   2
BRANCH   1  18
ATOM     18  C   UNL     1       7.517  -4.791  -3.037  1.00  0.00     0.000 C 
BRANCH  18  19
ATOM     19  C   UNL     1       7.305  -4.366  -4.503  1.00  0.00     0.000 C 
BRANCH  19  20
ATOM     20  C   UNL     1       5.915  -3.780  -4.820  1.00  0.00     0.000 C 
BRANCH  20  21
ATOM     21  C   UNL     1       5.927  -2.522  -5.712  1.00  0.00     0.000 C 
BRANCH  21  22
ATOM     22  C   UNL     1       5.006  -1.379  -5.238  1.00  0.00     0.000 C 
BRANCH  22  23
ATOM     23  C   UNL     1       4.392  -0.521  -6.363  1.00  0.00     0.000 C 
BRANCH  23  24
ATOM     24  C   UNL     1       2.989   0.037  -6.060  1.00  0.00    -0.000 C 
BRANCH  24  25
ATOM     25  C   UNL     1       2.409  -0.498  -4.742  1.00  0.00    -0.000 C 
BRANCH  25  26
ATOM     26  C   UNL     1       1.117  -1.294  -4.989  1.00  0.00    -0.000 C 
BRANCH  26  27
ATOM     27  C   UNL     1       1.161  -2.116  -6.289  1.00  0.00    -0.000 C 
BRANCH  27  28
ATOM     28  C   UNL     1       2.061  -3.366  -6.234  1.00  0.00    -0.000 C 
BRANCH  28  29
ATOM     29  C   UNL     1       2.150  -4.045  -4.853  1.00  0.00    -0.000 C 
BRANCH  29  30
ATOM     30  C   UNL     1       2.485  -5.547  -4.891  1.00  0.00    -0.000 C 
BRANCH  30  31
ATOM     31  C   UNL     1       2.772  -6.128  -3.497  1.00  0.00    -0.003 C 
ATOM     32  C   UNL     1       4.178  -6.717  -3.426  1.00  0.00     0.004 C 
ENDBRANCH  30  31
ENDBRANCH  29  30
ENDBRANCH  28  29
ENDBRANCH  27  28
ENDBRANCH  26  27
ENDBRANCH  25  26
ENDBRANCH  24  25
ENDBRANCH  23  24
ENDBRANCH  22  23
ENDBRANCH  21  22
ENDBRANCH  20  21
ENDBRANCH  19  20
ENDBRANCH  18  19
ENDBRANCH   1  18
TORSDOF 28
ENDMDL
MODEL 2
REMARK VINA RESULT:    -3.145      1.382      2.453
REMARK INTER + INTRA:         -12.675
REMARK INTER:                  -8.262
REMARK INTRA:                  -4.413
REMARK UNBOUND:                -4.382
REMARK SMILES CCCCCCCCCCCCCCCCCCCCCCCCCCCCCC(=O)[O-]
REMARK SMILES IDX 16 1 17 2 18 3 19 4 20 5 21 6 22 7 23 8 24 9 25 10 26 11
REMARK SMILES IDX 27 12 28 13 29 14 30 15 31 16 32 17 15 18 14 19 13 20 12 21
REMARK SMILES IDX 11 22 10 23 9 24 8 25 7 26 6 27 5 28 4 29 3 30 2 31 1 32
REMARK H PARENT
REMARK Flexibility Score: inf
ROOT
ATOM      1  C   UNL     1       7.181  -4.295  -4.182  1.00  0.00     0.000 C 
ENDROOT
BRANCH   1   2
ATOM      2  C   UNL     1       7.777  -3.649  -2.919  1.00  0.00     0.000 C 
BRANCH   2   3
ATOM      3  C   UNL     1       7.409  -2.157  -2.772  1.00  0.00     0.000 C 
BRANCH   3   4
ATOM      4  C   UNL     1       8.523  -1.252  -2.198  1.00  0.00     0.000 C 
BRANCH   4   5
ATOM      5  C   UNL     1       8.093   0.205  -1.936  1.00  0.00     0.000 C 
BRANCH   5   6
ATOM      6  C   UNL     1       6.910   0.635  -2.821  1.00  0.00     0.000 C 
BRANCH   6   7
ATOM      7  C   UNL     1       6.925   2.143  -3.124  1.00  0.00     0.000 C 
BRANCH   7   8
ATOM      8  C   UNL     1       5.883   2.615  -4.163  1.00  0.00     0.000 C 
BRANCH   8   9
ATOM      9  C   UNL     1       4.603   3.258  -3.580  1.00  0.00     0.000 C 
BRANCH   9  10
ATOM     10  C   UNL     1       3.352   3.099  -4.466  1.00  0.00     0.000 C 
BRANCH  10  11
ATOM     11  C   UNL     1       2.136   2.586  -3.674  1.00  0.00     0.000 C 
BRANCH  11  12
ATOM     12  C   UNL     1       1.660   3.605  -2.616  1.00  0.00     0.000 C 
BRANCH  12  13
ATOM     13  C   UNL     1       0.156   3.506  -2.304  1.00  0.00     0.006 C 
BRANCH  13  14
ATOM     14  C   UNL     1      -0.170   2.422  -1.267  1.00  0.00     0.053 C 
BRANCH  14  15
ATOM     15  C   UNL     1      -1.162   1.449  -1.820  1.00  0.00     0.041 C 
ATOM     16  O   UNL     1      -1.118   1.122  -3.036  1.00  0.00    -0.550 OA
ATOM     17  O   UNL     1      -2.109   0.870  -0.985  1.00  0.00    -0.550 OA
ENDBRANCH  14  15
ENDBRANCH  13  14
ENDBRANCH  12  13
ENDBRANCH  11  12
ENDBRANCH  10  11
ENDBRANCH   9  10
ENDBRANCH   8   9
ENDBRANCH   7   8
ENDBRANCH   6   7
ENDBRANCH   5   6
ENDBRANCH   4   5
ENDBRANCH   3   4
ENDBRANCH   2   3
ENDBRANCH   1   2
BRANCH   1  18
ATOM     18  C   UNL     1       5.796  -3.732  -4.549  1.00  0.00     0.000 C 
BRANCH  18  19
ATOM     19  C   UNL     1       5.466  -3.722  -6.055  1.00  0.00     0.000 C 
BRANCH  19  20
ATOM     20  C   UNL     1       5.030  -2.356  -6.621  1.00  0.00     0.000 C 
BRANCH  20  21
ATOM     21  C   UNL     1       5.306  -1.151  -5.699  1.00  0.00     0.000 C 
BRANCH  21  22
ATOM     22  C   UNL     1       4.046  -0.429  -5.178  1.00  0.00     0.000 C 
BRANCH  22  23
ATOM     23  C   UNL     1       2.705  -1.007  -5.675  1.00  0.00     0.000 C 
BRANCH  23  24
ATOM     24  C   UNL     1       1.970  -1.901  -4.659  1.00  0.00    -0.000 C 
BRANCH  24  25
ATOM     25  C   UNL     1       1.022  -2.908  -5.329  1.00  0.00    -0.000 C 
BRANCH  25  26
ATOM     26  C   UNL     1       1.737  -4.240  -5.607  1.00  0.00    -0.000 C 
BRANCH  26  27
ATOM     27  C   UNL     1       2.172  -4.964  -4.321  1.00  0.00    -0.000 C 
BRANCH  27  28
ATOM     28  C   UNL     1       3.008  -6.239  -4.545  1.00  0.00    -0.000 C 
BRANCH  28  29
ATOM     29  C   UNL     1       3.887  -6.660  -3.351  1.00  0.00    -0.000 C 
BRANCH  29  30
ATOM     30  C   UNL     1       5.174  -7.415  -3.729  1.00  0.00    -0.000 C 
BRANCH  30  31
ATOM     31  C   UNL     1       5.367  -7.537  -5.249  1.00  0.00    -0.003 C 
ATOM     32  C   UNL     1       6.848  -7.575  -5.614  1.00  0.00     0.004 C 
ENDBRANCH  30  31
ENDBRANCH  29  30
ENDBRANCH  28  29
ENDBRANCH  27  28
ENDBRANCH  26  27
ENDBRANCH  25  26
ENDBRANCH  24  25
ENDBRANCH  23  24
ENDBRANCH  22  23
ENDBRANCH  21  22
ENDBRANCH  20  21
ENDBRANCH  19  20
ENDBRANCH  18  19
ENDBRANCH   1  18
TORSDOF 28
ENDMDL
MODEL 3
REMARK VINA RESULT:    -3.099      2.662      7.704
REMARK INTER + INTRA:         -12.553
REMARK INTER:                  -8.257
REMARK INTRA:                  -4.296
REMARK UNBOUND:                -4.382
REMARK SMILES CCCCCCCCCCCCCCCCCCCCCCCCCCCCCC(=O)[O-]
REMARK SMILES IDX 16 1 17 2 18 3 19 4 20 5 21 6 22 7 23 8 24 9 25 10 26 11
REMARK SMILES IDX 27 12 28 13 29 14 30 15 31 16 32 17 15 18 14 19 13 20 12 21
REMARK SMILES IDX 11 22 10 23 9 24 8 25 7 26 6 27 5 28 4 29 3 30 2 31 1 32
REMARK H PARENT
REMARK Flexibility Score: inf
ROOT
ATOM      1  C   UNL     1       6.577  -0.736  -4.865  1.00  0.00     0.000 C 
ENDROOT
BRANCH   1   2
ATOM      2  C   UNL     1       5.259  -1.491  -5.115  1.00  0.00     0.000 C 
BRANCH   2   3
ATOM      3  C   UNL     1       5.429  -3.026  -5.096  1.00  0.00     0.000 C 
BRANCH   3   4
ATOM      4  C   UNL     1       6.881  -3.531  -4.935  1.00  0.00     0.000 C 
BRANCH   4   5
ATOM      5  C   UNL     1       7.141  -4.332  -3.644  1.00  0.00     0.000 C 
BRANCH   5   6
ATOM      6  C   UNL     1       7.500  -5.800  -3.928  1.00  0.00     0.000 C 
BRANCH   6   7
ATOM      7  C   UNL     1       6.431  -6.775  -3.404  1.00  0.00     0.000 C 
BRANCH   7   8
ATOM      8  C   UNL     1       5.087  -6.747  -4.165  1.00  0.00     0.000 C 
BRANCH   8   9
ATOM      9  C   UNL     1       3.824  -6.600  -3.285  1.00  0.00     0.000 C 
BRANCH   9  10
ATOM     10  C   UNL     1       2.519  -6.379  -4.076  1.00  0.00     0.000 C 
BRANCH  10  11
ATOM     11  C   UNL     1       2.259  -4.891  -4.371  1.00  0.00     0.000 C 
BRANCH  11  12
ATOM     12  C   UNL     1       1.164  -4.694  -5.441  1.00  0.00     0.000 C 
BRANCH  12  13
ATOM     13  C   UNL     1       0.861  -3.216  -5.742  1.00  0.00     0.006 C 
BRANCH  13  14
ATOM     14  C   UNL     1       1.602  -2.250  -4.807  1.00  0.00     0.053 C 
BRANCH  14  15
ATOM     15  C   UNL     1       1.260  -0.833  -5.139  1.00  0.00     0.041 C 
ATOM     16  O   UNL     1       2.000  -0.168  -5.912  1.00  0.00    -0.550 OA
ATOM     17  O   UNL     1       0.103  -0.258  -4.629  1.00  0.00    -0.550 OA
ENDBRANCH  14  15
ENDBRANCH  13  14
ENDBRANCH  12  13
ENDBRANCH  11  12
ENDBRANCH  10  11
ENDBRANCH   9  10
ENDBRANCH   8   9
ENDBRANCH   7   8
ENDBRANCH   6   7
ENDBRANCH   5   6
ENDBRANCH   4   5
ENDBRANCH   3   4
ENDBRANCH   2   3
ENDBRANCH   1   2
BRANCH   1  18
ATOM     18  C   UNL     1       6.448   0.362  -3.794  1.00  0.00     0.000 C 
BRANCH  18  19
ATOM     19  C   UNL     1       7.249   0.118  -2.500  1.00  0.00     0.000 C 
BRANCH  19  20
ATOM     20  C   UNL     1       8.239  -1.062  -2.555  1.00  0.00     0.000 C 
BRANCH  20  21
ATOM     21  C   UNL     1       8.448  -1.800  -1.218  1.00  0.00     0.000 C 
BRANCH  21  22
ATOM     22  C   UNL     1       9.481  -1.152  -0.271  1.00  0.00     0.000 C 
BRANCH  22  23
ATOM     23  C   UNL     1       9.049  -1.060   1.207  1.00  0.00     0.000 C 
BRANCH  23  24
ATOM     24  C   UNL     1       8.634  -2.399   1.844  1.00  0.00    -0.000 C 
BRANCH  24  25
ATOM     25  C   UNL     1       9.508  -2.782   3.048  1.00  0.00    -0.000 C 
BRANCH  25  26
ATOM     26  C   UNL     1       9.464  -4.297   3.305  1.00  0.00    -0.000 C 
BRANCH  26  27
ATOM     27  C   UNL     1       8.401  -5.016   2.456  1.00  0.00    -0.000 C 
BRANCH  27  28
ATOM     28  C   UNL     1       8.895  -6.288   1.739  1.00  0.00    -0.000 C 
BRANCH  28  29
ATOM     29  C   UNL     1       8.519  -6.382   0.247  1.00  0.00    -0.000 C 
BRANCH  29  30
ATOM     30  C   UNL     1       9.226  -5.361  -0.663  1.00  0.00    -0.000 C 
BRANCH  30  31
ATOM     31  C   UNL     1      10.757  -5.476  -0.609  1.00  0.00    -0.003 C 
ATOM     32  C   UNL     1      11.374  -4.270   0.094  1.00  0.00     0.004 C 
ENDBRANCH  30  31
ENDBRANCH  29  30
ENDBRANCH  28  29
ENDBRANCH  27  28
ENDBRANCH  26  27
ENDBRANCH  25  26
ENDBRANCH  24  25
ENDBRANCH  23  24
ENDBRANCH  22  23
ENDBRANCH  21  22
ENDBRANCH  20  21
ENDBRANCH  19  20
ENDBRANCH  18  19
ENDBRANCH   1  18
TORSDOF 28
ENDMDL
MODEL 4
REMARK VINA RESULT:    -3.061      1.833      3.553
REMARK INTER + INTRA:         -12.455
REMARK INTER:                  -6.818
REMARK INTRA:                  -5.637
REMARK UNBOUND:                -4.382
REMARK SMILES CCCCCCCCCCCCCCCCCCCCCCCCCCCCCC(=O)[O-]
REMARK SMILES IDX 16 1 17 2 18 3 19 4 20 5 21 6 22 7 23 8 24 9 25 10 26 11
REMARK SMILES IDX 27 12 28 13 29 14 30 15 31 16 32 17 15 18 14 19 13 20 12 21
REMARK SMILES IDX 11 22 10 23 9 24 8 25 7 26 6 27 5 28 4 29 3 30 2 31 1 32
REMARK H PARENT
REMARK Flexibility Score: inf
ROOT
ATOM      1  C   UNL     1       8.044  -1.456  -2.128  1.00  0.00     0.000 C 
ENDROOT
BRANCH   1   2
ATOM      2  C   UNL     1       7.188  -0.248  -2.547  1.00  0.00     0.000 C 
BRANCH   2   3
ATOM      3  C   UNL     1       7.588   1.056  -1.824  1.00  0.00     0.000 C 
BRANCH   3   4
ATOM      4  C   UNL     1       7.419   2.352  -2.650  1.00  0.00     0.000 C 
BRANCH   4   5
ATOM      5  C   UNL     1       6.154   2.390  -3.530  1.00  0.00     0.000 C 
BRANCH   5   6
ATOM      6  C   UNL     1       6.483   2.564  -5.022  1.00  0.00     0.000 C 
BRANCH   6   7
ATOM      7  C   UNL     1       7.866   1.995  -5.386  1.00  0.00     0.000 C 
BRANCH   7   8
ATOM      8  C   UNL     1       7.852   0.846  -6.420  1.00  0.00     0.000 C 
BRANCH   8   9
ATOM      9  C   UNL     1       7.000  -0.386  -6.037  1.00  0.00     0.000 C 
BRANCH   9  10
ATOM     10  C   UNL     1       6.065  -0.886  -7.156  1.00  0.00     0.000 C 
BRANCH  10  11
ATOM     11  C   UNL     1       4.580  -0.788  -6.766  1.00  0.00     0.000 C 
BRANCH  11  12
ATOM     12  C   UNL     1       4.390  -0.617  -5.243  1.00  0.00     0.000 C 
BRANCH  12  13
ATOM     13  C   UNL     1       3.338   0.444  -4.872  1.00  0.00     0.006 C 
BRANCH  13  14
ATOM     14  C   UNL     1       2.013   0.261  -5.625  1.00  0.00     0.053 C 
BRANCH  14  15
ATOM     15  C   UNL     1       0.890   0.038  -4.664  1.00  0.00     0.041 C 
ATOM     16  O   UNL     1       0.982   0.448  -3.476  1.00  0.00    -0.550 OA
ATOM     17  O   UNL     1      -0.277  -0.584  -5.089  1.00  0.00    -0.550 OA
ENDBRANCH  14  15
ENDBRANCH  13  14
ENDBRANCH  12  13
ENDBRANCH  11  12
ENDBRANCH  10  11
ENDBRANCH   9  10
ENDBRANCH   8   9
ENDBRANCH   7   8
ENDBRANCH   6   7
ENDBRANCH   5   6
ENDBRANCH   4   5
ENDBRANCH   3   4
ENDBRANCH   2   3
ENDBRANCH   1   2
BRANCH   1  18
ATOM     18  C   UNL     1       8.294  -2.446  -3.280  1.00  0.00     0.000 C 
BRANCH  18  19
ATOM     19  C   UNL     1       7.497  -3.762  -3.203  1.00  0.00     0.000 C 
BRANCH  19  20
ATOM     20  C   UNL     1       7.177  -4.414  -4.563  1.00  0.00     0.000 C 
BRANCH  20  21
ATOM     21  C   UNL     1       5.781  -4.089  -5.129  1.00  0.00     0.000 C 
BRANCH  21  22
ATOM     22  C   UNL     1       5.340  -4.965  -6.320  1.00  0.00     0.000 C 
BRANCH  22  23
ATOM     23  C   UNL     1       4.384  -4.282  -7.319  1.00  0.00     0.000 C 
BRANCH  23  24
ATOM     24  C   UNL     1       2.889  -4.560  -7.079  1.00  0.00    -0.000 C 
BRANCH  24  25
ATOM     25  C   UNL     1       2.152  -3.359  -6.465  1.00  0.00    -0.000 C 
BRANCH  25  26
ATOM     26  C   UNL     1       1.390  -3.767  -5.194  1.00  0.00    -0.000 C 
BRANCH  26  27
ATOM     27  C   UNL     1       2.179  -4.756  -4.317  1.00  0.00    -0.000 C 
BRANCH  27  28
ATOM     28  C   UNL     1       1.558  -6.163  -4.207  1.00  0.00    -0.000 C 
BRANCH  28  29
ATOM     29  C   UNL     1       2.543  -7.280  -3.808  1.00  0.00    -0.000 C 
BRANCH  29  30
ATOM     30  C   UNL     1       3.921  -6.787  -3.331  1.00  0.00    -0.000 C 
BRANCH  30  31
ATOM     31  C   UNL     1       5.065  -7.723  -3.750  1.00  0.00    -0.003 C 
ATOM     32  C   UNL     1       6.295  -7.517  -2.870  1.00  0.00     0.004 C 
ENDBRANCH  30  31
ENDBRANCH  29  30
ENDBRANCH  28  29
ENDBRANCH  27  28
ENDBRANCH  26  27
ENDBRANCH  25  26
ENDBRANCH  24  25
ENDBRANCH  23  24
ENDBRANCH  22  23
ENDBRANCH  21  22
ENDBRANCH  20  21
ENDBRANCH  19  20
ENDBRANCH  18  19
ENDBRANCH   1  18
TORSDOF 28
ENDMDL
MODEL 5
REMARK VINA RESULT:    -3.046      1.885      3.949
REMARK INTER + INTRA:         -12.415
REMARK INTER:                  -8.365
REMARK INTRA:                  -4.050
REMARK UNBOUND:                -4.382
REMARK SMILES CCCCCCCCCCCCCCCCCCCCCCCCCCCCCC(=O)[O-]
REMARK SMILES IDX 16 1 17 2 18 3 19 4 20 5 21 6 22 7 23 8 24 9 25 10 26 11
REMARK SMILES IDX 27 12 28 13 29 14 30 15 31 16 32 17 15 18 14 19 13 20 12 21
REMARK SMILES IDX 11 22 10 23 9 24 8 25 7 26 6 27 5 28 4 29 3 30 2 31 1 32
REMARK H PARENT
REMARK Flexibility Score: inf
ROOT
ATOM      1  C   UNL     1       7.819   0.808  -1.823  1.00  0.00     0.000 C 
ENDROOT
BRANCH   1   2
ATOM      2  C   UNL     1       7.278   2.228  -2.069  1.00  0.00     0.000 C 
BRANCH   2   3
ATOM      3  C   UNL     1       6.614   2.389  -3.454  1.00  0.00     0.000 C 
BRANCH   3   4
ATOM      4  C   UNL     1       5.230   3.079  -3.450  1.00  0.00     0.000 C 
BRANCH   4   5
ATOM      5  C   UNL     1       4.164   2.378  -4.315  1.00  0.00     0.000 C 
BRANCH   5   6
ATOM      6  C   UNL     1       4.768   1.302  -5.234  1.00  0.00     0.000 C 
BRANCH   6   7
ATOM      7  C   UNL     1       4.178  -0.093  -4.966  1.00  0.00     0.000 C 
BRANCH   7   8
ATOM      8  C   UNL     1       2.764  -0.329  -5.541  1.00  0.00     0.000 C 
BRANCH   8   9
ATOM      9  C   UNL     1       1.689  -0.758  -4.516  1.00  0.00     0.000 C 
BRANCH   9  10
ATOM     10  C   UNL     1       0.454   0.164  -4.465  1.00  0.00     0.000 C 
BRANCH  10  11
ATOM     11  C   UNL     1       0.667   1.375  -3.539  1.00  0.00     0.000 C 
BRANCH  11  12
ATOM     12  C   UNL     1      -0.658   1.876  -2.924  1.00  0.00     0.000 C 
BRANCH  12  13
ATOM     13  C   UNL     1      -0.464   2.692  -1.634  1.00  0.00     0.006 C 
BRANCH  13  14
ATOM     14  C   UNL     1       1.008   2.812  -1.217  1.00  0.00     0.053 C 
BRANCH  14  15
ATOM     15  C   UNL     1       1.449   4.240  -1.253  1.00  0.00     0.041 C 
ATOM     16  O   UNL     1       2.153   4.662  -2.209  1.00  0.00    -0.550 OA
ATOM     17  O   UNL     1       1.047   5.118  -0.255  1.00  0.00    -0.550 OA
ENDBRANCH  14  15
ENDBRANCH  13  14
ENDBRANCH  12  13
ENDBRANCH  11  12
ENDBRANCH  10  11
ENDBRANCH   9  10
ENDBRANCH   8   9
ENDBRANCH   7   8
ENDBRANCH   6   7
ENDBRANCH   5   6
ENDBRANCH   4   5
ENDBRANCH   3   4
ENDBRANCH   2   3
ENDBRANCH   1   2
BRANCH   1  18
ATOM     18  C   UNL     1       7.202  -0.243  -2.763  1.00  0.00     0.000 C 
BRANCH  18  19
ATOM     19  C   UNL     1       7.646  -1.697  -2.509  1.00  0.00     0.000 C 
BRANCH  19  20
ATOM     20  C   UNL     1       7.475  -2.652  -3.707  1.00  0.00     0.000 C 
BRANCH  20  21
ATOM     21  C   UNL     1       7.491  -4.152  -3.350  1.00  0.00     0.000 C 
BRANCH  21  22
ATOM     22  C   UNL     1       6.290  -4.961  -3.883  1.00  0.00     0.000 C 
BRANCH  22  23
ATOM     23  C   UNL     1       6.360  -5.332  -5.379  1.00  0.00     0.000 C 
BRANCH  23  24
ATOM     24  C   UNL     1       5.486  -4.463  -6.302  1.00  0.00    -0.000 C 
BRANCH  24  25
ATOM     25  C   UNL     1       4.418  -3.668  -5.536  1.00  0.00    -0.000 C 
BRANCH  25  26
ATOM     26  C   UNL     1       3.012  -4.228  -5.805  1.00  0.00    -0.000 C 
BRANCH  26  27
ATOM     27  C   UNL     1       2.215  -4.485  -4.514  1.00  0.00    -0.000 C 
BRANCH  27  28
ATOM     28  C   UNL     1       2.327  -5.917  -3.956  1.00  0.00    -0.000 C 
BRANCH  28  29
ATOM     29  C   UNL     1       2.955  -6.944  -4.919  1.00  0.00    -0.000 C 
BRANCH  29  30
ATOM     30  C   UNL     1       3.806  -8.032  -4.240  1.00  0.00    -0.000 C 
BRANCH  30  31
ATOM     31  C   UNL     1       4.394  -7.574  -2.896  1.00  0.00    -0.003 C 
ATOM     32  C   UNL     1       5.363  -8.613  -2.337  1.00  0.00     0.004 C 
ENDBRANCH  30  31
ENDBRANCH  29  30
ENDBRANCH  28  29
ENDBRANCH  27  28
ENDBRANCH  26  27
ENDBRANCH  25  26
ENDBRANCH  24  25
ENDBRANCH  23  24
ENDBRANCH  22  23
ENDBRANCH  21  22
ENDBRANCH  20  21
ENDBRANCH  19  20
ENDBRANCH  18  19
ENDBRANCH   1  18
TORSDOF 28
ENDMDL
MODEL 6
REMARK VINA RESULT:    -3.020      4.259      7.249
REMARK INTER + INTRA:         -12.346
REMARK INTER:                  -7.173
REMARK INTRA:                  -5.173
REMARK UNBOUND:                -4.382
REMARK SMILES CCCCCCCCCCCCCCCCCCCCCCCCCCCCCC(=O)[O-]
REMARK SMILES IDX 16 1 17 2 18 3 19 4 20 5 21 6 22 7 23 8 24 9 25 10 26 11
REMARK SMILES IDX 27 12 28 13 29 14 30 15 31 16 32 17 15 18 14 19 13 20 12 21
REMARK SMILES IDX 11 22 10 23 9 24 8 25 7 26 6 27 5 28 4 29 3 30 2 31 1 32
REMARK H PARENT
REMARK Flexibility Score: inf
ROOT
ATOM      1  C   UNL     1       8.789   0.366  -2.607  1.00  0.00     0.000 C 
ENDROOT
BRANCH   1   2
ATOM      2  C   UNL     1       9.237  -1.092  -2.403  1.00  0.00     0.000 C 
BRANCH   2   3
ATOM      3  C   UNL     1       8.089  -2.018  -1.946  1.00  0.00     0.000 C 
BRANCH   3   4
ATOM      4  C   UNL     1       8.480  -3.495  -1.710  1.00  0.00     0.000 C 
BRANCH   4   5
ATOM      5  C   UNL     1       9.979  -3.723  -1.432  1.00  0.00     0.000 C 
BRANCH   5   6
ATOM      6  C   UNL     1      10.240  -4.213   0.003  1.00  0.00     0.000 C 
BRANCH   6   7
ATOM      7  C   UNL     1       8.951  -4.664   0.710  1.00  0.00     0.000 C 
BRANCH   7   8
ATOM      8  C   UNL     1       8.484  -3.755   1.869  1.00  0.00     0.000 C 
BRANCH   8   9
ATOM      9  C   UNL     1       9.406  -2.556   2.190  1.00  0.00     0.000 C 
BRANCH   9  10
ATOM     10  C   UNL     1       8.804  -1.180   1.842  1.00  0.00     0.000 C 
BRANCH  10  11
ATOM     11  C   UNL     1       9.761  -0.320   0.997  1.00  0.00     0.000 C 
BRANCH  11  12
ATOM     12  C   UNL     1       9.748   1.161   1.432  1.00  0.00     0.000 C 
BRANCH  12  13
ATOM     13  C   UNL     1       8.360   1.818   1.328  1.00  0.00     0.006 C 
BRANCH  13  14
ATOM     14  C   UNL     1       7.792   2.234   2.692  1.00  0.00     0.053 C 
BRANCH  14  15
ATOM     15  C   UNL     1       7.311   3.650   2.650  1.00  0.00     0.041 C 
ATOM     16  O   UNL     1       7.324   4.291   1.566  1.00  0.00    -0.550 OA
ATOM     17  O   UNL     1       6.808   4.248   3.798  1.00  0.00    -0.550 OA
ENDBRANCH  14  15
ENDBRANCH  13  14
ENDBRANCH  12  13
ENDBRANCH  11  12
ENDBRANCH  10  11
ENDBRANCH   9  10
ENDBRANCH   8   9
ENDBRANCH   7   8
ENDBRANCH   6   7
ENDBRANCH   5   6
ENDBRANCH   4   5
ENDBRANCH   3   4
ENDBRANCH   2   3
ENDBRANCH   1   2
BRANCH   1  18
ATOM     18  C   UNL     1       7.303   0.592  -2.276  1.00  0.00     0.000 C 
BRANCH  18  19
ATOM     19  C   UNL     1       6.541   1.509  -3.252  1.00  0.00     0.000 C 
BRANCH  19  20
ATOM     20  C   UNL     1       6.248   0.895  -4.635  1.00  0.00     0.000 C 
BRANCH  20  21
ATOM     21  C   UNL     1       5.427  -0.409  -4.608  1.00  0.00     0.000 C 
BRANCH  21  22
ATOM     22  C   UNL     1       6.167  -1.657  -5.133  1.00  0.00     0.000 C 
BRANCH  22  23
ATOM     23  C   UNL     1       7.586  -1.396  -5.681  1.00  0.00     0.000 C 
BRANCH  23  24
ATOM     24  C   UNL     1       8.263  -2.616  -6.330  1.00  0.00    -0.000 C 
BRANCH  24  25
ATOM     25  C   UNL     1       8.835  -3.600  -5.297  1.00  0.00    -0.000 C 
BRANCH  25  26
ATOM     26  C   UNL     1       8.806  -5.041  -5.829  1.00  0.00    -0.000 C 
BRANCH  26  27
ATOM     27  C   UNL     1       7.493  -5.774  -5.497  1.00  0.00    -0.000 C 
BRANCH  27  28
ATOM     28  C   UNL     1       6.729  -5.216  -4.281  1.00  0.00    -0.000 C 
BRANCH  28  29
ATOM     29  C   UNL     1       5.522  -6.060  -3.827  1.00  0.00    -0.000 C 
BRANCH  29  30
ATOM     30  C   UNL     1       4.310  -6.019  -4.775  1.00  0.00    -0.000 C 
BRANCH  30  31
ATOM     31  C   UNL     1       3.838  -4.587  -5.073  1.00  0.00    -0.003 C 
ATOM     32  C   UNL     1       3.973  -4.262  -6.558  1.00  0.00     0.004 C 
ENDBRANCH  30  31
ENDBRANCH  29  30
ENDBRANCH  28  29
ENDBRANCH  27  28
ENDBRANCH  26  27
ENDBRANCH  25  26
ENDBRANCH  24  25
ENDBRANCH  23  24
ENDBRANCH  22  23
ENDBRANCH  21  22
ENDBRANCH  20  21
ENDBRANCH  19  20
ENDBRANCH  18  19
ENDBRANCH   1  18
TORSDOF 28
ENDMDL
MODEL 7
REMARK VINA RESULT:    -3.017      2.476      7.298
REMARK INTER + INTRA:         -12.337
REMARK INTER:                  -6.803
REMARK INTRA:                  -5.534
REMARK UNBOUND:                -4.382
REMARK SMILES CCCCCCCCCCCCCCCCCCCCCCCCCCCCCC(=O)[O-]
REMARK SMILES IDX 16 1 17 2 18 3 19 4 20 5 21 6 22 7 23 8 24 9 25 10 26 11
REMARK SMILES IDX 27 12 28 13 29 14 30 15 31 16 32 17 15 18 14 19 13 20 12 21
REMARK SMILES IDX 11 22 10 23 9 24 8 25 7 26 6 27 5 28 4 29 3 30 2 31 1 32
REMARK H PARENT
REMARK Flexibility Score: inf
ROOT
ATOM      1  C   UNL     1       5.862  -0.272  -4.278  1.00  0.00     0.000 C 
ENDROOT
BRANCH   1   2
ATOM      2  C   UNL     1       5.442  -1.473  -5.144  1.00  0.00     0.000 C 
BRANCH   2   3
ATOM      3  C   UNL     1       6.193  -2.772  -4.780  1.00  0.00     0.000 C 
BRANCH   3   4
ATOM      4  C   UNL     1       6.356  -3.789  -5.932  1.00  0.00     0.000 C 
BRANCH   4   5
ATOM      5  C   UNL     1       6.299  -5.266  -5.494  1.00  0.00     0.000 C 
BRANCH   5   6
ATOM      6  C   UNL     1       6.067  -5.420  -3.981  1.00  0.00     0.000 C 
BRANCH   6   7
ATOM      7  C   UNL     1       5.724  -6.867  -3.587  1.00  0.00     0.000 C 
BRANCH   7   8
ATOM      8  C   UNL     1       4.251  -7.109  -3.188  1.00  0.00     0.000 C 
BRANCH   8   9
ATOM      9  C   UNL     1       3.218  -6.960  -4.329  1.00  0.00     0.000 C 
BRANCH   9  10
ATOM     10  C   UNL     1       1.846  -6.421  -3.879  1.00  0.00     0.000 C 
BRANCH  10  11
ATOM     11  C   UNL     1       1.425  -5.165  -4.663  1.00  0.00     0.000 C 
BRANCH  11  12
ATOM     12  C   UNL     1       2.630  -4.261  -5.002  1.00  0.00     0.000 C 
BRANCH  12  13
ATOM     13  C   UNL     1       2.231  -2.939  -5.681  1.00  0.00     0.006 C 
BRANCH  13  14
ATOM     14  C   UNL     1       1.692  -1.897  -4.691  1.00  0.00     0.053 C 
BRANCH  14  15
ATOM     15  C   UNL     1       1.664  -0.541  -5.321  1.00  0.00     0.041 C 
ATOM     16  O   UNL     1       1.030   0.399  -4.771  1.00  0.00    -0.550 OA
ATOM     17  O   UNL     1       2.371  -0.303  -6.492  1.00  0.00    -0.550 OA
ENDBRANCH  14  15
ENDBRANCH  13  14
ENDBRANCH  12  13
ENDBRANCH  11  12
ENDBRANCH  10  11
ENDBRANCH   9  10
ENDBRANCH   8   9
ENDBRANCH   7   8
ENDBRANCH   6   7
ENDBRANCH   5   6
ENDBRANCH   4   5
ENDBRANCH   3   4
ENDBRANCH   2   3
ENDBRANCH   1   2
BRANCH   1  18
ATOM     18  C   UNL     1       6.879  -0.644  -3.184  1.00  0.00     0.000 C 
BRANCH  18  19
ATOM     19  C   UNL     1       7.349   0.523  -2.295  1.00  0.00     0.000 C 
BRANCH  19  20
ATOM     20  C   UNL     1       8.864   0.561  -2.009  1.00  0.00     0.000 C 
BRANCH  20  21
ATOM     21  C   UNL     1       9.251   0.388  -0.527  1.00  0.00     0.000 C 
BRANCH  21  22
ATOM     22  C   UNL     1       8.917  -0.992   0.077  1.00  0.00     0.000 C 
BRANCH  22  23
ATOM     23  C   UNL     1       9.627  -2.189  -0.588  1.00  0.00     0.000 C 
BRANCH  23  24
ATOM     24  C   UNL     1       8.745  -3.435  -0.789  1.00  0.00    -0.000 C 
BRANCH  24  25
ATOM     25  C   UNL     1       8.715  -3.912  -2.249  1.00  0.00    -0.000 C 
BRANCH  25  26
ATOM     26  C   UNL     1       9.690  -3.101  -3.118  1.00  0.00    -0.000 C 
BRANCH  26  27
ATOM     27  C   UNL     1       9.758  -3.606  -4.570  1.00  0.00    -0.000 C 
BRANCH  27  28
ATOM     28  C   UNL     1      10.157  -2.539  -5.609  1.00  0.00    -0.000 C 
BRANCH  28  29
ATOM     29  C   UNL     1       9.606  -1.125  -5.335  1.00  0.00    -0.000 C 
BRANCH  29  30
ATOM     30  C   UNL     1       9.604  -0.185  -6.554  1.00  0.00    -0.000 C 
BRANCH  30  31
ATOM     31  C   UNL     1       8.203   0.002  -7.158  1.00  0.00    -0.003 C 
ATOM     32  C   UNL     1       7.832  -1.173  -8.059  1.00  0.00     0.004 C 
ENDBRANCH  30  31
ENDBRANCH  29  30
ENDBRANCH  28  29
ENDBRANCH  27  28
ENDBRANCH  26  27
ENDBRANCH  25  26
ENDBRANCH  24  25
ENDBRANCH  23  24
ENDBRANCH  22  23
ENDBRANCH  21  22
ENDBRANCH  20  21
ENDBRANCH  19  20
ENDBRANCH  18  19
ENDBRANCH   1  18
TORSDOF 28
ENDMDL
MODEL 8
REMARK VINA RESULT:    -3.000      2.461      6.256
REMARK INTER + INTRA:         -12.293
REMARK INTER:                  -7.851
REMARK INTRA:                  -4.441
REMARK UNBOUND:                -4.382
REMARK SMILES CCCCCCCCCCCCCCCCCCCCCCCCCCCCCC(=O)[O-]
REMARK SMILES IDX 16 1 17 2 18 3 19 4 20 5 21 6 22 7 23 8 24 9 25 10 26 11
REMARK SMILES IDX 27 12 28 13 29 14 30 15 31 16 32 17 15 18 14 19 13 20 12 21
REMARK SMILES IDX 11 22 10 23 9 24 8 25 7 26 6 27 5 28 4 29 3 30 2 31 1 32
REMARK H PARENT
REMARK Flexibility Score: inf
ROOT
ATOM      1  C   UNL     1       7.672  -3.178  -2.759  1.00  0.00     0.000 C 
ENDROOT
BRANCH   1   2
ATOM      2  C   UNL     1       7.838  -4.289  -3.810  1.00  0.00     0.000 C 
BRANCH   2   3
ATOM      3  C   UNL     1       6.518  -5.025  -4.126  1.00  0.00     0.000 C 
BRANCH   3   4
ATOM      4  C   UNL     1       5.458  -4.192  -4.881  1.00  0.00     0.000 C 
BRANCH   4   5
ATOM      5  C   UNL     1       5.916  -3.667  -6.255  1.00  0.00     0.000 C 
BRANCH   5   6
ATOM      6  C   UNL     1       5.180  -2.380  -6.666  1.00  0.00     0.000 C 
BRANCH   6   7
ATOM      7  C   UNL     1       5.285  -1.280  -5.596  1.00  0.00     0.000 C 
BRANCH   7   8
ATOM      8  C   UNL     1       3.942  -0.641  -5.176  1.00  0.00     0.000 C 
BRANCH   8   9
ATOM      9  C   UNL     1       2.903  -0.468  -6.308  1.00  0.00     0.000 C 
BRANCH   9  10
ATOM     10  C   UNL     1       1.729  -1.466  -6.251  1.00  0.00     0.000 C 
BRANCH  10  11
ATOM     11  C   UNL     1       1.752  -2.323  -4.972  1.00  0.00     0.000 C 
BRANCH  11  12
ATOM     12  C   UNL     1       1.009  -3.663  -5.158  1.00  0.00     0.000 C 
BRANCH  12  13
ATOM     13  C   UNL     1       1.952  -4.868  -5.331  1.00  0.00     0.006 C 
BRANCH  13  14
ATOM     14  C   UNL     1       2.178  -5.642  -4.026  1.00  0.00     0.053 C 
BRANCH  14  15
ATOM     15  C   UNL     1       1.469  -6.958  -4.067  1.00  0.00     0.041 C 
ATOM     16  O   UNL     1       1.885  -7.878  -4.822  1.00  0.00    -0.550 OA
ATOM     17  O   UNL     1       0.376  -7.186  -3.242  1.00  0.00    -0.550 OA
ENDBRANCH  14  15
ENDBRANCH  13  14
ENDBRANCH  12  13
ENDBRANCH  11  12
ENDBRANCH  10  11
ENDBRANCH   9  10
ENDBRANCH   8   9
ENDBRANCH   7   8
ENDBRANCH   6   7
ENDBRANCH   5   6
ENDBRANCH   4   5
ENDBRANCH   3   4
ENDBRANCH   2   3
ENDBRANCH   1   2
BRANCH   1  18
ATOM     18  C   UNL     1       8.090  -1.791  -3.278  1.00  0.00     0.000 C 
BRANCH  18  19
ATOM     19  C   UNL     1       7.668  -0.601  -2.393  1.00  0.00     0.000 C 
BRANCH  19  20
ATOM     20  C   UNL     1       6.922   0.530  -3.129  1.00  0.00     0.000 C 
BRANCH  20  21
ATOM     21  C   UNL     1       6.974   1.905  -2.433  1.00  0.00     0.000 C 
BRANCH  21  22
ATOM     22  C   UNL     1       6.512   3.093  -3.302  1.00  0.00     0.000 C 
BRANCH  22  23
ATOM     23  C   UNL     1       5.310   2.803  -4.225  1.00  0.00     0.000 C 
BRANCH  23  24
ATOM     24  C   UNL     1       3.932   3.097  -3.605  1.00  0.00    -0.000 C 
BRANCH  24  25
ATOM     25  C   UNL     1       3.939   4.339  -2.700  1.00  0.00    -0.000 C 
BRANCH  25  26
ATOM     26  C   UNL     1       2.649   4.427  -1.870  1.00  0.00    -0.000 C 
BRANCH  26  27
ATOM     27  C   UNL     1       1.508   3.568  -2.446  1.00  0.00    -0.000 C 
BRANCH  27  28
ATOM     28  C   UNL     1       0.872   2.581  -1.448  1.00  0.00    -0.000 C 
BRANCH  28  29
ATOM     29  C   UNL     1       0.068   1.433  -2.090  1.00  0.00    -0.000 C 
BRANCH  29  30
ATOM     30  C   UNL     1       0.619   0.933  -3.437  1.00  0.00    -0.000 C 
BRANCH  30  31
ATOM     31  C   UNL     1      -0.406   1.045  -4.577  1.00  0.00    -0.003 C 
ATOM     32  C   UNL     1       0.127   1.918  -5.710  1.00  0.00     0.004 C 
ENDBRANCH  30  31
ENDBRANCH  29  30
ENDBRANCH  28  29
ENDBRANCH  27  28
ENDBRANCH  26  27
ENDBRANCH  25  26
ENDBRANCH  24  25
ENDBRANCH  23  24
ENDBRANCH  22  23
ENDBRANCH  21  22
ENDBRANCH  20  21
ENDBRANCH  19  20
ENDBRANCH  18  19
ENDBRANCH   1  18
TORSDOF 28
ENDMDL
MODEL 9
REMARK VINA RESULT:    -2.971      4.265      7.873
REMARK INTER + INTRA:         -12.217
REMARK INTER:                  -6.883
REMARK INTRA:                  -5.334
REMARK UNBOUND:                -4.382
REMARK SMILES CCCCCCCCCCCCCCCCCCCCCCCCCCCCCC(=O)[O-]
REMARK SMILES IDX 16 1 17 2 18 3 19 4 20 5 21 6 22 7 23 8 24 9 25 10 26 11
REMARK SMILES IDX 27 12 28 13 29 14 30 15 31 16 32 17 15 18 14 19 13 20 12 21
REMARK SMILES IDX 11 22 10 23 9 24 8 25 7 26 6 27 5 28 4 29 3 30 2 31 1 32
REMARK H PARENT
REMARK Flexibility Score: inf
ROOT
ATOM      1  C   UNL     1       7.605   0.012  -2.147  1.00  0.00     0.000 C 
ENDROOT
BRANCH   1   2
ATOM      2  C   UNL     1       7.215  -1.147  -3.082  1.00  0.00     0.000 C 
BRANCH   2   3
ATOM      3  C   UNL     1       7.653  -0.916  -4.544  1.00  0.00     0.000 C 
BRANCH   3   4
ATOM      4  C   UNL     1       6.629  -1.345  -5.620  1.00  0.00     0.000 C 
BRANCH   4   5
ATOM      5  C   UNL     1       5.348  -1.994  -5.060  1.00  0.00     0.000 C 
BRANCH   5   6
ATOM      6  C   UNL     1       4.096  -1.139  -5.322  1.00  0.00     0.000 C 
BRANCH   6   7
ATOM      7  C   UNL     1       2.984  -1.933  -6.031  1.00  0.00     0.000 C 
BRANCH   7   8
ATOM      8  C   UNL     1       1.905  -2.529  -5.098  1.00  0.00     0.000 C 
BRANCH   8   9
ATOM      9  C   UNL     1       2.147  -3.987  -4.645  1.00  0.00     0.000 C 
BRANCH   9  10
ATOM     10  C   UNL     1       2.370  -4.983  -5.800  1.00  0.00     0.000 C 
BRANCH  10  11
ATOM     11  C   UNL     1       3.776  -5.609  -5.770  1.00  0.00     0.000 C 
BRANCH  11  12
ATOM     12  C   UNL     1       4.444  -5.469  -4.384  1.00  0.00     0.000 C 
BRANCH  12  13
ATOM     13  C   UNL     1       4.277  -6.714  -3.495  1.00  0.00     0.006 C 
BRANCH  13  14
ATOM     14  C   UNL     1       4.784  -7.999  -4.164  1.00  0.00     0.053 C 
BRANCH  14  15
ATOM     15  C   UNL     1       5.065  -9.049  -3.137  1.00  0.00     0.041 C 
ATOM     16  O   UNL     1       5.374 -10.218  -3.494  1.00  0.00    -0.550 OA
ATOM     17  O   UNL     1       5.028  -8.729  -1.787  1.00  0.00    -0.550 OA
ENDBRANCH  14  15
ENDBRANCH  13  14
ENDBRANCH  12  13
ENDBRANCH  11  12
ENDBRANCH  10  11
ENDBRANCH   9  10
ENDBRANCH   8   9
ENDBRANCH   7   8
ENDBRANCH   6   7
ENDBRANCH   5   6
ENDBRANCH   4   5
ENDBRANCH   3   4
ENDBRANCH   2   3
ENDBRANCH   1   2
BRANCH   1  18
ATOM     18  C   UNL     1       8.586  -0.413  -1.039  1.00  0.00     0.000 C 
BRANCH  18  19
ATOM     19  C   UNL     1       8.742  -1.933  -0.844  1.00  0.00     0.000 C 
BRANCH  19  20
ATOM     20  C   UNL     1      10.150  -2.490  -1.133  1.00  0.00     0.000 C 
BRANCH  20  21
ATOM     21  C   UNL     1      10.902  -1.793  -2.285  1.00  0.00     0.000 C 
BRANCH  21  22
ATOM     22  C   UNL     1      10.838  -2.526  -3.642  1.00  0.00     0.000 C 
BRANCH  22  23
ATOM     23  C   UNL     1      10.411  -4.006  -3.569  1.00  0.00     0.000 C 
BRANCH  23  24
ATOM     24  C   UNL     1       9.529  -4.484  -4.737  1.00  0.00    -0.000 C 
BRANCH  24  25
ATOM     25  C   UNL     1       8.039  -4.548  -4.369  1.00  0.00    -0.000 C 
BRANCH  25  26
ATOM     26  C   UNL     1       7.848  -4.947  -2.897  1.00  0.00    -0.000 C 
BRANCH  26  27
ATOM     27  C   UNL     1       7.840  -6.472  -2.688  1.00  0.00    -0.000 C 
BRANCH  27  28
ATOM     28  C   UNL     1       8.329  -6.939  -1.303  1.00  0.00    -0.000 C 
BRANCH  28  29
ATOM     29  C   UNL     1       9.125  -5.888  -0.505  1.00  0.00    -0.000 C 
BRANCH  29  30
ATOM     30  C   UNL     1       9.525  -6.322   0.916  1.00  0.00    -0.000 C 
BRANCH  30  31
ATOM     31  C   UNL     1       8.488  -5.917   1.976  1.00  0.00    -0.003 C 
ATOM     32  C   UNL     1       8.266  -4.407   1.980  1.00  0.00     0.004 C 
ENDBRANCH  30  31
ENDBRANCH  29  30
ENDBRANCH  28  29
ENDBRANCH  27  28
ENDBRANCH  26  27
ENDBRANCH  25  26
ENDBRANCH  24  25
ENDBRANCH  23  24
ENDBRANCH  22  23
ENDBRANCH  21  22
ENDBRANCH  20  21
ENDBRANCH  19  20
ENDBRANCH  18  19
ENDBRANCH   1  18
TORSDOF 28
ENDMDL
