MODEL 1
REMARK VINA RESULT:    -3.735      0.000      0.000
REMARK INTER + INTRA:         -14.831
REMARK INTER:                  -9.413
REMARK INTRA:                  -5.418
REMARK UNBOUND:                -5.418
REMARK SMILES CCCCCCCCCCCCCCCCCCCCCCCCCCCC(=O)[O-]
REMARK SMILES IDX 15 1 16 2 17 3 18 4 19 5 20 6 21 7 22 8 23 9 24 10 25 11
REMARK SMILES IDX 26 12 27 13 28 14 29 15 30 16 14 17 13 18 12 19 11 20 10 21
REMARK SMILES IDX 9 22 8 23 7 24 6 25 5 26 4 27 3 28 2 29 1 30
REMARK H PARENT
REMARK Flexibility Score: inf
ROOT
ATOM      1  C   UNL     1      74.996 -74.453  -3.645  1.00  0.00     0.000 C 
ENDROOT
BRANCH   1   2
ATOM      2  C   UNL     1      73.969 -73.307  -3.735  1.00  0.00     0.000 C 
BRANCH   2   3
ATOM      3  C   UNL     1      73.377 -72.850  -2.386  1.00  0.00     0.000 C 
BRANCH   3   4
ATOM      4  C   UNL     1      74.206 -71.794  -1.633  1.00  0.00     0.000 C 
BRANCH   4   5
ATOM      5  C   UNL     1      73.528 -71.315  -0.338  1.00  0.00     0.000 C 
BRANCH   5   6
ATOM      6  C   UNL     1      72.011 -71.568  -0.341  1.00  0.00     0.000 C 
BRANCH   6   7
ATOM      7  C   UNL     1      71.452 -71.842   1.066  1.00  0.00     0.000 C 
BRANCH   7   8
ATOM      8  C   UNL     1      71.181 -73.334   1.313  1.00  0.00     0.000 C 
BRANCH   8   9
ATOM      9  C   UNL     1      70.833 -74.095   0.021  1.00  0.00     0.000 C 
BRANCH   9  10
ATOM     10  C   UNL     1      71.604 -75.426  -0.098  1.00  0.00     0.000 C 
BRANCH  10  11
ATOM     11  C   UNL     1      72.961 -75.424   0.627  1.00  0.00     0.000 C 
BRANCH  11  12
ATOM     12  C   UNL     1      73.129 -76.610   1.588  1.00  0.00     0.006 C 
BRANCH  12  13
ATOM     13  C   UNL     1      72.748 -76.214   3.020  1.00  0.00     0.053 C 
BRANCH  13  14
ATOM     14  C   UNL     1      73.170 -77.262   4.004  1.00  0.00     0.041 C 
ATOM     15  O   UNL     1      72.621 -78.397   4.004  1.00  0.00    -0.550 OA
ATOM     16  O   UNL     1      74.201 -76.999   4.899  1.00  0.00    -0.550 OA
ENDBRANCH  13  14
ENDBRANCH  12  13
ENDBRANCH  11  12
ENDBRANCH  10  11
ENDBRANCH   9  10
ENDBRANCH   8   9
ENDBRANCH   7   8
ENDBRANCH   6   7
ENDBRANCH   5   6
ENDBRANCH   4   5
ENDBRANCH   3   4
ENDBRANCH   2   3
ENDBRANCH   1   2
BRANCH   1  17
ATOM     17  C   UNL     1      76.467 -74.004  -3.686  1.00  0.00     0.000 C 
BRANCH  17  18
ATOM     18  C   UNL     1      77.102 -73.922  -2.287  1.00  0.00     0.000 C 
BRANCH  18  19
ATOM     19  C   UNL     1      76.341 -74.754  -1.239  1.00  0.00     0.000 C 
BRANCH  19  20
ATOM     20  C   UNL     1      77.158 -75.895  -0.608  1.00  0.00     0.000 C 
BRANCH  20  21
ATOM     21  C   UNL     1      78.582 -75.999  -1.183  1.00  0.00     0.000 C 
BRANCH  21  22
ATOM     22  C   UNL     1      78.814 -77.318  -1.948  1.00  0.00    -0.000 C 
BRANCH  22  23
ATOM     23  C   UNL     1      78.333 -77.293  -3.414  1.00  0.00    -0.000 C 
BRANCH  23  24
ATOM     24  C   UNL     1      77.377 -78.444  -3.784  1.00  0.00    -0.000 C 
BRANCH  24  25
ATOM     25  C   UNL     1      75.898 -78.021  -3.727  1.00  0.00    -0.000 C 
BRANCH  25  26
ATOM     26  C   UNL     1      75.221 -78.388  -2.395  1.00  0.00    -0.000 C 
BRANCH  26  27
ATOM     27  C   UNL     1      73.904 -77.645  -2.113  1.00  0.00    -0.000 C 
BRANCH  27  28
ATOM     28  C   UNL     1      72.671 -78.554  -2.217  1.00  0.00    -0.000 C 
BRANCH  28  29
ATOM     29  C   UNL     1      71.524 -77.843  -2.944  1.00  0.00    -0.003 C 
ATOM     30  C   UNL     1      72.020 -76.594  -3.669  1.00  0.00     0.004 C 
ENDBRANCH  28  29
ENDBRANCH  27  28
ENDBRANCH  26  27
ENDBRANCH  25  26
ENDBRANCH  24  25
ENDBRANCH  23  24
ENDBRANCH  22  23
ENDBRANCH  21  22
ENDBRANCH  20  21
ENDBRANCH  19  20
ENDBRANCH  18  19
ENDBRANCH  17  18
ENDBRANCH   1  17
TORSDOF 26
ENDMDL
MODEL 2
REMARK VINA RESULT:    -3.700      1.290      6.266
REMARK INTER + INTRA:         -14.741
REMARK INTER:                  -9.870
REMARK INTRA:                  -4.871
REMARK UNBOUND:                -5.418
REMARK SMILES CCCCCCCCCCCCCCCCCCCCCCCCCCCC(=O)[O-]
REMARK SMILES IDX 15 1 16 2 17 3 18 4 19 5 20 6 21 7 22 8 23 9 24 10 25 11
REMARK SMILES IDX 26 12 27 13 28 14 29 15 30 16 14 17 13 18 12 19 11 20 10 21
REMARK SMILES IDX 9 22 8 23 7 24 6 25 5 26 4 27 3 28 2 29 1 30
REMARK H PARENT
REMARK Flexibility Score: inf
ROOT
ATOM      1  C   UNL     1      77.528 -74.287  -2.514  1.00  0.00     0.000 C 
ENDROOT
BRANCH   1   2
ATOM      2  C   UNL     1      76.668 -74.654  -1.288  1.00  0.00     0.000 C 
BRANCH   2   3
ATOM      3  C   UNL     1      77.122 -75.911  -0.520  1.00  0.00     0.000 C 
BRANCH   3   4
ATOM      4  C   UNL     1      78.229 -76.731  -1.207  1.00  0.00     0.000 C 
BRANCH   4   5
ATOM      5  C   UNL     1      77.736 -78.101  -1.702  1.00  0.00     0.000 C 
BRANCH   5   6
ATOM      6  C   UNL     1      77.256 -78.060  -3.162  1.00  0.00     0.000 C 
BRANCH   6   7
ATOM      7  C   UNL     1      75.744 -78.317  -3.297  1.00  0.00     0.000 C 
BRANCH   7   8
ATOM      8  C   UNL     1      74.947 -77.026  -3.543  1.00  0.00     0.000 C 
BRANCH   8   9
ATOM      9  C   UNL     1      73.830 -76.811  -2.506  1.00  0.00     0.000 C 
BRANCH   9  10
ATOM     10  C   UNL     1      74.018 -77.696  -1.255  1.00  0.00     0.000 C 
BRANCH  10  11
ATOM     11  C   UNL     1      73.085 -77.326  -0.089  1.00  0.00     0.000 C 
BRANCH  11  12
ATOM     12  C   UNL     1      73.790 -76.516   1.009  1.00  0.00     0.006 C 
BRANCH  12  13
ATOM     13  C   UNL     1      72.836 -76.222   2.173  1.00  0.00     0.053 C 
BRANCH  13  14
ATOM     14  C   UNL     1      73.057 -77.171   3.311  1.00  0.00     0.041 C 
ATOM     15  O   UNL     1      72.290 -78.157   3.478  1.00  0.00    -0.550 OA
ATOM     16  O   UNL     1      74.137 -76.989   4.167  1.00  0.00    -0.550 OA
ENDBRANCH  13  14
ENDBRANCH  12  13
ENDBRANCH  11  12
ENDBRANCH  10  11
ENDBRANCH   9  10
ENDBRANCH   8   9
ENDBRANCH   7   8
ENDBRANCH   6   7
ENDBRANCH   5   6
ENDBRANCH   4   5
ENDBRANCH   3   4
ENDBRANCH   2   3
ENDBRANCH   1   2
BRANCH   1  17
ATOM     17  C   UNL     1      76.924 -73.204  -3.425  1.00  0.00     0.000 C 
BRANCH  17  18
ATOM     18  C   UNL     1      75.605 -73.648  -4.079  1.00  0.00     0.000 C 
BRANCH  18  19
ATOM     19  C   UNL     1      74.422 -72.733  -3.714  1.00  0.00     0.000 C 
BRANCH  19  20
ATOM     20  C   UNL     1      74.729 -71.691  -2.624  1.00  0.00     0.000 C 
BRANCH  20  21
ATOM     21  C   UNL     1      73.993 -71.976  -1.302  1.00  0.00     0.000 C 
BRANCH  21  22
ATOM     22  C   UNL     1      73.532 -73.443  -1.188  1.00  0.00    -0.000 C 
BRANCH  22  23
ATOM     23  C   UNL     1      72.152 -73.623  -0.522  1.00  0.00    -0.000 C 
BRANCH  23  24
ATOM     24  C   UNL     1      71.099 -72.587  -0.963  1.00  0.00    -0.000 C 
BRANCH  24  25
ATOM     25  C   UNL     1      70.435 -71.878   0.231  1.00  0.00    -0.000 C 
BRANCH  25  26
ATOM     26  C   UNL     1      70.973 -72.364   1.589  1.00  0.00    -0.000 C 
BRANCH  26  27
ATOM     27  C   UNL     1      71.182 -71.255   2.635  1.00  0.00    -0.000 C 
BRANCH  27  28
ATOM     28  C   UNL     1      70.901 -69.851   2.080  1.00  0.00    -0.000 C 
BRANCH  28  29
ATOM     29  C   UNL     1      72.168 -68.987   2.105  1.00  0.00    -0.003 C 
ATOM     30  C   UNL     1      73.109 -69.354   0.960  1.00  0.00     0.004 C 
ENDBRANCH  28  29
ENDBRANCH  27  28
ENDBRANCH  26  27
ENDBRANCH  25  26
ENDBRANCH  24  25
ENDBRANCH  23  24
ENDBRANCH  22  23
ENDBRANCH  21  22
ENDBRANCH  20  21
ENDBRANCH  19  20
ENDBRANCH  18  19
ENDBRANCH  17  18
ENDBRANCH   1  17
TORSDOF 26
ENDMDL
MODEL 3
REMARK VINA RESULT:    -3.629      1.288      2.946
REMARK INTER + INTRA:         -14.564
REMARK INTER:                  -9.665
REMARK INTRA:                  -4.898
REMARK UNBOUND:                -5.418
REMARK SMILES CCCCCCCCCCCCCCCCCCCCCCCCCCCC(=O)[O-]
REMARK SMILES IDX 15 1 16 2 17 3 18 4 19 5 20 6 21 7 22 8 23 9 24 10 25 11
REMARK SMILES IDX 26 12 27 13 28 14 29 15 30 16 14 17 13 18 12 19 11 20 10 21
REMARK SMILES IDX 9 22 8 23 7 24 6 25 5 26 4 27 3 28 2 29 1 30
REMARK H PARENT
REMARK Flexibility Score: inf
ROOT
ATOM      1  C   UNL     1      74.269 -72.249  -0.895  1.00  0.00     0.000 C 
ENDROOT
BRANCH   1   2
ATOM      2  C   UNL     1      73.707 -70.959  -0.263  1.00  0.00     0.000 C 
BRANCH   2   3
ATOM      3  C   UNL     1      72.205 -70.999   0.083  1.00  0.00     0.000 C 
BRANCH   3   4
ATOM      4  C   UNL     1      71.682 -72.363   0.569  1.00  0.00     0.000 C 
BRANCH   4   5
ATOM      5  C   UNL     1      70.665 -72.991  -0.398  1.00  0.00     0.000 C 
BRANCH   5   6
ATOM      6  C   UNL     1      71.188 -74.285  -1.044  1.00  0.00     0.000 C 
BRANCH   6   7
ATOM      7  C   UNL     1      71.627 -75.332  -0.005  1.00  0.00     0.000 C 
BRANCH   7   8
ATOM      8  C   UNL     1      73.154 -75.409   0.147  1.00  0.00     0.000 C 
BRANCH   8   9
ATOM      9  C   UNL     1      73.605 -76.595   1.018  1.00  0.00     0.000 C 
BRANCH   9  10
ATOM     10  C   UNL     1      72.718 -77.840   0.813  1.00  0.00     0.000 C 
BRANCH  10  11
ATOM     11  C   UNL     1      72.035 -78.334   2.100  1.00  0.00     0.000 C 
BRANCH  11  12
ATOM     12  C   UNL     1      72.088 -77.307   3.239  1.00  0.00     0.006 C 
BRANCH  12  13
ATOM     13  C   UNL     1      72.983 -77.800   4.383  1.00  0.00     0.053 C 
BRANCH  13  14
ATOM     14  C   UNL     1      72.810 -76.959   5.611  1.00  0.00     0.041 C 
ATOM     15  O   UNL     1      73.743 -76.211   6.010  1.00  0.00    -0.550 OA
ATOM     16  O   UNL     1      71.600 -76.969   6.295  1.00  0.00    -0.550 OA
ENDBRANCH  13  14
ENDBRANCH  12  13
ENDBRANCH  11  12
ENDBRANCH  10  11
ENDBRANCH   9  10
ENDBRANCH   8   9
ENDBRANCH   7   8
ENDBRANCH   6   7
ENDBRANCH   5   6
ENDBRANCH   4   5
ENDBRANCH   3   4
ENDBRANCH   2   3
ENDBRANCH   1   2
BRANCH   1  17
ATOM     17  C   UNL     1      74.026 -72.384  -2.408  1.00  0.00     0.000 C 
BRANCH  17  18
ATOM     18  C   UNL     1      75.257 -71.991  -3.244  1.00  0.00     0.000 C 
BRANCH  18  19
ATOM     19  C   UNL     1      76.057 -73.211  -3.735  1.00  0.00     0.000 C 
BRANCH  19  20
ATOM     20  C   UNL     1      77.507 -73.276  -3.224  1.00  0.00     0.000 C 
BRANCH  20  21
ATOM     21  C   UNL     1      77.792 -74.538  -2.391  1.00  0.00     0.000 C 
BRANCH  21  22
ATOM     22  C   UNL     1      76.771 -74.734  -1.251  1.00  0.00    -0.000 C 
BRANCH  22  23
ATOM     23  C   UNL     1      76.985 -76.019  -0.424  1.00  0.00    -0.000 C 
BRANCH  23  24
ATOM     24  C   UNL     1      77.139 -77.297  -1.272  1.00  0.00    -0.000 C 
BRANCH  24  25
ATOM     25  C   UNL     1      75.782 -77.917  -1.651  1.00  0.00    -0.000 C 
BRANCH  25  26
ATOM     26  C   UNL     1      75.590 -78.054  -3.172  1.00  0.00    -0.000 C 
BRANCH  26  27
ATOM     27  C   UNL     1      75.113 -76.774  -3.880  1.00  0.00    -0.000 C 
BRANCH  27  28
ATOM     28  C   UNL     1      73.893 -76.136  -3.201  1.00  0.00    -0.000 C 
BRANCH  28  29
ATOM     29  C   UNL     1      72.590 -76.602  -3.861  1.00  0.00    -0.003 C 
ATOM     30  C   UNL     1      71.875 -77.640  -3.000  1.00  0.00     0.004 C 
ENDBRANCH  28  29
ENDBRANCH  27  28
ENDBRANCH  26  27
ENDBRANCH  25  26
ENDBRANCH  24  25
ENDBRANCH  23  24
ENDBRANCH  22  23
ENDBRANCH  21  22
ENDBRANCH  20  21
ENDBRANCH  19  20
ENDBRANCH  18  19
ENDBRANCH  17  18
ENDBRANCH   1  17
TORSDOF 26
ENDMDL
MODEL 4
REMARK VINA RESULT:    -3.612      1.467      5.760
REMARK INTER + INTRA:         -14.520
REMARK INTER:                  -8.785
REMARK INTRA:                  -5.735
REMARK UNBOUND:                -5.418
REMARK SMILES CCCCCCCCCCCCCCCCCCCCCCCCCCCC(=O)[O-]
REMARK SMILES IDX 15 1 16 2 17 3 18 4 19 5 20 6 21 7 22 8 23 9 24 10 25 11
REMARK SMILES IDX 26 12 27 13 28 14 29 15 30 16 14 17 13 18 12 19 11 20 10 21
REMARK SMILES IDX 9 22 8 23 7 24 6 25 5 26 4 27 3 28 2 29 1 30
REMARK H PARENT
REMARK Flexibility Score: inf
ROOT
ATOM      1  C   UNL     1      76.969 -75.214  -0.960  1.00  0.00     0.000 C 
ENDROOT
BRANCH   1   2
ATOM      2  C   UNL     1      76.973 -76.630  -0.351  1.00  0.00     0.000 C 
BRANCH   2   3
ATOM      3  C   UNL     1      78.126 -77.542  -0.818  1.00  0.00     0.000 C 
BRANCH   3   4
ATOM      4  C   UNL     1      77.692 -78.783  -1.621  1.00  0.00     0.000 C 
BRANCH   4   5
ATOM      5  C   UNL     1      78.289 -78.815  -3.038  1.00  0.00     0.000 C 
BRANCH   5   6
ATOM      6  C   UNL     1      77.238 -78.535  -4.125  1.00  0.00     0.000 C 
BRANCH   6   7
ATOM      7  C   UNL     1      75.814 -78.409  -3.555  1.00  0.00     0.000 C 
BRANCH   7   8
ATOM      8  C   UNL     1      75.175 -77.045  -3.861  1.00  0.00     0.000 C 
BRANCH   8   9
ATOM      9  C   UNL     1      74.088 -76.657  -2.843  1.00  0.00     0.000 C 
BRANCH   9  10
ATOM     10  C   UNL     1      73.527 -77.883  -2.093  1.00  0.00     0.000 C 
BRANCH  10  11
ATOM     11  C   UNL     1      73.573 -77.747  -0.561  1.00  0.00     0.000 C 
BRANCH  11  12
ATOM     12  C   UNL     1      73.328 -76.310  -0.079  1.00  0.00     0.006 C 
BRANCH  12  13
ATOM     13  C   UNL     1      73.178 -76.261   1.446  1.00  0.00     0.053 C 
BRANCH  13  14
ATOM     14  C   UNL     1      72.014 -77.084   1.906  1.00  0.00     0.041 C 
ATOM     15  O   UNL     1      72.163 -77.958   2.802  1.00  0.00    -0.550 OA
ATOM     16  O   UNL     1      70.750 -76.858   1.373  1.00  0.00    -0.550 OA
ENDBRANCH  13  14
ENDBRANCH  12  13
ENDBRANCH  11  12
ENDBRANCH  10  11
ENDBRANCH   9  10
ENDBRANCH   8   9
ENDBRANCH   7   8
ENDBRANCH   6   7
ENDBRANCH   5   6
ENDBRANCH   4   5
ENDBRANCH   3   4
ENDBRANCH   2   3
ENDBRANCH   1   2
BRANCH   1  17
ATOM     17  C   UNL     1      77.806 -75.061  -2.242  1.00  0.00     0.000 C 
BRANCH  17  18
ATOM     18  C   UNL     1      77.795 -73.624  -2.790  1.00  0.00     0.000 C 
BRANCH  18  19
ATOM     19  C   UNL     1      76.704 -73.401  -3.853  1.00  0.00     0.000 C 
BRANCH  19  20
ATOM     20  C   UNL     1      75.992 -72.039  -3.767  1.00  0.00     0.000 C 
BRANCH  20  21
ATOM     21  C   UNL     1      74.473 -72.170  -3.559  1.00  0.00     0.000 C 
BRANCH  21  22
ATOM     22  C   UNL     1      74.113 -73.230  -2.498  1.00  0.00    -0.000 C 
BRANCH  22  23
ATOM     23  C   UNL     1      74.282 -72.750  -1.041  1.00  0.00    -0.000 C 
BRANCH  23  24
ATOM     24  C   UNL     1      73.626 -71.387  -0.746  1.00  0.00    -0.000 C 
BRANCH  24  25
ATOM     25  C   UNL     1      72.234 -71.531  -0.104  1.00  0.00    -0.000 C 
BRANCH  25  26
ATOM     26  C   UNL     1      71.873 -72.992   0.220  1.00  0.00    -0.000 C 
BRANCH  26  27
ATOM     27  C   UNL     1      70.713 -73.569  -0.608  1.00  0.00    -0.000 C 
BRANCH  27  28
ATOM     28  C   UNL     1      70.320 -72.672  -1.791  1.00  0.00    -0.000 C 
BRANCH  28  29
ATOM     29  C   UNL     1      70.590 -73.375  -3.127  1.00  0.00    -0.003 C 
ATOM     30  C   UNL     1      70.791 -74.876  -2.930  1.00  0.00     0.004 C 
ENDBRANCH  28  29
ENDBRANCH  27  28
ENDBRANCH  26  27
ENDBRANCH  25  26
ENDBRANCH  24  25
ENDBRANCH  23  24
ENDBRANCH  22  23
ENDBRANCH  21  22
ENDBRANCH  20  21
ENDBRANCH  19  20
ENDBRANCH  18  19
ENDBRANCH  17  18
ENDBRANCH   1  17
TORSDOF 26
ENDMDL
MODEL 5
REMARK VINA RESULT:    -3.536      1.427      6.539
REMARK INTER + INTRA:         -14.329
REMARK INTER:                 -10.016
REMARK INTRA:                  -4.313
REMARK UNBOUND:                -5.418
REMARK SMILES CCCCCCCCCCCCCCCCCCCCCCCCCCCC(=O)[O-]
REMARK SMILES IDX 15 1 16 2 17 3 18 4 19 5 20 6 21 7 22 8 23 9 24 10 25 11
REMARK SMILES IDX 26 12 27 13 28 14 29 15 30 16 14 17 13 18 12 19 11 20 10 21
REMARK SMILES IDX 9 22 8 23 7 24 6 25 5 26 4 27 3 28 2 29 1 30
REMARK H PARENT
REMARK Flexibility Score: inf
ROOT
ATOM      1  C   UNL     1      77.018 -76.239  -0.378  1.00  0.00     0.000 C 
ENDROOT
BRANCH   1   2
ATOM      2  C   UNL     1      78.245 -76.888  -1.048  1.00  0.00     0.000 C 
BRANCH   2   3
ATOM      3  C   UNL     1      78.213 -78.428  -1.126  1.00  0.00     0.000 C 
BRANCH   3   4
ATOM      4  C   UNL     1      78.125 -79.008  -2.550  1.00  0.00     0.000 C 
BRANCH   4   5
ATOM      5  C   UNL     1      77.701 -77.962  -3.594  1.00  0.00     0.000 C 
BRANCH   5   6
ATOM      6  C   UNL     1      76.188 -77.979  -3.862  1.00  0.00     0.000 C 
BRANCH   6   7
ATOM      7  C   UNL     1      75.608 -79.404  -3.906  1.00  0.00     0.000 C 
BRANCH   7   8
ATOM      8  C   UNL     1      74.362 -79.561  -3.021  1.00  0.00     0.000 C 
BRANCH   8   9
ATOM      9  C   UNL     1      74.456 -78.753  -1.715  1.00  0.00     0.000 C 
BRANCH   9  10
ATOM     10  C   UNL     1      73.089 -78.184  -1.281  1.00  0.00     0.000 C 
BRANCH  10  11
ATOM     11  C   UNL     1      73.022 -76.647  -1.300  1.00  0.00     0.000 C 
BRANCH  11  12
ATOM     12  C   UNL     1      72.527 -76.053   0.026  1.00  0.00     0.006 C 
BRANCH  12  13
ATOM     13  C   UNL     1      73.580 -76.218   1.129  1.00  0.00     0.053 C 
BRANCH  13  14
ATOM     14  C   UNL     1      73.033 -76.987   2.293  1.00  0.00     0.041 C 
ATOM     15  O   UNL     1      73.408 -76.721   3.467  1.00  0.00    -0.550 OA
ATOM     16  O   UNL     1      72.075 -77.972   2.086  1.00  0.00    -0.550 OA
ENDBRANCH  13  14
ENDBRANCH  12  13
ENDBRANCH  11  12
ENDBRANCH  10  11
ENDBRANCH   9  10
ENDBRANCH   8   9
ENDBRANCH   7   8
ENDBRANCH   6   7
ENDBRANCH   5   6
ENDBRANCH   4   5
ENDBRANCH   3   4
ENDBRANCH   2   3
ENDBRANCH   1   2
BRANCH   1  17
ATOM     17  C   UNL     1      76.370 -75.100  -1.184  1.00  0.00     0.000 C 
BRANCH  17  18
ATOM     18  C   UNL     1      77.344 -74.451  -2.182  1.00  0.00     0.000 C 
BRANCH  18  19
ATOM     19  C   UNL     1      76.652 -73.998  -3.480  1.00  0.00     0.000 C 
BRANCH  19  20
ATOM     20  C   UNL     1      76.662 -72.477  -3.716  1.00  0.00     0.000 C 
BRANCH  20  21
ATOM     21  C   UNL     1      75.257 -71.852  -3.644  1.00  0.00     0.000 C 
BRANCH  21  22
ATOM     22  C   UNL     1      74.144 -72.914  -3.540  1.00  0.00    -0.000 C 
BRANCH  22  23
ATOM     23  C   UNL     1      73.475 -72.997  -2.152  1.00  0.00    -0.000 C 
BRANCH  23  24
ATOM     24  C   UNL     1      74.114 -72.081  -1.088  1.00  0.00    -0.000 C 
BRANCH  24  25
ATOM     25  C   UNL     1      73.067 -71.269  -0.306  1.00  0.00    -0.000 C 
BRANCH  25  26
ATOM     26  C   UNL     1      73.674 -70.062   0.430  1.00  0.00    -0.000 C 
BRANCH  26  27
ATOM     27  C   UNL     1      72.680 -69.265   1.293  1.00  0.00    -0.000 C 
BRANCH  27  28
ATOM     28  C   UNL     1      72.352 -69.960   2.622  1.00  0.00    -0.000 C 
BRANCH  28  29
ATOM     29  C   UNL     1      70.842 -69.953   2.887  1.00  0.00    -0.003 C 
ATOM     30  C   UNL     1      70.053 -70.185   1.601  1.00  0.00     0.004 C 
ENDBRANCH  28  29
ENDBRANCH  27  28
ENDBRANCH  26  27
ENDBRANCH  25  26
ENDBRANCH  24  25
ENDBRANCH  23  24
ENDBRANCH  22  23
ENDBRANCH  21  22
ENDBRANCH  20  21
ENDBRANCH  19  20
ENDBRANCH  18  19
ENDBRANCH  17  18
ENDBRANCH   1  17
TORSDOF 26
ENDMDL
MODEL 6
REMARK VINA RESULT:    -3.532      1.616      2.450
REMARK INTER + INTRA:         -14.319
REMARK INTER:                  -9.403
REMARK INTRA:                  -4.916
REMARK UNBOUND:                -5.418
REMARK SMILES CCCCCCCCCCCCCCCCCCCCCCCCCCCC(=O)[O-]
REMARK SMILES IDX 15 1 16 2 17 3 18 4 19 5 20 6 21 7 22 8 23 9 24 10 25 11
REMARK SMILES IDX 26 12 27 13 28 14 29 15 30 16 14 17 13 18 12 19 11 20 10 21
REMARK SMILES IDX 9 22 8 23 7 24 6 25 5 26 4 27 3 28 2 29 1 30
REMARK H PARENT
REMARK Flexibility Score: inf
ROOT
ATOM      1  C   UNL     1      75.709 -74.082  -0.954  1.00  0.00     0.000 C 
ENDROOT
BRANCH   1   2
ATOM      2  C   UNL     1      74.381 -73.522  -0.406  1.00  0.00     0.000 C 
BRANCH   2   3
ATOM      3  C   UNL     1      73.707 -72.450  -1.286  1.00  0.00     0.000 C 
BRANCH   3   4
ATOM      4  C   UNL     1      72.332 -71.968  -0.791  1.00  0.00     0.000 C 
BRANCH   4   5
ATOM      5  C   UNL     1      71.162 -72.684  -1.488  1.00  0.00     0.000 C 
BRANCH   5   6
ATOM      6  C   UNL     1      71.574 -73.314  -2.828  1.00  0.00     0.000 C 
BRANCH   6   7
ATOM      7  C   UNL     1      71.365 -74.839  -2.857  1.00  0.00     0.000 C 
BRANCH   7   8
ATOM      8  C   UNL     1      70.559 -75.346  -1.651  1.00  0.00     0.000 C 
BRANCH   8   9
ATOM      9  C   UNL     1      70.948 -76.776  -1.237  1.00  0.00     0.000 C 
BRANCH   9  10
ATOM     10  C   UNL     1      71.194 -76.898   0.281  1.00  0.00     0.000 C 
BRANCH  10  11
ATOM     11  C   UNL     1      72.197 -75.869   0.832  1.00  0.00     0.000 C 
BRANCH  11  12
ATOM     12  C   UNL     1      73.327 -76.512   1.649  1.00  0.00     0.006 C 
BRANCH  12  13
ATOM     13  C   UNL     1      72.763 -77.333   2.815  1.00  0.00     0.053 C 
BRANCH  13  14
ATOM     14  C   UNL     1      73.240 -76.806   4.133  1.00  0.00     0.041 C 
ATOM     15  O   UNL     1      72.565 -75.944   4.758  1.00  0.00    -0.550 OA
ATOM     16  O   UNL     1      74.413 -77.298   4.695  1.00  0.00    -0.550 OA
ENDBRANCH  13  14
ENDBRANCH  12  13
ENDBRANCH  11  12
ENDBRANCH  10  11
ENDBRANCH   9  10
ENDBRANCH   8   9
ENDBRANCH   7   8
ENDBRANCH   6   7
ENDBRANCH   5   6
ENDBRANCH   4   5
ENDBRANCH   3   4
ENDBRANCH   2   3
ENDBRANCH   1   2
BRANCH   1  17
ATOM     17  C   UNL     1      76.105 -73.556  -2.344  1.00  0.00     0.000 C 
BRANCH  17  18
ATOM     18  C   UNL     1      77.551 -73.918  -2.726  1.00  0.00     0.000 C 
BRANCH  18  19
ATOM     19  C   UNL     1      77.686 -75.363  -3.240  1.00  0.00     0.000 C 
BRANCH  19  20
ATOM     20  C   UNL     1      78.644 -76.248  -2.423  1.00  0.00     0.000 C 
BRANCH  20  21
ATOM     21  C   UNL     1      78.024 -76.742  -1.104  1.00  0.00     0.000 C 
BRANCH  21  22
ATOM     22  C   UNL     1      78.275 -78.244  -0.860  1.00  0.00    -0.000 C 
BRANCH  22  23
ATOM     23  C   UNL     1      78.506 -79.064  -2.146  1.00  0.00    -0.000 C 
BRANCH  23  24
ATOM     24  C   UNL     1      77.383 -80.073  -2.462  1.00  0.00    -0.000 C 
BRANCH  24  25
ATOM     25  C   UNL     1      77.001 -80.927  -1.240  1.00  0.00    -0.000 C 
BRANCH  25  26
ATOM     26  C   UNL     1      75.489 -80.920  -0.954  1.00  0.00    -0.000 C 
BRANCH  26  27
ATOM     27  C   UNL     1      74.632 -80.230  -2.029  1.00  0.00    -0.000 C 
BRANCH  27  28
ATOM     28  C   UNL     1      73.793 -79.071  -1.470  1.00  0.00    -0.000 C 
BRANCH  28  29
ATOM     29  C   UNL     1      74.597 -77.766  -1.459  1.00  0.00    -0.003 C 
ATOM     30  C   UNL     1      74.453 -77.017  -2.781  1.00  0.00     0.004 C 
ENDBRANCH  28  29
ENDBRANCH  27  28
ENDBRANCH  26  27
ENDBRANCH  25  26
ENDBRANCH  24  25
ENDBRANCH  23  24
ENDBRANCH  22  23
ENDBRANCH  21  22
ENDBRANCH  20  21
ENDBRANCH  19  20
ENDBRANCH  18  19
ENDBRANCH  17  18
ENDBRANCH   1  17
TORSDOF 26
ENDMDL
MODEL 7
REMARK VINA RESULT:    -3.504      3.095      6.787
REMARK INTER + INTRA:         -14.247
REMARK INTER:                  -9.831
REMARK INTRA:                  -4.416
REMARK UNBOUND:                -5.418
REMARK SMILES CCCCCCCCCCCCCCCCCCCCCCCCCCCC(=O)[O-]
REMARK SMILES IDX 15 1 16 2 17 3 18 4 19 5 20 6 21 7 22 8 23 9 24 10 25 11
REMARK SMILES IDX 26 12 27 13 28 14 29 15 30 16 14 17 13 18 12 19 11 20 10 21
REMARK SMILES IDX 9 22 8 23 7 24 6 25 5 26 4 27 3 28 2 29 1 30
REMARK H PARENT
REMARK Flexibility Score: inf
ROOT
ATOM      1  C   UNL     1      72.166 -71.789  -0.092  1.00  0.00     0.000 C 
ENDROOT
BRANCH   1   2
ATOM      2  C   UNL     1      73.539 -71.236  -0.521  1.00  0.00     0.000 C 
BRANCH   2   3
ATOM      3  C   UNL     1      74.425 -72.219  -1.313  1.00  0.00     0.000 C 
BRANCH   3   4
ATOM      4  C   UNL     1      74.770 -71.777  -2.747  1.00  0.00     0.000 C 
BRANCH   4   5
ATOM      5  C   UNL     1      74.547 -72.891  -3.784  1.00  0.00     0.000 C 
BRANCH   5   6
ATOM      6  C   UNL     1      75.511 -74.073  -3.593  1.00  0.00     0.000 C 
BRANCH   6   7
ATOM      7  C   UNL     1      76.986 -73.635  -3.536  1.00  0.00     0.000 C 
BRANCH   7   8
ATOM      8  C   UNL     1      77.765 -74.331  -2.409  1.00  0.00     0.000 C 
BRANCH   8   9
ATOM      9  C   UNL     1      76.855 -74.799  -1.260  1.00  0.00     0.000 C 
BRANCH   9  10
ATOM     10  C   UNL     1      77.337 -76.126  -0.637  1.00  0.00     0.000 C 
BRANCH  10  11
ATOM     11  C   UNL     1      76.639 -77.371  -1.212  1.00  0.00     0.000 C 
BRANCH  11  12
ATOM     12  C   UNL     1      77.471 -78.081  -2.289  1.00  0.00     0.006 C 
BRANCH  12  13
ATOM     13  C   UNL     1      78.969 -77.996  -1.971  1.00  0.00     0.053 C 
BRANCH  13  14
ATOM     14  C   UNL     1      79.796 -78.559  -3.086  1.00  0.00     0.041 C 
ATOM     15  O   UNL     1      80.419 -77.792  -3.869  1.00  0.00    -0.550 OA
ATOM     16  O   UNL     1      79.912 -79.936  -3.238  1.00  0.00    -0.550 OA
ENDBRANCH  13  14
ENDBRANCH  12  13
ENDBRANCH  11  12
ENDBRANCH  10  11
ENDBRANCH   9  10
ENDBRANCH   8   9
ENDBRANCH   7   8
ENDBRANCH   6   7
ENDBRANCH   5   6
ENDBRANCH   4   5
ENDBRANCH   3   4
ENDBRANCH   2   3
ENDBRANCH   1   2
BRANCH   1  17
ATOM     17  C   UNL     1      71.433 -72.604  -1.173  1.00  0.00     0.000 C 
BRANCH  17  18
ATOM     18  C   UNL     1      71.290 -74.090  -0.800  1.00  0.00     0.000 C 
BRANCH  18  19
ATOM     19  C   UNL     1      72.036 -75.021  -1.773  1.00  0.00     0.000 C 
BRANCH  19  20
ATOM     20  C   UNL     1      73.239 -75.760  -1.159  1.00  0.00     0.000 C 
BRANCH  20  21
ATOM     21  C   UNL     1      73.455 -75.419   0.326  1.00  0.00     0.000 C 
BRANCH  21  22
ATOM     22  C   UNL     1      73.320 -76.654   1.239  1.00  0.00    -0.000 C 
BRANCH  22  23
ATOM     23  C   UNL     1      72.745 -77.902   0.537  1.00  0.00    -0.000 C 
BRANCH  23  24
ATOM     24  C   UNL     1      71.302 -78.252   0.955  1.00  0.00    -0.000 C 
BRANCH  24  25
ATOM     25  C   UNL     1      71.218 -78.760   2.405  1.00  0.00    -0.000 C 
BRANCH  25  26
ATOM     26  C   UNL     1      70.275 -77.916   3.281  1.00  0.00    -0.000 C 
BRANCH  26  27
ATOM     27  C   UNL     1      70.958 -76.765   4.040  1.00  0.00    -0.000 C 
BRANCH  27  28
ATOM     28  C   UNL     1      71.724 -77.241   5.283  1.00  0.00    -0.000 C 
BRANCH  28  29
ATOM     29  C   UNL     1      73.035 -76.464   5.450  1.00  0.00    -0.003 C 
ATOM     30  C   UNL     1      74.206 -77.212   4.818  1.00  0.00     0.004 C 
ENDBRANCH  28  29
ENDBRANCH  27  28
ENDBRANCH  26  27
ENDBRANCH  25  26
ENDBRANCH  24  25
ENDBRANCH  23  24
ENDBRANCH  22  23
ENDBRANCH  21  22
ENDBRANCH  20  21
ENDBRANCH  19  20
ENDBRANCH  18  19
ENDBRANCH  17  18
ENDBRANCH   1  17
TORSDOF 26
ENDMDL
MODEL 8
REMARK VINA RESULT:    -3.489      2.074      6.297
REMARK INTER + INTRA:         -14.210
REMARK INTER:                  -9.377
REMARK INTRA:                  -4.833
REMARK UNBOUND:                -5.418
REMARK SMILES CCCCCCCCCCCCCCCCCCCCCCCCCCCC(=O)[O-]
REMARK SMILES IDX 15 1 16 2 17 3 18 4 19 5 20 6 21 7 22 8 23 9 24 10 25 11
REMARK SMILES IDX 26 12 27 13 28 14 29 15 30 16 14 17 13 18 12 19 11 20 10 21
REMARK SMILES IDX 9 22 8 23 7 24 6 25 5 26 4 27 3 28 2 29 1 30
REMARK H PARENT
REMARK Flexibility Score: inf
ROOT
ATOM      1  C   UNL     1      72.388 -71.304   0.105  1.00  0.00     0.000 C 
ENDROOT
BRANCH   1   2
ATOM      2  C   UNL     1      73.778 -71.143  -0.542  1.00  0.00     0.000 C 
BRANCH   2   3
ATOM      3  C   UNL     1      74.294 -72.381  -1.305  1.00  0.00     0.000 C 
BRANCH   3   4
ATOM      4  C   UNL     1      74.510 -72.173  -2.815  1.00  0.00     0.000 C 
BRANCH   4   5
ATOM      5  C   UNL     1      75.265 -73.339  -3.475  1.00  0.00     0.000 C 
BRANCH   5   6
ATOM      6  C   UNL     1      76.757 -73.032  -3.681  1.00  0.00     0.000 C 
BRANCH   6   7
ATOM      7  C   UNL     1      77.659 -74.246  -3.391  1.00  0.00     0.000 C 
BRANCH   7   8
ATOM      8  C   UNL     1      77.917 -74.443  -1.890  1.00  0.00     0.000 C 
BRANCH   8   9
ATOM      9  C   UNL     1      78.124 -75.920  -1.511  1.00  0.00     0.000 C 
BRANCH   9  10
ATOM     10  C   UNL     1      76.999 -76.452  -0.600  1.00  0.00     0.000 C 
BRANCH  10  11
ATOM     11  C   UNL     1      75.618 -76.492  -1.276  1.00  0.00     0.000 C 
BRANCH  11  12
ATOM     12  C   UNL     1      75.637 -77.208  -2.635  1.00  0.00     0.006 C 
BRANCH  12  13
ATOM     13  C   UNL     1      75.785 -78.724  -2.455  1.00  0.00     0.053 C 
BRANCH  13  14
ATOM     14  C   UNL     1      74.486 -79.354  -2.054  1.00  0.00     0.041 C 
ATOM     15  O   UNL     1      74.203 -79.514  -0.836  1.00  0.00    -0.550 OA
ATOM     16  O   UNL     1      73.566 -79.727  -3.027  1.00  0.00    -0.550 OA
ENDBRANCH  13  14
ENDBRANCH  12  13
ENDBRANCH  11  12
ENDBRANCH  10  11
ENDBRANCH   9  10
ENDBRANCH   8   9
ENDBRANCH   7   8
ENDBRANCH   6   7
ENDBRANCH   5   6
ENDBRANCH   4   5
ENDBRANCH   3   4
ENDBRANCH   2   3
ENDBRANCH   1   2
BRANCH   1  17
ATOM     17  C   UNL     1      71.860 -72.749   0.148  1.00  0.00     0.000 C 
BRANCH  17  18
ATOM     18  C   UNL     1      70.348 -72.836  -0.123  1.00  0.00     0.000 C 
BRANCH  18  19
ATOM     19  C   UNL     1      70.017 -73.632  -1.398  1.00  0.00     0.000 C 
BRANCH  19  20
ATOM     20  C   UNL     1      70.925 -73.323  -2.602  1.00  0.00     0.000 C 
BRANCH  20  21
ATOM     21  C   UNL     1      71.477 -74.592  -3.275  1.00  0.00     0.000 C 
BRANCH  21  22
ATOM     22  C   UNL     1      72.359 -75.427  -2.325  1.00  0.00    -0.000 C 
BRANCH  22  23
ATOM     23  C   UNL     1      71.847 -76.862  -2.082  1.00  0.00    -0.000 C 
BRANCH  23  24
ATOM     24  C   UNL     1      71.406 -77.138  -0.631  1.00  0.00    -0.000 C 
BRANCH  24  25
ATOM     25  C   UNL     1      72.265 -76.380   0.398  1.00  0.00    -0.000 C 
BRANCH  25  26
ATOM     26  C   UNL     1      71.546 -76.176   1.744  1.00  0.00    -0.000 C 
BRANCH  26  27
ATOM     27  C   UNL     1      72.480 -75.980   2.951  1.00  0.00    -0.000 C 
BRANCH  27  28
ATOM     28  C   UNL     1      73.397 -77.186   3.198  1.00  0.00    -0.000 C 
BRANCH  28  29
ATOM     29  C   UNL     1      73.993 -77.142   4.610  1.00  0.00    -0.003 C 
ATOM     30  C   UNL     1      72.990 -76.585   5.616  1.00  0.00     0.004 C 
ENDBRANCH  28  29
ENDBRANCH  27  28
ENDBRANCH  26  27
ENDBRANCH  25  26
ENDBRANCH  24  25
ENDBRANCH  23  24
ENDBRANCH  22  23
ENDBRANCH  21  22
ENDBRANCH  20  21
ENDBRANCH  19  20
ENDBRANCH  18  19
ENDBRANCH  17  18
ENDBRANCH   1  17
TORSDOF 26
ENDMDL
MODEL 9
REMARK VINA RESULT:    -3.468      2.752      6.178
REMARK INTER + INTRA:         -14.157
REMARK INTER:                  -9.481
REMARK INTRA:                  -4.676
REMARK UNBOUND:                -5.418
REMARK SMILES CCCCCCCCCCCCCCCCCCCCCCCCCCCC(=O)[O-]
REMARK SMILES IDX 15 1 16 2 17 3 18 4 19 5 20 6 21 7 22 8 23 9 24 10 25 11
REMARK SMILES IDX 26 12 27 13 28 14 29 15 30 16 14 17 13 18 12 19 11 20 10 21
REMARK SMILES IDX 9 22 8 23 7 24 6 25 5 26 4 27 3 28 2 29 1 30
REMARK H PARENT
REMARK Flexibility Score: inf
ROOT
ATOM      1  C   UNL     1      73.280 -76.717   2.242  1.00  0.00     0.000 C 
ENDROOT
BRANCH   1   2
ATOM      2  C   UNL     1      72.991 -77.597   3.474  1.00  0.00     0.000 C 
BRANCH   2   3
ATOM      3  C   UNL     1      73.802 -77.244   4.737  1.00  0.00     0.000 C 
BRANCH   3   4
ATOM      4  C   UNL     1      73.116 -76.258   5.700  1.00  0.00     0.000 C 
BRANCH   4   5
ATOM      5  C   UNL     1      71.775 -76.785   6.237  1.00  0.00     0.000 C 
BRANCH   5   6
ATOM      6  C   UNL     1      70.585 -75.911   5.808  1.00  0.00     0.000 C 
BRANCH   6   7
ATOM      7  C   UNL     1      69.748 -76.555   4.687  1.00  0.00     0.000 C 
BRANCH   7   8
ATOM      8  C   UNL     1      69.765 -75.731   3.391  1.00  0.00     0.000 C 
BRANCH   8   9
ATOM      9  C   UNL     1      70.127 -74.255   3.631  1.00  0.00     0.000 C 
BRANCH   9  10
ATOM     10  C   UNL     1      71.157 -73.733   2.608  1.00  0.00     0.000 C 
BRANCH  10  11
ATOM     11  C   UNL     1      70.587 -73.546   1.192  1.00  0.00     0.000 C 
BRANCH  11  12
ATOM     12  C   UNL     1      70.272 -72.080   0.861  1.00  0.00     0.006 C 
BRANCH  12  13
ATOM     13  C   UNL     1      71.209 -71.132   1.621  1.00  0.00     0.053 C 
BRANCH  13  14
ATOM     14  C   UNL     1      72.376 -70.725   0.774  1.00  0.00     0.041 C 
ATOM     15  O   UNL     1      72.441 -71.077  -0.435  1.00  0.00    -0.550 OA
ATOM     16  O   UNL     1      73.375 -69.920   1.309  1.00  0.00    -0.550 OA
ENDBRANCH  13  14
ENDBRANCH  12  13
ENDBRANCH  11  12
ENDBRANCH  10  11
ENDBRANCH   9  10
ENDBRANCH   8   9
ENDBRANCH   7   8
ENDBRANCH   6   7
ENDBRANCH   5   6
ENDBRANCH   4   5
ENDBRANCH   3   4
ENDBRANCH   2   3
ENDBRANCH   1   2
BRANCH   1  17
ATOM     17  C   UNL     1      72.678 -77.235   0.924  1.00  0.00     0.000 C 
BRANCH  17  18
ATOM     18  C   UNL     1      72.682 -76.172  -0.188  1.00  0.00     0.000 C 
BRANCH  18  19
ATOM     19  C   UNL     1      73.773 -75.104   0.013  1.00  0.00     0.000 C 
BRANCH  19  20
ATOM     20  C   UNL     1      73.838 -74.036  -1.093  1.00  0.00     0.000 C 
BRANCH  20  21
ATOM     21  C   UNL     1      73.116 -74.466  -2.382  1.00  0.00     0.000 C 
BRANCH  21  22
ATOM     22  C   UNL     1      73.534 -73.620  -3.602  1.00  0.00    -0.000 C 
BRANCH  22  23
ATOM     23  C   UNL     1      74.339 -72.353  -3.248  1.00  0.00    -0.000 C 
BRANCH  23  24
ATOM     24  C   UNL     1      75.588 -72.134  -4.125  1.00  0.00    -0.000 C 
BRANCH  24  25
ATOM     25  C   UNL     1      76.887 -72.552  -3.412  1.00  0.00    -0.000 C 
BRANCH  25  26
ATOM     26  C   UNL     1      77.268 -74.019  -3.675  1.00  0.00    -0.000 C 
BRANCH  26  27
ATOM     27  C   UNL     1      77.178 -74.940  -2.445  1.00  0.00    -0.000 C 
BRANCH  27  28
ATOM     28  C   UNL     1      76.423 -76.246  -2.732  1.00  0.00    -0.000 C 
BRANCH  28  29
ATOM     29  C   UNL     1      76.376 -77.138  -1.485  1.00  0.00    -0.003 C 
ATOM     30  C   UNL     1      77.151 -76.511  -0.329  1.00  0.00     0.004 C 
ENDBRANCH  28  29
ENDBRANCH  27  28
ENDBRANCH  26  27
ENDBRANCH  25  26
ENDBRANCH  24  25
ENDBRANCH  23  24
ENDBRANCH  22  23
ENDBRANCH  21  22
ENDBRANCH  20  21
ENDBRANCH  19  20
ENDBRANCH  18  19
ENDBRANCH  17  18
ENDBRANCH   1  17
TORSDOF 26
ENDMDL
