MODEL 1
REMARK VINA RESULT:     4.443      0.000      0.000
REMARK INTER + INTRA:           5.873
REMARK INTER:                   5.352
REMARK INTRA:                   0.521
REMARK UNBOUND:                 0.521
REMARK SMILES O=c1c(O)c(-c2ccc(O)c(O)c2)oc2cc(O)cc(O)c12
REMARK SMILES IDX 5 1 3 2 2 3 1 4 22 5 20 6 19 7 17 8 16 9 15 10 14 11 6 12
REMARK SMILES IDX 7 13 8 14 9 15 13 16 11 17 10 18 12 20 4 22 21 24 18 26
REMARK H PARENT 10 19 12 21 4 23 21 25 18 27
REMARK Flexibility Score: inf
ROOT
ATOM      1  C   UNL     1      13.524   4.863  28.233  1.00  0.00     0.180 A 
ATOM      2  C   UNL     1      14.697   4.105  28.072  1.00  0.00     0.208 A 
ATOM      3  C   UNL     1      14.608   2.704  28.073  1.00  0.00     0.238 A 
ATOM      4  O   UNL     1      15.670   2.032  28.004  1.00  0.00    -0.285 OA
ATOM      5  C   UNL     1      13.342   2.078  28.176  1.00  0.00     0.111 A 
ATOM      6  C   UNL     1      13.127   0.666  28.143  1.00  0.00     0.134 A 
ATOM      7  C   UNL     1      11.841   0.158  28.362  1.00  0.00     0.093 A 
ATOM      8  C   UNL     1      10.751   1.010  28.549  1.00  0.00     0.123 A 
ATOM      9  C   UNL     1      10.940   2.389  28.529  1.00  0.00     0.094 A 
ATOM     10  C   UNL     1      12.218   2.927  28.351  1.00  0.00     0.146 A 
ATOM     11  O   UNL     1      12.355   4.248  28.361  1.00  0.00    -0.452 OA
ENDROOT
BRANCH   1  12
ATOM     12  C   UNL     1      13.540   6.343  28.257  1.00  0.00     0.025 A 
ATOM     13  C   UNL     1      14.712   7.027  27.897  1.00  0.00     0.016 A 
ATOM     14  C   UNL     1      14.744   8.423  27.893  1.00  0.00     0.051 A 
ATOM     15  C   UNL     1      13.602   9.157  28.231  1.00  0.00     0.157 A 
ATOM     16  C   UNL     1      12.388   7.083  28.576  1.00  0.00     0.062 A 
ATOM     17  C   UNL     1      12.416   8.486  28.570  1.00  0.00     0.158 A 
BRANCH  15  18
ATOM     18  O   UNL     1      13.666  10.551  28.219  1.00  0.00    -0.504 OA
ATOM     19  H   UNL     1      14.422  11.051  27.766  1.00  0.00     0.293 HD
ENDBRANCH  15  18
BRANCH  17  20
ATOM     20  O   UNL     1      11.272   9.212  28.894  1.00  0.00    -0.504 OA
ATOM     21  H   UNL     1      11.169   9.668  29.794  1.00  0.00     0.293 HD
ENDBRANCH  17  20
ENDBRANCH   1  12
BRANCH   2  22
ATOM     22  O   UNL     1      15.928   4.742  27.893  1.00  0.00    -0.502 OA
ATOM     23  H   UNL     1      16.073   5.459  27.193  1.00  0.00     0.293 HD
ENDBRANCH   2  22
BRANCH   6  24
ATOM     24  O   UNL     1      14.129  -0.272  27.875  1.00  0.00    -0.507 OA
ATOM     25  H   UNL     1      14.801  -0.201  27.126  1.00  0.00     0.293 HD
ENDBRANCH   6  24
BRANCH   8  26
ATOM     26  O   UNL     1       9.472   0.495  28.749  1.00  0.00    -0.508 OA
ATOM     27  H   UNL     1       9.320  -0.359  29.273  1.00  0.00     0.293 HD
ENDBRANCH   8  26
TORSDOF 6
ENDMDL
