MODEL 1
REMARK VINA RESULT:    -4.147      0.000      0.000
REMARK INTER + INTRA:          -4.389
REMARK INTER:                  -4.389
REMARK INTRA:                   0.000
REMARK UNBOUND:                 0.000
REMARK SMILES O=c1ccc2cc(O)c(O)cc2o1
REMARK SMILES IDX 4 1 3 2 2 3 1 4 13 5 12 6 11 7 9 8 7 9 6 10 5 11 8 12 10 14
REMARK H PARENT 8 13 10 15
REMARK Flexibility Score: inf
ROOT
ATOM      1  C   UNL     1     114.973  15.317 149.134  1.00  0.00     0.019 A 
ATOM      2  C   UNL     1     114.392  14.050 149.175  1.00  0.00     0.094 A 
ATOM      3  C   UNL     1     114.609  13.170 148.109  1.00  0.00     0.336 A 
ATOM      4  O   UNL     1     114.093  12.022 148.127  1.00  0.00    -0.246 OA
ATOM      5  O   UNL     1     115.361  13.538 147.074  1.00  0.00    -0.423 OA
ATOM      6  C   UNL     1     115.935  14.736 146.996  1.00  0.00     0.142 A 
ATOM      7  C   UNL     1     116.714  15.067 145.883  1.00  0.00     0.098 A 
ATOM      8  C   UNL     1     117.320  16.326 145.794  1.00  0.00     0.161 A 
ATOM      9  C   UNL     1     117.147  17.265 146.827  1.00  0.00     0.158 A 
ATOM     10  C   UNL     1     116.365  16.937 147.945  1.00  0.00     0.062 A 
ATOM     11  C   UNL     1     115.758  15.677 148.034  1.00  0.00     0.022 A 
ENDROOT
BRANCH   9  12
ATOM     12  O   UNL     1     117.750  18.518 146.739  1.00  0.00    -0.504 OA
ATOM     13  H   UNL     1     117.778  19.150 147.530  1.00  0.00     0.293 HD
ENDBRANCH   9  12
BRANCH   8  14
ATOM     14  O   UNL     1     118.091  16.625 144.671  1.00  0.00    -0.504 OA
ATOM     15  H   UNL     1     118.902  16.075 144.412  1.00  0.00     0.293 HD
ENDBRANCH   8  14
TORSDOF 2
ENDMDL
MODEL 2
REMARK VINA RESULT:    -4.051     11.611     13.217
REMARK INTER + INTRA:          -4.287
REMARK INTER:                  -4.287
REMARK INTRA:                   0.000
REMARK UNBOUND:                 0.000
REMARK SMILES O=c1ccc2cc(O)c(O)cc2o1
REMARK SMILES IDX 4 1 3 2 2 3 1 4 13 5 12 6 11 7 9 8 7 9 6 10 5 11 8 12 10 14
REMARK H PARENT 8 13 10 15
REMARK Flexibility Score: inf
ROOT
ATOM      1  C   UNL     1     121.844   3.781 142.199  1.00  0.00     0.019 A 
ATOM      2  C   UNL     1     122.185   3.740 140.847  1.00  0.00     0.094 A 
ATOM      3  C   UNL     1     121.238   4.137 139.896  1.00  0.00     0.336 A 
ATOM      4  O   UNL     1     121.526   4.107 138.671  1.00  0.00    -0.246 OA
ATOM      5  O   UNL     1     120.031   4.548 140.279  1.00  0.00    -0.423 OA
ATOM      6  C   UNL     1     119.666   4.603 141.558  1.00  0.00     0.142 A 
ATOM      7  C   UNL     1     118.383   5.044 141.900  1.00  0.00     0.098 A 
ATOM      8  C   UNL     1     117.992   5.104 143.242  1.00  0.00     0.161 A 
ATOM      9  C   UNL     1     118.891   4.720 144.255  1.00  0.00     0.158 A 
ATOM     10  C   UNL     1     120.178   4.278 143.916  1.00  0.00     0.062 A 
ATOM     11  C   UNL     1     120.569   4.217 142.572  1.00  0.00     0.022 A 
ENDROOT
BRANCH   9  12
ATOM     12  O   UNL     1     118.501   4.780 145.592  1.00  0.00    -0.504 OA
ATOM     13  H   UNL     1     117.684   5.302 145.884  1.00  0.00     0.293 HD
ENDBRANCH   9  12
BRANCH   8  14
ATOM     14  O   UNL     1     116.706   5.548 143.551  1.00  0.00    -0.504 OA
ATOM     15  H   UNL     1     116.049   4.976 144.069  1.00  0.00     0.293 HD
ENDBRANCH   8  14
TORSDOF 2
ENDMDL
MODEL 3
REMARK VINA RESULT:    -3.971      7.778      8.476
REMARK INTER + INTRA:          -4.203
REMARK INTER:                  -4.203
REMARK INTRA:                   0.000
REMARK UNBOUND:                 0.000
REMARK SMILES O=c1ccc2cc(O)c(O)cc2o1
REMARK SMILES IDX 4 1 3 2 2 3 1 4 13 5 12 6 11 7 9 8 7 9 6 10 5 11 8 12 10 14
REMARK H PARENT 8 13 10 15
REMARK Flexibility Score: inf
ROOT
ATOM      1  C   UNL     1     123.670  14.215 148.986  1.00  0.00     0.019 A 
ATOM      2  C   UNL     1     122.822  13.144 149.268  1.00  0.00     0.094 A 
ATOM      3  C   UNL     1     122.060  13.174 150.443  1.00  0.00     0.336 A 
ATOM      4  O   UNL     1     121.289  12.217 150.715  1.00  0.00    -0.246 OA
ATOM      5  O   UNL     1     122.145  14.210 151.274  1.00  0.00    -0.423 OA
ATOM      6  C   UNL     1     122.940  15.251 151.042  1.00  0.00     0.142 A 
ATOM      7  C   UNL     1     122.988  16.311 151.953  1.00  0.00     0.098 A 
ATOM      8  C   UNL     1     123.823  17.409 151.716  1.00  0.00     0.161 A 
ATOM      9  C   UNL     1     124.619  17.451 150.556  1.00  0.00     0.158 A 
ATOM     10  C   UNL     1     124.574  16.389 149.640  1.00  0.00     0.062 A 
ATOM     11  C   UNL     1     123.739  15.290 149.878  1.00  0.00     0.022 A 
ENDROOT
BRANCH   9  12
ATOM     12  O   UNL     1     125.450  18.544 150.319  1.00  0.00    -0.504 OA
ATOM     13  H   UNL     1     125.291  19.173 149.540  1.00  0.00     0.293 HD
ENDBRANCH   9  12
BRANCH   8  14
ATOM     14  O   UNL     1     123.848  18.451 152.643  1.00  0.00    -0.504 OA
ATOM     15  H   UNL     1     123.415  19.348 152.457  1.00  0.00     0.293 HD
ENDBRANCH   8  14
TORSDOF 2
ENDMDL
MODEL 4
REMARK VINA RESULT:    -3.955      1.139      2.269
REMARK INTER + INTRA:          -4.186
REMARK INTER:                  -4.186
REMARK INTRA:                   0.000
REMARK UNBOUND:                 0.000
REMARK SMILES O=c1ccc2cc(O)c(O)cc2o1
REMARK SMILES IDX 4 1 3 2 2 3 1 4 13 5 12 6 11 7 9 8 7 9 6 10 5 11 8 12 10 14
REMARK H PARENT 8 13 10 15
REMARK Flexibility Score: inf
ROOT
ATOM      1  C   UNL     1     115.379  13.598 146.888  1.00  0.00     0.019 A 
ATOM      2  C   UNL     1     114.640  13.284 148.029  1.00  0.00     0.094 A 
ATOM      3  C   UNL     1     114.537  14.234 149.052  1.00  0.00     0.336 A 
ATOM      4  O   UNL     1     113.875  13.971 150.089  1.00  0.00    -0.246 OA
ATOM      5  O   UNL     1     115.136  15.417 148.935  1.00  0.00    -0.423 OA
ATOM      6  C   UNL     1     115.849  15.756 147.864  1.00  0.00     0.142 A 
ATOM      7  C   UNL     1     116.456  17.014 147.797  1.00  0.00     0.098 A 
ATOM      8  C   UNL     1     117.208  17.377 146.674  1.00  0.00     0.161 A 
ATOM      9  C   UNL     1     117.356  16.475 145.605  1.00  0.00     0.158 A 
ATOM     10  C   UNL     1     116.749  15.212 145.668  1.00  0.00     0.062 A 
ATOM     11  C   UNL     1     115.997  14.848 146.792  1.00  0.00     0.022 A 
ENDROOT
BRANCH   9  12
ATOM     12  O   UNL     1     118.105  16.836 144.486  1.00  0.00    -0.504 OA
ATOM     13  H   UNL     1     118.031  16.330 143.611  1.00  0.00     0.293 HD
ENDBRANCH   9  12
BRANCH   8  14
ATOM     14  O   UNL     1     117.801  18.639 146.638  1.00  0.00    -0.504 OA
ATOM     15  H   UNL     1     117.257  19.492 146.710  1.00  0.00     0.293 HD
ENDBRANCH   8  14
TORSDOF 2
ENDMDL
MODEL 5
REMARK VINA RESULT:    -3.947     16.583     17.495
REMARK INTER + INTRA:          -4.178
REMARK INTER:                  -4.178
REMARK INTRA:                   0.000
REMARK UNBOUND:                 0.000
REMARK SMILES O=c1ccc2cc(O)c(O)cc2o1
REMARK SMILES IDX 4 1 3 2 2 3 1 4 13 5 12 6 11 7 9 8 7 9 6 10 5 11 8 12 10 14
REMARK H PARENT 8 13 10 15
REMARK Flexibility Score: inf
ROOT
ATOM      1  C   UNL     1     133.063  11.486 150.299  1.00  0.00     0.019 A 
ATOM      2  C   UNL     1     132.775  12.807 150.644  1.00  0.00     0.094 A 
ATOM      3  C   UNL     1     131.709  13.062 151.514  1.00  0.00     0.336 A 
ATOM      4  O   UNL     1     131.433  14.247 151.838  1.00  0.00    -0.246 OA
ATOM      5  O   UNL     1     130.984  12.059 152.004  1.00  0.00    -0.423 OA
ATOM      6  C   UNL     1     131.227  10.786 151.701  1.00  0.00     0.142 A 
ATOM      7  C   UNL     1     130.431   9.773 152.246  1.00  0.00     0.098 A 
ATOM      8  C   UNL     1     130.679   8.433 151.932  1.00  0.00     0.161 A 
ATOM      9  C   UNL     1     131.734   8.098 151.063  1.00  0.00     0.158 A 
ATOM     10  C   UNL     1     132.535   9.110 150.514  1.00  0.00     0.062 A 
ATOM     11  C   UNL     1     132.285  10.452 150.828  1.00  0.00     0.022 A 
ENDROOT
BRANCH   9  12
ATOM     12  O   UNL     1     131.982   6.762 150.749  1.00  0.00    -0.504 OA
ATOM     13  H   UNL     1     132.446   6.497 149.888  1.00  0.00     0.293 HD
ENDBRANCH   9  12
BRANCH   8  14
ATOM     14  O   UNL     1     129.867   7.446 152.492  1.00  0.00    -0.504 OA
ATOM     15  H   UNL     1     129.805   6.514 152.101  1.00  0.00     0.293 HD
ENDBRANCH   8  14
TORSDOF 2
ENDMDL
MODEL 6
REMARK VINA RESULT:    -3.938     18.907     19.814
REMARK INTER + INTRA:          -4.168
REMARK INTER:                  -4.168
REMARK INTRA:                   0.000
REMARK UNBOUND:                 0.000
REMARK SMILES O=c1ccc2cc(O)c(O)cc2o1
REMARK SMILES IDX 4 1 3 2 2 3 1 4 13 5 12 6 11 7 9 8 7 9 6 10 5 11 8 12 10 14
REMARK H PARENT 8 13 10 15
REMARK Flexibility Score: inf
ROOT
ATOM      1  C   UNL     1     132.640   5.754 142.220  1.00  0.00     0.019 A 
ATOM      2  C   UNL     1     132.554   4.844 141.167  1.00  0.00     0.094 A 
ATOM      3  C   UNL     1     132.768   5.298 139.860  1.00  0.00     0.336 A 
ATOM      4  O   UNL     1     132.695   4.493 138.895  1.00  0.00    -0.246 OA
ATOM      5  O   UNL     1     133.049   6.579 139.630  1.00  0.00    -0.423 OA
ATOM      6  C   UNL     1     133.141   7.478 140.606  1.00  0.00     0.142 A 
ATOM      7  C   UNL     1     133.439   8.811 140.303  1.00  0.00     0.098 A 
ATOM      8  C   UNL     1     133.537   9.763 141.324  1.00  0.00     0.161 A 
ATOM      9  C   UNL     1     133.335   9.381 142.663  1.00  0.00     0.158 A 
ATOM     10  C   UNL     1     133.035   8.046 142.971  1.00  0.00     0.062 A 
ATOM     11  C   UNL     1     132.937   7.094 141.949  1.00  0.00     0.022 A 
ENDROOT
BRANCH   9  12
ATOM     12  O   UNL     1     133.432  10.329 143.681  1.00  0.00    -0.504 OA
ATOM     13  H   UNL     1     134.124  11.068 143.653  1.00  0.00     0.293 HD
ENDBRANCH   9  12
BRANCH   8  14
ATOM     14  O   UNL     1     133.836  11.083 140.989  1.00  0.00    -0.504 OA
ATOM     15  H   UNL     1     134.769  11.372 140.720  1.00  0.00     0.293 HD
ENDBRANCH   8  14
TORSDOF 2
ENDMDL
MODEL 7
REMARK VINA RESULT:    -3.890     11.633     13.302
REMARK INTER + INTRA:          -4.118
REMARK INTER:                  -4.118
REMARK INTRA:                   0.000
REMARK UNBOUND:                 0.000
REMARK SMILES O=c1ccc2cc(O)c(O)cc2o1
REMARK SMILES IDX 4 1 3 2 2 3 1 4 13 5 12 6 11 7 9 8 7 9 6 10 5 11 8 12 10 14
REMARK H PARENT 8 13 10 15
REMARK Flexibility Score: inf
ROOT
ATOM      1  C   UNL     1     119.783   4.537 140.010  1.00  0.00     0.019 A 
ATOM      2  C   UNL     1     121.083   4.195 139.635  1.00  0.00     0.094 A 
ATOM      3  C   UNL     1     122.029   3.932 140.632  1.00  0.00     0.336 A 
ATOM      4  O   UNL     1     123.207   3.622 140.315  1.00  0.00    -0.246 OA
ATOM      5  O   UNL     1     121.691   4.007 141.918  1.00  0.00    -0.423 OA
ATOM      6  C   UNL     1     120.463   4.329 142.318  1.00  0.00     0.142 A 
ATOM      7  C   UNL     1     120.167   4.393 143.683  1.00  0.00     0.098 A 
ATOM      8  C   UNL     1     118.878   4.731 144.111  1.00  0.00     0.161 A 
ATOM      9  C   UNL     1     117.873   5.009 143.166  1.00  0.00     0.158 A 
ATOM     10  C   UNL     1     118.167   4.947 141.796  1.00  0.00     0.062 A 
ATOM     11  C   UNL     1     119.457   4.609 141.368  1.00  0.00     0.022 A 
ENDROOT
BRANCH   9  12
ATOM     12  O   UNL     1     116.589   5.346 143.592  1.00  0.00    -0.504 OA
ATOM     13  H   UNL     1     115.766   4.913 143.191  1.00  0.00     0.293 HD
ENDBRANCH   9  12
BRANCH   8  14
ATOM     14  O   UNL     1     118.615   4.786 145.480  1.00  0.00    -0.504 OA
ATOM     15  H   UNL     1     118.393   5.655 145.951  1.00  0.00     0.293 HD
ENDBRANCH   8  14
TORSDOF 2
ENDMDL
MODEL 8
REMARK VINA RESULT:    -3.824     16.078     16.740
REMARK INTER + INTRA:          -4.048
REMARK INTER:                  -4.048
REMARK INTRA:                   0.000
REMARK UNBOUND:                 0.000
REMARK SMILES O=c1ccc2cc(O)c(O)cc2o1
REMARK SMILES IDX 4 1 3 2 2 3 1 4 13 5 12 6 11 7 9 8 7 9 6 10 5 11 8 12 10 14
REMARK H PARENT 8 13 10 15
REMARK Flexibility Score: inf
ROOT
ATOM      1  C   UNL     1     129.312  11.071 152.942  1.00  0.00     0.019 A 
ATOM      2  C   UNL     1     129.240  12.430 152.636  1.00  0.00     0.094 A 
ATOM      3  C   UNL     1     130.112  12.955 151.675  1.00  0.00     0.336 A 
ATOM      4  O   UNL     1     130.064  14.179 151.385  1.00  0.00    -0.246 OA
ATOM      5  O   UNL     1     130.994  12.167 151.063  1.00  0.00    -0.423 OA
ATOM      6  C   UNL     1     131.094  10.867 151.325  1.00  0.00     0.142 A 
ATOM      7  C   UNL     1     132.040  10.088 150.651  1.00  0.00     0.098 A 
ATOM      8  C   UNL     1     132.151   8.720 150.921  1.00  0.00     0.161 A 
ATOM      9  C   UNL     1     131.308   8.120 151.875  1.00  0.00     0.158 A 
ATOM     10  C   UNL     1     130.358   8.897 152.553  1.00  0.00     0.062 A 
ATOM     11  C   UNL     1     130.248  10.267 152.283  1.00  0.00     0.022 A 
ENDROOT
BRANCH   9  12
ATOM     12  O   UNL     1     131.419   6.757 152.144  1.00  0.00    -0.504 OA
ATOM     13  H   UNL     1     130.952   6.063 151.571  1.00  0.00     0.293 HD
ENDBRANCH   9  12
BRANCH   8  14
ATOM     14  O   UNL     1     133.105   7.971 150.231  1.00  0.00    -0.504 OA
ATOM     15  H   UNL     1     132.846   7.254 149.564  1.00  0.00     0.293 HD
ENDBRANCH   8  14
TORSDOF 2
ENDMDL
MODEL 9
REMARK VINA RESULT:    -3.792      8.025      9.365
REMARK INTER + INTRA:          -4.013
REMARK INTER:                  -4.013
REMARK INTRA:                   0.000
REMARK UNBOUND:                 0.000
REMARK SMILES O=c1ccc2cc(O)c(O)cc2o1
REMARK SMILES IDX 4 1 3 2 2 3 1 4 13 5 12 6 11 7 9 8 7 9 6 10 5 11 8 12 10 14
REMARK H PARENT 8 13 10 15
REMARK Flexibility Score: inf
ROOT
ATOM      1  C   UNL     1     124.177  16.645 152.263  1.00  0.00     0.019 A 
ATOM      2  C   UNL     1     124.906  17.356 151.310  1.00  0.00     0.094 A 
ATOM      3  C   UNL     1     124.886  16.922 149.979  1.00  0.00     0.336 A 
ATOM      4  O   UNL     1     125.537  17.550 149.104  1.00  0.00    -0.246 OA
ATOM      5  O   UNL     1     124.180  15.848 149.632  1.00  0.00    -0.423 OA
ATOM      6  C   UNL     1     123.470  15.143 150.509  1.00  0.00     0.142 A 
ATOM      7  C   UNL     1     122.748  14.023 150.085  1.00  0.00     0.098 A 
ATOM      8  C   UNL     1     122.000  13.276 151.002  1.00  0.00     0.161 A 
ATOM      9  C   UNL     1     121.972  13.651 152.358  1.00  0.00     0.158 A 
ATOM     10  C   UNL     1     122.695  14.774 152.788  1.00  0.00     0.062 A 
ATOM     11  C   UNL     1     123.444  15.521 151.869  1.00  0.00     0.022 A 
ENDROOT
BRANCH   9  12
ATOM     12  O   UNL     1     121.227  12.907 153.272  1.00  0.00    -0.504 OA
ATOM     13  H   UNL     1     121.148  13.185 154.243  1.00  0.00     0.293 HD
ENDBRANCH   9  12
BRANCH   8  14
ATOM     14  O   UNL     1     121.290  12.165 150.548  1.00  0.00    -0.504 OA
ATOM     15  H   UNL     1     121.736  11.268 150.393  1.00  0.00     0.293 HD
ENDBRANCH   8  14
TORSDOF 2
ENDMDL
