MODEL 1
REMARK VINA RESULT:    -4.473      0.000      0.000
REMARK INTER + INTRA:          -7.689
REMARK INTER:                  -7.088
REMARK INTRA:                  -0.600
REMARK UNBOUND:                -0.600
REMARK SMILES CCCCCCCCCCCC(=O)[O-]
REMARK SMILES IDX 7 1 8 2 9 3 10 4 11 5 12 6 13 7 14 8 6 9 5 10 4 11 3 12 2 13
REMARK SMILES IDX 1 14
REMARK H PARENT
REMARK Flexibility Score: inf
ROOT
ATOM      1  C   UNL     1      -1.302   1.382  15.373  1.00  0.00     0.000 C 
ENDROOT
BRANCH   1   2
ATOM      2  C   UNL     1      -2.663   1.328  14.664  1.00  0.00     0.000 C 
BRANCH   2   3
ATOM      3  C   UNL     1      -3.657   2.305  15.310  1.00  0.00     0.000 C 
BRANCH   3   4
ATOM      4  C   UNL     1      -5.067   2.227  14.697  1.00  0.00     0.006 C 
BRANCH   4   5
ATOM      5  C   UNL     1      -5.917   3.490  14.922  1.00  0.00     0.053 C 
BRANCH   5   6
ATOM      6  C   UNL     1      -7.079   3.246  15.837  1.00  0.00     0.041 C 
ATOM      7  O   UNL     1      -8.202   3.755  15.583  1.00  0.00    -0.550 OA
ATOM      8  O   UNL     1      -6.932   2.426  16.950  1.00  0.00    -0.550 OA
ENDBRANCH   5   6
ENDBRANCH   4   5
ENDBRANCH   3   4
ENDBRANCH   2   3
ENDBRANCH   1   2
BRANCH   1   9
ATOM      9  C   UNL     1      -1.236   2.481  16.445  1.00  0.00     0.000 C 
BRANCH   9  10
ATOM     10  C   UNL     1      -0.587   1.998  17.751  1.00  0.00    -0.000 C 
BRANCH  10  11
ATOM     11  C   UNL     1      -0.094   0.552  17.618  1.00  0.00    -0.000 C 
BRANCH  11  12
ATOM     12  C   UNL     1      -0.491  -0.281  18.844  1.00  0.00    -0.000 C 
BRANCH  12  13
ATOM     13  C   UNL     1      -0.087   0.385  20.168  1.00  0.00    -0.003 C 
ATOM     14  C   UNL     1       1.425   0.378  20.396  1.00  0.00     0.004 C 
ENDBRANCH  12  13
ENDBRANCH  11  12
ENDBRANCH  10  11
ENDBRANCH   9  10
ENDBRANCH   1   9
TORSDOF 10
ENDMDL
MODEL 2
REMARK VINA RESULT:    -4.446      5.078      7.320
REMARK INTER + INTRA:          -7.645
REMARK INTER:                  -6.953
REMARK INTRA:                  -0.692
REMARK UNBOUND:                -0.600
REMARK SMILES CCCCCCCCCCCC(=O)[O-]
REMARK SMILES IDX 7 1 8 2 9 3 10 4 11 5 12 6 13 7 14 8 6 9 5 10 4 11 3 12 2 13
REMARK SMILES IDX 1 14
REMARK H PARENT
REMARK Flexibility Score: inf
ROOT
ATOM      1  C   UNL     1      -3.859  -0.028   9.687  1.00  0.00     0.000 C 
ENDROOT
BRANCH   1   2
ATOM      2  C   UNL     1      -3.943  -0.258  11.203  1.00  0.00     0.000 C 
BRANCH   2   3
ATOM      3  C   UNL     1      -4.002   1.078  11.959  1.00  0.00     0.000 C 
BRANCH   3   4
ATOM      4  C   UNL     1      -5.106   1.118  13.031  1.00  0.00     0.006 C 
BRANCH   4   5
ATOM      5  C   UNL     1      -4.624   1.614  14.406  1.00  0.00     0.053 C 
BRANCH   5   6
ATOM      6  C   UNL     1      -5.589   2.567  15.044  1.00  0.00     0.041 C 
ATOM      7  O   UNL     1      -5.794   2.523  16.286  1.00  0.00    -0.550 OA
ATOM      8  O   UNL     1      -6.233   3.528  14.275  1.00  0.00    -0.550 OA
ENDBRANCH   5   6
ENDBRANCH   4   5
ENDBRANCH   3   4
ENDBRANCH   2   3
ENDBRANCH   1   2
BRANCH   1   9
ATOM      9  C   UNL     1      -4.304  -1.255   8.876  1.00  0.00     0.000 C 
BRANCH   9  10
ATOM     10  C   UNL     1      -3.123  -2.134   8.436  1.00  0.00    -0.000 C 
BRANCH  10  11
ATOM     11  C   UNL     1      -3.283  -3.569   8.952  1.00  0.00    -0.000 C 
BRANCH  11  12
ATOM     12  C   UNL     1      -2.713  -3.711  10.370  1.00  0.00    -0.000 C 
BRANCH  12  13
ATOM     13  C   UNL     1      -3.790  -4.056  11.410  1.00  0.00    -0.003 C 
ATOM     14  C   UNL     1      -4.829  -5.043  10.879  1.00  0.00     0.004 C 
ENDBRANCH  12  13
ENDBRANCH  11  12
ENDBRANCH  10  11
ENDBRANCH   9  10
ENDBRANCH   1   9
TORSDOF 10
ENDMDL
MODEL 3
REMARK VINA RESULT:    -4.398      5.695      7.910
REMARK INTER + INTRA:          -7.570
REMARK INTER:                  -7.156
REMARK INTRA:                  -0.414
REMARK UNBOUND:                -0.600
REMARK SMILES CCCCCCCCCCCC(=O)[O-]
REMARK SMILES IDX 7 1 8 2 9 3 10 4 11 5 12 6 13 7 14 8 6 9 5 10 4 11 3 12 2 13
REMARK SMILES IDX 1 14
REMARK H PARENT
REMARK Flexibility Score: inf
ROOT
ATOM      1  C   UNL     1      -3.868  -0.227  11.082  1.00  0.00     0.000 C 
ENDROOT
BRANCH   1   2
ATOM      2  C   UNL     1      -3.715  -0.169   9.555  1.00  0.00     0.000 C 
BRANCH   2   3
ATOM      3  C   UNL     1      -4.253  -1.451   8.902  1.00  0.00     0.000 C 
BRANCH   3   4
ATOM      4  C   UNL     1      -3.169  -2.523   8.692  1.00  0.00     0.006 C 
BRANCH   4   5
ATOM      5  C   UNL     1      -3.647  -3.959   8.973  1.00  0.00     0.053 C 
BRANCH   5   6
ATOM      6  C   UNL     1      -3.769  -4.248  10.440  1.00  0.00     0.041 C 
ATOM      7  O   UNL     1      -2.987  -3.698  11.259  1.00  0.00    -0.550 OA
ATOM      8  O   UNL     1      -4.769  -5.093  10.904  1.00  0.00    -0.550 OA
ENDBRANCH   5   6
ENDBRANCH   4   5
ENDBRANCH   3   4
ENDBRANCH   2   3
ENDBRANCH   1   2
BRANCH   1   9
ATOM      9  C   UNL     1      -4.473   1.060  11.666  1.00  0.00     0.000 C 
BRANCH   9  10
ATOM     10  C   UNL     1      -5.126   0.839  13.039  1.00  0.00    -0.000 C 
BRANCH  10  11
ATOM     11  C   UNL     1      -5.419   2.176  13.730  1.00  0.00    -0.000 C 
BRANCH  11  12
ATOM     12  C   UNL     1      -4.846   2.198  15.153  1.00  0.00    -0.000 C 
BRANCH  12  13
ATOM     13  C   UNL     1      -5.519   3.253  16.046  1.00  0.00    -0.003 C 
ATOM     14  C   UNL     1      -6.914   2.833  16.507  1.00  0.00     0.004 C 
ENDBRANCH  12  13
ENDBRANCH  11  12
ENDBRANCH  10  11
ENDBRANCH   9  10
ENDBRANCH   1   9
TORSDOF 10
ENDMDL
MODEL 4
REMARK VINA RESULT:    -4.336      4.326      6.166
REMARK INTER + INTRA:          -7.471
REMARK INTER:                  -7.028
REMARK INTRA:                  -0.444
REMARK UNBOUND:                -0.600
REMARK SMILES CCCCCCCCCCCC(=O)[O-]
REMARK SMILES IDX 7 1 8 2 9 3 10 4 11 5 12 6 13 7 14 8 6 9 5 10 4 11 3 12 2 13
REMARK SMILES IDX 1 14
REMARK H PARENT
REMARK Flexibility Score: inf
ROOT
ATOM      1  C   UNL     1      -5.367   0.942  13.013  1.00  0.00     0.000 C 
ENDROOT
BRANCH   1   2
ATOM      2  C   UNL     1      -5.430   2.311  13.706  1.00  0.00     0.000 C 
BRANCH   2   3
ATOM      3  C   UNL     1      -4.799   2.246  15.105  1.00  0.00     0.000 C 
BRANCH   3   4
ATOM      4  C   UNL     1      -5.479   3.185  16.118  1.00  0.00     0.006 C 
BRANCH   4   5
ATOM      5  C   UNL     1      -6.968   2.875  16.356  1.00  0.00     0.053 C 
BRANCH   5   6
ATOM      6  C   UNL     1      -7.857   4.036  16.027  1.00  0.00     0.041 C 
ATOM      7  O   UNL     1      -7.909   5.031  16.798  1.00  0.00    -0.550 OA
ATOM      8  O   UNL     1      -8.600   4.037  14.853  1.00  0.00    -0.550 OA
ENDBRANCH   5   6
ENDBRANCH   4   5
ENDBRANCH   3   4
ENDBRANCH   2   3
ENDBRANCH   1   2
BRANCH   1   9
ATOM      9  C   UNL     1      -4.354   0.908  11.858  1.00  0.00     0.000 C 
BRANCH   9  10
ATOM     10  C   UNL     1      -3.736  -0.483  11.651  1.00  0.00    -0.000 C 
BRANCH  10  11
ATOM     11  C   UNL     1      -3.850  -0.923  10.186  1.00  0.00    -0.000 C 
BRANCH  11  12
ATOM     12  C   UNL     1      -3.228  -2.311   9.978  1.00  0.00    -0.000 C 
BRANCH  12  13
ATOM     13  C   UNL     1      -3.046  -3.081  11.295  1.00  0.00    -0.003 C 
ATOM     14  C   UNL     1      -4.098  -4.172  11.492  1.00  0.00     0.004 C 
ENDBRANCH  12  13
ENDBRANCH  11  12
ENDBRANCH  10  11
ENDBRANCH   9  10
ENDBRANCH   1   9
TORSDOF 10
ENDMDL
MODEL 5
REMARK VINA RESULT:    -4.265      6.037      8.144
REMARK INTER + INTRA:          -7.359
REMARK INTER:                  -6.821
REMARK INTRA:                  -0.537
REMARK UNBOUND:                -0.600
REMARK SMILES CCCCCCCCCCCC(=O)[O-]
REMARK SMILES IDX 7 1 8 2 9 3 10 4 11 5 12 6 13 7 14 8 6 9 5 10 4 11 3 12 2 13
REMARK SMILES IDX 1 14
REMARK H PARENT
REMARK Flexibility Score: inf
ROOT
ATOM      1  C   UNL     1      -3.783  -0.073   9.702  1.00  0.00     0.000 C 
ENDROOT
BRANCH   1   2
ATOM      2  C   UNL     1      -4.118  -1.248   8.772  1.00  0.00     0.000 C 
BRANCH   2   3
ATOM      3  C   UNL     1      -2.845  -2.001   8.360  1.00  0.00     0.000 C 
BRANCH   3   4
ATOM      4  C   UNL     1      -2.717  -3.383   9.028  1.00  0.00     0.006 C 
BRANCH   4   5
ATOM      5  C   UNL     1      -4.054  -4.132   9.175  1.00  0.00     0.053 C 
BRANCH   5   6
ATOM      6  C   UNL     1      -4.303  -4.593  10.580  1.00  0.00     0.041 C 
ATOM      7  O   UNL     1      -5.144  -5.502  10.807  1.00  0.00    -0.550 OA
ATOM      8  O   UNL     1      -3.581  -4.045  11.633  1.00  0.00    -0.550 OA
ENDBRANCH   5   6
ENDBRANCH   4   5
ENDBRANCH   3   4
ENDBRANCH   2   3
ENDBRANCH   1   2
BRANCH   1   9
ATOM      9  C   UNL     1      -3.688  -0.493  11.177  1.00  0.00     0.000 C 
BRANCH   9  10
ATOM     10  C   UNL     1      -3.540   0.705  12.127  1.00  0.00    -0.000 C 
BRANCH  10  11
ATOM     11  C   UNL     1      -4.904   1.145  12.673  1.00  0.00    -0.000 C 
BRANCH  11  12
ATOM     12  C   UNL     1      -4.830   1.423  14.181  1.00  0.00    -0.000 C 
BRANCH  12  13
ATOM     13  C   UNL     1      -5.756   2.569  14.617  1.00  0.00    -0.003 C 
ATOM     14  C   UNL     1      -5.458   3.062  16.033  1.00  0.00     0.004 C 
ENDBRANCH  12  13
ENDBRANCH  11  12
ENDBRANCH  10  11
ENDBRANCH   9  10
ENDBRANCH   1   9
TORSDOF 10
ENDMDL
MODEL 6
REMARK VINA RESULT:    -4.247      5.185      6.683
REMARK INTER + INTRA:          -7.330
REMARK INTER:                  -5.859
REMARK INTRA:                  -1.471
REMARK UNBOUND:                -0.600
REMARK SMILES CCCCCCCCCCCC(=O)[O-]
REMARK SMILES IDX 7 1 8 2 9 3 10 4 11 5 12 6 13 7 14 8 6 9 5 10 4 11 3 12 2 13
REMARK SMILES IDX 1 14
REMARK H PARENT
REMARK Flexibility Score: inf
ROOT
ATOM      1  C   UNL     1      -4.504   4.958  14.431  1.00  0.00     0.000 C 
ENDROOT
BRANCH   1   2
ATOM      2  C   UNL     1      -5.231   6.161  13.813  1.00  0.00     0.000 C 
BRANCH   2   3
ATOM      3  C   UNL     1      -6.146   6.837  14.844  1.00  0.00     0.000 C 
BRANCH   3   4
ATOM      4  C   UNL     1      -5.533   6.888  16.255  1.00  0.00     0.006 C 
BRANCH   4   5
ATOM      5  C   UNL     1      -6.570   6.811  17.390  1.00  0.00     0.053 C 
BRANCH   5   6
ATOM      6  C   UNL     1      -6.533   8.013  18.286  1.00  0.00     0.041 C 
ATOM      7  O   UNL     1      -7.206   9.037  17.999  1.00  0.00    -0.550 OA
ATOM      8  O   UNL     1      -5.785   7.988  19.456  1.00  0.00    -0.550 OA
ENDBRANCH   5   6
ENDBRANCH   4   5
ENDBRANCH   3   4
ENDBRANCH   2   3
ENDBRANCH   1   2
BRANCH   1   9
ATOM      9  C   UNL     1      -4.887   3.627  13.764  1.00  0.00     0.000 C 
BRANCH   9  10
ATOM     10  C   UNL     1      -5.317   2.557  14.778  1.00  0.00    -0.000 C 
BRANCH  10  11
ATOM     11  C   UNL     1      -5.759   3.198  16.099  1.00  0.00    -0.000 C 
BRANCH  11  12
ATOM     12  C   UNL     1      -7.230   2.878  16.402  1.00  0.00    -0.000 C 
BRANCH  12  13
ATOM     13  C   UNL     1      -8.167   4.057  16.095  1.00  0.00    -0.003 C 
ATOM     14  C   UNL     1      -8.635   4.076  14.640  1.00  0.00     0.004 C 
ENDBRANCH  12  13
ENDBRANCH  11  12
ENDBRANCH  10  11
ENDBRANCH   9  10
ENDBRANCH   1   9
TORSDOF 10
ENDMDL
MODEL 7
REMARK VINA RESULT:    -4.231      3.327      6.815
REMARK INTER + INTRA:          -7.305
REMARK INTER:                  -6.855
REMARK INTRA:                  -0.450
REMARK UNBOUND:                -0.600
REMARK SMILES CCCCCCCCCCCC(=O)[O-]
REMARK SMILES IDX 7 1 8 2 9 3 10 4 11 5 12 6 13 7 14 8 6 9 5 10 4 11 3 12 2 13
REMARK SMILES IDX 1 14
REMARK H PARENT
REMARK Flexibility Score: inf
ROOT
ATOM      1  C   UNL     1      -3.135   2.273  14.340  1.00  0.00     0.000 C 
ENDROOT
BRANCH   1   2
ATOM      2  C   UNL     1      -2.225   1.310  15.117  1.00  0.00     0.000 C 
BRANCH   2   3
ATOM      3  C   UNL     1      -1.293   2.081  16.063  1.00  0.00     0.000 C 
BRANCH   3   4
ATOM      4  C   UNL     1      -0.320   1.167  16.831  1.00  0.00     0.006 C 
BRANCH   4   5
ATOM      5  C   UNL     1      -0.216   1.488  18.333  1.00  0.00     0.053 C 
BRANCH   5   6
ATOM      6  C   UNL     1      -0.378   0.271  19.194  1.00  0.00     0.041 C 
ATOM      7  O   UNL     1      -0.019  -0.858  18.767  1.00  0.00    -0.550 OA
ATOM      8  O   UNL     1      -0.890   0.389  20.480  1.00  0.00    -0.550 OA
ENDBRANCH   5   6
ENDBRANCH   4   5
ENDBRANCH   3   4
ENDBRANCH   2   3
ENDBRANCH   1   2
BRANCH   1   9
ATOM      9  C   UNL     1      -4.466   1.625  13.926  1.00  0.00     0.000 C 
BRANCH   9  10
ATOM     10  C   UNL     1      -5.685   2.476  14.311  1.00  0.00    -0.000 C 
BRANCH  10  11
ATOM     11  C   UNL     1      -5.543   3.028  15.735  1.00  0.00    -0.000 C 
BRANCH  11  12
ATOM     12  C   UNL     1      -6.868   2.921  16.503  1.00  0.00    -0.000 C 
BRANCH  12  13
ATOM     13  C   UNL     1      -7.701   4.210  16.429  1.00  0.00    -0.003 C 
ATOM     14  C   UNL     1      -6.936   5.437  16.925  1.00  0.00     0.004 C 
ENDBRANCH  12  13
ENDBRANCH  11  12
ENDBRANCH  10  11
ENDBRANCH   9  10
ENDBRANCH   1   9
TORSDOF 10
ENDMDL
MODEL 8
REMARK VINA RESULT:    -4.210      4.207      6.013
REMARK INTER + INTRA:          -7.271
REMARK INTER:                  -5.997
REMARK INTRA:                  -1.274
REMARK UNBOUND:                -0.600
REMARK SMILES CCCCCCCCCCCC(=O)[O-]
REMARK SMILES IDX 7 1 8 2 9 3 10 4 11 5 12 6 13 7 14 8 6 9 5 10 4 11 3 12 2 13
REMARK SMILES IDX 1 14
REMARK H PARENT
REMARK Flexibility Score: inf
ROOT
ATOM      1  C   UNL     1      -4.415   0.512  11.867  1.00  0.00     0.000 C 
ENDROOT
BRANCH   1   2
ATOM      2  C   UNL     1      -5.210   1.116  13.034  1.00  0.00     0.000 C 
BRANCH   2   3
ATOM      3  C   UNL     1      -4.287   1.428  14.222  1.00  0.00     0.000 C 
BRANCH   3   4
ATOM      4  C   UNL     1      -4.836   2.536  15.139  1.00  0.00     0.006 C 
BRANCH   4   5
ATOM      5  C   UNL     1      -6.234   3.041  14.741  1.00  0.00     0.053 C 
BRANCH   5   6
ATOM      6  C   UNL     1      -7.177   3.104  15.905  1.00  0.00     0.041 C 
ATOM      7  O   UNL     1      -6.935   2.445  16.950  1.00  0.00    -0.550 OA
ATOM      8  O   UNL     1      -8.302   3.918  15.850  1.00  0.00    -0.550 OA
ENDBRANCH   5   6
ENDBRANCH   4   5
ENDBRANCH   3   4
ENDBRANCH   2   3
ENDBRANCH   1   2
BRANCH   1   9
ATOM      9  C   UNL     1      -3.444   1.518  11.229  1.00  0.00     0.000 C 
BRANCH   9  10
ATOM     10  C   UNL     1      -4.117   2.400  10.167  1.00  0.00    -0.000 C 
BRANCH  10  11
ATOM     11  C   UNL     1      -3.693   3.866  10.322  1.00  0.00    -0.000 C 
BRANCH  11  12
ATOM     12  C   UNL     1      -3.241   4.160  11.759  1.00  0.00    -0.000 C 
BRANCH  12  13
ATOM     13  C   UNL     1      -4.218   5.078  12.510  1.00  0.00    -0.003 C 
ATOM     14  C   UNL     1      -3.508   6.069  13.432  1.00  0.00     0.004 C 
ENDBRANCH  12  13
ENDBRANCH  11  12
ENDBRANCH  10  11
ENDBRANCH   9  10
ENDBRANCH   1   9
TORSDOF 10
ENDMDL
MODEL 9
REMARK VINA RESULT:    -4.158      4.240      6.121
REMARK INTER + INTRA:          -7.189
REMARK INTER:                  -6.142
REMARK INTRA:                  -1.047
REMARK UNBOUND:                -0.600
REMARK SMILES CCCCCCCCCCCC(=O)[O-]
REMARK SMILES IDX 7 1 8 2 9 3 10 4 11 5 12 6 13 7 14 8 6 9 5 10 4 11 3 12 2 13
REMARK SMILES IDX 1 14
REMARK H PARENT
REMARK Flexibility Score: inf
ROOT
ATOM      1  C   UNL     1      -4.273   2.800  14.719  1.00  0.00     0.000 C 
ENDROOT
BRANCH   1   2
ATOM      2  C   UNL     1      -4.706   3.882  13.719  1.00  0.00     0.000 C 
BRANCH   2   3
ATOM      3  C   UNL     1      -5.326   5.084  14.447  1.00  0.00     0.000 C 
BRANCH   3   4
ATOM      4  C   UNL     1      -5.339   4.923  15.978  1.00  0.00     0.006 C 
BRANCH   4   5
ATOM      5  C   UNL     1      -6.749   4.944  16.596  1.00  0.00     0.053 C 
BRANCH   5   6
ATOM      6  C   UNL     1      -7.513   3.683  16.328  1.00  0.00     0.041 C 
ATOM      7  O   UNL     1      -7.073   2.577  16.739  1.00  0.00    -0.550 OA
ATOM      8  O   UNL     1      -8.730   3.732  15.658  1.00  0.00    -0.550 OA
ENDBRANCH   5   6
ENDBRANCH   4   5
ENDBRANCH   3   4
ENDBRANCH   2   3
ENDBRANCH   1   2
BRANCH   1   9
ATOM      9  C   UNL     1      -4.518   1.376  14.194  1.00  0.00     0.000 C 
BRANCH   9  10
ATOM     10  C   UNL     1      -5.148   1.361  12.793  1.00  0.00    -0.000 C 
BRANCH  10  11
ATOM     11  C   UNL     1      -4.183   0.761  11.763  1.00  0.00    -0.000 C 
BRANCH  11  12
ATOM     12  C   UNL     1      -4.315   1.467  10.407  1.00  0.00    -0.000 C 
BRANCH  12  13
ATOM     13  C   UNL     1      -3.248   2.553  10.198  1.00  0.00    -0.003 C 
ATOM     14  C   UNL     1      -3.849   3.949  10.038  1.00  0.00     0.004 C 
ENDBRANCH  12  13
ENDBRANCH  11  12
ENDBRANCH  10  11
ENDBRANCH   9  10
ENDBRANCH   1   9
TORSDOF 10
ENDMDL
