MODEL 1
REMARK VINA RESULT:    -4.714      0.000      0.000
REMARK INTER + INTRA:          -6.165
REMARK INTER:                  -5.816
REMARK INTRA:                  -0.349
REMARK UNBOUND:                -0.349
REMARK SMILES Oc1cc(O)c2cc(O)c(-c3cc(O)c(O)c(O)c3)[o+]c2c1
REMARK SMILES IDX 10 1 20 2 21 3 22 4 2 5 3 6 4 7 6 8 7 9 8 10 11 11 12 12
REMARK SMILES IDX 13 13 19 14 15 15 17 16 14 17 16 19 18 21 9 23 1 25 5 27
REMARK H PARENT 14 18 16 20 18 22 9 24 1 26 5 28
REMARK Flexibility Score: inf
ROOT
ATOM      1  C   UNL     1      -3.574  24.054 306.343  1.00  0.00     0.402 A 
ATOM      2  O   UNL     1      -3.873  22.818 306.735  1.00  0.00    -0.202 OA
ATOM      3  C   UNL     1      -3.658  21.742 305.983  1.00  0.00     0.368 A 
ATOM      4  C   UNL     1      -4.009  20.484 306.482  1.00  0.00     0.162 A 
ATOM      5  C   UNL     1      -3.797  19.338 305.715  1.00  0.00     0.128 A 
ATOM      6  C   UNL     1      -3.230  19.448 304.440  1.00  0.00     0.093 A 
ATOM      7  C   UNL     1      -2.870  20.696 303.918  1.00  0.00     0.136 A 
ATOM      8  C   UNL     1      -3.082  21.864 304.697  1.00  0.00     0.125 A 
ATOM      9  C   UNL     1      -2.740  23.155 304.260  1.00  0.00     0.078 A 
ATOM     10  C   UNL     1      -2.975  24.259 305.087  1.00  0.00     0.223 A 
ENDROOT
BRANCH   1  11
ATOM     11  C   UNL     1      -3.873  25.172 307.266  1.00  0.00     0.091 A 
ATOM     12  C   UNL     1      -2.845  25.700 308.064  1.00  0.00     0.068 A 
ATOM     13  C   UNL     1      -3.101  26.744 308.958  1.00  0.00     0.162 A 
ATOM     14  C   UNL     1      -5.175  25.681 307.403  1.00  0.00     0.068 A 
ATOM     15  C   UNL     1      -4.402  27.265 309.077  1.00  0.00     0.200 A 
ATOM     16  C   UNL     1      -5.441  26.726 308.298  1.00  0.00     0.162 A 
BRANCH  13  17
ATOM     17  O   UNL     1      -2.051  27.251 309.723  1.00  0.00    -0.504 OA
ATOM     18  H   UNL     1      -2.200  27.675 310.631  1.00  0.00     0.293 HD
ENDBRANCH  13  17
BRANCH  15  19
ATOM     19  O   UNL     1      -4.649  28.308 309.971  1.00  0.00    -0.502 OA
ATOM     20  H   UNL     1      -4.624  28.175 310.975  1.00  0.00     0.293 HD
ENDBRANCH  15  19
BRANCH  16  21
ATOM     21  O   UNL     1      -6.737  27.227 308.422  1.00  0.00    -0.504 OA
ATOM     22  H   UNL     1      -7.543  26.614 308.444  1.00  0.00     0.293 HD
ENDBRANCH  16  21
ENDBRANCH   1  11
BRANCH  10  23
ATOM     23  O   UNL     1      -2.590  25.535 304.675  1.00  0.00    -0.500 OA
ATOM     24  H   UNL     1      -1.754  25.981 305.034  1.00  0.00     0.294 HD
ENDBRANCH  10  23
BRANCH   5  25
ATOM     25  O   UNL     1      -4.152  18.094 306.228  1.00  0.00    -0.507 OA
ATOM     26  H   UNL     1      -5.092  17.905 306.559  1.00  0.00     0.293 HD
ENDBRANCH   5  25
BRANCH   7  27
ATOM     27  O   UNL     1      -2.313  20.723 302.636  1.00  0.00    -0.507 OA
ATOM     28  H   UNL     1      -2.008  21.561 302.163  1.00  0.00     0.293 HD
ENDBRANCH   7  27
TORSDOF 7
ENDMDL
MODEL 2
REMARK VINA RESULT:    -4.710      0.132      1.799
REMARK INTER + INTRA:          -6.160
REMARK INTER:                  -5.814
REMARK INTRA:                  -0.346
REMARK UNBOUND:                -0.349
REMARK SMILES Oc1cc(O)c2cc(O)c(-c3cc(O)c(O)c(O)c3)[o+]c2c1
REMARK SMILES IDX 10 1 20 2 21 3 22 4 2 5 3 6 4 7 6 8 7 9 8 10 11 11 12 12
REMARK SMILES IDX 13 13 19 14 15 15 17 16 14 17 16 19 18 21 9 23 1 25 5 27
REMARK H PARENT 14 18 16 20 18 22 9 24 1 26 5 28
REMARK Flexibility Score: inf
ROOT
ATOM      1  C   UNL     1      -3.540  24.088 306.376  1.00  0.00     0.402 A 
ATOM      2  O   UNL     1      -3.821  22.841 306.745  1.00  0.00    -0.202 OA
ATOM      3  C   UNL     1      -3.650  21.788 305.951  1.00  0.00     0.368 A 
ATOM      4  C   UNL     1      -3.976  20.516 306.429  1.00  0.00     0.162 A 
ATOM      5  C   UNL     1      -3.810  19.394 305.617  1.00  0.00     0.128 A 
ATOM      6  C   UNL     1      -3.313  19.542 304.317  1.00  0.00     0.093 A 
ATOM      7  C   UNL     1      -2.979  20.806 303.815  1.00  0.00     0.136 A 
ATOM      8  C   UNL     1      -3.145  21.949 304.639  1.00  0.00     0.125 A 
ATOM      9  C   UNL     1      -2.824  23.252 304.224  1.00  0.00     0.078 A 
ATOM     10  C   UNL     1      -3.010  24.331 305.096  1.00  0.00     0.223 A 
ENDROOT
BRANCH   1  11
ATOM     11  C   UNL     1      -3.785  25.177 307.347  1.00  0.00     0.091 A 
ATOM     12  C   UNL     1      -5.082  25.693 307.493  1.00  0.00     0.068 A 
ATOM     13  C   UNL     1      -5.340  26.735 308.389  1.00  0.00     0.162 A 
ATOM     14  C   UNL     1      -2.736  25.747 308.088  1.00  0.00     0.068 A 
ATOM     15  C   UNL     1      -4.291  27.288 309.144  1.00  0.00     0.200 A 
ATOM     16  C   UNL     1      -2.985  26.793 308.987  1.00  0.00     0.162 A 
BRANCH  13  17
ATOM     17  O   UNL     1      -6.646  27.209 308.516  1.00  0.00    -0.504 OA
ATOM     18  H   UNL     1      -7.298  27.208 307.740  1.00  0.00     0.293 HD
ENDBRANCH  13  17
BRANCH  15  19
ATOM     19  O   UNL     1      -4.557  28.327 310.038  1.00  0.00    -0.502 OA
ATOM     20  H   UNL     1      -5.383  28.336 310.625  1.00  0.00     0.293 HD
ENDBRANCH  15  19
BRANCH  16  21
ATOM     21  O   UNL     1      -1.936  27.347 309.722  1.00  0.00    -0.504 OA
ATOM     22  H   UNL     1      -0.978  27.303 309.396  1.00  0.00     0.293 HD
ENDBRANCH  16  21
ENDBRANCH   1  11
BRANCH  10  23
ATOM     23  O   UNL     1      -2.644  25.619 304.703  1.00  0.00    -0.500 OA
ATOM     24  H   UNL     1      -3.167  26.130 304.001  1.00  0.00     0.294 HD
ENDBRANCH  10  23
BRANCH   5  25
ATOM     25  O   UNL     1      -4.140  18.135 306.111  1.00  0.00    -0.507 OA
ATOM     26  H   UNL     1      -4.429  17.382 305.495  1.00  0.00     0.293 HD
ENDBRANCH   5  25
BRANCH   7  27
ATOM     27  O   UNL     1      -2.492  20.871 302.505  1.00  0.00    -0.507 OA
ATOM     28  H   UNL     1      -1.518  20.967 302.263  1.00  0.00     0.293 HD
ENDBRANCH   7  27
TORSDOF 7
ENDMDL
MODEL 3
REMARK VINA RESULT:    -4.579      1.099      2.603
REMARK INTER + INTRA:          -5.999
REMARK INTER:                  -5.651
REMARK INTRA:                  -0.347
REMARK UNBOUND:                -0.349
REMARK SMILES Oc1cc(O)c2cc(O)c(-c3cc(O)c(O)c(O)c3)[o+]c2c1
REMARK SMILES IDX 10 1 20 2 21 3 22 4 2 5 3 6 4 7 6 8 7 9 8 10 11 11 12 12
REMARK SMILES IDX 13 13 19 14 15 15 17 16 14 17 16 19 18 21 9 23 1 25 5 27
REMARK H PARENT 14 18 16 20 18 22 9 24 1 26 5 28
REMARK Flexibility Score: inf
ROOT
ATOM      1  C   UNL     1      -3.831  23.946 306.949  1.00  0.00     0.402 A 
ATOM      2  O   UNL     1      -3.424  24.024 305.685  1.00  0.00    -0.202 OA
ATOM      3  C   UNL     1      -3.202  22.957 304.923  1.00  0.00     0.368 A 
ATOM      4  C   UNL     1      -2.772  23.141 303.606  1.00  0.00     0.162 A 
ATOM      5  C   UNL     1      -2.529  22.041 302.783  1.00  0.00     0.128 A 
ATOM      6  C   UNL     1      -2.717  20.746 303.279  1.00  0.00     0.093 A 
ATOM      7  C   UNL     1      -3.148  20.535 304.595  1.00  0.00     0.136 A 
ATOM      8  C   UNL     1      -3.398  21.652 305.433  1.00  0.00     0.125 A 
ATOM      9  C   UNL     1      -3.843  21.537 306.761  1.00  0.00     0.078 A 
ATOM     10  C   UNL     1      -4.074  22.685 307.525  1.00  0.00     0.223 A 
ENDROOT
BRANCH   1  11
ATOM     11  C   UNL     1      -4.032  25.206 307.699  1.00  0.00     0.091 A 
ATOM     12  C   UNL     1      -2.926  25.847 308.279  1.00  0.00     0.068 A 
ATOM     13  C   UNL     1      -3.087  27.029 309.009  1.00  0.00     0.162 A 
ATOM     14  C   UNL     1      -5.314  25.747 307.892  1.00  0.00     0.068 A 
ATOM     15  C   UNL     1      -4.370  27.579 309.182  1.00  0.00     0.200 A 
ATOM     16  C   UNL     1      -5.486  26.930 308.624  1.00  0.00     0.162 A 
BRANCH  13  17
ATOM     17  O   UNL     1      -1.961  27.644 309.556  1.00  0.00    -0.504 OA
ATOM     18  H   UNL     1      -1.264  28.102 308.982  1.00  0.00     0.293 HD
ENDBRANCH  13  17
BRANCH  15  19
ATOM     19  O   UNL     1      -4.522  28.759 309.910  1.00  0.00    -0.502 OA
ATOM     20  H   UNL     1      -4.076  28.901 310.809  1.00  0.00     0.293 HD
ENDBRANCH  15  19
BRANCH  16  21
ATOM     21  O   UNL     1      -6.763  27.461 308.805  1.00  0.00    -0.504 OA
ATOM     22  H   UNL     1      -7.438  27.023 309.420  1.00  0.00     0.293 HD
ENDBRANCH  16  21
ENDBRANCH   1  11
BRANCH  10  23
ATOM     23  O   UNL     1      -4.565  22.573 308.827  1.00  0.00    -0.500 OA
ATOM     24  H   UNL     1      -5.558  22.596 309.025  1.00  0.00     0.294 HD
ENDBRANCH  10  23
BRANCH   5  25
ATOM     25  O   UNL     1      -2.102  22.244 301.474  1.00  0.00    -0.507 OA
ATOM     26  H   UNL     1      -2.518  21.743 300.697  1.00  0.00     0.293 HD
ENDBRANCH   5  25
BRANCH   7  27
ATOM     27  O   UNL     1      -3.308  19.211 305.016  1.00  0.00    -0.507 OA
ATOM     28  H   UNL     1      -2.830  18.802 305.805  1.00  0.00     0.293 HD
ENDBRANCH   7  27
TORSDOF 7
ENDMDL
MODEL 4
REMARK VINA RESULT:    -4.547      1.096      3.163
REMARK INTER + INTRA:          -5.960
REMARK INTER:                  -5.613
REMARK INTRA:                  -0.347
REMARK UNBOUND:                -0.349
REMARK SMILES Oc1cc(O)c2cc(O)c(-c3cc(O)c(O)c(O)c3)[o+]c2c1
REMARK SMILES IDX 10 1 20 2 21 3 22 4 2 5 3 6 4 7 6 8 7 9 8 10 11 11 12 12
REMARK SMILES IDX 13 13 19 14 15 15 17 16 14 17 16 19 18 21 9 23 1 25 5 27
REMARK H PARENT 14 18 16 20 18 22 9 24 1 26 5 28
REMARK Flexibility Score: inf
ROOT
ATOM      1  C   UNL     1      -3.772  23.877 306.933  1.00  0.00     0.402 A 
ATOM      2  O   UNL     1      -3.366  23.978 305.670  1.00  0.00    -0.202 OA
ATOM      3  C   UNL     1      -3.164  22.927 304.881  1.00  0.00     0.368 A 
ATOM      4  C   UNL     1      -2.734  23.135 303.568  1.00  0.00     0.162 A 
ATOM      5  C   UNL     1      -2.512  22.051 302.718  1.00  0.00     0.128 A 
ATOM      6  C   UNL     1      -2.722  20.748 303.183  1.00  0.00     0.093 A 
ATOM      7  C   UNL     1      -3.153  20.513 304.494  1.00  0.00     0.136 A 
ATOM      8  C   UNL     1      -3.382  21.613 305.360  1.00  0.00     0.125 A 
ATOM      9  C   UNL     1      -3.826  21.473 306.686  1.00  0.00     0.078 A 
ATOM     10  C   UNL     1      -4.035  22.607 307.478  1.00  0.00     0.223 A 
ENDROOT
BRANCH   1  11
ATOM     11  C   UNL     1      -3.949  25.122 307.713  1.00  0.00     0.091 A 
ATOM     12  C   UNL     1      -5.234  25.667 307.859  1.00  0.00     0.068 A 
ATOM     13  C   UNL     1      -5.430  26.853 308.575  1.00  0.00     0.162 A 
ATOM     14  C   UNL     1      -2.851  25.802 308.266  1.00  0.00     0.068 A 
ATOM     15  C   UNL     1      -4.331  27.519 309.144  1.00  0.00     0.200 A 
ATOM     16  C   UNL     1      -3.037  26.992 308.984  1.00  0.00     0.162 A 
BRANCH  13  17
ATOM     17  O   UNL     1      -6.724  27.354 308.710  1.00  0.00    -0.504 OA
ATOM     18  H   UNL     1      -6.919  28.349 308.719  1.00  0.00     0.293 HD
ENDBRANCH  13  17
BRANCH  15  19
ATOM     19  O   UNL     1      -4.535  28.700 309.859  1.00  0.00    -0.502 OA
ATOM     20  H   UNL     1      -4.317  29.611 309.471  1.00  0.00     0.293 HD
ENDBRANCH  15  19
BRANCH  16  21
ATOM     21  O   UNL     1      -1.941  27.656 309.533  1.00  0.00    -0.504 OA
ATOM     22  H   UNL     1      -1.255  28.121 308.949  1.00  0.00     0.293 HD
ENDBRANCH  16  21
ENDBRANCH   1  11
BRANCH  10  23
ATOM     23  O   UNL     1      -4.525  22.472 308.778  1.00  0.00    -0.500 OA
ATOM     24  H   UNL     1      -4.070  22.914 309.568  1.00  0.00     0.294 HD
ENDBRANCH  10  23
BRANCH   5  25
ATOM     25  O   UNL     1      -2.084  22.278 301.413  1.00  0.00    -0.507 OA
ATOM     26  H   UNL     1      -2.574  21.882 300.618  1.00  0.00     0.293 HD
ENDBRANCH   5  25
BRANCH   7  27
ATOM     27  O   UNL     1      -3.336  19.182 304.884  1.00  0.00    -0.507 OA
ATOM     28  H   UNL     1      -3.867  18.892 305.691  1.00  0.00     0.293 HD
ENDBRANCH   7  27
TORSDOF 7
ENDMDL
MODEL 5
REMARK VINA RESULT:    -4.258      1.309      7.344
REMARK INTER + INTRA:          -5.603
REMARK INTER:                  -5.282
REMARK INTRA:                  -0.321
REMARK UNBOUND:                -0.349
REMARK SMILES Oc1cc(O)c2cc(O)c(-c3cc(O)c(O)c(O)c3)[o+]c2c1
REMARK SMILES IDX 10 1 20 2 21 3 22 4 2 5 3 6 4 7 6 8 7 9 8 10 11 11 12 12
REMARK SMILES IDX 13 13 19 14 15 15 17 16 14 17 16 19 18 21 9 23 1 25 5 27
REMARK H PARENT 14 18 16 20 18 22 9 24 1 26 5 28
REMARK Flexibility Score: inf
ROOT
ATOM      1  C   UNL     1      -4.388  23.518 306.866  1.00  0.00     0.402 A 
ATOM      2  O   UNL     1      -3.447  24.419 307.131  1.00  0.00    -0.202 OA
ATOM      3  C   UNL     1      -3.667  25.515 307.852  1.00  0.00     0.368 A 
ATOM      4  C   UNL     1      -2.613  26.406 308.074  1.00  0.00     0.162 A 
ATOM      5  C   UNL     1      -2.816  27.565 308.824  1.00  0.00     0.128 A 
ATOM      6  C   UNL     1      -4.081  27.837 309.356  1.00  0.00     0.093 A 
ATOM      7  C   UNL     1      -5.153  26.960 309.148  1.00  0.00     0.136 A 
ATOM      8  C   UNL     1      -4.950  25.780 308.388  1.00  0.00     0.125 A 
ATOM      9  C   UNL     1      -5.962  24.838 308.139  1.00  0.00     0.078 A 
ATOM     10  C   UNL     1      -5.684  23.694 307.384  1.00  0.00     0.223 A 
ENDROOT
BRANCH   1  11
ATOM     11  C   UNL     1      -4.022  22.344 306.042  1.00  0.00     0.091 A 
ATOM     12  C   UNL     1      -3.921  22.484 304.649  1.00  0.00     0.068 A 
ATOM     13  C   UNL     1      -3.595  21.389 303.843  1.00  0.00     0.162 A 
ATOM     14  C   UNL     1      -3.826  21.077 306.618  1.00  0.00     0.068 A 
ATOM     15  C   UNL     1      -3.380  20.127 304.425  1.00  0.00     0.200 A 
ATOM     16  C   UNL     1      -3.500  19.973 305.818  1.00  0.00     0.162 A 
BRANCH  13  17
ATOM     17  O   UNL     1      -3.491  21.572 302.464  1.00  0.00    -0.504 OA
ATOM     18  H   UNL     1      -4.258  21.372 301.834  1.00  0.00     0.293 HD
ENDBRANCH  13  17
BRANCH  15  19
ATOM     19  O   UNL     1      -3.053  19.039 303.614  1.00  0.00    -0.502 OA
ATOM     20  H   UNL     1      -2.249  18.451 303.799  1.00  0.00     0.293 HD
ENDBRANCH  15  19
BRANCH  16  21
ATOM     21  O   UNL     1      -3.303  18.722 306.400  1.00  0.00    -0.504 OA
ATOM     22  H   UNL     1      -2.383  18.409 306.687  1.00  0.00     0.293 HD
ENDBRANCH  16  21
ENDBRANCH   1  11
BRANCH  10  23
ATOM     23  O   UNL     1      -6.676  22.733 307.179  1.00  0.00    -0.500 OA
ATOM     24  H   UNL     1      -6.450  21.757 307.033  1.00  0.00     0.294 HD
ENDBRANCH  10  23
BRANCH   5  25
ATOM     25  O   UNL     1      -1.754  28.439 309.035  1.00  0.00    -0.507 OA
ATOM     26  H   UNL     1      -1.893  29.349 309.461  1.00  0.00     0.293 HD
ENDBRANCH   5  25
BRANCH   7  27
ATOM     27  O   UNL     1      -6.386  27.306 309.711  1.00  0.00    -0.507 OA
ATOM     28  H   UNL     1      -7.267  27.266 309.221  1.00  0.00     0.293 HD
ENDBRANCH   7  27
TORSDOF 7
ENDMDL
MODEL 6
REMARK VINA RESULT:    -4.251     13.907     16.264
REMARK INTER + INTRA:          -5.594
REMARK INTER:                  -5.597
REMARK INTRA:                   0.003
REMARK UNBOUND:                -0.349
REMARK SMILES Oc1cc(O)c2cc(O)c(-c3cc(O)c(O)c(O)c3)[o+]c2c1
REMARK SMILES IDX 10 1 20 2 21 3 22 4 2 5 3 6 4 7 6 8 7 9 8 10 11 11 12 12
REMARK SMILES IDX 13 13 19 14 15 15 17 16 14 17 16 19 18 21 9 23 1 25 5 27
REMARK H PARENT 14 18 16 20 18 22 9 24 1 26 5 28
REMARK Flexibility Score: inf
ROOT
ATOM      1  C   UNL     1       8.285  17.537 313.149  1.00  0.00     0.402 A 
ATOM      2  O   UNL     1       7.887  18.785 313.382  1.00  0.00    -0.202 OA
ATOM      3  C   UNL     1       8.647  19.693 313.985  1.00  0.00     0.368 A 
ATOM      4  C   UNL     1       8.139  20.979 314.188  1.00  0.00     0.162 A 
ATOM      5  C   UNL     1       8.913  21.952 314.820  1.00  0.00     0.128 A 
ATOM      6  C   UNL     1      10.206  21.640 315.254  1.00  0.00     0.093 A 
ATOM      7  C   UNL     1      10.739  20.359 315.062  1.00  0.00     0.136 A 
ATOM      8  C   UNL     1       9.955  19.368 314.418  1.00  0.00     0.125 A 
ATOM      9  C   UNL     1      10.411  18.062 314.172  1.00  0.00     0.078 A 
ATOM     10  C   UNL     1       9.581  17.140 313.526  1.00  0.00     0.223 A 
ENDROOT
BRANCH   1  11
ATOM     11  C   UNL     1       7.342  16.614 312.479  1.00  0.00     0.091 A 
ATOM     12  C   UNL     1       6.025  16.508 312.956  1.00  0.00     0.068 A 
ATOM     13  C   UNL     1       5.117  15.631 312.355  1.00  0.00     0.162 A 
ATOM     14  C   UNL     1       7.749  15.799 311.410  1.00  0.00     0.068 A 
ATOM     15  C   UNL     1       5.523  14.832 311.272  1.00  0.00     0.200 A 
ATOM     16  C   UNL     1       6.846  14.915 310.803  1.00  0.00     0.162 A 
BRANCH  13  17
ATOM     17  O   UNL     1       3.814  15.566 312.848  1.00  0.00    -0.504 OA
ATOM     18  H   UNL     1       3.175  14.824 312.588  1.00  0.00     0.293 HD
ENDBRANCH  13  17
BRANCH  15  19
ATOM     19  O   UNL     1       4.610  13.960 310.677  1.00  0.00    -0.502 OA
ATOM     20  H   UNL     1       4.805  12.973 310.557  1.00  0.00     0.293 HD
ENDBRANCH  15  19
BRANCH  16  21
ATOM     21  O   UNL     1       7.260  14.114 309.740  1.00  0.00    -0.504 OA
ATOM     22  H   UNL     1       8.088  14.336 309.199  1.00  0.00     0.293 HD
ENDBRANCH  16  21
ENDBRANCH   1  11
BRANCH  10  23
ATOM     23  O   UNL     1      10.052  15.858 313.236  1.00  0.00    -0.500 OA
ATOM     24  H   UNL     1       9.592  15.029 313.593  1.00  0.00     0.294 HD
ENDBRANCH  10  23
BRANCH   5  25
ATOM     25  O   UNL     1       8.389  23.228 315.012  1.00  0.00    -0.507 OA
ATOM     26  H   UNL     1       8.985  24.048 315.031  1.00  0.00     0.293 HD
ENDBRANCH   5  25
BRANCH   7  27
ATOM     27  O   UNL     1      12.037  20.125 315.528  1.00  0.00    -0.507 OA
ATOM     28  H   UNL     1      12.743  19.615 315.017  1.00  0.00     0.293 HD
ENDBRANCH   7  27
TORSDOF 7
ENDMDL
MODEL 7
REMARK VINA RESULT:    -4.167      2.386      7.342
REMARK INTER + INTRA:          -5.490
REMARK INTER:                  -5.241
REMARK INTRA:                  -0.249
REMARK UNBOUND:                -0.349
REMARK SMILES Oc1cc(O)c2cc(O)c(-c3cc(O)c(O)c(O)c3)[o+]c2c1
REMARK SMILES IDX 10 1 20 2 21 3 22 4 2 5 3 6 4 7 6 8 7 9 8 10 11 11 12 12
REMARK SMILES IDX 13 13 19 14 15 15 17 16 14 17 16 19 18 21 9 23 1 25 5 27
REMARK H PARENT 14 18 16 20 18 22 9 24 1 26 5 28
REMARK Flexibility Score: inf
ROOT
ATOM      1  C   UNL     1      -2.592  22.861 303.925  1.00  0.00     0.402 A 
ATOM      2  O   UNL     1      -3.144  22.244 304.966  1.00  0.00    -0.202 OA
ATOM      3  C   UNL     1      -3.615  22.887 306.030  1.00  0.00     0.368 A 
ATOM      4  C   UNL     1      -4.176  22.150 307.077  1.00  0.00     0.162 A 
ATOM      5  C   UNL     1      -4.675  22.798 308.207  1.00  0.00     0.128 A 
ATOM      6  C   UNL     1      -4.616  24.193 308.293  1.00  0.00     0.093 A 
ATOM      7  C   UNL     1      -4.061  24.954 307.258  1.00  0.00     0.136 A 
ATOM      8  C   UNL     1      -3.553  24.299 306.106  1.00  0.00     0.125 A 
ATOM      9  C   UNL     1      -2.990  24.981 305.015  1.00  0.00     0.078 A 
ATOM     10  C   UNL     1      -2.515  24.265 303.911  1.00  0.00     0.223 A 
ENDROOT
BRANCH   1  11
ATOM     11  C   UNL     1      -2.094  22.033 302.804  1.00  0.00     0.091 A 
ATOM     12  C   UNL     1      -2.992  21.218 302.096  1.00  0.00     0.068 A 
ATOM     13  C   UNL     1      -2.546  20.411 301.044  1.00  0.00     0.162 A 
ATOM     14  C   UNL     1      -0.730  22.000 302.467  1.00  0.00     0.068 A 
ATOM     15  C   UNL     1      -1.184  20.397 300.697  1.00  0.00     0.200 A 
ATOM     16  C   UNL     1      -0.275  21.192 301.416  1.00  0.00     0.162 A 
BRANCH  13  17
ATOM     17  O   UNL     1      -3.472  19.627 300.356  1.00  0.00    -0.504 OA
ATOM     18  H   UNL     1      -3.297  19.283 299.419  1.00  0.00     0.293 HD
ENDBRANCH  13  17
BRANCH  15  19
ATOM     19  O   UNL     1      -0.748  19.590 299.645  1.00  0.00    -0.502 OA
ATOM     20  H   UNL     1      -1.000  18.611 299.576  1.00  0.00     0.293 HD
ENDBRANCH  15  19
BRANCH  16  21
ATOM     21  O   UNL     1       1.081  21.172 301.088  1.00  0.00    -0.504 OA
ATOM     22  H   UNL     1       1.487  20.409 300.559  1.00  0.00     0.293 HD
ENDBRANCH  16  21
ENDBRANCH   1  11
BRANCH  10  23
ATOM     23  O   UNL     1      -2.002  24.945 302.805  1.00  0.00    -0.500 OA
ATOM     24  H   UNL     1      -1.146  25.484 302.861  1.00  0.00     0.294 HD
ENDBRANCH  10  23
BRANCH   5  25
ATOM     25  O   UNL     1      -5.230  22.046 309.240  1.00  0.00    -0.507 OA
ATOM     26  H   UNL     1      -4.749  21.243 309.629  1.00  0.00     0.293 HD
ENDBRANCH   5  25
BRANCH   7  27
ATOM     27  O   UNL     1      -4.035  26.343 307.421  1.00  0.00    -0.507 OA
ATOM     28  H   UNL     1      -4.387  27.004 306.743  1.00  0.00     0.293 HD
ENDBRANCH   7  27
TORSDOF 7
ENDMDL
MODEL 8
REMARK VINA RESULT:    -4.166      2.403      7.812
REMARK INTER + INTRA:          -5.489
REMARK INTER:                  -5.245
REMARK INTRA:                  -0.244
REMARK UNBOUND:                -0.349
REMARK SMILES Oc1cc(O)c2cc(O)c(-c3cc(O)c(O)c(O)c3)[o+]c2c1
REMARK SMILES IDX 10 1 20 2 21 3 22 4 2 5 3 6 4 7 6 8 7 9 8 10 11 11 12 12
REMARK SMILES IDX 13 13 19 14 15 15 17 16 14 17 16 19 18 21 9 23 1 25 5 27
REMARK H PARENT 14 18 16 20 18 22 9 24 1 26 5 28
REMARK Flexibility Score: inf
ROOT
ATOM      1  C   UNL     1      -2.684  21.812 304.223  1.00  0.00     0.402 A 
ATOM      2  O   UNL     1      -2.775  23.115 304.475  1.00  0.00    -0.202 OA
ATOM      3  C   UNL     1      -3.309  23.608 305.589  1.00  0.00     0.368 A 
ATOM      4  C   UNL     1      -3.362  24.994 305.761  1.00  0.00     0.162 A 
ATOM      5  C   UNL     1      -3.919  25.539 306.919  1.00  0.00     0.128 A 
ATOM      6  C   UNL     1      -4.426  24.694 307.912  1.00  0.00     0.093 A 
ATOM      7  C   UNL     1      -4.384  23.303 307.764  1.00  0.00     0.136 A 
ATOM      8  C   UNL     1      -3.817  22.745 306.589  1.00  0.00     0.125 A 
ATOM      9  C   UNL     1      -3.721  21.362 306.360  1.00  0.00     0.078 A 
ATOM     10  C   UNL     1      -3.143  20.886 305.178  1.00  0.00     0.223 A 
ENDROOT
BRANCH   1  11
ATOM     11  C   UNL     1      -2.080  21.387 302.940  1.00  0.00     0.091 A 
ATOM     12  C   UNL     1      -2.870  20.714 301.995  1.00  0.00     0.068 A 
ATOM     13  C   UNL     1      -2.322  20.284 300.783  1.00  0.00     0.162 A 
ATOM     14  C   UNL     1      -0.717  21.593 302.669  1.00  0.00     0.068 A 
ATOM     15  C   UNL     1      -0.962  20.511 300.507  1.00  0.00     0.200 A 
ATOM     16  C   UNL     1      -0.159  21.164 301.457  1.00  0.00     0.162 A 
BRANCH  13  17
ATOM     17  O   UNL     1      -3.144  19.632 299.863  1.00  0.00    -0.504 OA
ATOM     18  H   UNL     1      -3.979  19.133 300.146  1.00  0.00     0.293 HD
ENDBRANCH  13  17
BRANCH  15  19
ATOM     19  O   UNL     1      -0.423  20.081 299.293  1.00  0.00    -0.502 OA
ATOM     20  H   UNL     1       0.058  20.711 298.662  1.00  0.00     0.293 HD
ENDBRANCH  15  19
BRANCH  16  21
ATOM     21  O   UNL     1       1.195  21.379 301.197  1.00  0.00    -0.504 OA
ATOM     22  H   UNL     1       1.518  21.683 300.286  1.00  0.00     0.293 HD
ENDBRANCH  16  21
ENDBRANCH   1  11
BRANCH  10  23
ATOM     23  O   UNL     1      -3.002  19.513 304.972  1.00  0.00    -0.500 OA
ATOM     24  H   UNL     1      -2.503  19.143 304.172  1.00  0.00     0.294 HD
ENDBRANCH  10  23
BRANCH   5  25
ATOM     25  O   UNL     1      -3.962  26.922 307.073  1.00  0.00    -0.507 OA
ATOM     26  H   UNL     1      -3.361  27.401 307.735  1.00  0.00     0.293 HD
ENDBRANCH   5  25
BRANCH   7  27
ATOM     27  O   UNL     1      -4.914  22.528 308.800  1.00  0.00    -0.507 OA
ATOM     28  H   UNL     1      -5.890  22.284 308.887  1.00  0.00     0.293 HD
ENDBRANCH   7  27
TORSDOF 7
ENDMDL
MODEL 9
REMARK VINA RESULT:    -4.094     13.741     16.087
REMARK INTER + INTRA:          -5.400
REMARK INTER:                  -5.068
REMARK INTRA:                  -0.333
REMARK UNBOUND:                -0.349
REMARK SMILES Oc1cc(O)c2cc(O)c(-c3cc(O)c(O)c(O)c3)[o+]c2c1
REMARK SMILES IDX 10 1 20 2 21 3 22 4 2 5 3 6 4 7 6 8 7 9 8 10 11 11 12 12
REMARK SMILES IDX 13 13 19 14 15 15 17 16 14 17 16 19 18 21 9 23 1 25 5 27
REMARK H PARENT 14 18 16 20 18 22 9 24 1 26 5 28
REMARK Flexibility Score: inf
ROOT
ATOM      1  C   UNL     1       7.930  18.576 314.114  1.00  0.00     0.402 A 
ATOM      2  O   UNL     1       7.191  19.511 314.705  1.00  0.00    -0.202 OA
ATOM      3  C   UNL     1       7.698  20.447 315.501  1.00  0.00     0.368 A 
ATOM      4  C   UNL     1       6.839  21.387 316.079  1.00  0.00     0.162 A 
ATOM      5  C   UNL     1       7.343  22.379 316.921  1.00  0.00     0.128 A 
ATOM      6  C   UNL     1       8.715  22.434 317.188  1.00  0.00     0.093 A 
ATOM      7  C   UNL     1       9.597  21.505 316.622  1.00  0.00     0.136 A 
ATOM      8  C   UNL     1       9.088  20.496 315.763  1.00  0.00     0.125 A 
ATOM      9  C   UNL     1       9.898  19.531 315.141  1.00  0.00     0.078 A 
ATOM     10  C   UNL     1       9.324  18.570 314.303  1.00  0.00     0.223 A 
ENDROOT
BRANCH   1  11
ATOM     11  C   UNL     1       7.246  17.580 313.258  1.00  0.00     0.091 A 
ATOM     12  C   UNL     1       7.279  17.732 311.863  1.00  0.00     0.068 A 
ATOM     13  C   UNL     1       6.626  16.818 311.030  1.00  0.00     0.162 A 
ATOM     14  C   UNL     1       6.517  16.516 313.813  1.00  0.00     0.068 A 
ATOM     15  C   UNL     1       5.915  15.742 311.589  1.00  0.00     0.200 A 
ATOM     16  C   UNL     1       5.858  15.596 312.986  1.00  0.00     0.162 A 
BRANCH  13  17
ATOM     17  O   UNL     1       6.695  16.995 309.648  1.00  0.00    -0.504 OA
ATOM     18  H   UNL     1       7.232  17.743 309.226  1.00  0.00     0.293 HD
ENDBRANCH  13  17
BRANCH  15  19
ATOM     19  O   UNL     1       5.268  14.833 310.750  1.00  0.00    -0.502 OA
ATOM     20  H   UNL     1       5.764  14.084 310.281  1.00  0.00     0.293 HD
ENDBRANCH  15  19
BRANCH  16  21
ATOM     21  O   UNL     1       5.141  14.539 313.547  1.00  0.00    -0.504 OA
ATOM     22  H   UNL     1       5.335  14.205 314.484  1.00  0.00     0.293 HD
ENDBRANCH  16  21
ENDBRANCH   1  11
BRANCH  10  23
ATOM     23  O   UNL     1      10.133  17.642 313.645  1.00  0.00    -0.500 OA
ATOM     24  H   UNL     1      11.095  17.851 313.404  1.00  0.00     0.294 HD
ENDBRANCH  10  23
BRANCH   5  25
ATOM     25  O   UNL     1       6.472  23.306 317.486  1.00  0.00    -0.507 OA
ATOM     26  H   UNL     1       5.473  23.270 317.312  1.00  0.00     0.293 HD
ENDBRANCH   5  25
BRANCH   7  27
ATOM     27  O   UNL     1      10.953  21.626 316.941  1.00  0.00    -0.507 OA
ATOM     28  H   UNL     1      11.317  22.230 317.662  1.00  0.00     0.293 HD
ENDBRANCH   7  27
TORSDOF 7
ENDMDL
