MODEL 1
REMARK VINA RESULT:    -2.620      0.000      0.000
REMARK INTER + INTRA:         -10.032
REMARK INTER:                  -5.683
REMARK INTRA:                  -4.348
REMARK UNBOUND:                -4.348
REMARK SMILES CCCCCCCCCCCCCCCCCCCCCC(=O)[O-]
REMARK SMILES IDX 12 1 11 2 10 3 9 4 8 5 7 6 6 7 5 8 4 9 3 10 2 11 1 12 13 13
REMARK SMILES IDX 14 14 15 15 16 16 17 17 18 18 19 19 20 20 21 21 22 22 23 23
REMARK SMILES IDX 24 24
REMARK H PARENT
REMARK Flexibility Score: inf
ROOT
ATOM      1  C   UNL     1      -3.682  11.333  -3.891  1.00  0.00     0.000 C 
ENDROOT
BRANCH   1   2
ATOM      2  C   UNL     1      -2.230  11.758  -4.174  1.00  0.00     0.000 C 
BRANCH   2   3
ATOM      3  C   UNL     1      -2.124  12.831  -5.271  1.00  0.00     0.000 C 
BRANCH   3   4
ATOM      4  C   UNL     1      -3.417  12.973  -6.095  1.00  0.00    -0.000 C 
BRANCH   4   5
ATOM      5  C   UNL     1      -3.425  12.216  -7.439  1.00  0.00    -0.000 C 
BRANCH   5   6
ATOM      6  C   UNL     1      -4.691  11.382  -7.715  1.00  0.00    -0.000 C 
BRANCH   6   7
ATOM      7  C   UNL     1      -5.941  11.824  -6.933  1.00  0.00    -0.000 C 
BRANCH   7   8
ATOM      8  C   UNL     1      -6.854  10.648  -6.552  1.00  0.00    -0.000 C 
BRANCH   8   9
ATOM      9  C   UNL     1      -6.399   9.322  -7.194  1.00  0.00    -0.000 C 
BRANCH   9  10
ATOM     10  C   UNL     1      -6.926   8.064  -6.477  1.00  0.00    -0.000 C 
BRANCH  10  11
ATOM     11  C   UNL     1      -7.274   8.284  -4.991  1.00  0.00    -0.003 C 
ATOM     12  C   UNL     1      -7.214   6.994  -4.173  1.00  0.00     0.004 C 
ENDBRANCH  10  11
ENDBRANCH   9  10
ENDBRANCH   8   9
ENDBRANCH   7   8
ENDBRANCH   6   7
ENDBRANCH   5   6
ENDBRANCH   4   5
ENDBRANCH   3   4
ENDBRANCH   2   3
ENDBRANCH   1   2
BRANCH   1  13
ATOM     13  C   UNL     1      -4.016   9.868  -4.239  1.00  0.00     0.000 C 
BRANCH  13  14
ATOM     14  C   UNL     1      -3.049   9.199  -5.234  1.00  0.00     0.000 C 
BRANCH  14  15
ATOM     15  C   UNL     1      -3.448   7.775  -5.675  1.00  0.00     0.000 C 
BRANCH  15  16
ATOM     16  C   UNL     1      -2.863   7.324  -7.026  1.00  0.00     0.000 C 
BRANCH  16  17
ATOM     17  C   UNL     1      -2.428   8.500  -7.912  1.00  0.00     0.000 C 
BRANCH  17  18
ATOM     18  C   UNL     1      -0.936   8.398  -8.264  1.00  0.00     0.000 C 
BRANCH  18  19
ATOM     19  C   UNL     1      -0.290   9.767  -8.544  1.00  0.00     0.000 C 
BRANCH  19  20
ATOM     20  C   UNL     1      -0.074  10.656  -7.301  1.00  0.00     0.006 C 
BRANCH  20  21
ATOM     21  C   UNL     1       0.398   9.901  -6.048  1.00  0.00     0.053 C 
BRANCH  21  22
ATOM     22  C   UNL     1       1.567  10.576  -5.397  1.00  0.00     0.041 C 
ATOM     23  O   UNL     1       2.698  10.025  -5.399  1.00  0.00    -0.550 OA
ATOM     24  O   UNL     1       1.396  11.798  -4.759  1.00  0.00    -0.550 OA
ENDBRANCH  21  22
ENDBRANCH  20  21
ENDBRANCH  19  20
ENDBRANCH  18  19
ENDBRANCH  17  18
ENDBRANCH  16  17
ENDBRANCH  15  16
ENDBRANCH  14  15
ENDBRANCH  13  14
ENDBRANCH   1  13
TORSDOF 20
ENDMDL
MODEL 2
REMARK VINA RESULT:    -2.573      2.819      4.832
REMARK INTER + INTRA:          -9.930
REMARK INTER:                  -6.612
REMARK INTRA:                  -3.317
REMARK UNBOUND:                -4.348
REMARK SMILES CCCCCCCCCCCCCCCCCCCCCC(=O)[O-]
REMARK SMILES IDX 12 1 11 2 10 3 9 4 8 5 7 6 6 7 5 8 4 9 3 10 2 11 1 12 13 13
REMARK SMILES IDX 14 14 15 15 16 16 17 17 18 18 19 19 20 20 21 21 22 22 23 23
REMARK SMILES IDX 24 24
REMARK H PARENT
REMARK Flexibility Score: inf
ROOT
ATOM      1  C   UNL     1      -4.192  12.758  -0.400  1.00  0.00     0.000 C 
ENDROOT
BRANCH   1   2
ATOM      2  C   UNL     1      -5.282  13.580   0.311  1.00  0.00     0.000 C 
BRANCH   2   3
ATOM      3  C   UNL     1      -6.061  14.496  -0.648  1.00  0.00     0.000 C 
BRANCH   3   4
ATOM      4  C   UNL     1      -6.503  13.777  -1.935  1.00  0.00    -0.000 C 
BRANCH   4   5
ATOM      5  C   UNL     1      -6.074  14.460  -3.249  1.00  0.00    -0.000 C 
BRANCH   5   6
ATOM      6  C   UNL     1      -5.568  13.507  -4.351  1.00  0.00    -0.000 C 
BRANCH   6   7
ATOM      7  C   UNL     1      -4.857  12.244  -3.836  1.00  0.00    -0.000 C 
BRANCH   7   8
ATOM      8  C   UNL     1      -4.659  11.182  -4.931  1.00  0.00    -0.000 C 
BRANCH   8   9
ATOM      9  C   UNL     1      -4.327   9.794  -4.347  1.00  0.00    -0.000 C 
BRANCH   9  10
ATOM     10  C   UNL     1      -4.653   8.622  -5.292  1.00  0.00    -0.000 C 
BRANCH  10  11
ATOM     11  C   UNL     1      -3.424   7.797  -5.723  1.00  0.00    -0.003 C 
ATOM     12  C   UNL     1      -2.771   8.332  -6.997  1.00  0.00     0.004 C 
ENDBRANCH  10  11
ENDBRANCH   9  10
ENDBRANCH   8   9
ENDBRANCH   7   8
ENDBRANCH   6   7
ENDBRANCH   5   6
ENDBRANCH   4   5
ENDBRANCH   3   4
ENDBRANCH   2   3
ENDBRANCH   1   2
BRANCH   1  13
ATOM     13  C   UNL     1      -2.744  13.199  -0.108  1.00  0.00     0.000 C 
BRANCH  13  14
ATOM     14  C   UNL     1      -2.353  14.574  -0.683  1.00  0.00     0.000 C 
BRANCH  14  15
ATOM     15  C   UNL     1      -2.704  14.783  -2.171  1.00  0.00     0.000 C 
BRANCH  15  16
ATOM     16  C   UNL     1      -1.502  14.756  -3.133  1.00  0.00     0.000 C 
BRANCH  16  17
ATOM     17  C   UNL     1      -1.326  13.401  -3.832  1.00  0.00     0.000 C 
BRANCH  17  18
ATOM     18  C   UNL     1      -1.694  13.500  -5.321  1.00  0.00     0.000 C 
BRANCH  18  19
ATOM     19  C   UNL     1      -1.291  12.250  -6.123  1.00  0.00     0.000 C 
BRANCH  19  20
ATOM     20  C   UNL     1      -0.928  11.014  -5.274  1.00  0.00     0.006 C 
BRANCH  20  21
ATOM     21  C   UNL     1       0.292  10.226  -5.778  1.00  0.00     0.053 C 
BRANCH  21  22
ATOM     22  C   UNL     1       1.566  10.992  -5.595  1.00  0.00     0.041 C 
ATOM     23  O   UNL     1       2.059  11.137  -4.446  1.00  0.00    -0.550 OA
ATOM     24  O   UNL     1       2.191  11.573  -6.691  1.00  0.00    -0.550 OA
ENDBRANCH  21  22
ENDBRANCH  20  21
ENDBRANCH  19  20
ENDBRANCH  18  19
ENDBRANCH  17  18
ENDBRANCH  16  17
ENDBRANCH  15  16
ENDBRANCH  14  15
ENDBRANCH  13  14
ENDBRANCH   1  13
TORSDOF 20
ENDMDL
MODEL 3
REMARK VINA RESULT:    -2.522      2.158      4.174
REMARK INTER + INTRA:          -9.819
REMARK INTER:                  -6.711
REMARK INTRA:                  -3.108
REMARK UNBOUND:                -4.348
REMARK SMILES CCCCCCCCCCCCCCCCCCCCCC(=O)[O-]
REMARK SMILES IDX 12 1 11 2 10 3 9 4 8 5 7 6 6 7 5 8 4 9 3 10 2 11 1 12 13 13
REMARK SMILES IDX 14 14 15 15 16 16 17 17 18 18 19 19 20 20 21 21 22 22 23 23
REMARK SMILES IDX 24 24
REMARK H PARENT
REMARK Flexibility Score: inf
ROOT
ATOM      1  C   UNL     1      -4.281   9.331  -5.008  1.00  0.00     0.000 C 
ENDROOT
BRANCH   1   2
ATOM      2  C   UNL     1      -5.766   9.645  -5.260  1.00  0.00     0.000 C 
BRANCH   2   3
ATOM      3  C   UNL     1      -6.037  11.149  -5.439  1.00  0.00     0.000 C 
BRANCH   3   4
ATOM      4  C   UNL     1      -5.325  11.743  -6.667  1.00  0.00    -0.000 C 
BRANCH   4   5
ATOM      5  C   UNL     1      -4.641  13.105  -6.435  1.00  0.00    -0.000 C 
BRANCH   5   6
ATOM      6  C   UNL     1      -3.197  13.033  -5.899  1.00  0.00    -0.000 C 
BRANCH   6   7
ATOM      7  C   UNL     1      -3.024  13.497  -4.442  1.00  0.00    -0.000 C 
BRANCH   7   8
ATOM      8  C   UNL     1      -2.684  12.343  -3.484  1.00  0.00    -0.000 C 
BRANCH   8   9
ATOM      9  C   UNL     1      -3.827  12.051  -2.491  1.00  0.00    -0.000 C 
BRANCH   9  10
ATOM     10  C   UNL     1      -4.993  13.056  -2.564  1.00  0.00    -0.000 C 
BRANCH  10  11
ATOM     11  C   UNL     1      -5.533  13.498  -1.188  1.00  0.00    -0.003 C 
ATOM     12  C   UNL     1      -4.695  12.965  -0.027  1.00  0.00     0.004 C 
ENDBRANCH  10  11
ENDBRANCH   9  10
ENDBRANCH   8   9
ENDBRANCH   7   8
ENDBRANCH   6   7
ENDBRANCH   5   6
ENDBRANCH   4   5
ENDBRANCH   3   4
ENDBRANCH   2   3
ENDBRANCH   1   2
BRANCH   1  13
ATOM     13  C   UNL     1      -3.736   8.096  -5.755  1.00  0.00     0.000 C 
BRANCH  13  14
ATOM     14  C   UNL     1      -2.426   8.331  -6.531  1.00  0.00     0.000 C 
BRANCH  14  15
ATOM     15  C   UNL     1      -2.352   9.665  -7.301  1.00  0.00     0.000 C 
BRANCH  15  16
ATOM     16  C   UNL     1      -1.020  10.425  -7.161  1.00  0.00     0.000 C 
BRANCH  16  17
ATOM     17  C   UNL     1      -0.475  10.418  -5.726  1.00  0.00     0.000 C 
BRANCH  17  18
ATOM     18  C   UNL     1       1.046  10.201  -5.719  1.00  0.00     0.000 C 
BRANCH  18  19
ATOM     19  C   UNL     1       1.537   9.344  -6.899  1.00  0.00     0.000 C 
BRANCH  19  20
ATOM     20  C   UNL     1       3.062   9.116  -6.954  1.00  0.00     0.006 C 
BRANCH  20  21
ATOM     21  C   UNL     1       3.586   8.060  -5.968  1.00  0.00     0.053 C 
BRANCH  21  22
ATOM     22  C   UNL     1       4.637   8.619  -5.058  1.00  0.00     0.041 C 
ATOM     23  O   UNL     1       5.350   7.848  -4.364  1.00  0.00    -0.550 OA
ATOM     24  O   UNL     1       4.805   9.994  -4.953  1.00  0.00    -0.550 OA
ENDBRANCH  21  22
ENDBRANCH  20  21
ENDBRANCH  19  20
ENDBRANCH  18  19
ENDBRANCH  17  18
ENDBRANCH  16  17
ENDBRANCH  15  16
ENDBRANCH  14  15
ENDBRANCH  13  14
ENDBRANCH   1  13
TORSDOF 20
ENDMDL
MODEL 4
REMARK VINA RESULT:    -2.515      1.638      3.659
REMARK INTER + INTRA:          -9.804
REMARK INTER:                  -5.939
REMARK INTRA:                  -3.865
REMARK UNBOUND:                -4.348
REMARK SMILES CCCCCCCCCCCCCCCCCCCCCC(=O)[O-]
REMARK SMILES IDX 12 1 11 2 10 3 9 4 8 5 7 6 6 7 5 8 4 9 3 10 2 11 1 12 13 13
REMARK SMILES IDX 14 14 15 15 16 16 17 17 18 18 19 19 20 20 21 21 22 22 23 23
REMARK SMILES IDX 24 24
REMARK H PARENT
REMARK Flexibility Score: inf
ROOT
ATOM      1  C   UNL     1      -4.512   9.585  -4.514  1.00  0.00     0.000 C 
ENDROOT
BRANCH   1   2
ATOM      2  C   UNL     1      -5.778   9.381  -5.366  1.00  0.00     0.000 C 
BRANCH   2   3
ATOM      3  C   UNL     1      -6.457  10.705  -5.756  1.00  0.00     0.000 C 
BRANCH   3   4
ATOM      4  C   UNL     1      -5.786  11.389  -6.961  1.00  0.00    -0.000 C 
BRANCH   4   5
ATOM      5  C   UNL     1      -5.165  12.770  -6.670  1.00  0.00    -0.000 C 
BRANCH   5   6
ATOM      6  C   UNL     1      -3.694  12.746  -6.212  1.00  0.00    -0.000 C 
BRANCH   6   7
ATOM      7  C   UNL     1      -3.424  13.440  -4.866  1.00  0.00    -0.000 C 
BRANCH   7   8
ATOM      8  C   UNL     1      -4.709  13.710  -4.066  1.00  0.00    -0.000 C 
BRANCH   8   9
ATOM      9  C   UNL     1      -4.904  12.703  -2.915  1.00  0.00    -0.000 C 
BRANCH   9  10
ATOM     10  C   UNL     1      -3.616  12.394  -2.127  1.00  0.00    -0.000 C 
BRANCH  10  11
ATOM     11  C   UNL     1      -3.813  12.320  -0.599  1.00  0.00    -0.003 C 
ATOM     12  C   UNL     1      -4.921  13.249  -0.101  1.00  0.00     0.004 C 
ENDBRANCH  10  11
ENDBRANCH   9  10
ENDBRANCH   8   9
ENDBRANCH   7   8
ENDBRANCH   6   7
ENDBRANCH   5   6
ENDBRANCH   4   5
ENDBRANCH   3   4
ENDBRANCH   2   3
ENDBRANCH   1   2
BRANCH   1  13
ATOM     13  C   UNL     1      -3.189   9.193  -5.202  1.00  0.00     0.000 C 
BRANCH  13  14
ATOM     14  C   UNL     1      -3.220   7.849  -5.955  1.00  0.00     0.000 C 
BRANCH  14  15
ATOM     15  C   UNL     1      -2.711   7.904  -7.411  1.00  0.00     0.000 C 
BRANCH  15  16
ATOM     16  C   UNL     1      -3.543   8.786  -8.359  1.00  0.00     0.000 C 
BRANCH  16  17
ATOM     17  C   UNL     1      -2.799  10.052  -8.805  1.00  0.00     0.000 C 
BRANCH  17  18
ATOM     18  C   UNL     1      -1.308   9.967  -8.446  1.00  0.00     0.000 C 
BRANCH  18  19
ATOM     19  C   UNL     1      -0.750  11.287  -7.881  1.00  0.00     0.000 C 
BRANCH  19  20
ATOM     20  C   UNL     1      -0.317  11.236  -6.402  1.00  0.00     0.006 C 
BRANCH  20  21
ATOM     21  C   UNL     1       0.536  10.013  -6.026  1.00  0.00     0.053 C 
BRANCH  21  22
ATOM     22  C   UNL     1       1.782  10.405  -5.292  1.00  0.00     0.041 C 
ATOM     23  O   UNL     1       1.825  11.485  -4.647  1.00  0.00    -0.550 OA
ATOM     24  O   UNL     1       2.906   9.591  -5.349  1.00  0.00    -0.550 OA
ENDBRANCH  21  22
ENDBRANCH  20  21
ENDBRANCH  19  20
ENDBRANCH  18  19
ENDBRANCH  17  18
ENDBRANCH  16  17
ENDBRANCH  15  16
ENDBRANCH  14  15
ENDBRANCH  13  14
ENDBRANCH   1  13
TORSDOF 20
ENDMDL
MODEL 5
REMARK VINA RESULT:    -2.512      2.272      4.485
REMARK INTER + INTRA:          -9.797
REMARK INTER:                  -5.798
REMARK INTRA:                  -4.000
REMARK UNBOUND:                -4.348
REMARK SMILES CCCCCCCCCCCCCCCCCCCCCC(=O)[O-]
REMARK SMILES IDX 12 1 11 2 10 3 9 4 8 5 7 6 6 7 5 8 4 9 3 10 2 11 1 12 13 13
REMARK SMILES IDX 14 14 15 15 16 16 17 17 18 18 19 19 20 20 21 21 22 22 23 23
REMARK SMILES IDX 24 24
REMARK H PARENT
REMARK Flexibility Score: inf
ROOT
ATOM      1  C   UNL     1      -3.447   9.603  -4.699  1.00  0.00     0.000 C 
ENDROOT
BRANCH   1   2
ATOM      2  C   UNL     1      -4.679   9.383  -5.594  1.00  0.00     0.000 C 
BRANCH   2   3
ATOM      3  C   UNL     1      -5.811  10.386  -5.312  1.00  0.00     0.000 C 
BRANCH   3   4
ATOM      4  C   UNL     1      -6.061  11.350  -6.485  1.00  0.00    -0.000 C 
BRANCH   4   5
ATOM      5  C   UNL     1      -6.433  12.792  -6.083  1.00  0.00    -0.000 C 
BRANCH   5   6
ATOM      6  C   UNL     1      -6.514  13.050  -4.565  1.00  0.00    -0.000 C 
BRANCH   6   7
ATOM      7  C   UNL     1      -6.386  14.527  -4.153  1.00  0.00    -0.000 C 
BRANCH   7   8
ATOM      8  C   UNL     1      -5.662  14.710  -2.809  1.00  0.00    -0.000 C 
BRANCH   8   9
ATOM      9  C   UNL     1      -6.192  13.752  -1.723  1.00  0.00    -0.000 C 
BRANCH   9  10
ATOM     10  C   UNL     1      -5.309  13.684  -0.462  1.00  0.00    -0.000 C 
BRANCH  10  11
ATOM     11  C   UNL     1      -4.257  12.557  -0.487  1.00  0.00    -0.003 C 
ATOM     12  C   UNL     1      -2.840  13.065  -0.224  1.00  0.00     0.004 C 
ENDBRANCH  10  11
ENDBRANCH   9  10
ENDBRANCH   8   9
ENDBRANCH   7   8
ENDBRANCH   6   7
ENDBRANCH   5   6
ENDBRANCH   4   5
ENDBRANCH   3   4
ENDBRANCH   2   3
ENDBRANCH   1   2
BRANCH   1  13
ATOM     13  C   UNL     1      -3.571  10.760  -3.687  1.00  0.00     0.000 C 
BRANCH  13  14
ATOM     14  C   UNL     1      -2.483  11.846  -3.801  1.00  0.00     0.000 C 
BRANCH  14  15
ATOM     15  C   UNL     1      -2.910  13.121  -4.557  1.00  0.00     0.000 C 
BRANCH  15  16
ATOM     16  C   UNL     1      -2.076  13.444  -5.810  1.00  0.00     0.000 C 
BRANCH  16  17
ATOM     17  C   UNL     1      -2.814  13.129  -7.118  1.00  0.00     0.000 C 
BRANCH  17  18
ATOM     18  C   UNL     1      -2.476  11.713  -7.611  1.00  0.00     0.000 C 
BRANCH  18  19
ATOM     19  C   UNL     1      -1.037  11.591  -8.146  1.00  0.00     0.000 C 
BRANCH  19  20
ATOM     20  C   UNL     1      -0.245  10.374  -7.625  1.00  0.00     0.006 C 
BRANCH  20  21
ATOM     21  C   UNL     1      -0.311  10.171  -6.103  1.00  0.00     0.053 C 
BRANCH  21  22
ATOM     22  C   UNL     1       0.921  10.677  -5.417  1.00  0.00     0.041 C 
ATOM     23  O   UNL     1       1.961   9.969  -5.379  1.00  0.00    -0.550 OA
ATOM     24  O   UNL     1       0.909  11.918  -4.793  1.00  0.00    -0.550 OA
ENDBRANCH  21  22
ENDBRANCH  20  21
ENDBRANCH  19  20
ENDBRANCH  18  19
ENDBRANCH  17  18
ENDBRANCH  16  17
ENDBRANCH  15  16
ENDBRANCH  14  15
ENDBRANCH  13  14
ENDBRANCH   1  13
TORSDOF 20
ENDMDL
MODEL 6
REMARK VINA RESULT:    -2.509      3.136      4.400
REMARK INTER + INTRA:          -9.791
REMARK INTER:                  -6.311
REMARK INTRA:                  -3.480
REMARK UNBOUND:                -4.348
REMARK SMILES CCCCCCCCCCCCCCCCCCCCCC(=O)[O-]
REMARK SMILES IDX 12 1 11 2 10 3 9 4 8 5 7 6 6 7 5 8 4 9 3 10 2 11 1 12 13 13
REMARK SMILES IDX 14 14 15 15 16 16 17 17 18 18 19 19 20 20 21 21 22 22 23 23
REMARK SMILES IDX 24 24
REMARK H PARENT
REMARK Flexibility Score: inf
ROOT
ATOM      1  C   UNL     1      -4.474  12.603  -0.487  1.00  0.00     0.000 C 
ENDROOT
BRANCH   1   2
ATOM      2  C   UNL     1      -5.332  13.853  -0.220  1.00  0.00     0.000 C 
BRANCH   2   3
ATOM      3  C   UNL     1      -6.496  14.004  -1.214  1.00  0.00     0.000 C 
BRANCH   3   4
ATOM      4  C   UNL     1      -6.131  14.865  -2.436  1.00  0.00    -0.000 C 
BRANCH   4   5
ATOM      5  C   UNL     1      -6.424  14.219  -3.806  1.00  0.00    -0.000 C 
BRANCH   5   6
ATOM      6  C   UNL     1      -5.396  14.530  -4.912  1.00  0.00    -0.000 C 
BRANCH   6   7
ATOM      7  C   UNL     1      -5.483  13.620  -6.149  1.00  0.00    -0.000 C 
BRANCH   7   8
ATOM      8  C   UNL     1      -6.840  12.907  -6.272  1.00  0.00    -0.000 C 
BRANCH   8   9
ATOM      9  C   UNL     1      -6.692  11.439  -6.720  1.00  0.00    -0.000 C 
BRANCH   9  10
ATOM     10  C   UNL     1      -6.573  10.438  -5.554  1.00  0.00    -0.000 C 
BRANCH  10  11
ATOM     11  C   UNL     1      -6.602   8.958  -5.987  1.00  0.00    -0.003 C 
ATOM     12  C   UNL     1      -6.216   8.004  -4.857  1.00  0.00     0.004 C 
ENDBRANCH  10  11
ENDBRANCH   9  10
ENDBRANCH   8   9
ENDBRANCH   7   8
ENDBRANCH   6   7
ENDBRANCH   5   6
ENDBRANCH   4   5
ENDBRANCH   3   4
ENDBRANCH   2   3
ENDBRANCH   1   2
BRANCH   1  13
ATOM     13  C   UNL     1      -3.118  12.873  -1.170  1.00  0.00     0.000 C 
BRANCH  13  14
ATOM     14  C   UNL     1      -3.097  12.639  -2.693  1.00  0.00     0.000 C 
BRANCH  14  15
ATOM     15  C   UNL     1      -4.053  11.539  -3.198  1.00  0.00     0.000 C 
BRANCH  15  16
ATOM     16  C   UNL     1      -3.366  10.331  -3.861  1.00  0.00     0.000 C 
BRANCH  16  17
ATOM     17  C   UNL     1      -2.259  10.738  -4.843  1.00  0.00     0.000 C 
BRANCH  17  18
ATOM     18  C   UNL     1      -2.842  11.039  -6.232  1.00  0.00     0.000 C 
BRANCH  18  19
ATOM     19  C   UNL     1      -2.407  10.019  -7.300  1.00  0.00     0.000 C 
BRANCH  19  20
ATOM     20  C   UNL     1      -3.361   8.821  -7.489  1.00  0.00     0.006 C 
BRANCH  20  21
ATOM     21  C   UNL     1      -2.809   7.478  -6.983  1.00  0.00     0.053 C 
BRANCH  21  22
ATOM     22  C   UNL     1      -2.338   6.608  -8.109  1.00  0.00     0.041 C 
ATOM     23  O   UNL     1      -3.035   5.631  -8.489  1.00  0.00    -0.550 OA
ATOM     24  O   UNL     1      -1.113   6.858  -8.714  1.00  0.00    -0.550 OA
ENDBRANCH  21  22
ENDBRANCH  20  21
ENDBRANCH  19  20
ENDBRANCH  18  19
ENDBRANCH  17  18
ENDBRANCH  16  17
ENDBRANCH  15  16
ENDBRANCH  14  15
ENDBRANCH  13  14
ENDBRANCH   1  13
TORSDOF 20
ENDMDL
MODEL 7
REMARK VINA RESULT:    -2.492      1.848      3.378
REMARK INTER + INTRA:          -9.754
REMARK INTER:                  -5.917
REMARK INTRA:                  -3.837
REMARK UNBOUND:                -4.348
REMARK SMILES CCCCCCCCCCCCCCCCCCCCCC(=O)[O-]
REMARK SMILES IDX 12 1 11 2 10 3 9 4 8 5 7 6 6 7 5 8 4 9 3 10 2 11 1 12 13 13
REMARK SMILES IDX 14 14 15 15 16 16 17 17 18 18 19 19 20 20 21 21 22 22 23 23
REMARK SMILES IDX 24 24
REMARK H PARENT
REMARK Flexibility Score: inf
ROOT
ATOM      1  C   UNL     1      -2.265  10.640  -4.604  1.00  0.00     0.000 C 
ENDROOT
BRANCH   1   2
ATOM      2  C   UNL     1      -1.955  12.136  -4.419  1.00  0.00     0.000 C 
BRANCH   2   3
ATOM      3  C   UNL     1      -2.285  12.975  -5.666  1.00  0.00     0.000 C 
BRANCH   3   4
ATOM      4  C   UNL     1      -3.147  12.212  -6.688  1.00  0.00    -0.000 C 
BRANCH   4   5
ATOM      5  C   UNL     1      -4.559  12.789  -6.915  1.00  0.00    -0.000 C 
BRANCH   5   6
ATOM      6  C   UNL     1      -5.525  12.651  -5.721  1.00  0.00    -0.000 C 
BRANCH   6   7
ATOM      7  C   UNL     1      -5.861  13.972  -5.006  1.00  0.00    -0.000 C 
BRANCH   7   8
ATOM      8  C   UNL     1      -6.290  13.766  -3.544  1.00  0.00    -0.000 C 
BRANCH   8   9
ATOM      9  C   UNL     1      -5.174  13.133  -2.689  1.00  0.00    -0.000 C 
BRANCH   9  10
ATOM     10  C   UNL     1      -4.110  14.137  -2.204  1.00  0.00    -0.000 C 
BRANCH  10  11
ATOM     11  C   UNL     1      -3.118  13.559  -1.175  1.00  0.00    -0.003 C 
ATOM     12  C   UNL     1      -3.643  12.294  -0.496  1.00  0.00     0.004 C 
ENDBRANCH  10  11
ENDBRANCH   9  10
ENDBRANCH   8   9
ENDBRANCH   7   8
ENDBRANCH   6   7
ENDBRANCH   5   6
ENDBRANCH   4   5
ENDBRANCH   3   4
ENDBRANCH   2   3
ENDBRANCH   1   2
BRANCH   1  13
ATOM     13  C   UNL     1      -3.517  10.133  -3.860  1.00  0.00     0.000 C 
BRANCH  13  14
ATOM     14  C   UNL     1      -4.494   9.304  -4.717  1.00  0.00     0.000 C 
BRANCH  14  15
ATOM     15  C   UNL     1      -3.860   8.109  -5.458  1.00  0.00     0.000 C 
BRANCH  15  16
ATOM     16  C   UNL     1      -3.815   8.244  -6.991  1.00  0.00     0.000 C 
BRANCH  16  17
ATOM     17  C   UNL     1      -2.462   7.832  -7.588  1.00  0.00     0.000 C 
BRANCH  17  18
ATOM     18  C   UNL     1      -1.696   9.058  -8.108  1.00  0.00     0.000 C 
BRANCH  18  19
ATOM     19  C   UNL     1      -0.218   9.070  -7.680  1.00  0.00     0.000 C 
BRANCH  19  20
ATOM     20  C   UNL     1       0.279  10.399  -7.075  1.00  0.00     0.006 C 
BRANCH  20  21
ATOM     21  C   UNL     1       1.237  10.242  -5.883  1.00  0.00     0.053 C 
BRANCH  21  22
ATOM     22  C   UNL     1       1.680  11.568  -5.343  1.00  0.00     0.041 C 
ATOM     23  O   UNL     1       1.326  12.633  -5.911  1.00  0.00    -0.550 OA
ATOM     24  O   UNL     1       2.510  11.622  -4.231  1.00  0.00    -0.550 OA
ENDBRANCH  21  22
ENDBRANCH  20  21
ENDBRANCH  19  20
ENDBRANCH  18  19
ENDBRANCH  17  18
ENDBRANCH  16  17
ENDBRANCH  15  16
ENDBRANCH  14  15
ENDBRANCH  13  14
ENDBRANCH   1  13
TORSDOF 20
ENDMDL
MODEL 8
REMARK VINA RESULT:    -2.446      2.480      4.309
REMARK INTER + INTRA:          -9.654
REMARK INTER:                  -6.705
REMARK INTRA:                  -2.949
REMARK UNBOUND:                -4.348
REMARK SMILES CCCCCCCCCCCCCCCCCCCCCC(=O)[O-]
REMARK SMILES IDX 12 1 11 2 10 3 9 4 8 5 7 6 6 7 5 8 4 9 3 10 2 11 1 12 13 13
REMARK SMILES IDX 14 14 15 15 16 16 17 17 18 18 19 19 20 20 21 21 22 22 23 23
REMARK SMILES IDX 24 24
REMARK H PARENT
REMARK Flexibility Score: inf
ROOT
ATOM      1  C   UNL     1      -4.854   9.495  -4.648  1.00  0.00     0.000 C 
ENDROOT
BRANCH   1   2
ATOM      2  C   UNL     1      -3.503   9.986  -4.098  1.00  0.00     0.000 C 
BRANCH   2   3
ATOM      3  C   UNL     1      -3.625  11.285  -3.283  1.00  0.00     0.000 C 
BRANCH   3   4
ATOM      4  C   UNL     1      -2.626  12.367  -3.730  1.00  0.00    -0.000 C 
BRANCH   4   5
ATOM      5  C   UNL     1      -3.254  13.593  -4.424  1.00  0.00    -0.000 C 
BRANCH   5   6
ATOM      6  C   UNL     1      -4.088  14.511  -3.509  1.00  0.00    -0.000 C 
BRANCH   6   7
ATOM      7  C   UNL     1      -5.601  14.236  -3.522  1.00  0.00    -0.000 C 
BRANCH   7   8
ATOM      8  C   UNL     1      -6.139  13.788  -2.153  1.00  0.00    -0.000 C 
BRANCH   8   9
ATOM      9  C   UNL     1      -5.216  14.216  -0.994  1.00  0.00    -0.000 C 
BRANCH   9  10
ATOM     10  C   UNL     1      -4.715  13.044  -0.127  1.00  0.00    -0.000 C 
BRANCH  10  11
ATOM     11  C   UNL     1      -3.188  12.832  -0.173  1.00  0.00    -0.003 C 
ATOM     12  C   UNL     1      -2.415  13.954   0.520  1.00  0.00     0.004 C 
ENDBRANCH  10  11
ENDBRANCH   9  10
ENDBRANCH   8   9
ENDBRANCH   7   8
ENDBRANCH   6   7
ENDBRANCH   5   6
ENDBRANCH   4   5
ENDBRANCH   3   4
ENDBRANCH   2   3
ENDBRANCH   1   2
BRANCH   1  13
ATOM     13  C   UNL     1      -4.778   8.256  -5.564  1.00  0.00     0.000 C 
BRANCH  13  14
ATOM     14  C   UNL     1      -3.384   7.606  -5.666  1.00  0.00     0.000 C 
BRANCH  14  15
ATOM     15  C   UNL     1      -2.796   7.544  -7.091  1.00  0.00     0.000 C 
BRANCH  15  16
ATOM     16  C   UNL     1      -3.215   8.698  -8.020  1.00  0.00     0.000 C 
BRANCH  16  17
ATOM     17  C   UNL     1      -2.551  10.032  -7.653  1.00  0.00     0.000 C 
BRANCH  17  18
ATOM     18  C   UNL     1      -1.037   9.856  -7.460  1.00  0.00     0.000 C 
BRANCH  18  19
ATOM     19  C   UNL     1      -0.503  10.579  -6.210  1.00  0.00     0.000 C 
BRANCH  19  20
ATOM     20  C   UNL     1      -0.064  12.040  -6.435  1.00  0.00     0.006 C 
BRANCH  20  21
ATOM     21  C   UNL     1       0.749  12.649  -5.281  1.00  0.00     0.053 C 
BRANCH  21  22
ATOM     22  C   UNL     1       2.160  12.146  -5.265  1.00  0.00     0.041 C 
ATOM     23  O   UNL     1       2.890  12.275  -6.282  1.00  0.00    -0.550 OA
ATOM     24  O   UNL     1       2.657  11.506  -4.137  1.00  0.00    -0.550 OA
ENDBRANCH  21  22
ENDBRANCH  20  21
ENDBRANCH  19  20
ENDBRANCH  18  19
ENDBRANCH  17  18
ENDBRANCH  16  17
ENDBRANCH  15  16
ENDBRANCH  14  15
ENDBRANCH  13  14
ENDBRANCH   1  13
TORSDOF 20
ENDMDL
MODEL 9
REMARK VINA RESULT:    -2.384      1.255      2.121
REMARK INTER + INTRA:          -9.520
REMARK INTER:                  -5.507
REMARK INTRA:                  -4.013
REMARK UNBOUND:                -4.348
REMARK SMILES CCCCCCCCCCCCCCCCCCCCCC(=O)[O-]
REMARK SMILES IDX 12 1 11 2 10 3 9 4 8 5 7 6 6 7 5 8 4 9 3 10 2 11 1 12 13 13
REMARK SMILES IDX 14 14 15 15 16 16 17 17 18 18 19 19 20 20 21 21 22 22 23 23
REMARK SMILES IDX 24 24
REMARK H PARENT
REMARK Flexibility Score: inf
ROOT
ATOM      1  C   UNL     1      -3.514  10.260  -3.788  1.00  0.00     0.000 C 
ENDROOT
BRANCH   1   2
ATOM      2  C   UNL     1      -3.976  11.671  -3.382  1.00  0.00     0.000 C 
BRANCH   2   3
ATOM      3  C   UNL     1      -3.391  12.773  -4.281  1.00  0.00     0.000 C 
BRANCH   3   4
ATOM      4  C   UNL     1      -4.459  13.468  -5.145  1.00  0.00    -0.000 C 
BRANCH   4   5
ATOM      5  C   UNL     1      -5.887  12.904  -5.004  1.00  0.00    -0.000 C 
BRANCH   5   6
ATOM      6  C   UNL     1      -6.354  12.001  -6.163  1.00  0.00    -0.000 C 
BRANCH   6   7
ATOM      7  C   UNL     1      -6.687  10.554  -5.761  1.00  0.00    -0.000 C 
BRANCH   7   8
ATOM      8  C   UNL     1      -6.449   9.548  -6.900  1.00  0.00    -0.000 C 
BRANCH   8   9
ATOM      9  C   UNL     1      -6.353   8.097  -6.388  1.00  0.00    -0.000 C 
BRANCH   9  10
ATOM     10  C   UNL     1      -6.184   7.980  -4.861  1.00  0.00    -0.000 C 
BRANCH  10  11
ATOM     11  C   UNL     1      -7.308   7.192  -4.159  1.00  0.00    -0.003 C 
ATOM     12  C   UNL     1      -8.544   7.016  -5.040  1.00  0.00     0.004 C 
ENDBRANCH  10  11
ENDBRANCH   9  10
ENDBRANCH   8   9
ENDBRANCH   7   8
ENDBRANCH   6   7
ENDBRANCH   5   6
ENDBRANCH   4   5
ENDBRANCH   3   4
ENDBRANCH   2   3
ENDBRANCH   1   2
BRANCH   1  13
ATOM     13  C   UNL     1      -2.502  10.211  -4.950  1.00  0.00     0.000 C 
BRANCH  13  14
ATOM     14  C   UNL     1      -2.757   9.103  -5.990  1.00  0.00     0.000 C 
BRANCH  14  15
ATOM     15  C   UNL     1      -2.805   9.582  -7.456  1.00  0.00     0.000 C 
BRANCH  15  16
ATOM     16  C   UNL     1      -3.093  11.082  -7.642  1.00  0.00     0.000 C 
BRANCH  16  17
ATOM     17  C   UNL     1      -1.944  11.831  -8.333  1.00  0.00     0.000 C 
BRANCH  17  18
ATOM     18  C   UNL     1      -1.014  12.482  -7.298  1.00  0.00     0.000 C 
BRANCH  18  19
ATOM     19  C   UNL     1       0.460  12.076  -7.476  1.00  0.00     0.000 C 
BRANCH  19  20
ATOM     20  C   UNL     1       0.774  10.597  -7.173  1.00  0.00     0.006 C 
BRANCH  20  21
ATOM     21  C   UNL     1       1.020  10.286  -5.688  1.00  0.00     0.053 C 
BRANCH  21  22
ATOM     22  C   UNL     1       2.387  10.712  -5.246  1.00  0.00     0.041 C 
ATOM     23  O   UNL     1       3.410  10.199  -5.769  1.00  0.00    -0.550 OA
ATOM     24  O   UNL     1       2.529  11.652  -4.234  1.00  0.00    -0.550 OA
ENDBRANCH  21  22
ENDBRANCH  20  21
ENDBRANCH  19  20
ENDBRANCH  18  19
ENDBRANCH  17  18
ENDBRANCH  16  17
ENDBRANCH  15  16
ENDBRANCH  14  15
ENDBRANCH  13  14
ENDBRANCH   1  13
TORSDOF 20
ENDMDL
