MODEL 1
REMARK VINA RESULT:     0.000      0.000      0.000
REMARK INTER + INTRA:          -0.271
REMARK INTER:                   0.001
REMARK INTRA:                  -0.272
REMARK UNBOUND:                -0.272
REMARK SMILES O=c1cc(-c2ccc(O)c(O)c2)oc2cc(O)cc(O)c12
REMARK SMILES IDX 4 1 3 2 2 3 1 4 21 5 19 6 18 7 16 8 15 9 14 10 13 11 5 12
REMARK SMILES IDX 6 13 7 14 8 15 12 16 10 17 9 18 11 20 20 22 17 24
REMARK H PARENT 9 19 11 21 20 23 17 25
REMARK Flexibility Score: inf
ROOT
ATOM      1  C   UNL     1      29.629  37.915  27.172  1.00  0.00     0.138 A 
ATOM      2  C   UNL     1      28.305  38.131  26.755  1.00  0.00     0.100 A 
ATOM      3  C   UNL     1      27.568  37.069  26.231  1.00  0.00     0.197 A 
ATOM      4  O   UNL     1      26.380  37.273  25.861  1.00  0.00    -0.289 OA
ATOM      5  C   UNL     1      28.160  35.794  26.129  1.00  0.00     0.107 A 
ATOM      6  C   UNL     1      27.485  34.665  25.609  1.00  0.00     0.134 A 
ATOM      7  C   UNL     1      28.144  33.429  25.546  1.00  0.00     0.093 A 
ATOM      8  C   UNL     1      29.461  33.300  25.994  1.00  0.00     0.123 A 
ATOM      9  C   UNL     1      30.133  34.412  26.509  1.00  0.00     0.094 A 
ATOM     10  C   UNL     1      29.495  35.653  26.579  1.00  0.00     0.146 A 
ATOM     11  O   UNL     1      30.156  36.696  27.072  1.00  0.00    -0.456 OA
ENDROOT
BRANCH   1  12
ATOM     12  C   UNL     1      30.461  39.007  27.739  1.00  0.00     0.021 A 
ATOM     13  C   UNL     1      30.117  39.562  28.983  1.00  0.00     0.016 A 
ATOM     14  C   UNL     1      30.887  40.585  29.543  1.00  0.00     0.051 A 
ATOM     15  C   UNL     1      32.020  41.062  28.872  1.00  0.00     0.157 A 
ATOM     16  C   UNL     1      31.609  39.484  27.077  1.00  0.00     0.062 A 
ATOM     17  C   UNL     1      32.384  40.509  27.639  1.00  0.00     0.158 A 
BRANCH  15  18
ATOM     18  O   UNL     1      32.791  42.084  29.426  1.00  0.00    -0.504 OA
ATOM     19  H   UNL     1      32.656  43.052  29.160  1.00  0.00     0.293 HD
ENDBRANCH  15  18
BRANCH  17  20
ATOM     20  O   UNL     1      33.518  40.979  26.979  1.00  0.00    -0.504 OA
ATOM     21  H   UNL     1      34.212  40.345  26.600  1.00  0.00     0.293 HD
ENDBRANCH  17  20
ENDBRANCH   1  12
BRANCH   6  22
ATOM     22  O   UNL     1      26.168  34.763  25.155  1.00  0.00    -0.507 OA
ATOM     23  H   UNL     1      25.431  34.177  25.529  1.00  0.00     0.293 HD
ENDBRANCH   6  22
BRANCH   8  24
ATOM     24  O   UNL     1      30.092  32.059  25.921  1.00  0.00    -0.508 OA
ATOM     25  H   UNL     1      30.790  31.780  26.600  1.00  0.00     0.293 HD
ENDBRANCH   8  24
TORSDOF 5
ENDMDL
MODEL 2
REMARK VINA RESULT:     1.371      3.227      5.545
REMARK INTER + INTRA:           1.339
REMARK INTER:                   1.603
REMARK INTRA:                  -0.263
REMARK UNBOUND:                -0.272
REMARK SMILES O=c1cc(-c2ccc(O)c(O)c2)oc2cc(O)cc(O)c12
REMARK SMILES IDX 4 1 3 2 2 3 1 4 21 5 19 6 18 7 16 8 15 9 14 10 13 11 5 12
REMARK SMILES IDX 6 13 7 14 8 15 12 16 10 17 9 18 11 20 20 22 17 24
REMARK H PARENT 9 19 11 21 20 23 17 25
REMARK Flexibility Score: inf
ROOT
ATOM      1  C   UNL     1      29.762  37.649  26.412  1.00  0.00     0.138 A 
ATOM      2  C   UNL     1      28.444  37.176  26.521  1.00  0.00     0.100 A 
ATOM      3  C   UNL     1      27.772  37.289  27.739  1.00  0.00     0.197 A 
ATOM      4  O   UNL     1      26.589  36.861  27.826  1.00  0.00    -0.289 OA
ATOM      5  C   UNL     1      28.423  37.878  28.840  1.00  0.00     0.107 A 
ATOM      6  C   UNL     1      27.815  38.030  30.109  1.00  0.00     0.134 A 
ATOM      7  C   UNL     1      28.530  38.633  31.155  1.00  0.00     0.093 A 
ATOM      8  C   UNL     1      29.836  39.087  30.956  1.00  0.00     0.123 A 
ATOM      9  C   UNL     1      30.442  38.940  29.704  1.00  0.00     0.094 A 
ATOM     10  C   UNL     1      29.747  38.340  28.650  1.00  0.00     0.146 A 
ATOM     11  O   UNL     1      30.346  38.211  27.470  1.00  0.00    -0.456 OA
ENDROOT
BRANCH   1  12
ATOM     12  C   UNL     1      30.526  37.558  25.142  1.00  0.00     0.021 A 
ATOM     13  C   UNL     1      30.232  38.446  24.093  1.00  0.00     0.016 A 
ATOM     14  C   UNL     1      30.941  38.387  22.891  1.00  0.00     0.051 A 
ATOM     15  C   UNL     1      31.963  37.444  22.720  1.00  0.00     0.157 A 
ATOM     16  C   UNL     1      31.564  36.621  24.967  1.00  0.00     0.062 A 
ATOM     17  C   UNL     1      32.277  36.562  23.761  1.00  0.00     0.158 A 
BRANCH  15  18
ATOM     18  O   UNL     1      32.672  37.380  21.522  1.00  0.00    -0.504 OA
ATOM     19  H   UNL     1      33.184  38.178  21.166  1.00  0.00     0.293 HD
ENDBRANCH  15  18
BRANCH  17  20
ATOM     20  O   UNL     1      33.302  35.633  23.592  1.00  0.00    -0.504 OA
ATOM     21  H   UNL     1      34.099  35.825  22.997  1.00  0.00     0.293 HD
ENDBRANCH  17  20
ENDBRANCH   1  12
BRANCH   6  22
ATOM     22  O   UNL     1      26.512  37.587  30.338  1.00  0.00    -0.507 OA
ATOM     23  H   UNL     1      25.952  37.174  29.600  1.00  0.00     0.293 HD
ENDBRANCH   6  22
BRANCH   8  24
ATOM     24  O   UNL     1      30.524  39.684  32.011  1.00  0.00    -0.508 OA
ATOM     25  H   UNL     1      30.337  39.432  32.974  1.00  0.00     0.293 HD
ENDBRANCH   8  24
TORSDOF 5
ENDMDL
MODEL 3
REMARK VINA RESULT:     1.465      3.236      5.441
REMARK INTER + INTRA:           1.451
REMARK INTER:                   1.722
REMARK INTRA:                  -0.271
REMARK UNBOUND:                -0.272
REMARK SMILES O=c1cc(-c2ccc(O)c(O)c2)oc2cc(O)cc(O)c12
REMARK SMILES IDX 4 1 3 2 2 3 1 4 21 5 19 6 18 7 16 8 15 9 14 10 13 11 5 12
REMARK SMILES IDX 6 13 7 14 8 15 12 16 10 17 9 18 11 20 20 22 17 24
REMARK H PARENT 9 19 11 21 20 23 17 25
REMARK Flexibility Score: inf
ROOT
ATOM      1  C   UNL     1      29.683  37.293  26.896  1.00  0.00     0.138 A 
ATOM      2  C   UNL     1      28.382  37.603  27.326  1.00  0.00     0.100 A 
ATOM      3  C   UNL     1      27.658  38.596  26.665  1.00  0.00     0.197 A 
ATOM      4  O   UNL     1      26.491  38.866  27.058  1.00  0.00    -0.289 OA
ATOM      5  C   UNL     1      28.239  39.271  25.574  1.00  0.00     0.107 A 
ATOM      6  C   UNL     1      27.576  40.289  24.850  1.00  0.00     0.134 A 
ATOM      7  C   UNL     1      28.223  40.910  23.771  1.00  0.00     0.093 A 
ATOM      8  C   UNL     1      29.516  40.531  23.403  1.00  0.00     0.123 A 
ATOM      9  C   UNL     1      30.177  39.525  24.114  1.00  0.00     0.094 A 
ATOM     10  C   UNL     1      29.550  38.896  25.193  1.00  0.00     0.146 A 
ATOM     11  O   UNL     1      30.200  37.943  25.854  1.00  0.00    -0.456 OA
ENDROOT
BRANCH   1  12
ATOM     12  C   UNL     1      30.500  36.246  27.560  1.00  0.00     0.021 A 
ATOM     13  C   UNL     1      30.115  34.899  27.454  1.00  0.00     0.016 A 
ATOM     14  C   UNL     1      30.870  33.893  28.062  1.00  0.00     0.051 A 
ATOM     15  C   UNL     1      32.029  34.217  28.778  1.00  0.00     0.157 A 
ATOM     16  C   UNL     1      31.674  36.563  28.271  1.00  0.00     0.062 A 
ATOM     17  C   UNL     1      32.434  35.553  28.881  1.00  0.00     0.158 A 
BRANCH  15  18
ATOM     18  O   UNL     1      32.785  33.217  29.389  1.00  0.00    -0.504 OA
ATOM     19  H   UNL     1      33.413  33.423  30.157  1.00  0.00     0.293 HD
ENDBRANCH  15  18
BRANCH  17  20
ATOM     20  O   UNL     1      33.594  35.871  29.585  1.00  0.00    -0.504 OA
ATOM     21  H   UNL     1      34.377  35.230  29.634  1.00  0.00     0.293 HD
ENDBRANCH  17  20
ENDBRANCH   1  12
BRANCH   6  22
ATOM     22  O   UNL     1      26.283  40.688  25.194  1.00  0.00    -0.507 OA
ATOM     23  H   UNL     1      26.077  41.640  25.475  1.00  0.00     0.293 HD
ENDBRANCH   6  22
BRANCH   8  24
ATOM     24  O   UNL     1      30.136  41.163  22.326  1.00  0.00    -0.508 OA
ATOM     25  H   UNL     1      29.704  41.194  21.410  1.00  0.00     0.293 HD
ENDBRANCH   8  24
TORSDOF 5
ENDMDL
MODEL 4
REMARK VINA RESULT:     2.545      1.037      2.606
REMARK INTER + INTRA:           2.719
REMARK INTER:                   2.979
REMARK INTRA:                  -0.260
REMARK UNBOUND:                -0.272
REMARK SMILES O=c1cc(-c2ccc(O)c(O)c2)oc2cc(O)cc(O)c12
REMARK SMILES IDX 4 1 3 2 2 3 1 4 21 5 19 6 18 7 16 8 15 9 14 10 13 11 5 12
REMARK SMILES IDX 6 13 7 14 8 15 12 16 10 17 9 18 11 20 20 22 17 24
REMARK H PARENT 9 19 11 21 20 23 17 25
REMARK Flexibility Score: inf
ROOT
ATOM      1  C   UNL     1      30.458  37.407  27.482  1.00  0.00     0.138 A 
ATOM      2  C   UNL     1      31.129  36.214  27.800  1.00  0.00     0.100 A 
ATOM      3  C   UNL     1      30.598  34.994  27.381  1.00  0.00     0.197 A 
ATOM      4  O   UNL     1      31.208  33.929  27.670  1.00  0.00    -0.289 OA
ATOM      5  C   UNL     1      29.398  34.975  26.642  1.00  0.00     0.107 A 
ATOM      6  C   UNL     1      28.792  33.783  26.180  1.00  0.00     0.134 A 
ATOM      7  C   UNL     1      27.599  33.849  25.445  1.00  0.00     0.093 A 
ATOM      8  C   UNL     1      27.004  35.081  25.163  1.00  0.00     0.123 A 
ATOM      9  C   UNL     1      27.598  36.263  25.617  1.00  0.00     0.094 A 
ATOM     10  C   UNL     1      28.786  36.218  26.352  1.00  0.00     0.146 A 
ATOM     11  O   UNL     1      29.331  37.355  26.773  1.00  0.00    -0.456 OA
ENDROOT
BRANCH   1  12
ATOM     12  C   UNL     1      30.977  38.734  27.900  1.00  0.00     0.021 A 
ATOM     13  C   UNL     1      30.422  39.371  29.023  1.00  0.00     0.016 A 
ATOM     14  C   UNL     1      30.897  40.617  29.441  1.00  0.00     0.051 A 
ATOM     15  C   UNL     1      31.942  41.241  28.749  1.00  0.00     0.157 A 
ATOM     16  C   UNL     1      32.036  39.363  27.216  1.00  0.00     0.062 A 
ATOM     17  C   UNL     1      32.515  40.613  27.637  1.00  0.00     0.158 A 
BRANCH  15  18
ATOM     18  O   UNL     1      32.418  42.485  29.161  1.00  0.00    -0.504 OA
ATOM     19  H   UNL     1      32.759  43.169  28.495  1.00  0.00     0.293 HD
ENDBRANCH  15  18
BRANCH  17  20
ATOM     20  O   UNL     1      33.562  41.232  26.957  1.00  0.00    -0.504 OA
ATOM     21  H   UNL     1      34.277  41.756  27.448  1.00  0.00     0.293 HD
ENDBRANCH  17  20
ENDBRANCH   1  12
BRANCH   6  22
ATOM     22  O   UNL     1      29.363  32.538  26.445  1.00  0.00    -0.507 OA
ATOM     23  H   UNL     1      29.717  32.299  27.364  1.00  0.00     0.293 HD
ENDBRANCH   6  22
BRANCH   8  24
ATOM     24  O   UNL     1      25.818  35.120  24.430  1.00  0.00    -0.508 OA
ATOM     25  H   UNL     1      24.939  34.813  24.829  1.00  0.00     0.293 HD
ENDBRANCH   8  24
TORSDOF 5
ENDMDL
MODEL 5
REMARK VINA RESULT:     2.878      3.304      5.808
REMARK INTER + INTRA:           3.110
REMARK INTER:                   3.374
REMARK INTRA:                  -0.264
REMARK UNBOUND:                -0.272
REMARK SMILES O=c1cc(-c2ccc(O)c(O)c2)oc2cc(O)cc(O)c12
REMARK SMILES IDX 4 1 3 2 2 3 1 4 21 5 19 6 18 7 16 8 15 9 14 10 13 11 5 12
REMARK SMILES IDX 6 13 7 14 8 15 12 16 10 17 9 18 11 20 20 22 17 24
REMARK H PARENT 9 19 11 21 20 23 17 25
REMARK Flexibility Score: inf
ROOT
ATOM      1  C   UNL     1      30.443  38.264  26.788  1.00  0.00     0.138 A 
ATOM      2  C   UNL     1      31.203  39.079  27.643  1.00  0.00     0.100 A 
ATOM      3  C   UNL     1      30.747  39.330  28.938  1.00  0.00     0.197 A 
ATOM      4  O   UNL     1      31.437  40.063  29.697  1.00  0.00    -0.289 OA
ATOM      5  C   UNL     1      29.534  38.760  29.371  1.00  0.00     0.107 A 
ATOM      6  C   UNL     1      29.000  38.965  30.665  1.00  0.00     0.134 A 
ATOM      7  C   UNL     1      27.787  38.357  31.021  1.00  0.00     0.093 A 
ATOM      8  C   UNL     1      27.101  37.550  30.111  1.00  0.00     0.123 A 
ATOM      9  C   UNL     1      27.624  37.343  28.830  1.00  0.00     0.094 A 
ATOM     10  C   UNL     1      28.830  37.942  28.456  1.00  0.00     0.146 A 
ATOM     11  O   UNL     1      29.305  37.732  27.232  1.00  0.00    -0.456 OA
ENDROOT
BRANCH   1  12
ATOM     12  C   UNL     1      30.878  37.960  25.401  1.00  0.00     0.021 A 
ATOM     13  C   UNL     1      30.250  38.606  24.323  1.00  0.00     0.016 A 
ATOM     14  C   UNL     1      30.647  38.343  23.009  1.00  0.00     0.051 A 
ATOM     15  C   UNL     1      31.684  37.439  22.752  1.00  0.00     0.157 A 
ATOM     16  C   UNL     1      31.930  37.061  25.136  1.00  0.00     0.062 A 
ATOM     17  C   UNL     1      32.329  36.799  23.817  1.00  0.00     0.158 A 
BRANCH  15  18
ATOM     18  O   UNL     1      32.082  37.172  21.443  1.00  0.00    -0.504 OA
ATOM     19  H   UNL     1      32.775  36.464  21.234  1.00  0.00     0.293 HD
ENDBRANCH  15  18
BRANCH  17  20
ATOM     20  O   UNL     1      33.369  35.907  23.559  1.00  0.00    -0.504 OA
ATOM     21  H   UNL     1      33.331  34.944  23.870  1.00  0.00     0.293 HD
ENDBRANCH  17  20
ENDBRANCH   1  12
BRANCH   6  22
ATOM     22  O   UNL     1      29.663  39.765  31.597  1.00  0.00    -0.507 OA
ATOM     23  H   UNL     1      29.165  40.243  32.338  1.00  0.00     0.293 HD
ENDBRANCH   6  22
BRANCH   8  24
ATOM     24  O   UNL     1      25.898  36.956  30.490  1.00  0.00    -0.508 OA
ATOM     25  H   UNL     1      25.579  36.974  31.451  1.00  0.00     0.293 HD
ENDBRANCH   8  24
TORSDOF 5
ENDMDL
