MODEL 1
REMARK VINA RESULT:    -3.438      0.000      0.000
REMARK INTER + INTRA:         -14.764
REMARK INTER:                  -9.067
REMARK INTRA:                  -5.698
REMARK UNBOUND:                -5.698
REMARK SMILES CCCCCCCCCCCCCCCCCCCCCCCCCCCCCC(=O)[O-]
REMARK SMILES IDX 16 1 17 2 18 3 19 4 20 5 21 6 22 7 23 8 24 9 25 10 26 11
REMARK SMILES IDX 27 12 28 13 29 14 30 15 31 16 32 17 15 18 14 19 13 20 12 21
REMARK SMILES IDX 11 22 10 23 9 24 8 25 7 26 6 27 5 28 4 29 3 30 2 31 1 32
REMARK H PARENT
REMARK Flexibility Score: inf
ROOT
ATOM      1  C   UNL     1      50.719  29.737  87.673  1.00  0.00     0.000 C 
ENDROOT
BRANCH   1   2
ATOM      2  C   UNL     1      51.342  30.930  88.432  1.00  0.00     0.000 C 
BRANCH   2   3
ATOM      3  C   UNL     1      52.849  30.741  88.679  1.00  0.00     0.000 C 
BRANCH   3   4
ATOM      4  C   UNL     1      53.359  31.564  89.882  1.00  0.00     0.000 C 
BRANCH   4   5
ATOM      5  C   UNL     1      52.249  32.314  90.644  1.00  0.00     0.000 C 
BRANCH   5   6
ATOM      6  C   UNL     1      52.082  31.918  92.125  1.00  0.00     0.000 C 
BRANCH   6   7
ATOM      7  C   UNL     1      50.645  31.542  92.536  1.00  0.00     0.000 C 
BRANCH   7   8
ATOM      8  C   UNL     1      50.015  30.498  91.599  1.00  0.00     0.000 C 
BRANCH   8   9
ATOM      9  C   UNL     1      48.589  30.870  91.162  1.00  0.00     0.000 C 
BRANCH   9  10
ATOM     10  C   UNL     1      47.848  29.791  90.346  1.00  0.00     0.000 C 
BRANCH  10  11
ATOM     11  C   UNL     1      46.716  30.347  89.455  1.00  0.00     0.000 C 
BRANCH  11  12
ATOM     12  C   UNL     1      46.050  31.592  90.067  1.00  0.00     0.000 C 
BRANCH  12  13
ATOM     13  C   UNL     1      44.637  31.310  90.597  1.00  0.00     0.006 C 
BRANCH  13  14
ATOM     14  C   UNL     1      44.575  31.305  92.132  1.00  0.00     0.053 C 
BRANCH  14  15
ATOM     15  C   UNL     1      44.337  29.918  92.640  1.00  0.00     0.041 C 
ATOM     16  O   UNL     1      45.284  29.091  92.688  1.00  0.00    -0.550 OA
ATOM     17  O   UNL     1      43.079  29.554  93.102  1.00  0.00    -0.550 OA
ENDBRANCH  14  15
ENDBRANCH  13  14
ENDBRANCH  12  13
ENDBRANCH  11  12
ENDBRANCH  10  11
ENDBRANCH   9  10
ENDBRANCH   8   9
ENDBRANCH   7   8
ENDBRANCH   6   7
ENDBRANCH   5   6
ENDBRANCH   4   5
ENDBRANCH   3   4
ENDBRANCH   2   3
ENDBRANCH   1   2
BRANCH   1  18
ATOM     18  C   UNL     1      49.485  30.125  86.838  1.00  0.00     0.000 C 
BRANCH  18  19
ATOM     19  C   UNL     1      49.469  31.593  86.373  1.00  0.00     0.000 C 
BRANCH  19  20
ATOM     20  C   UNL     1      48.175  32.371  86.694  1.00  0.00     0.000 C 
BRANCH  20  21
ATOM     21  C   UNL     1      48.313  33.475  87.757  1.00  0.00     0.000 C 
BRANCH  21  22
ATOM     22  C   UNL     1      48.650  34.850  87.155  1.00  0.00     0.000 C 
BRANCH  22  23
ATOM     23  C   UNL     1      49.919  35.469  87.767  1.00  0.00     0.000 C 
BRANCH  23  24
ATOM     24  C   UNL     1      51.022  34.460  88.144  1.00  0.00    -0.000 C 
BRANCH  24  25
ATOM     25  C   UNL     1      52.465  34.983  87.991  1.00  0.00    -0.000 C 
BRANCH  25  26
ATOM     26  C   UNL     1      53.309  34.254  86.928  1.00  0.00    -0.000 C 
BRANCH  26  27
ATOM     27  C   UNL     1      52.804  34.502  85.496  1.00  0.00    -0.000 C 
BRANCH  27  28
ATOM     28  C   UNL     1      52.367  33.211  84.782  1.00  0.00    -0.000 C 
BRANCH  28  29
ATOM     29  C   UNL     1      53.042  31.925  85.294  1.00  0.00    -0.000 C 
BRANCH  29  30
ATOM     30  C   UNL     1      53.241  30.874  84.188  1.00  0.00    -0.000 C 
BRANCH  30  31
ATOM     31  C   UNL     1      52.078  29.874  84.114  1.00  0.00    -0.003 C 
ATOM     32  C   UNL     1      50.970  30.320  83.158  1.00  0.00     0.004 C 
ENDBRANCH  30  31
ENDBRANCH  29  30
ENDBRANCH  28  29
ENDBRANCH  27  28
ENDBRANCH  26  27
ENDBRANCH  25  26
ENDBRANCH  24  25
ENDBRANCH  23  24
ENDBRANCH  22  23
ENDBRANCH  21  22
ENDBRANCH  20  21
ENDBRANCH  19  20
ENDBRANCH  18  19
ENDBRANCH   1  18
TORSDOF 28
ENDMDL
MODEL 2
REMARK VINA RESULT:    -3.306      1.414      3.031
REMARK INTER + INTRA:         -14.415
REMARK INTER:                  -8.321
REMARK INTRA:                  -6.095
REMARK UNBOUND:                -5.698
REMARK SMILES CCCCCCCCCCCCCCCCCCCCCCCCCCCCCC(=O)[O-]
REMARK SMILES IDX 16 1 17 2 18 3 19 4 20 5 21 6 22 7 23 8 24 9 25 10 26 11
REMARK SMILES IDX 27 12 28 13 29 14 30 15 31 16 32 17 15 18 14 19 13 20 12 21
REMARK SMILES IDX 11 22 10 23 9 24 8 25 7 26 6 27 5 28 4 29 3 30 2 31 1 32
REMARK H PARENT
REMARK Flexibility Score: inf
ROOT
ATOM      1  C   UNL     1      53.422  31.274  90.298  1.00  0.00     0.000 C 
ENDROOT
BRANCH   1   2
ATOM      2  C   UNL     1      52.738  32.030  91.460  1.00  0.00     0.000 C 
BRANCH   2   3
ATOM      3  C   UNL     1      51.746  31.141  92.230  1.00  0.00     0.000 C 
BRANCH   3   4
ATOM      4  C   UNL     1      50.290  31.642  92.115  1.00  0.00     0.000 C 
BRANCH   4   5
ATOM      5  C   UNL     1      49.405  30.790  91.185  1.00  0.00     0.000 C 
BRANCH   5   6
ATOM      6  C   UNL     1      50.079  29.532  90.604  1.00  0.00     0.000 C 
BRANCH   6   7
ATOM      7  C   UNL     1      49.730  29.232  89.133  1.00  0.00     0.000 C 
BRANCH   7   8
ATOM      8  C   UNL     1      48.237  28.922  88.930  1.00  0.00     0.000 C 
BRANCH   8   9
ATOM      9  C   UNL     1      47.704  29.416  87.575  1.00  0.00     0.000 C 
BRANCH   9  10
ATOM     10  C   UNL     1      46.429  30.279  87.645  1.00  0.00     0.000 C 
BRANCH  10  11
ATOM     11  C   UNL     1      45.733  30.257  89.024  1.00  0.00     0.000 C 
BRANCH  11  12
ATOM     12  C   UNL     1      46.017  31.529  89.841  1.00  0.00     0.000 C 
BRANCH  12  13
ATOM     13  C   UNL     1      45.702  31.358  91.335  1.00  0.00     0.006 C 
BRANCH  13  14
ATOM     14  C   UNL     1      45.642  29.883  91.758  1.00  0.00     0.053 C 
BRANCH  14  15
ATOM     15  C   UNL     1      44.357  29.595  92.468  1.00  0.00     0.041 C 
ATOM     16  O   UNL     1      43.948  30.368  93.374  1.00  0.00    -0.550 OA
ATOM     17  O   UNL     1      43.592  28.496  92.100  1.00  0.00    -0.550 OA
ENDBRANCH  14  15
ENDBRANCH  13  14
ENDBRANCH  12  13
ENDBRANCH  11  12
ENDBRANCH  10  11
ENDBRANCH   9  10
ENDBRANCH   8   9
ENDBRANCH   7   8
ENDBRANCH   6   7
ENDBRANCH   5   6
ENDBRANCH   4   5
ENDBRANCH   3   4
ENDBRANCH   2   3
ENDBRANCH   1   2
BRANCH   1  18
ATOM     18  C   UNL     1      53.119  31.882  88.916  1.00  0.00     0.000 C 
BRANCH  18  19
ATOM     19  C   UNL     1      52.801  33.388  88.940  1.00  0.00     0.000 C 
BRANCH  19  20
ATOM     20  C   UNL     1      51.402  33.774  88.415  1.00  0.00     0.000 C 
BRANCH  20  21
ATOM     21  C   UNL     1      50.479  32.594  88.060  1.00  0.00     0.000 C 
BRANCH  21  22
ATOM     22  C   UNL     1      48.986  32.959  88.119  1.00  0.00     0.000 C 
BRANCH  22  23
ATOM     23  C   UNL     1      48.361  33.122  86.722  1.00  0.00     0.000 C 
BRANCH  23  24
ATOM     24  C   UNL     1      48.693  34.449  86.009  1.00  0.00    -0.000 C 
BRANCH  24  25
ATOM     25  C   UNL     1      48.626  34.396  84.469  1.00  0.00    -0.000 C 
BRANCH  25  26
ATOM     26  C   UNL     1      49.984  34.209  83.767  1.00  0.00    -0.000 C 
BRANCH  26  27
ATOM     27  C   UNL     1      51.167  34.208  84.751  1.00  0.00    -0.000 C 
BRANCH  27  28
ATOM     28  C   UNL     1      52.390  33.443  84.217  1.00  0.00    -0.000 C 
BRANCH  28  29
ATOM     29  C   UNL     1      53.180  32.656  85.279  1.00  0.00    -0.000 C 
BRANCH  29  30
ATOM     30  C   UNL     1      52.840  31.156  85.285  1.00  0.00    -0.000 C 
BRANCH  30  31
ATOM     31  C   UNL     1      51.667  30.816  84.353  1.00  0.00    -0.003 C 
ATOM     32  C   UNL     1      50.398  30.424  85.113  1.00  0.00     0.004 C 
ENDBRANCH  30  31
ENDBRANCH  29  30
ENDBRANCH  28  29
ENDBRANCH  27  28
ENDBRANCH  26  27
ENDBRANCH  25  26
ENDBRANCH  24  25
ENDBRANCH  23  24
ENDBRANCH  22  23
ENDBRANCH  21  22
ENDBRANCH  20  21
ENDBRANCH  19  20
ENDBRANCH  18  19
ENDBRANCH   1  18
TORSDOF 28
ENDMDL
MODEL 3
REMARK VINA RESULT:    -3.263      2.775      5.407
REMARK INTER + INTRA:         -14.302
REMARK INTER:                  -8.815
REMARK INTRA:                  -5.487
REMARK UNBOUND:                -5.698
REMARK SMILES CCCCCCCCCCCCCCCCCCCCCCCCCCCCCC(=O)[O-]
REMARK SMILES IDX 16 1 17 2 18 3 19 4 20 5 21 6 22 7 23 8 24 9 25 10 26 11
REMARK SMILES IDX 27 12 28 13 29 14 30 15 31 16 32 17 15 18 14 19 13 20 12 21
REMARK SMILES IDX 11 22 10 23 9 24 8 25 7 26 6 27 5 28 4 29 3 30 2 31 1 32
REMARK H PARENT
REMARK Flexibility Score: inf
ROOT
ATOM      1  C   UNL     1      46.557  30.990  88.344  1.00  0.00     0.000 C 
ENDROOT
BRANCH   1   2
ATOM      2  C   UNL     1      46.320  31.616  89.736  1.00  0.00     0.000 C 
BRANCH   2   3
ATOM      3  C   UNL     1      44.927  31.280  90.297  1.00  0.00     0.000 C 
BRANCH   3   4
ATOM      4  C   UNL     1      44.898  31.271  91.841  1.00  0.00     0.000 C 
BRANCH   4   5
ATOM      5  C   UNL     1      44.704  29.872  92.457  1.00  0.00     0.000 C 
BRANCH   5   6
ATOM      6  C   UNL     1      44.839  28.694  91.472  1.00  0.00     0.000 C 
BRANCH   6   7
ATOM      7  C   UNL     1      46.186  27.948  91.536  1.00  0.00     0.000 C 
BRANCH   7   8
ATOM      8  C   UNL     1      46.861  27.826  90.160  1.00  0.00     0.000 C 
BRANCH   8   9
ATOM      9  C   UNL     1      48.273  28.437  90.130  1.00  0.00     0.000 C 
BRANCH   9  10
ATOM     10  C   UNL     1      48.824  28.884  91.499  1.00  0.00     0.000 C 
BRANCH  10  11
ATOM     11  C   UNL     1      50.143  29.684  91.412  1.00  0.00     0.000 C 
BRANCH  11  12
ATOM     12  C   UNL     1      50.807  29.564  90.029  1.00  0.00     0.000 C 
BRANCH  12  13
ATOM     13  C   UNL     1      51.202  30.927  89.440  1.00  0.00     0.006 C 
BRANCH  13  14
ATOM     14  C   UNL     1      51.295  32.025  90.510  1.00  0.00     0.053 C 
BRANCH  14  15
ATOM     15  C   UNL     1      52.722  32.257  90.898  1.00  0.00     0.041 C 
ATOM     16  O   UNL     1      53.363  33.220  90.403  1.00  0.00    -0.550 OA
ATOM     17  O   UNL     1      53.327  31.435  91.839  1.00  0.00    -0.550 OA
ENDBRANCH  14  15
ENDBRANCH  13  14
ENDBRANCH  12  13
ENDBRANCH  11  12
ENDBRANCH  10  11
ENDBRANCH   9  10
ENDBRANCH   8   9
ENDBRANCH   7   8
ENDBRANCH   6   7
ENDBRANCH   5   6
ENDBRANCH   4   5
ENDBRANCH   3   4
ENDBRANCH   2   3
ENDBRANCH   1   2
BRANCH   1  18
ATOM     18  C   UNL     1      47.876  31.440  87.691  1.00  0.00     0.000 C 
BRANCH  18  19
ATOM     19  C   UNL     1      48.377  32.820  88.156  1.00  0.00     0.000 C 
BRANCH  19  20
ATOM     20  C   UNL     1      48.311  33.937  87.092  1.00  0.00     0.000 C 
BRANCH  20  21
ATOM     21  C   UNL     1      49.472  34.947  87.122  1.00  0.00     0.000 C 
BRANCH  21  22
ATOM     22  C   UNL     1      50.577  34.564  88.120  1.00  0.00     0.000 C 
BRANCH  22  23
ATOM     23  C   UNL     1      51.912  35.271  87.827  1.00  0.00     0.000 C 
BRANCH  23  24
ATOM     24  C   UNL     1      52.722  34.679  86.656  1.00  0.00    -0.000 C 
BRANCH  24  25
ATOM     25  C   UNL     1      53.151  33.209  86.838  1.00  0.00    -0.000 C 
BRANCH  25  26
ATOM     26  C   UNL     1      52.732  32.265  85.695  1.00  0.00    -0.000 C 
BRANCH  26  27
ATOM     27  C   UNL     1      51.257  31.838  85.788  1.00  0.00    -0.000 C 
BRANCH  27  28
ATOM     28  C   UNL     1      50.449  32.195  84.528  1.00  0.00    -0.000 C 
BRANCH  28  29
ATOM     29  C   UNL     1      50.718  33.600  83.959  1.00  0.00    -0.000 C 
BRANCH  29  30
ATOM     30  C   UNL     1      49.603  34.087  83.018  1.00  0.00    -0.000 C 
BRANCH  30  31
ATOM     31  C   UNL     1      48.203  33.895  83.619  1.00  0.00    -0.003 C 
ATOM     32  C   UNL     1      47.330  32.942  82.799  1.00  0.00     0.004 C 
ENDBRANCH  30  31
ENDBRANCH  29  30
ENDBRANCH  28  29
ENDBRANCH  27  28
ENDBRANCH  26  27
ENDBRANCH  25  26
ENDBRANCH  24  25
ENDBRANCH  23  24
ENDBRANCH  22  23
ENDBRANCH  21  22
ENDBRANCH  20  21
ENDBRANCH  19  20
ENDBRANCH  18  19
ENDBRANCH   1  18
TORSDOF 28
ENDMDL
MODEL 4
REMARK VINA RESULT:    -3.215      4.099      8.503
REMARK INTER + INTRA:         -14.175
REMARK INTER:                  -8.660
REMARK INTRA:                  -5.515
REMARK UNBOUND:                -5.698
REMARK SMILES CCCCCCCCCCCCCCCCCCCCCCCCCCCCCC(=O)[O-]
REMARK SMILES IDX 16 1 17 2 18 3 19 4 20 5 21 6 22 7 23 8 24 9 25 10 26 11
REMARK SMILES IDX 27 12 28 13 29 14 30 15 31 16 32 17 15 18 14 19 13 20 12 21
REMARK SMILES IDX 11 22 10 23 9 24 8 25 7 26 6 27 5 28 4 29 3 30 2 31 1 32
REMARK H PARENT
REMARK Flexibility Score: inf
ROOT
ATOM      1  C   UNL     1      49.819  35.581  87.835  1.00  0.00     0.000 C 
ENDROOT
BRANCH   1   2
ATOM      2  C   UNL     1      48.583  35.079  87.056  1.00  0.00     0.000 C 
BRANCH   2   3
ATOM      3  C   UNL     1      48.951  34.038  85.985  1.00  0.00     0.000 C 
BRANCH   3   4
ATOM      4  C   UNL     1      48.534  34.477  84.565  1.00  0.00     0.000 C 
BRANCH   4   5
ATOM      5  C   UNL     1      49.540  34.082  83.466  1.00  0.00     0.000 C 
BRANCH   5   6
ATOM      6  C   UNL     1      49.343  32.675  82.867  1.00  0.00     0.000 C 
BRANCH   6   7
ATOM      7  C   UNL     1      50.436  31.655  83.238  1.00  0.00     0.000 C 
BRANCH   7   8
ATOM      8  C   UNL     1      50.238  31.059  84.643  1.00  0.00     0.000 C 
BRANCH   8   9
ATOM      9  C   UNL     1      51.406  31.371  85.594  1.00  0.00     0.000 C 
BRANCH   9  10
ATOM     10  C   UNL     1      52.740  31.719  84.905  1.00  0.00     0.000 C 
BRANCH  10  11
ATOM     11  C   UNL     1      53.330  33.080  85.334  1.00  0.00     0.000 C 
BRANCH  11  12
ATOM     12  C   UNL     1      53.058  34.186  84.300  1.00  0.00     0.000 C 
BRANCH  12  13
ATOM     13  C   UNL     1      53.832  33.977  82.989  1.00  0.00     0.006 C 
BRANCH  13  14
ATOM     14  C   UNL     1      53.153  34.657  81.791  1.00  0.00     0.053 C 
BRANCH  14  15
ATOM     15  C   UNL     1      52.470  33.640  80.930  1.00  0.00     0.041 C 
ATOM     16  O   UNL     1      51.408  33.937  80.323  1.00  0.00    -0.550 OA
ATOM     17  O   UNL     1      53.031  32.381  80.765  1.00  0.00    -0.550 OA
ENDBRANCH  14  15
ENDBRANCH  13  14
ENDBRANCH  12  13
ENDBRANCH  11  12
ENDBRANCH  10  11
ENDBRANCH   9  10
ENDBRANCH   8   9
ENDBRANCH   7   8
ENDBRANCH   6   7
ENDBRANCH   5   6
ENDBRANCH   4   5
ENDBRANCH   3   4
ENDBRANCH   2   3
ENDBRANCH   1   2
BRANCH   1  18
ATOM     18  C   UNL     1      51.129  34.896  87.402  1.00  0.00     0.000 C 
BRANCH  18  19
ATOM     19  C   UNL     1      52.373  35.350  88.188  1.00  0.00     0.000 C 
BRANCH  19  20
ATOM     20  C   UNL     1      53.193  34.215  88.836  1.00  0.00     0.000 C 
BRANCH  20  21
ATOM     21  C   UNL     1      52.413  32.923  89.136  1.00  0.00     0.000 C 
BRANCH  21  22
ATOM     22  C   UNL     1      53.319  31.766  89.591  1.00  0.00     0.000 C 
BRANCH  22  23
ATOM     23  C   UNL     1      53.188  31.468  91.095  1.00  0.00     0.000 C 
BRANCH  23  24
ATOM     24  C   UNL     1      52.098  32.275  91.829  1.00  0.00    -0.000 C 
BRANCH  24  25
ATOM     25  C   UNL     1      50.968  31.429  92.450  1.00  0.00    -0.000 C 
BRANCH  25  26
ATOM     26  C   UNL     1      50.730  30.066  91.773  1.00  0.00    -0.000 C 
BRANCH  26  27
ATOM     27  C   UNL     1      49.433  30.031  90.947  1.00  0.00    -0.000 C 
BRANCH  27  28
ATOM     28  C   UNL     1      49.651  30.417  89.473  1.00  0.00    -0.000 C 
BRANCH  28  29
ATOM     29  C   UNL     1      48.999  31.745  89.046  1.00  0.00    -0.000 C 
BRANCH  29  30
ATOM     30  C   UNL     1      47.775  31.545  88.136  1.00  0.00    -0.000 C 
BRANCH  30  31
ATOM     31  C   UNL     1      46.611  30.855  88.863  1.00  0.00    -0.003 C 
ATOM     32  C   UNL     1      46.156  31.616  90.111  1.00  0.00     0.004 C 
ENDBRANCH  30  31
ENDBRANCH  29  30
ENDBRANCH  28  29
ENDBRANCH  27  28
ENDBRANCH  26  27
ENDBRANCH  25  26
ENDBRANCH  24  25
ENDBRANCH  23  24
ENDBRANCH  22  23
ENDBRANCH  21  22
ENDBRANCH  20  21
ENDBRANCH  19  20
ENDBRANCH  18  19
ENDBRANCH   1  18
TORSDOF 28
ENDMDL
MODEL 5
REMARK VINA RESULT:    -3.206      3.063      7.798
REMARK INTER + INTRA:         -14.153
REMARK INTER:                  -8.315
REMARK INTRA:                  -5.838
REMARK UNBOUND:                -5.698
REMARK SMILES CCCCCCCCCCCCCCCCCCCCCCCCCCCCCC(=O)[O-]
REMARK SMILES IDX 16 1 17 2 18 3 19 4 20 5 21 6 22 7 23 8 24 9 25 10 26 11
REMARK SMILES IDX 27 12 28 13 29 14 30 15 31 16 32 17 15 18 14 19 13 20 12 21
REMARK SMILES IDX 11 22 10 23 9 24 8 25 7 26 6 27 5 28 4 29 3 30 2 31 1 32
REMARK H PARENT
REMARK Flexibility Score: inf
ROOT
ATOM      1  C   UNL     1      52.751  32.344  89.586  1.00  0.00     0.000 C 
ENDROOT
BRANCH   1   2
ATOM      2  C   UNL     1      53.230  33.798  89.375  1.00  0.00     0.000 C 
BRANCH   2   3
ATOM      3  C   UNL     1      53.589  34.086  87.907  1.00  0.00     0.000 C 
BRANCH   3   4
ATOM      4  C   UNL     1      52.599  35.064  87.237  1.00  0.00     0.000 C 
BRANCH   4   5
ATOM      5  C   UNL     1      51.546  35.648  88.199  1.00  0.00     0.000 C 
BRANCH   5   6
ATOM      6  C   UNL     1      50.080  35.349  87.832  1.00  0.00     0.000 C 
BRANCH   6   7
ATOM      7  C   UNL     1      49.893  34.319  86.702  1.00  0.00     0.000 C 
BRANCH   7   8
ATOM      8  C   UNL     1      48.679  34.631  85.810  1.00  0.00     0.000 C 
BRANCH   8   9
ATOM      9  C   UNL     1      48.747  33.934  84.441  1.00  0.00     0.000 C 
BRANCH   9  10
ATOM     10  C   UNL     1      49.977  34.290  83.583  1.00  0.00     0.000 C 
BRANCH  10  11
ATOM     11  C   UNL     1      50.993  33.136  83.436  1.00  0.00     0.000 C 
BRANCH  11  12
ATOM     12  C   UNL     1      52.369  33.492  84.025  1.00  0.00     0.000 C 
BRANCH  12  13
ATOM     13  C   UNL     1      53.078  32.282  84.651  1.00  0.00     0.006 C 
BRANCH  13  14
ATOM     14  C   UNL     1      52.191  31.537  85.659  1.00  0.00     0.053 C 
BRANCH  14  15
ATOM     15  C   UNL     1      52.108  30.084  85.309  1.00  0.00     0.041 C 
ATOM     16  O   UNL     1      51.180  29.662  84.571  1.00  0.00    -0.550 OA
ATOM     17  O   UNL     1      53.082  29.205  85.764  1.00  0.00    -0.550 OA
ENDBRANCH  14  15
ENDBRANCH  13  14
ENDBRANCH  12  13
ENDBRANCH  11  12
ENDBRANCH  10  11
ENDBRANCH   9  10
ENDBRANCH   8   9
ENDBRANCH   7   8
ENDBRANCH   6   7
ENDBRANCH   5   6
ENDBRANCH   4   5
ENDBRANCH   3   4
ENDBRANCH   2   3
ENDBRANCH   1   2
BRANCH   1  18
ATOM     18  C   UNL     1      51.223  32.186  89.480  1.00  0.00     0.000 C 
BRANCH  18  19
ATOM     19  C   UNL     1      50.574  31.464  90.675  1.00  0.00     0.000 C 
BRANCH  19  20
ATOM     20  C   UNL     1      50.286  29.963  90.460  1.00  0.00     0.000 C 
BRANCH  20  21
ATOM     21  C   UNL     1      50.417  29.465  89.009  1.00  0.00     0.000 C 
BRANCH  21  22
ATOM     22  C   UNL     1      49.184  28.681  88.529  1.00  0.00     0.000 C 
BRANCH  22  23
ATOM     23  C   UNL     1      48.627  29.212  87.197  1.00  0.00     0.000 C 
BRANCH  23  24
ATOM     24  C   UNL     1      48.797  30.728  86.975  1.00  0.00    -0.000 C 
BRANCH  24  25
ATOM     25  C   UNL     1      47.562  31.582  87.325  1.00  0.00    -0.000 C 
BRANCH  25  26
ATOM     26  C   UNL     1      47.466  32.008  88.802  1.00  0.00    -0.000 C 
BRANCH  26  27
ATOM     27  C   UNL     1      46.317  31.308  89.549  1.00  0.00    -0.000 C 
BRANCH  27  28
ATOM     28  C   UNL     1      46.670  30.967  91.007  1.00  0.00    -0.000 C 
BRANCH  28  29
ATOM     29  C   UNL     1      46.835  29.465  91.303  1.00  0.00    -0.000 C 
BRANCH  29  30
ATOM     30  C   UNL     1      45.599  28.850  91.980  1.00  0.00    -0.000 C 
BRANCH  30  31
ATOM     31  C   UNL     1      44.601  29.915  92.458  1.00  0.00    -0.003 C 
ATOM     32  C   UNL     1      43.493  29.338  93.342  1.00  0.00     0.004 C 
ENDBRANCH  30  31
ENDBRANCH  29  30
ENDBRANCH  28  29
ENDBRANCH  27  28
ENDBRANCH  26  27
ENDBRANCH  25  26
ENDBRANCH  24  25
ENDBRANCH  23  24
ENDBRANCH  22  23
ENDBRANCH  21  22
ENDBRANCH  20  21
ENDBRANCH  19  20
ENDBRANCH  18  19
ENDBRANCH   1  18
TORSDOF 28
ENDMDL
MODEL 6
REMARK VINA RESULT:    -3.183      3.522      6.848
REMARK INTER + INTRA:         -14.091
REMARK INTER:                  -8.803
REMARK INTRA:                  -5.288
REMARK UNBOUND:                -5.698
REMARK SMILES CCCCCCCCCCCCCCCCCCCCCCCCCCCCCC(=O)[O-]
REMARK SMILES IDX 16 1 17 2 18 3 19 4 20 5 21 6 22 7 23 8 24 9 25 10 26 11
REMARK SMILES IDX 27 12 28 13 29 14 30 15 31 16 32 17 15 18 14 19 13 20 12 21
REMARK SMILES IDX 11 22 10 23 9 24 8 25 7 26 6 27 5 28 4 29 3 30 2 31 1 32
REMARK H PARENT
REMARK Flexibility Score: inf
ROOT
ATOM      1  C   UNL     1      48.774  28.771  90.334  1.00  0.00     0.000 C 
ENDROOT
BRANCH   1   2
ATOM      2  C   UNL     1      49.979  29.651  90.731  1.00  0.00     0.000 C 
BRANCH   2   3
ATOM      3  C   UNL     1      49.548  30.943  91.447  1.00  0.00     0.000 C 
BRANCH   3   4
ATOM      4  C   UNL     1      50.476  31.305  92.626  1.00  0.00     0.000 C 
BRANCH   4   5
ATOM      5  C   UNL     1      51.772  32.026  92.206  1.00  0.00     0.000 C 
BRANCH   5   6
ATOM      6  C   UNL     1      52.981  31.108  91.939  1.00  0.00     0.000 C 
BRANCH   6   7
ATOM      7  C   UNL     1      53.443  31.056  90.470  1.00  0.00     0.000 C 
BRANCH   7   8
ATOM      8  C   UNL     1      53.093  32.337  89.694  1.00  0.00     0.000 C 
BRANCH   8   9
ATOM      9  C   UNL     1      52.027  32.106  88.610  1.00  0.00     0.000 C 
BRANCH   9  10
ATOM     10  C   UNL     1      50.853  33.105  88.620  1.00  0.00     0.000 C 
BRANCH  10  11
ATOM     11  C   UNL     1      49.524  32.515  88.098  1.00  0.00     0.000 C 
BRANCH  11  12
ATOM     12  C   UNL     1      48.520  33.609  87.692  1.00  0.00     0.000 C 
BRANCH  12  13
ATOM     13  C   UNL     1      49.119  34.632  86.715  1.00  0.00     0.006 C 
BRANCH  13  14
ATOM     14  C   UNL     1      49.309  34.057  85.304  1.00  0.00     0.053 C 
BRANCH  14  15
ATOM     15  C   UNL     1      50.745  34.144  84.892  1.00  0.00     0.041 C 
ATOM     16  O   UNL     1      51.079  33.888  83.706  1.00  0.00    -0.550 OA
ATOM     17  O   UNL     1      51.706  34.550  85.808  1.00  0.00    -0.550 OA
ENDBRANCH  14  15
ENDBRANCH  13  14
ENDBRANCH  12  13
ENDBRANCH  11  12
ENDBRANCH  10  11
ENDBRANCH   9  10
ENDBRANCH   8   9
ENDBRANCH   7   8
ENDBRANCH   6   7
ENDBRANCH   5   6
ENDBRANCH   4   5
ENDBRANCH   3   4
ENDBRANCH   2   3
ENDBRANCH   1   2
BRANCH   1  18
ATOM     18  C   UNL     1      48.025  28.182  91.543  1.00  0.00     0.000 C 
BRANCH  18  19
ATOM     19  C   UNL     1      46.534  27.896  91.290  1.00  0.00     0.000 C 
BRANCH  19  20
ATOM     20  C   UNL     1      45.613  28.062  92.517  1.00  0.00     0.000 C 
BRANCH  20  21
ATOM     21  C   UNL     1      44.232  28.678  92.229  1.00  0.00     0.000 C 
BRANCH  21  22
ATOM     22  C   UNL     1      43.904  29.871  93.143  1.00  0.00     0.000 C 
BRANCH  22  23
ATOM     23  C   UNL     1      44.339  31.218  92.537  1.00  0.00     0.000 C 
BRANCH  23  24
ATOM     24  C   UNL     1      44.534  31.214  91.008  1.00  0.00    -0.000 C 
BRANCH  24  25
ATOM     25  C   UNL     1      45.971  31.506  90.532  1.00  0.00    -0.000 C 
BRANCH  25  26
ATOM     26  C   UNL     1      46.271  31.092  89.079  1.00  0.00    -0.000 C 
BRANCH  26  27
ATOM     27  C   UNL     1      45.252  30.079  88.528  1.00  0.00    -0.000 C 
BRANCH  27  28
ATOM     28  C   UNL     1      45.833  29.189  87.416  1.00  0.00    -0.000 C 
BRANCH  28  29
ATOM     29  C   UNL     1      47.361  29.276  87.245  1.00  0.00    -0.000 C 
BRANCH  29  30
ATOM     30  C   UNL     1      47.780  29.707  85.830  1.00  0.00    -0.000 C 
BRANCH  30  31
ATOM     31  C   UNL     1      47.202  31.075  85.438  1.00  0.00    -0.003 C 
ATOM     32  C   UNL     1      46.841  31.164  83.953  1.00  0.00     0.004 C 
ENDBRANCH  30  31
ENDBRANCH  29  30
ENDBRANCH  28  29
ENDBRANCH  27  28
ENDBRANCH  26  27
ENDBRANCH  25  26
ENDBRANCH  24  25
ENDBRANCH  23  24
ENDBRANCH  22  23
ENDBRANCH  21  22
ENDBRANCH  20  21
ENDBRANCH  19  20
ENDBRANCH  18  19
ENDBRANCH   1  18
TORSDOF 28
ENDMDL
MODEL 7
REMARK VINA RESULT:    -3.162      2.243      4.279
REMARK INTER + INTRA:         -14.035
REMARK INTER:                  -8.213
REMARK INTRA:                  -5.822
REMARK UNBOUND:                -5.698
REMARK SMILES CCCCCCCCCCCCCCCCCCCCCCCCCCCCCC(=O)[O-]
REMARK SMILES IDX 16 1 17 2 18 3 19 4 20 5 21 6 22 7 23 8 24 9 25 10 26 11
REMARK SMILES IDX 27 12 28 13 29 14 30 15 31 16 32 17 15 18 14 19 13 20 12 21
REMARK SMILES IDX 11 22 10 23 9 24 8 25 7 26 6 27 5 28 4 29 3 30 2 31 1 32
REMARK H PARENT
REMARK Flexibility Score: inf
ROOT
ATOM      1  C   UNL     1      48.164  31.653  86.904  1.00  0.00     0.000 C 
ENDROOT
BRANCH   1   2
ATOM      2  C   UNL     1      48.990  32.615  87.787  1.00  0.00     0.000 C 
BRANCH   2   3
ATOM      3  C   UNL     1      48.376  34.024  87.847  1.00  0.00     0.000 C 
BRANCH   3   4
ATOM      4  C   UNL     1      49.389  35.128  87.472  1.00  0.00     0.000 C 
BRANCH   4   5
ATOM      5  C   UNL     1      50.721  34.593  86.911  1.00  0.00     0.000 C 
BRANCH   5   6
ATOM      6  C   UNL     1      51.984  35.036  87.676  1.00  0.00     0.000 C 
BRANCH   6   7
ATOM      7  C   UNL     1      52.496  34.025  88.720  1.00  0.00     0.000 C 
BRANCH   7   8
ATOM      8  C   UNL     1      52.703  32.619  88.131  1.00  0.00     0.000 C 
BRANCH   8   9
ATOM      9  C   UNL     1      52.665  31.513  89.199  1.00  0.00     0.000 C 
BRANCH   9  10
ATOM     10  C   UNL     1      51.530  31.638  90.235  1.00  0.00     0.000 C 
BRANCH  10  11
ATOM     11  C   UNL     1      50.996  30.281  90.746  1.00  0.00     0.000 C 
BRANCH  11  12
ATOM     12  C   UNL     1      49.561  30.002  90.267  1.00  0.00     0.000 C 
BRANCH  12  13
ATOM     13  C   UNL     1      48.499  30.683  91.143  1.00  0.00     0.006 C 
BRANCH  13  14
ATOM     14  C   UNL     1      47.079  30.180  90.845  1.00  0.00     0.053 C 
BRANCH  14  15
ATOM     15  C   UNL     1      46.115  31.325  90.811  1.00  0.00     0.041 C 
ATOM     16  O   UNL     1      45.521  31.682  91.861  1.00  0.00    -0.550 OA
ATOM     17  O   UNL     1      45.908  32.022  89.628  1.00  0.00    -0.550 OA
ENDBRANCH  14  15
ENDBRANCH  13  14
ENDBRANCH  12  13
ENDBRANCH  11  12
ENDBRANCH  10  11
ENDBRANCH   9  10
ENDBRANCH   8   9
ENDBRANCH   7   8
ENDBRANCH   6   7
ENDBRANCH   5   6
ENDBRANCH   4   5
ENDBRANCH   3   4
ENDBRANCH   2   3
ENDBRANCH   1   2
BRANCH   1  18
ATOM     18  C   UNL     1      48.613  31.642  85.432  1.00  0.00     0.000 C 
BRANCH  18  19
ATOM     19  C   UNL     1      47.475  31.870  84.420  1.00  0.00     0.000 C 
BRANCH  19  20
ATOM     20  C   UNL     1      47.665  33.077  83.476  1.00  0.00     0.000 C 
BRANCH  20  21
ATOM     21  C   UNL     1      48.658  34.148  83.963  1.00  0.00     0.000 C 
BRANCH  21  22
ATOM     22  C   UNL     1      49.930  34.223  83.102  1.00  0.00     0.000 C 
BRANCH  22  23
ATOM     23  C   UNL     1      49.957  33.159  81.990  1.00  0.00     0.000 C 
BRANCH  23  24
ATOM     24  C   UNL     1      51.210  33.185  81.091  1.00  0.00    -0.000 C 
BRANCH  24  25
ATOM     25  C   UNL     1      51.846  34.577  80.900  1.00  0.00    -0.000 C 
BRANCH  25  26
ATOM     26  C   UNL     1      53.387  34.588  80.878  1.00  0.00    -0.000 C 
BRANCH  26  27
ATOM     27  C   UNL     1      54.003  33.901  82.109  1.00  0.00    -0.000 C 
BRANCH  27  28
ATOM     28  C   UNL     1      53.617  34.584  83.433  1.00  0.00    -0.000 C 
BRANCH  28  29
ATOM     29  C   UNL     1      53.348  33.624  84.606  1.00  0.00    -0.000 C 
BRANCH  29  30
ATOM     30  C   UNL     1      53.304  32.149  84.172  1.00  0.00    -0.000 C 
BRANCH  30  31
ATOM     31  C   UNL     1      51.991  31.459  84.571  1.00  0.00    -0.003 C 
ATOM     32  C   UNL     1      51.637  30.283  83.659  1.00  0.00     0.004 C 
ENDBRANCH  30  31
ENDBRANCH  29  30
ENDBRANCH  28  29
ENDBRANCH  27  28
ENDBRANCH  26  27
ENDBRANCH  25  26
ENDBRANCH  24  25
ENDBRANCH  23  24
ENDBRANCH  22  23
ENDBRANCH  21  22
ENDBRANCH  20  21
ENDBRANCH  19  20
ENDBRANCH  18  19
ENDBRANCH   1  18
TORSDOF 28
ENDMDL
MODEL 8
REMARK VINA RESULT:    -3.155      1.781      5.344
REMARK INTER + INTRA:         -14.017
REMARK INTER:                  -7.856
REMARK INTRA:                  -6.161
REMARK UNBOUND:                -5.698
REMARK SMILES CCCCCCCCCCCCCCCCCCCCCCCCCCCCCC(=O)[O-]
REMARK SMILES IDX 16 1 17 2 18 3 19 4 20 5 21 6 22 7 23 8 24 9 25 10 26 11
REMARK SMILES IDX 27 12 28 13 29 14 30 15 31 16 32 17 15 18 14 19 13 20 12 21
REMARK SMILES IDX 11 22 10 23 9 24 8 25 7 26 6 27 5 28 4 29 3 30 2 31 1 32
REMARK H PARENT
REMARK Flexibility Score: inf
ROOT
ATOM      1  C   UNL     1      53.109  33.220  86.445  1.00  0.00     0.000 C 
ENDROOT
BRANCH   1   2
ATOM      2  C   UNL     1      52.452  34.619  86.458  1.00  0.00     0.000 C 
BRANCH   2   3
ATOM      3  C   UNL     1      51.907  34.994  87.847  1.00  0.00     0.000 C 
BRANCH   3   4
ATOM      4  C   UNL     1      50.408  34.656  88.005  1.00  0.00     0.000 C 
BRANCH   4   5
ATOM      5  C   UNL     1      49.645  34.548  86.671  1.00  0.00     0.000 C 
BRANCH   5   6
ATOM      6  C   UNL     1      48.451  33.573  86.671  1.00  0.00     0.000 C 
BRANCH   6   7
ATOM      7  C   UNL     1      48.216  32.838  88.004  1.00  0.00     0.000 C 
BRANCH   7   8
ATOM      8  C   UNL     1      47.984  31.329  87.815  1.00  0.00     0.000 C 
BRANCH   8   9
ATOM      9  C   UNL     1      46.597  30.873  88.299  1.00  0.00     0.000 C 
BRANCH   9  10
ATOM     10  C   UNL     1      46.108  31.529  89.605  1.00  0.00     0.000 C 
BRANCH  10  11
ATOM     11  C   UNL     1      44.628  31.237  89.936  1.00  0.00     0.000 C 
BRANCH  11  12
ATOM     12  C   UNL     1      44.430  30.815  91.403  1.00  0.00     0.000 C 
BRANCH  12  13
ATOM     13  C   UNL     1      45.630  30.035  91.962  1.00  0.00     0.006 C 
BRANCH  13  14
ATOM     14  C   UNL     1      45.277  28.581  92.305  1.00  0.00     0.053 C 
BRANCH  14  15
ATOM     15  C   UNL     1      46.006  27.638  91.399  1.00  0.00     0.041 C 
ATOM     16  O   UNL     1      46.283  27.981  90.220  1.00  0.00    -0.550 OA
ATOM     17  O   UNL     1      46.418  26.400  91.873  1.00  0.00    -0.550 OA
ENDBRANCH  14  15
ENDBRANCH  13  14
ENDBRANCH  12  13
ENDBRANCH  11  12
ENDBRANCH  10  11
ENDBRANCH   9  10
ENDBRANCH   8   9
ENDBRANCH   7   8
ENDBRANCH   6   7
ENDBRANCH   5   6
ENDBRANCH   4   5
ENDBRANCH   3   4
ENDBRANCH   2   3
ENDBRANCH   1   2
BRANCH   1  18
ATOM     18  C   UNL     1      52.380  32.214  85.537  1.00  0.00     0.000 C 
BRANCH  18  19
ATOM     19  C   UNL     1      51.694  31.059  86.291  1.00  0.00     0.000 C 
BRANCH  19  20
ATOM     20  C   UNL     1      51.639  31.215  87.825  1.00  0.00     0.000 C 
BRANCH  20  21
ATOM     21  C   UNL     1      52.711  30.435  88.608  1.00  0.00     0.000 C 
BRANCH  21  22
ATOM     22  C   UNL     1      53.429  31.294  89.663  1.00  0.00     0.000 C 
BRANCH  22  23
ATOM     23  C   UNL     1      52.490  32.305  90.342  1.00  0.00     0.000 C 
BRANCH  23  24
ATOM     24  C   UNL     1      52.252  32.068  91.847  1.00  0.00    -0.000 C 
BRANCH  24  25
ATOM     25  C   UNL     1      50.829  31.605  92.218  1.00  0.00    -0.000 C 
BRANCH  25  26
ATOM     26  C   UNL     1      49.901  31.337  91.018  1.00  0.00    -0.000 C 
BRANCH  26  27
ATOM     27  C   UNL     1      49.131  30.011  91.147  1.00  0.00    -0.000 C 
BRANCH  27  28
ATOM     28  C   UNL     1      49.871  28.823  90.508  1.00  0.00    -0.000 C 
BRANCH  28  29
ATOM     29  C   UNL     1      49.815  27.512  91.314  1.00  0.00    -0.000 C 
BRANCH  29  30
ATOM     30  C   UNL     1      51.172  27.135  91.934  1.00  0.00    -0.000 C 
BRANCH  30  31
ATOM     31  C   UNL     1      52.350  27.832  91.237  1.00  0.00    -0.003 C 
ATOM     32  C   UNL     1      53.251  28.593  92.212  1.00  0.00     0.004 C 
ENDBRANCH  30  31
ENDBRANCH  29  30
ENDBRANCH  28  29
ENDBRANCH  27  28
ENDBRANCH  26  27
ENDBRANCH  25  26
ENDBRANCH  24  25
ENDBRANCH  23  24
ENDBRANCH  22  23
ENDBRANCH  21  22
ENDBRANCH  20  21
ENDBRANCH  19  20
ENDBRANCH  18  19
ENDBRANCH   1  18
TORSDOF 28
ENDMDL
MODEL 9
REMARK VINA RESULT:    -3.116      1.542      2.958
REMARK INTER + INTRA:         -13.915
REMARK INTER:                  -8.064
REMARK INTRA:                  -5.851
REMARK UNBOUND:                -5.698
REMARK SMILES CCCCCCCCCCCCCCCCCCCCCCCCCCCCCC(=O)[O-]
REMARK SMILES IDX 16 1 17 2 18 3 19 4 20 5 21 6 22 7 23 8 24 9 25 10 26 11
REMARK SMILES IDX 27 12 28 13 29 14 30 15 31 16 32 17 15 18 14 19 13 20 12 21
REMARK SMILES IDX 11 22 10 23 9 24 8 25 7 26 6 27 5 28 4 29 3 30 2 31 1 32
REMARK H PARENT
REMARK Flexibility Score: inf
ROOT
ATOM      1  C   UNL     1      50.649  29.453  86.564  1.00  0.00     0.000 C 
ENDROOT
BRANCH   1   2
ATOM      2  C   UNL     1      49.794  30.131  87.658  1.00  0.00     0.000 C 
BRANCH   2   3
ATOM      3  C   UNL     1      50.563  30.296  88.980  1.00  0.00     0.000 C 
BRANCH   3   4
ATOM      4  C   UNL     1      49.876  31.288  89.944  1.00  0.00     0.000 C 
BRANCH   4   5
ATOM      5  C   UNL     1      49.383  30.648  91.257  1.00  0.00     0.000 C 
BRANCH   5   6
ATOM      6  C   UNL     1      49.853  29.201  91.502  1.00  0.00     0.000 C 
BRANCH   6   7
ATOM      7  C   UNL     1      48.731  28.144  91.482  1.00  0.00     0.000 C 
BRANCH   7   8
ATOM      8  C   UNL     1      47.385  28.719  91.010  1.00  0.00     0.000 C 
BRANCH   8   9
ATOM      9  C   UNL     1      47.125  28.480  89.514  1.00  0.00     0.000 C 
BRANCH   9  10
ATOM     10  C   UNL     1      46.017  29.353  88.891  1.00  0.00     0.000 C 
BRANCH  10  11
ATOM     11  C   UNL     1      46.389  30.848  88.777  1.00  0.00     0.000 C 
BRANCH  11  12
ATOM     12  C   UNL     1      45.938  31.657  90.006  1.00  0.00     0.000 C 
BRANCH  12  13
ATOM     13  C   UNL     1      44.537  31.260  90.496  1.00  0.00     0.006 C 
BRANCH  13  14
ATOM     14  C   UNL     1      44.476  31.082  92.020  1.00  0.00     0.053 C 
BRANCH  14  15
ATOM     15  C   UNL     1      43.888  29.751  92.368  1.00  0.00     0.041 C 
ATOM     16  O   UNL     1      43.895  28.816  91.525  1.00  0.00    -0.550 OA
ATOM     17  O   UNL     1      43.374  29.530  93.639  1.00  0.00    -0.550 OA
ENDBRANCH  14  15
ENDBRANCH  13  14
ENDBRANCH  12  13
ENDBRANCH  11  12
ENDBRANCH  10  11
ENDBRANCH   9  10
ENDBRANCH   8   9
ENDBRANCH   7   8
ENDBRANCH   6   7
ENDBRANCH   5   6
ENDBRANCH   4   5
ENDBRANCH   3   4
ENDBRANCH   2   3
ENDBRANCH   1   2
BRANCH   1  18
ATOM     18  C   UNL     1      52.030  30.109  86.379  1.00  0.00     0.000 C 
BRANCH  18  19
ATOM     19  C   UNL     1      51.980  31.574  85.910  1.00  0.00     0.000 C 
BRANCH  19  20
ATOM     20  C   UNL     1      52.684  32.587  86.838  1.00  0.00     0.000 C 
BRANCH  20  21
ATOM     21  C   UNL     1      52.723  34.038  86.325  1.00  0.00     0.000 C 
BRANCH  21  22
ATOM     22  C   UNL     1      51.951  35.016  87.227  1.00  0.00     0.000 C 
BRANCH  22  23
ATOM     23  C   UNL     1      50.876  34.315  88.077  1.00  0.00     0.000 C 
BRANCH  23  24
ATOM     24  C   UNL     1      49.421  34.678  87.719  1.00  0.00    -0.000 C 
BRANCH  24  25
ATOM     25  C   UNL     1      48.566  33.507  87.196  1.00  0.00    -0.000 C 
BRANCH  25  26
ATOM     26  C   UNL     1      48.683  33.243  85.683  1.00  0.00    -0.000 C 
BRANCH  26  27
ATOM     27  C   UNL     1      48.589  34.530  84.846  1.00  0.00    -0.000 C 
BRANCH  27  28
ATOM     28  C   UNL     1      49.155  34.364  83.425  1.00  0.00    -0.000 C 
BRANCH  28  29
ATOM     29  C   UNL     1      50.666  34.075  83.357  1.00  0.00    -0.000 C 
BRANCH  29  30
ATOM     30  C   UNL     1      50.987  32.735  82.674  1.00  0.00    -0.000 C 
BRANCH  30  31
ATOM     31  C   UNL     1      49.722  31.946  82.305  1.00  0.00    -0.003 C 
ATOM     32  C   UNL     1      49.532  30.694  83.164  1.00  0.00     0.004 C 
ENDBRANCH  30  31
ENDBRANCH  29  30
ENDBRANCH  28  29
ENDBRANCH  27  28
ENDBRANCH  26  27
ENDBRANCH  25  26
ENDBRANCH  24  25
ENDBRANCH  23  24
ENDBRANCH  22  23
ENDBRANCH  21  22
ENDBRANCH  20  21
ENDBRANCH  19  20
ENDBRANCH  18  19
ENDBRANCH   1  18
TORSDOF 28
ENDMDL
