MODEL 1
REMARK VINA RESULT:    -8.726      0.000      0.000
REMARK INTER + INTRA:         -10.581
REMARK INTER:                 -10.511
REMARK INTRA:                  -0.070
REMARK UNBOUND:                -0.070
REMARK SMILES O=c1c(O)c(-c2ccc(O)c(O)c2)oc2cc(O)cc(O)c12
REMARK SMILES IDX 5 1 3 2 2 3 1 4 22 5 20 6 19 7 17 8 16 9 15 10 14 11 6 12
REMARK SMILES IDX 7 13 8 14 9 15 13 16 11 17 10 18 12 20 4 22 21 24 18 26
REMARK H PARENT 10 19 12 21 4 23 21 25 18 27
REMARK Flexibility Score: inf
ROOT
ATOM      1  C   UNL     1      98.772 101.520 100.117  1.00  0.00     0.180 A 
ATOM      2  C   UNL     1      97.960 100.411  99.811  1.00  0.00     0.208 A 
ATOM      3  C   UNL     1      96.826 100.602  99.004  1.00  0.00     0.238 A 
ATOM      4  O   UNL     1      96.097  99.614  98.714  1.00  0.00    -0.285 OA
ATOM      5  C   UNL     1      96.514 101.894  98.536  1.00  0.00     0.111 A 
ATOM      6  C   UNL     1      95.390 102.173  97.721  1.00  0.00     0.134 A 
ATOM      7  C   UNL     1      95.142 103.488  97.304  1.00  0.00     0.093 A 
ATOM      8  C   UNL     1      95.992 104.528  97.682  1.00  0.00     0.123 A 
ATOM      9  C   UNL     1      97.105 104.260  98.485  1.00  0.00     0.094 A 
ATOM     10  C   UNL     1      97.371 102.955  98.912  1.00  0.00     0.146 A 
ATOM     11  O   UNL     1      98.438 102.727  99.670  1.00  0.00    -0.452 OA
ENDROOT
BRANCH   1  12
ATOM     12  C   UNL     1      99.993 101.396 100.946  1.00  0.00     0.025 A 
ATOM     13  C   UNL     1     101.002 100.473 100.627  1.00  0.00     0.016 A 
ATOM     14  C   UNL     1     102.155 100.392 101.410  1.00  0.00     0.051 A 
ATOM     15  C   UNL     1     102.330 101.234 102.513  1.00  0.00     0.157 A 
ATOM     16  C   UNL     1     100.176 102.257 102.039  1.00  0.00     0.062 A 
ATOM     17  C   UNL     1     101.329 102.182 102.830  1.00  0.00     0.158 A 
BRANCH  15  18
ATOM     18  O   UNL     1     103.505 101.099 103.257  1.00  0.00    -0.504 OA
ATOM     19  H   UNL     1     104.243 100.447 103.035  1.00  0.00     0.293 HD
ENDBRANCH  15  18
BRANCH  17  20
ATOM     20  O   UNL     1     101.438 103.062 103.909  1.00  0.00    -0.504 OA
ATOM     21  H   UNL     1     102.221 103.081 104.546  1.00  0.00     0.293 HD
ENDBRANCH  17  20
ENDBRANCH   1  12
BRANCH   2  22
ATOM     22  O   UNL     1      98.263  99.149 100.328  1.00  0.00    -0.502 OA
ATOM     23  H   UNL     1      98.865  98.494  99.844  1.00  0.00     0.293 HD
ENDBRANCH   2  22
BRANCH   6  24
ATOM     24  O   UNL     1      94.520 101.155  97.327  1.00  0.00    -0.507 OA
ATOM     25  H   UNL     1      93.740 100.866  97.906  1.00  0.00     0.293 HD
ENDBRANCH   6  24
BRANCH   8  26
ATOM     26  O   UNL     1      95.724 105.827  97.254  1.00  0.00    -0.508 OA
ATOM     27  H   UNL     1      94.794 106.224  97.315  1.00  0.00     0.293 HD
ENDBRANCH   8  26
TORSDOF 6
ENDMDL
MODEL 2
REMARK VINA RESULT:    -8.200      1.631      7.393
REMARK INTER + INTRA:          -9.948
REMARK INTER:                  -9.671
REMARK INTRA:                  -0.277
REMARK UNBOUND:                -0.070
REMARK SMILES O=c1c(O)c(-c2ccc(O)c(O)c2)oc2cc(O)cc(O)c12
REMARK SMILES IDX 5 1 3 2 2 3 1 4 22 5 20 6 19 7 17 8 16 9 15 10 14 11 6 12
REMARK SMILES IDX 7 13 8 14 9 15 13 16 11 17 10 18 12 20 4 22 21 24 18 26
REMARK H PARENT 10 19 12 21 4 23 21 25 18 27
REMARK Flexibility Score: inf
ROOT
ATOM      1  C   UNL     1      99.613 101.485 100.264  1.00  0.00     0.180 A 
ATOM      2  C   UNL     1     100.050 102.432 101.210  1.00  0.00     0.208 A 
ATOM      3  C   UNL     1     101.168 102.130 102.005  1.00  0.00     0.238 A 
ATOM      4  O   UNL     1     101.576 102.975 102.848  1.00  0.00    -0.285 OA
ATOM      5  C   UNL     1     101.814 100.887 101.854  1.00  0.00     0.111 A 
ATOM      6  C   UNL     1     102.944 100.504 102.617  1.00  0.00     0.134 A 
ATOM      7  C   UNL     1     103.526  99.244 102.414  1.00  0.00     0.093 A 
ATOM      8  C   UNL     1     103.002  98.362 101.468  1.00  0.00     0.123 A 
ATOM      9  C   UNL     1     101.888  98.734 100.711  1.00  0.00     0.094 A 
ATOM     10  C   UNL     1     101.294  99.986 100.896  1.00  0.00     0.146 A 
ATOM     11  O   UNL     1     100.238 100.317 100.160  1.00  0.00    -0.452 OA
ENDROOT
BRANCH   1  12
ATOM     12  C   UNL     1      98.454 101.738  99.377  1.00  0.00     0.025 A 
ATOM     13  C   UNL     1      98.547 102.613  98.283  1.00  0.00     0.016 A 
ATOM     14  C   UNL     1      97.448 102.816  97.447  1.00  0.00     0.051 A 
ATOM     15  C   UNL     1      96.242 102.143  97.676  1.00  0.00     0.157 A 
ATOM     16  C   UNL     1      97.253 101.044  99.595  1.00  0.00     0.062 A 
ATOM     17  C   UNL     1      96.145 101.242  98.762  1.00  0.00     0.158 A 
BRANCH  15  18
ATOM     18  O   UNL     1      95.179 102.393  96.805  1.00  0.00    -0.504 OA
ATOM     19  H   UNL     1      95.124 103.198  96.197  1.00  0.00     0.293 HD
ENDBRANCH  15  18
BRANCH  17  20
ATOM     20  O   UNL     1      94.979 100.528  99.047  1.00  0.00    -0.504 OA
ATOM     21  H   UNL     1      94.594 100.422  99.974  1.00  0.00     0.293 HD
ENDBRANCH  17  20
ENDBRANCH   1  12
BRANCH   2  22
ATOM     22  O   UNL     1      99.362 103.637 101.374  1.00  0.00    -0.502 OA
ATOM     23  H   UNL     1      99.329 104.346 100.652  1.00  0.00     0.293 HD
ENDBRANCH   2  22
BRANCH   6  24
ATOM     24  O   UNL     1     103.491 101.363 103.572  1.00  0.00    -0.507 OA
ATOM     25  H   UNL     1     104.489 101.411 103.737  1.00  0.00     0.293 HD
ENDBRANCH   6  24
BRANCH   8  26
ATOM     26  O   UNL     1     103.598  97.115 101.286  1.00  0.00    -0.508 OA
ATOM     27  H   UNL     1     104.594  96.980 101.413  1.00  0.00     0.293 HD
ENDBRANCH   8  26
TORSDOF 6
ENDMDL
MODEL 3
REMARK VINA RESULT:    -7.940      2.143      3.804
REMARK INTER + INTRA:          -9.635
REMARK INTER:                  -9.510
REMARK INTRA:                  -0.125
REMARK UNBOUND:                -0.070
REMARK SMILES O=c1c(O)c(-c2ccc(O)c(O)c2)oc2cc(O)cc(O)c12
REMARK SMILES IDX 5 1 3 2 2 3 1 4 22 5 20 6 19 7 17 8 16 9 15 10 14 11 6 12
REMARK SMILES IDX 7 13 8 14 9 15 13 16 11 17 10 18 12 20 4 22 21 24 18 26
REMARK H PARENT 10 19 12 21 4 23 21 25 18 27
REMARK Flexibility Score: inf
ROOT
ATOM      1  C   UNL     1     100.073 100.181 100.723  1.00  0.00     0.180 A 
ATOM      2  C   UNL     1     100.215 101.582 100.753  1.00  0.00     0.208 A 
ATOM      3  C   UNL     1      99.184 102.379 100.229  1.00  0.00     0.238 A 
ATOM      4  O   UNL     1      99.295 103.635 100.260  1.00  0.00    -0.285 OA
ATOM      5  C   UNL     1      98.046 101.767  99.669  1.00  0.00     0.111 A 
ATOM      6  C   UNL     1      96.965 102.497  99.117  1.00  0.00     0.134 A 
ATOM      7  C   UNL     1      95.870 101.813  98.570  1.00  0.00     0.093 A 
ATOM      8  C   UNL     1      95.833 100.418  98.562  1.00  0.00     0.123 A 
ATOM      9  C   UNL     1      96.896  99.690  99.106  1.00  0.00     0.094 A 
ATOM     10  C   UNL     1      97.996 100.353  99.658  1.00  0.00     0.146 A 
ATOM     11  O   UNL     1      98.991  99.638 100.173  1.00  0.00    -0.452 OA
ENDROOT
BRANCH   1  12
ATOM     12  C   UNL     1     101.106  99.274 101.273  1.00  0.00     0.025 A 
ATOM     13  C   UNL     1     102.415  99.263 100.765  1.00  0.00     0.016 A 
ATOM     14  C   UNL     1     103.378  98.416 101.316  1.00  0.00     0.051 A 
ATOM     15  C   UNL     1     103.061  97.576 102.389  1.00  0.00     0.157 A 
ATOM     16  C   UNL     1     100.791  98.448 102.363  1.00  0.00     0.062 A 
ATOM     17  C   UNL     1     101.750  97.595 102.922  1.00  0.00     0.158 A 
BRANCH  15  18
ATOM     18  O   UNL     1     104.068  96.750 102.892  1.00  0.00    -0.504 OA
ATOM     19  H   UNL     1     104.960  97.086 103.225  1.00  0.00     0.293 HD
ENDBRANCH  15  18
BRANCH  17  20
ATOM     20  O   UNL     1     101.362  96.793 103.998  1.00  0.00    -0.504 OA
ATOM     21  H   UNL     1     101.668  96.936 104.949  1.00  0.00     0.293 HD
ENDBRANCH  17  20
ENDBRANCH   1  12
BRANCH   2  22
ATOM     22  O   UNL     1     101.375 102.164 101.269  1.00  0.00    -0.502 OA
ATOM     23  H   UNL     1     102.016 101.658 101.869  1.00  0.00     0.293 HD
ENDBRANCH   2  22
BRANCH   6  24
ATOM     24  O   UNL     1      96.972 103.893  99.109  1.00  0.00    -0.507 OA
ATOM     25  H   UNL     1      97.435 104.428  99.834  1.00  0.00     0.293 HD
ENDBRANCH   6  24
BRANCH   8  26
ATOM     26  O   UNL     1      94.734  99.762  98.011  1.00  0.00    -0.508 OA
ATOM     27  H   UNL     1      94.714  98.754  97.909  1.00  0.00     0.293 HD
ENDBRANCH   8  26
TORSDOF 6
ENDMDL
MODEL 4
REMARK VINA RESULT:    -7.645      1.590      2.924
REMARK INTER + INTRA:          -9.279
REMARK INTER:                  -8.957
REMARK INTRA:                  -0.322
REMARK UNBOUND:                -0.070
REMARK SMILES O=c1c(O)c(-c2ccc(O)c(O)c2)oc2cc(O)cc(O)c12
REMARK SMILES IDX 5 1 3 2 2 3 1 4 22 5 20 6 19 7 17 8 16 9 15 10 14 11 6 12
REMARK SMILES IDX 7 13 8 14 9 15 13 16 11 17 10 18 12 20 4 22 21 24 18 26
REMARK H PARENT 10 19 12 21 4 23 21 25 18 27
REMARK Flexibility Score: inf
ROOT
ATOM      1  C   UNL     1      98.518 101.198 100.190  1.00  0.00     0.180 A 
ATOM      2  C   UNL     1      98.449 101.902  98.972  1.00  0.00     0.208 A 
ATOM      3  C   UNL     1      97.232 101.931  98.273  1.00  0.00     0.238 A 
ATOM      4  O   UNL     1      97.154 102.567  97.187  1.00  0.00    -0.285 OA
ATOM      5  C   UNL     1      96.116 101.243  98.790  1.00  0.00     0.111 A 
ATOM      6  C   UNL     1      94.854 101.218  98.147  1.00  0.00     0.134 A 
ATOM      7  C   UNL     1      93.794 100.502  98.721  1.00  0.00     0.093 A 
ATOM      8  C   UNL     1      93.968  99.811  99.921  1.00  0.00     0.123 A 
ATOM      9  C   UNL     1      95.211  99.832 100.562  1.00  0.00     0.094 A 
ATOM     10  C   UNL     1      96.280 100.541 100.007  1.00  0.00     0.146 A 
ATOM     11  O   UNL     1      97.449 100.548 100.639  1.00  0.00    -0.452 OA
ENDROOT
BRANCH   1  12
ATOM     12  C   UNL     1      99.760 101.138 100.994  1.00  0.00     0.025 A 
ATOM     13  C   UNL     1     100.746 100.169 100.746  1.00  0.00     0.016 A 
ATOM     14  C   UNL     1     101.920 100.147 101.501  1.00  0.00     0.051 A 
ATOM     15  C   UNL     1     102.139 101.095 102.507  1.00  0.00     0.157 A 
ATOM     16  C   UNL     1      99.988 102.103 101.986  1.00  0.00     0.062 A 
ATOM     17  C   UNL     1     101.162 102.089 102.750  1.00  0.00     0.158 A 
BRANCH  15  18
ATOM     18  O   UNL     1     103.332 101.017 103.229  1.00  0.00    -0.504 OA
ATOM     19  H   UNL     1     104.215 101.382 102.903  1.00  0.00     0.293 HD
ENDBRANCH  15  18
BRANCH  17  20
ATOM     20  O   UNL     1     101.315 103.073 103.729  1.00  0.00    -0.504 OA
ATOM     21  H   UNL     1     101.273 102.894 104.722  1.00  0.00     0.293 HD
ENDBRANCH  17  20
ENDBRANCH   1  12
BRANCH   2  22
ATOM     22  O   UNL     1      99.583 102.535  98.456  1.00  0.00    -0.502 OA
ATOM     23  H   UNL     1     100.494 102.093  98.444  1.00  0.00     0.293 HD
ENDBRANCH   2  22
BRANCH   6  24
ATOM     24  O   UNL     1      94.648 101.898  96.945  1.00  0.00    -0.507 OA
ATOM     25  H   UNL     1      93.729 102.221  96.667  1.00  0.00     0.293 HD
ENDBRANCH   6  24
BRANCH   8  26
ATOM     26  O   UNL     1      92.899  99.106 100.471  1.00  0.00    -0.508 OA
ATOM     27  H   UNL     1      92.657  98.176 100.152  1.00  0.00     0.293 HD
ENDBRANCH   8  26
TORSDOF 6
ENDMDL
MODEL 5
REMARK VINA RESULT:    -7.542      1.742      3.331
REMARK INTER + INTRA:          -9.155
REMARK INTER:                  -8.824
REMARK INTRA:                  -0.331
REMARK UNBOUND:                -0.070
REMARK SMILES O=c1c(O)c(-c2ccc(O)c(O)c2)oc2cc(O)cc(O)c12
REMARK SMILES IDX 5 1 3 2 2 3 1 4 22 5 20 6 19 7 17 8 16 9 15 10 14 11 6 12
REMARK SMILES IDX 7 13 8 14 9 15 13 16 11 17 10 18 12 20 4 22 21 24 18 26
REMARK H PARENT 10 19 12 21 4 23 21 25 18 27
REMARK Flexibility Score: inf
ROOT
ATOM      1  C   UNL     1      98.366 101.136 100.045  1.00  0.00     0.180 A 
ATOM      2  C   UNL     1      98.254 102.510  99.755  1.00  0.00     0.208 A 
ATOM      3  C   UNL     1      97.168 102.954  98.983  1.00  0.00     0.238 A 
ATOM      4  O   UNL     1      97.051 104.183  98.725  1.00  0.00    -0.285 OA
ATOM      5  C   UNL     1      96.229 102.020  98.500  1.00  0.00     0.111 A 
ATOM      6  C   UNL     1      95.109 102.384  97.713  1.00  0.00     0.134 A 
ATOM      7  C   UNL     1      94.224 101.394  97.263  1.00  0.00     0.093 A 
ATOM      8  C   UNL     1      94.435 100.052  97.581  1.00  0.00     0.123 A 
ATOM      9  C   UNL     1      95.538  99.686  98.359  1.00  0.00     0.094 A 
ATOM     10  C   UNL     1      96.432 100.657  98.819  1.00  0.00     0.146 A 
ATOM     11  O   UNL     1      97.469 100.283  99.560  1.00  0.00    -0.452 OA
ENDROOT
BRANCH   1  12
ATOM     12  C   UNL     1      99.471 100.594 100.867  1.00  0.00     0.025 A 
ATOM     13  C   UNL     1      99.397 100.570 102.269  1.00  0.00     0.016 A 
ATOM     14  C   UNL     1     100.441 100.032 103.022  1.00  0.00     0.051 A 
ATOM     15  C   UNL     1     101.572  99.496 102.395  1.00  0.00     0.157 A 
ATOM     16  C   UNL     1     100.594 100.037 100.235  1.00  0.00     0.062 A 
ATOM     17  C   UNL     1     101.647  99.496 100.982  1.00  0.00     0.158 A 
BRANCH  15  18
ATOM     18  O   UNL     1     102.584  98.977 103.205  1.00  0.00    -0.504 OA
ATOM     19  H   UNL     1     103.232  99.543 103.732  1.00  0.00     0.293 HD
ENDBRANCH  15  18
BRANCH  17  20
ATOM     20  O   UNL     1     102.739  98.971 100.286  1.00  0.00    -0.504 OA
ATOM     21  H   UNL     1     103.124  99.380  99.447  1.00  0.00     0.293 HD
ENDBRANCH  17  20
ENDBRANCH   1  12
BRANCH   2  22
ATOM     22  O   UNL     1      99.225 103.409 100.204  1.00  0.00    -0.502 OA
ATOM     23  H   UNL     1     100.203 103.320  99.956  1.00  0.00     0.293 HD
ENDBRANCH   2  22
BRANCH   6  24
ATOM     24  O   UNL     1      94.871 103.718  97.377  1.00  0.00    -0.507 OA
ATOM     25  H   UNL     1      95.183 104.109  96.496  1.00  0.00     0.293 HD
ENDBRANCH   6  24
BRANCH   8  26
ATOM     26  O   UNL     1      93.541  99.087  97.121  1.00  0.00    -0.508 OA
ATOM     27  H   UNL     1      93.806  98.412  96.413  1.00  0.00     0.293 HD
ENDBRANCH   8  26
TORSDOF 6
ENDMDL
MODEL 6
REMARK VINA RESULT:    -7.439      3.854      6.763
REMARK INTER + INTRA:          -9.031
REMARK INTER:                  -8.706
REMARK INTRA:                  -0.325
REMARK UNBOUND:                -0.070
REMARK SMILES O=c1c(O)c(-c2ccc(O)c(O)c2)oc2cc(O)cc(O)c12
REMARK SMILES IDX 5 1 3 2 2 3 1 4 22 5 20 6 19 7 17 8 16 9 15 10 14 11 6 12
REMARK SMILES IDX 7 13 8 14 9 15 13 16 11 17 10 18 12 20 4 22 21 24 18 26
REMARK H PARENT 10 19 12 21 4 23 21 25 18 27
REMARK Flexibility Score: inf
ROOT
ATOM      1  C   UNL     1      94.836  99.850  97.882  1.00  0.00     0.180 A 
ATOM      2  C   UNL     1      94.023  99.225  98.848  1.00  0.00     0.208 A 
ATOM      3  C   UNL     1      93.625  97.894  98.639  1.00  0.00     0.238 A 
ATOM      4  O   UNL     1      92.906  97.320  99.502  1.00  0.00    -0.285 OA
ATOM      5  C   UNL     1      94.027  97.222  97.468  1.00  0.00     0.111 A 
ATOM      6  C   UNL     1      93.666  95.882  97.181  1.00  0.00     0.134 A 
ATOM      7  C   UNL     1      94.099  95.286  95.988  1.00  0.00     0.093 A 
ATOM      8  C   UNL     1      94.882  95.998  95.078  1.00  0.00     0.123 A 
ATOM      9  C   UNL     1      95.243  97.320  95.356  1.00  0.00     0.094 A 
ATOM     10  C   UNL     1      94.823  97.933  96.540  1.00  0.00     0.146 A 
ATOM     11  O   UNL     1      95.184  99.189  96.782  1.00  0.00    -0.452 OA
ENDROOT
BRANCH   1  12
ATOM     12  C   UNL     1      95.313 101.243  98.039  1.00  0.00     0.025 A 
ATOM     13  C   UNL     1      94.552 102.332  97.584  1.00  0.00     0.016 A 
ATOM     14  C   UNL     1      95.011 103.638  97.765  1.00  0.00     0.051 A 
ATOM     15  C   UNL     1      96.227 103.884  98.412  1.00  0.00     0.157 A 
ATOM     16  C   UNL     1      96.522 101.489  98.708  1.00  0.00     0.062 A 
ATOM     17  C   UNL     1      96.991 102.795  98.893  1.00  0.00     0.158 A 
BRANCH  15  18
ATOM     18  O   UNL     1      96.632 105.213  98.557  1.00  0.00    -0.504 OA
ATOM     19  H   UNL     1      96.212 105.863  99.205  1.00  0.00     0.293 HD
ENDBRANCH  15  18
BRANCH  17  20
ATOM     20  O   UNL     1      98.208 102.963  99.557  1.00  0.00    -0.504 OA
ATOM     21  H   UNL     1      98.995 102.336  99.463  1.00  0.00     0.293 HD
ENDBRANCH  17  20
ENDBRANCH   1  12
BRANCH   2  22
ATOM     22  O   UNL     1      93.598  99.929  99.977  1.00  0.00    -0.502 OA
ATOM     23  H   UNL     1      94.137  99.959 100.833  1.00  0.00     0.293 HD
ENDBRANCH   2  22
BRANCH   6  24
ATOM     24  O   UNL     1      92.883  95.143  98.070  1.00  0.00    -0.507 OA
ATOM     25  H   UNL     1      93.297  94.509  98.742  1.00  0.00     0.293 HD
ENDBRANCH   6  24
BRANCH   8  26
ATOM     26  O   UNL     1      95.299  95.383  93.899  1.00  0.00    -0.508 OA
ATOM     27  H   UNL     1      96.214  94.956  93.818  1.00  0.00     0.293 HD
ENDBRANCH   8  26
TORSDOF 6
ENDMDL
MODEL 7
REMARK VINA RESULT:    -7.425      4.927      7.426
REMARK INTER + INTRA:          -9.015
REMARK INTER:                  -9.058
REMARK INTRA:                   0.043
REMARK UNBOUND:                -0.070
REMARK SMILES O=c1c(O)c(-c2ccc(O)c(O)c2)oc2cc(O)cc(O)c12
REMARK SMILES IDX 5 1 3 2 2 3 1 4 22 5 20 6 19 7 17 8 16 9 15 10 14 11 6 12
REMARK SMILES IDX 7 13 8 14 9 15 13 16 11 17 10 18 12 20 4 22 21 24 18 26
REMARK H PARENT 10 19 12 21 4 23 21 25 18 27
REMARK Flexibility Score: inf
ROOT
ATOM      1  C   UNL     1      94.570  98.931  97.297  1.00  0.00     0.180 A 
ATOM      2  C   UNL     1      94.145  98.895  98.640  1.00  0.00     0.208 A 
ATOM      3  C   UNL     1      94.209 100.072  99.403  1.00  0.00     0.238 A 
ATOM      4  O   UNL     1      93.821 100.055 100.603  1.00  0.00    -0.285 OA
ATOM      5  C   UNL     1      94.711 101.253  98.821  1.00  0.00     0.111 A 
ATOM      6  C   UNL     1      94.812 102.480  99.522  1.00  0.00     0.134 A 
ATOM      7  C   UNL     1      95.331 103.610  98.875  1.00  0.00     0.093 A 
ATOM      8  C   UNL     1      95.753 103.540  97.546  1.00  0.00     0.123 A 
ATOM      9  C   UNL     1      95.655 102.332  96.848  1.00  0.00     0.094 A 
ATOM     10  C   UNL     1      95.138 101.194  97.474  1.00  0.00     0.146 A 
ATOM     11  O   UNL     1      95.052 100.060  96.787  1.00  0.00    -0.452 OA
ENDROOT
BRANCH   1  12
ATOM     12  C   UNL     1      94.516  97.738  96.423  1.00  0.00     0.025 A 
ATOM     13  C   UNL     1      93.386  96.905  96.391  1.00  0.00     0.016 A 
ATOM     14  C   UNL     1      93.349  95.799  95.540  1.00  0.00     0.051 A 
ATOM     15  C   UNL     1      94.429  95.508  94.699  1.00  0.00     0.157 A 
ATOM     16  C   UNL     1      95.591  97.461  95.564  1.00  0.00     0.062 A 
ATOM     17  C   UNL     1      95.563  96.354  94.708  1.00  0.00     0.158 A 
BRANCH  15  18
ATOM     18  O   UNL     1      94.331  94.385  93.875  1.00  0.00    -0.504 OA
ATOM     19  H   UNL     1      93.757  93.581  94.082  1.00  0.00     0.293 HD
ENDBRANCH  15  18
BRANCH  17  20
ATOM     20  O   UNL     1      96.674  96.134  93.889  1.00  0.00    -0.504 OA
ATOM     21  H   UNL     1      96.957  96.752  93.143  1.00  0.00     0.293 HD
ENDBRANCH  17  20
ENDBRANCH   1  12
BRANCH   2  22
ATOM     22  O   UNL     1      93.697  97.699  99.207  1.00  0.00    -0.502 OA
ATOM     23  H   UNL     1      92.802  97.622  99.674  1.00  0.00     0.293 HD
ENDBRANCH   2  22
BRANCH   6  24
ATOM     24  O   UNL     1      94.400 102.583 100.852  1.00  0.00    -0.507 OA
ATOM     25  H   UNL     1      93.634 103.185 101.128  1.00  0.00     0.293 HD
ENDBRANCH   6  24
BRANCH   8  26
ATOM     26  O   UNL     1      96.266 104.677  96.926  1.00  0.00    -0.508 OA
ATOM     27  H   UNL     1      96.419 104.713  95.925  1.00  0.00     0.293 HD
ENDBRANCH   8  26
TORSDOF 6
ENDMDL
MODEL 8
REMARK VINA RESULT:    -6.665      5.040      6.427
REMARK INTER + INTRA:          -8.098
REMARK INTER:                  -8.631
REMARK INTRA:                   0.533
REMARK UNBOUND:                -0.070
REMARK SMILES O=c1c(O)c(-c2ccc(O)c(O)c2)oc2cc(O)cc(O)c12
REMARK SMILES IDX 5 1 3 2 2 3 1 4 22 5 20 6 19 7 17 8 16 9 15 10 14 11 6 12
REMARK SMILES IDX 7 13 8 14 9 15 13 16 11 17 10 18 12 20 4 22 21 24 18 26
REMARK H PARENT 10 19 12 21 4 23 21 25 18 27
REMARK Flexibility Score: inf
ROOT
ATOM      1  C   UNL     1      94.819 101.633  98.340  1.00  0.00     0.180 A 
ATOM      2  C   UNL     1      94.142 101.047  99.428  1.00  0.00     0.208 A 
ATOM      3  C   UNL     1      93.815  99.683  99.368  1.00  0.00     0.238 A 
ATOM      4  O   UNL     1      93.219  99.145 100.340  1.00  0.00    -0.285 OA
ATOM      5  C   UNL     1      94.151  98.936  98.221  1.00  0.00     0.111 A 
ATOM      6  C   UNL     1      93.855  97.558  98.079  1.00  0.00     0.134 A 
ATOM      7  C   UNL     1      94.214  96.887  96.902  1.00  0.00     0.093 A 
ATOM      8  C   UNL     1      94.861  97.562  95.865  1.00  0.00     0.123 A 
ATOM      9  C   UNL     1      95.157  98.922  95.999  1.00  0.00     0.094 A 
ATOM     10  C   UNL     1      94.809  99.609  97.165  1.00  0.00     0.146 A 
ATOM     11  O   UNL     1      95.107 100.900  97.269  1.00  0.00    -0.452 OA
ENDROOT
BRANCH   1  12
ATOM     12  C   UNL     1      95.215 103.060  98.336  1.00  0.00     0.025 A 
ATOM     13  C   UNL     1      95.726 103.675  97.182  1.00  0.00     0.016 A 
ATOM     14  C   UNL     1      96.069 105.027  97.197  1.00  0.00     0.051 A 
ATOM     15  C   UNL     1      95.898 105.795  98.354  1.00  0.00     0.157 A 
ATOM     16  C   UNL     1      95.021 103.833  99.492  1.00  0.00     0.062 A 
ATOM     17  C   UNL     1      95.363 105.191  99.516  1.00  0.00     0.158 A 
BRANCH  15  18
ATOM     18  O   UNL     1      96.265 107.142  98.304  1.00  0.00    -0.504 OA
ATOM     19  H   UNL     1      96.708 107.578  97.509  1.00  0.00     0.293 HD
ENDBRANCH  15  18
BRANCH  17  20
ATOM     20  O   UNL     1      95.155 105.895 100.704  1.00  0.00    -0.504 OA
ATOM     21  H   UNL     1      94.409 106.561 100.843  1.00  0.00     0.293 HD
ENDBRANCH  17  20
ENDBRANCH   1  12
BRANCH   2  22
ATOM     22  O   UNL     1      93.777 101.821 100.532  1.00  0.00    -0.502 OA
ATOM     23  H   UNL     1      93.102 101.505 101.218  1.00  0.00     0.293 HD
ENDBRANCH   2  22
BRANCH   6  24
ATOM     24  O   UNL     1      93.208  96.855  99.097  1.00  0.00    -0.507 OA
ATOM     25  H   UNL     1      92.618  97.322  99.775  1.00  0.00     0.293 HD
ENDBRANCH   6  24
BRANCH   8  26
ATOM     26  O   UNL     1      95.207  96.872  94.705  1.00  0.00    -0.508 OA
ATOM     27  H   UNL     1      94.706  97.012  93.835  1.00  0.00     0.293 HD
ENDBRANCH   8  26
TORSDOF 6
ENDMDL
