MODEL 1
REMARK VINA RESULT:    -5.562      0.000      0.000
REMARK INTER + INTRA:         -14.186
REMARK INTER:                 -12.716
REMARK INTRA:                  -1.469
REMARK UNBOUND:                -1.469
REMARK SMILES CCCCCCCCCCCCCCCCCCCCCCCC(=O)[O-]
REMARK SMILES IDX 13 1 14 2 15 3 16 4 17 5 18 6 19 7 20 8 21 9 22 10 23 11
REMARK SMILES IDX 24 12 25 13 26 14 12 15 11 16 10 17 9 18 8 19 7 20 6 21 5 22
REMARK SMILES IDX 4 23 3 24 2 25 1 26
REMARK H PARENT
REMARK Flexibility Score: inf
ROOT
ATOM      1  C   UNL     1      45.405  24.703  55.490  1.00  0.00     0.000 C 
ENDROOT
BRANCH   1   2
ATOM      2  C   UNL     1      44.057  25.125  54.876  1.00  0.00     0.000 C 
BRANCH   2   3
ATOM      3  C   UNL     1      42.851  24.972  55.820  1.00  0.00     0.000 C 
BRANCH   3   4
ATOM      4  C   UNL     1      41.551  24.631  55.069  1.00  0.00     0.000 C 
BRANCH   4   5
ATOM      5  C   UNL     1      40.977  23.262  55.467  1.00  0.00     0.000 C 
BRANCH   5   6
ATOM      6  C   UNL     1      41.906  22.093  55.102  1.00  0.00     0.000 C 
BRANCH   6   7
ATOM      7  C   UNL     1      41.228  21.143  54.102  1.00  0.00     0.000 C 
BRANCH   7   8
ATOM      8  C   UNL     1      41.779  19.705  54.199  1.00  0.00     0.000 C 
BRANCH   8   9
ATOM      9  C   UNL     1      43.013  19.572  55.107  1.00  0.00     0.000 C 
BRANCH   9  10
ATOM     10  C   UNL     1      44.265  19.102  54.354  1.00  0.00     0.006 C 
BRANCH  10  11
ATOM     11  C   UNL     1      43.906  18.040  53.309  1.00  0.00     0.053 C 
BRANCH  11  12
ATOM     12  C   UNL     1      44.981  17.916  52.275  1.00  0.00     0.041 C 
ATOM     13  O   UNL     1      45.852  18.817  52.153  1.00  0.00    -0.550 OA
ATOM     14  O   UNL     1      45.012  16.809  51.433  1.00  0.00    -0.550 OA
ENDBRANCH  11  12
ENDBRANCH  10  11
ENDBRANCH   9  10
ENDBRANCH   8   9
ENDBRANCH   7   8
ENDBRANCH   6   7
ENDBRANCH   5   6
ENDBRANCH   4   5
ENDBRANCH   3   4
ENDBRANCH   2   3
ENDBRANCH   1   2
BRANCH   1  15
ATOM     15  C   UNL     1      46.386  24.147  54.445  1.00  0.00     0.000 C 
BRANCH  15  16
ATOM     16  C   UNL     1      46.816  22.716  54.802  1.00  0.00     0.000 C 
BRANCH  16  17
ATOM     17  C   UNL     1      47.832  22.132  53.808  1.00  0.00     0.000 C 
BRANCH  17  18
ATOM     18  C   UNL     1      48.173  23.040  52.608  1.00  0.00    -0.000 C 
BRANCH  18  19
ATOM     19  C   UNL     1      49.103  22.383  51.567  1.00  0.00    -0.000 C 
BRANCH  19  20
ATOM     20  C   UNL     1      48.543  21.058  51.025  1.00  0.00    -0.000 C 
BRANCH  20  21
ATOM     21  C   UNL     1      49.525  20.398  50.049  1.00  0.00    -0.000 C 
BRANCH  21  22
ATOM     22  C   UNL     1      50.829  21.207  49.953  1.00  0.00    -0.000 C 
BRANCH  22  23
ATOM     23  C   UNL     1      51.946  20.639  50.843  1.00  0.00    -0.000 C 
BRANCH  23  24
ATOM     24  C   UNL     1      53.351  20.982  50.325  1.00  0.00    -0.000 C 
BRANCH  24  25
ATOM     25  C   UNL     1      53.712  20.126  49.106  1.00  0.00    -0.003 C 
ATOM     26  C   UNL     1      55.218  19.892  49.024  1.00  0.00     0.004 C 
ENDBRANCH  24  25
ENDBRANCH  23  24
ENDBRANCH  22  23
ENDBRANCH  21  22
ENDBRANCH  20  21
ENDBRANCH  19  20
ENDBRANCH  18  19
ENDBRANCH  17  18
ENDBRANCH  16  17
ENDBRANCH  15  16
ENDBRANCH   1  15
TORSDOF 22
ENDMDL
MODEL 2
REMARK VINA RESULT:    -5.421      2.776      5.107
REMARK INTER + INTRA:         -13.863
REMARK INTER:                 -11.891
REMARK INTRA:                  -1.973
REMARK UNBOUND:                -1.469
REMARK SMILES CCCCCCCCCCCCCCCCCCCCCCCC(=O)[O-]
REMARK SMILES IDX 13 1 14 2 15 3 16 4 17 5 18 6 19 7 20 8 21 9 22 10 23 11
REMARK SMILES IDX 24 12 25 13 26 14 12 15 11 16 10 17 9 18 8 19 7 20 6 21 5 22
REMARK SMILES IDX 4 23 3 24 2 25 1 26
REMARK H PARENT
REMARK Flexibility Score: inf
ROOT
ATOM      1  C   UNL     1      48.761  21.000  50.939  1.00  0.00     0.000 C 
ENDROOT
BRANCH   1   2
ATOM      2  C   UNL     1      47.873  19.802  50.553  1.00  0.00     0.000 C 
BRANCH   2   3
ATOM      3  C   UNL     1      46.404  19.930  50.993  1.00  0.00     0.000 C 
BRANCH   3   4
ATOM      4  C   UNL     1      45.938  18.738  51.850  1.00  0.00     0.000 C 
BRANCH   4   5
ATOM      5  C   UNL     1      44.683  18.054  51.283  1.00  0.00     0.000 C 
BRANCH   5   6
ATOM      6  C   UNL     1      43.393  18.476  52.004  1.00  0.00     0.000 C 
BRANCH   6   7
ATOM      7  C   UNL     1      43.585  18.458  53.529  1.00  0.00     0.000 C 
BRANCH   7   8
ATOM      8  C   UNL     1      42.597  19.398  54.252  1.00  0.00     0.000 C 
BRANCH   8   9
ATOM      9  C   UNL     1      41.530  20.007  53.327  1.00  0.00     0.000 C 
BRANCH   9  10
ATOM     10  C   UNL     1      40.948  21.322  53.866  1.00  0.00     0.006 C 
BRANCH  10  11
ATOM     11  C   UNL     1      41.843  21.903  54.966  1.00  0.00     0.053 C 
BRANCH  11  12
ATOM     12  C   UNL     1      41.459  23.314  55.284  1.00  0.00     0.041 C 
ATOM     13  O   UNL     1      40.245  23.637  55.375  1.00  0.00    -0.550 OA
ATOM     14  O   UNL     1      42.444  24.279  55.463  1.00  0.00    -0.550 OA
ENDBRANCH  11  12
ENDBRANCH  10  11
ENDBRANCH   9  10
ENDBRANCH   8   9
ENDBRANCH   7   8
ENDBRANCH   6   7
ENDBRANCH   5   6
ENDBRANCH   4   5
ENDBRANCH   3   4
ENDBRANCH   2   3
ENDBRANCH   1   2
BRANCH   1  15
ATOM     15  C   UNL     1      47.996  22.075  51.729  1.00  0.00     0.000 C 
BRANCH  15  16
ATOM     16  C   UNL     1      48.913  22.760  52.753  1.00  0.00     0.000 C 
BRANCH  16  17
ATOM     17  C   UNL     1      49.194  21.883  53.984  1.00  0.00     0.000 C 
BRANCH  17  18
ATOM     18  C   UNL     1      50.580  22.083  54.630  1.00  0.00    -0.000 C 
BRANCH  18  19
ATOM     19  C   UNL     1      51.350  23.310  54.100  1.00  0.00    -0.000 C 
BRANCH  19  20
ATOM     20  C   UNL     1      52.776  22.962  53.644  1.00  0.00    -0.000 C 
BRANCH  20  21
ATOM     21  C   UNL     1      52.863  22.868  52.115  1.00  0.00    -0.000 C 
BRANCH  21  22
ATOM     22  C   UNL     1      53.046  21.410  51.665  1.00  0.00    -0.000 C 
BRANCH  22  23
ATOM     23  C   UNL     1      52.079  21.013  50.538  1.00  0.00    -0.000 C 
BRANCH  23  24
ATOM     24  C   UNL     1      52.789  20.336  49.356  1.00  0.00    -0.000 C 
BRANCH  24  25
ATOM     25  C   UNL     1      54.312  20.392  49.525  1.00  0.00    -0.003 C 
ATOM     26  C   UNL     1      54.972  21.101  48.346  1.00  0.00     0.004 C 
ENDBRANCH  24  25
ENDBRANCH  23  24
ENDBRANCH  22  23
ENDBRANCH  21  22
ENDBRANCH  20  21
ENDBRANCH  19  20
ENDBRANCH  18  19
ENDBRANCH  17  18
ENDBRANCH  16  17
ENDBRANCH  15  16
ENDBRANCH   1  15
TORSDOF 22
ENDMDL
MODEL 3
REMARK VINA RESULT:    -5.410      3.575      5.855
REMARK INTER + INTRA:         -13.837
REMARK INTER:                 -10.227
REMARK INTRA:                  -3.610
REMARK UNBOUND:                -1.469
REMARK SMILES CCCCCCCCCCCCCCCCCCCCCCCC(=O)[O-]
REMARK SMILES IDX 13 1 14 2 15 3 16 4 17 5 18 6 19 7 20 8 21 9 22 10 23 11
REMARK SMILES IDX 24 12 25 13 26 14 12 15 11 16 10 17 9 18 8 19 7 20 6 21 5 22
REMARK SMILES IDX 4 23 3 24 2 25 1 26
REMARK H PARENT
REMARK Flexibility Score: inf
ROOT
ATOM      1  C   UNL     1      51.752  20.959  54.566  1.00  0.00     0.000 C 
ENDROOT
BRANCH   1   2
ATOM      2  C   UNL     1      51.085  22.343  54.682  1.00  0.00     0.000 C 
BRANCH   2   3
ATOM      3  C   UNL     1      49.848  22.380  55.597  1.00  0.00     0.000 C 
BRANCH   3   4
ATOM      4  C   UNL     1      49.654  23.749  56.274  1.00  0.00     0.000 C 
BRANCH   4   5
ATOM      5  C   UNL     1      48.208  24.260  56.176  1.00  0.00     0.000 C 
BRANCH   5   6
ATOM      6  C   UNL     1      47.200  23.146  55.853  1.00  0.00     0.000 C 
BRANCH   6   7
ATOM      7  C   UNL     1      46.508  23.405  54.505  1.00  0.00     0.000 C 
BRANCH   7   8
ATOM      8  C   UNL     1      47.306  24.385  53.619  1.00  0.00     0.000 C 
BRANCH   8   9
ATOM      9  C   UNL     1      47.927  23.732  52.373  1.00  0.00     0.000 C 
BRANCH   9  10
ATOM     10  C   UNL     1      47.992  22.201  52.467  1.00  0.00     0.006 C 
BRANCH  10  11
ATOM     11  C   UNL     1      48.973  21.633  51.436  1.00  0.00     0.053 C 
BRANCH  11  12
ATOM     12  C   UNL     1      48.297  20.650  50.533  1.00  0.00     0.041 C 
ATOM     13  O   UNL     1      47.152  20.896  50.071  1.00  0.00    -0.550 OA
ATOM     14  O   UNL     1      48.926  19.451  50.214  1.00  0.00    -0.550 OA
ENDBRANCH  11  12
ENDBRANCH  10  11
ENDBRANCH   9  10
ENDBRANCH   8   9
ENDBRANCH   7   8
ENDBRANCH   6   7
ENDBRANCH   5   6
ENDBRANCH   4   5
ENDBRANCH   3   4
ENDBRANCH   2   3
ENDBRANCH   1   2
BRANCH   1  15
ATOM     15  C   UNL     1      53.271  21.011  54.793  1.00  0.00     0.000 C 
BRANCH  15  16
ATOM     16  C   UNL     1      53.680  22.320  55.484  1.00  0.00     0.000 C 
BRANCH  16  17
ATOM     17  C   UNL     1      55.007  22.887  54.954  1.00  0.00     0.000 C 
BRANCH  17  18
ATOM     18  C   UNL     1      54.931  24.321  54.391  1.00  0.00    -0.000 C 
BRANCH  18  19
ATOM     19  C   UNL     1      53.776  24.544  53.393  1.00  0.00    -0.000 C 
BRANCH  19  20
ATOM     20  C   UNL     1      54.019  23.851  52.043  1.00  0.00    -0.000 C 
BRANCH  20  21
ATOM     21  C   UNL     1      52.837  22.952  51.660  1.00  0.00    -0.000 C 
BRANCH  21  22
ATOM     22  C   UNL     1      53.316  21.533  51.314  1.00  0.00    -0.000 C 
BRANCH  22  23
ATOM     23  C   UNL     1      52.391  20.822  50.314  1.00  0.00    -0.000 C 
BRANCH  23  24
ATOM     24  C   UNL     1      53.159  20.165  49.157  1.00  0.00    -0.000 C 
BRANCH  24  25
ATOM     25  C   UNL     1      54.661  20.450  49.263  1.00  0.00    -0.003 C 
ATOM     26  C   UNL     1      55.153  21.265  48.071  1.00  0.00     0.004 C 
ENDBRANCH  24  25
ENDBRANCH  23  24
ENDBRANCH  22  23
ENDBRANCH  21  22
ENDBRANCH  20  21
ENDBRANCH  19  20
ENDBRANCH  18  19
ENDBRANCH  17  18
ENDBRANCH  16  17
ENDBRANCH  15  16
ENDBRANCH   1  15
TORSDOF 22
ENDMDL
MODEL 4
REMARK VINA RESULT:    -5.331      1.655      3.011
REMARK INTER + INTRA:         -13.657
REMARK INTER:                 -11.876
REMARK INTRA:                  -1.781
REMARK UNBOUND:                -1.469
REMARK SMILES CCCCCCCCCCCCCCCCCCCCCCCC(=O)[O-]
REMARK SMILES IDX 13 1 14 2 15 3 16 4 17 5 18 6 19 7 20 8 21 9 22 10 23 11
REMARK SMILES IDX 24 12 25 13 26 14 12 15 11 16 10 17 9 18 8 19 7 20 6 21 5 22
REMARK SMILES IDX 4 23 3 24 2 25 1 26
REMARK H PARENT
REMARK Flexibility Score: inf
ROOT
ATOM      1  C   UNL     1      47.458  21.753  54.405  1.00  0.00     0.000 C 
ENDROOT
BRANCH   1   2
ATOM      2  C   UNL     1      46.244  22.502  54.984  1.00  0.00     0.000 C 
BRANCH   2   3
ATOM      3  C   UNL     1      46.319  24.034  54.854  1.00  0.00     0.000 C 
BRANCH   3   4
ATOM      4  C   UNL     1      45.050  24.735  55.372  1.00  0.00     0.000 C 
BRANCH   4   5
ATOM      5  C   UNL     1      43.769  23.937  55.077  1.00  0.00     0.000 C 
BRANCH   5   6
ATOM      6  C   UNL     1      42.498  24.635  55.586  1.00  0.00     0.000 C 
BRANCH   6   7
ATOM      7  C   UNL     1      41.263  23.743  55.386  1.00  0.00     0.000 C 
BRANCH   7   8
ATOM      8  C   UNL     1      41.644  22.270  55.123  1.00  0.00     0.000 C 
BRANCH   8   9
ATOM      9  C   UNL     1      40.906  21.641  53.930  1.00  0.00     0.000 C 
BRANCH   9  10
ATOM     10  C   UNL     1      41.303  20.179  53.681  1.00  0.00     0.006 C 
BRANCH  10  11
ATOM     11  C   UNL     1      41.808  19.524  54.971  1.00  0.00     0.053 C 
BRANCH  11  12
ATOM     12  C   UNL     1      43.246  19.130  54.848  1.00  0.00     0.041 C 
ATOM     13  O   UNL     1      44.140  19.800  55.429  1.00  0.00    -0.550 OA
ATOM     14  O   UNL     1      43.602  18.029  54.077  1.00  0.00    -0.550 OA
ENDBRANCH  11  12
ENDBRANCH  10  11
ENDBRANCH   9  10
ENDBRANCH   8   9
ENDBRANCH   7   8
ENDBRANCH   6   7
ENDBRANCH   5   6
ENDBRANCH   4   5
ENDBRANCH   3   4
ENDBRANCH   2   3
ENDBRANCH   1   2
BRANCH   1  15
ATOM     15  C   UNL     1      48.098  22.487  53.216  1.00  0.00     0.000 C 
BRANCH  15  16
ATOM     16  C   UNL     1      49.448  23.104  53.612  1.00  0.00     0.000 C 
BRANCH  16  17
ATOM     17  C   UNL     1      50.106  22.387  54.802  1.00  0.00     0.000 C 
BRANCH  17  18
ATOM     18  C   UNL     1      51.321  21.505  54.447  1.00  0.00    -0.000 C 
BRANCH  18  19
ATOM     19  C   UNL     1      52.325  22.176  53.486  1.00  0.00    -0.000 C 
BRANCH  19  20
ATOM     20  C   UNL     1      52.564  21.352  52.211  1.00  0.00    -0.000 C 
BRANCH  20  21
ATOM     21  C   UNL     1      51.286  20.626  51.772  1.00  0.00    -0.000 C 
BRANCH  21  22
ATOM     22  C   UNL     1      51.311  20.334  50.263  1.00  0.00    -0.000 C 
BRANCH  22  23
ATOM     23  C   UNL     1      52.542  20.934  49.564  1.00  0.00    -0.000 C 
BRANCH  23  24
ATOM     24  C   UNL     1      53.465  19.864  48.963  1.00  0.00    -0.000 C 
BRANCH  24  25
ATOM     25  C   UNL     1      54.935  20.283  49.069  1.00  0.00    -0.003 C 
ATOM     26  C   UNL     1      55.270  21.380  48.062  1.00  0.00     0.004 C 
ENDBRANCH  24  25
ENDBRANCH  23  24
ENDBRANCH  22  23
ENDBRANCH  21  22
ENDBRANCH  20  21
ENDBRANCH  19  20
ENDBRANCH  18  19
ENDBRANCH  17  18
ENDBRANCH  16  17
ENDBRANCH  15  16
ENDBRANCH   1  15
TORSDOF 22
ENDMDL
MODEL 5
REMARK VINA RESULT:    -5.302      3.494      5.703
REMARK INTER + INTRA:         -13.589
REMARK INTER:                 -10.697
REMARK INTRA:                  -2.893
REMARK UNBOUND:                -1.469
REMARK SMILES CCCCCCCCCCCCCCCCCCCCCCCC(=O)[O-]
REMARK SMILES IDX 13 1 14 2 15 3 16 4 17 5 18 6 19 7 20 8 21 9 22 10 23 11
REMARK SMILES IDX 24 12 25 13 26 14 12 15 11 16 10 17 9 18 8 19 7 20 6 21 5 22
REMARK SMILES IDX 4 23 3 24 2 25 1 26
REMARK H PARENT
REMARK Flexibility Score: inf
ROOT
ATOM      1  C   UNL     1      53.720  24.331  52.737  1.00  0.00     0.000 C 
ENDROOT
BRANCH   1   2
ATOM      2  C   UNL     1      52.505  24.996  52.064  1.00  0.00     0.000 C 
BRANCH   2   3
ATOM      3  C   UNL     1      51.223  24.990  52.916  1.00  0.00     0.000 C 
BRANCH   3   4
ATOM      4  C   UNL     1      49.996  24.482  52.136  1.00  0.00     0.000 C 
BRANCH   4   5
ATOM      5  C   UNL     1      48.667  24.848  52.815  1.00  0.00     0.000 C 
BRANCH   5   6
ATOM      6  C   UNL     1      47.577  23.784  52.613  1.00  0.00     0.000 C 
BRANCH   6   7
ATOM      7  C   UNL     1      48.199  22.390  52.426  1.00  0.00     0.000 C 
BRANCH   7   8
ATOM      8  C   UNL     1      47.764  21.732  51.100  1.00  0.00     0.000 C 
BRANCH   8   9
ATOM      9  C   UNL     1      47.676  20.198  51.167  1.00  0.00     0.000 C 
BRANCH   9  10
ATOM     10  C   UNL     1      46.290  19.659  50.785  1.00  0.00     0.006 C 
BRANCH  10  11
ATOM     11  C   UNL     1      45.839  18.569  51.763  1.00  0.00     0.053 C 
BRANCH  11  12
ATOM     12  C   UNL     1      44.586  17.903  51.289  1.00  0.00     0.041 C 
ATOM     13  O   UNL     1      43.573  18.592  50.996  1.00  0.00    -0.550 OA
ATOM     14  O   UNL     1      44.531  16.518  51.186  1.00  0.00    -0.550 OA
ENDBRANCH  11  12
ENDBRANCH  10  11
ENDBRANCH   9  10
ENDBRANCH   8   9
ENDBRANCH   7   8
ENDBRANCH   6   7
ENDBRANCH   5   6
ENDBRANCH   4   5
ENDBRANCH   3   4
ENDBRANCH   2   3
ENDBRANCH   1   2
BRANCH   1  15
ATOM     15  C   UNL     1      54.188  25.082  53.994  1.00  0.00     0.000 C 
BRANCH  15  16
ATOM     16  C   UNL     1      54.419  24.110  55.161  1.00  0.00     0.000 C 
BRANCH  16  17
ATOM     17  C   UNL     1      53.290  23.076  55.309  1.00  0.00     0.000 C 
BRANCH  17  18
ATOM     18  C   UNL     1      53.719  21.606  55.129  1.00  0.00    -0.000 C 
BRANCH  18  19
ATOM     19  C   UNL     1      53.267  20.978  53.794  1.00  0.00    -0.000 C 
BRANCH  19  20
ATOM     20  C   UNL     1      51.874  21.460  53.356  1.00  0.00    -0.000 C 
BRANCH  20  21
ATOM     21  C   UNL     1      51.324  20.598  52.213  1.00  0.00    -0.000 C 
BRANCH  21  22
ATOM     22  C   UNL     1      51.409  21.345  50.872  1.00  0.00    -0.000 C 
BRANCH  22  23
ATOM     23  C   UNL     1      52.288  20.618  49.843  1.00  0.00    -0.000 C 
BRANCH  23  24
ATOM     24  C   UNL     1      53.781  20.941  50.004  1.00  0.00    -0.000 C 
BRANCH  24  25
ATOM     25  C   UNL     1      54.611  20.271  48.902  1.00  0.00    -0.003 C 
ATOM     26  C   UNL     1      55.291  21.309  48.015  1.00  0.00     0.004 C 
ENDBRANCH  24  25
ENDBRANCH  23  24
ENDBRANCH  22  23
ENDBRANCH  21  22
ENDBRANCH  20  21
ENDBRANCH  19  20
ENDBRANCH  18  19
ENDBRANCH  17  18
ENDBRANCH  16  17
ENDBRANCH  15  16
ENDBRANCH   1  15
TORSDOF 22
ENDMDL
MODEL 6
REMARK VINA RESULT:    -5.232      3.000      8.547
REMARK INTER + INTRA:         -13.430
REMARK INTER:                 -10.686
REMARK INTRA:                  -2.743
REMARK UNBOUND:                -1.469
REMARK SMILES CCCCCCCCCCCCCCCCCCCCCCCC(=O)[O-]
REMARK SMILES IDX 13 1 14 2 15 3 16 4 17 5 18 6 19 7 20 8 21 9 22 10 23 11
REMARK SMILES IDX 24 12 25 13 26 14 12 15 11 16 10 17 9 18 8 19 7 20 6 21 5 22
REMARK SMILES IDX 4 23 3 24 2 25 1 26
REMARK H PARENT
REMARK Flexibility Score: inf
ROOT
ATOM      1  C   UNL     1      47.792  21.362  51.642  1.00  0.00     0.000 C 
ENDROOT
BRANCH   1   2
ATOM      2  C   UNL     1      48.302  20.925  50.256  1.00  0.00     0.000 C 
BRANCH   2   3
ATOM      3  C   UNL     1      48.802  19.470  50.192  1.00  0.00     0.000 C 
BRANCH   3   4
ATOM      4  C   UNL     1      50.338  19.371  50.230  1.00  0.00     0.000 C 
BRANCH   4   5
ATOM      5  C   UNL     1      51.028  20.700  49.880  1.00  0.00     0.000 C 
BRANCH   5   6
ATOM      6  C   UNL     1      52.534  20.542  49.619  1.00  0.00     0.000 C 
BRANCH   6   7
ATOM      7  C   UNL     1      53.357  21.191  50.743  1.00  0.00     0.000 C 
BRANCH   7   8
ATOM      8  C   UNL     1      52.479  22.017  51.707  1.00  0.00     0.000 C 
BRANCH   8   9
ATOM      9  C   UNL     1      53.281  22.916  52.663  1.00  0.00     0.000 C 
BRANCH   9  10
ATOM     10  C   UNL     1      53.183  22.473  54.129  1.00  0.00     0.006 C 
BRANCH  10  11
ATOM     11  C   UNL     1      53.263  20.947  54.244  1.00  0.00     0.053 C 
BRANCH  11  12
ATOM     12  C   UNL     1      51.950  20.368  54.670  1.00  0.00     0.041 C 
ATOM     13  O   UNL     1      51.872  19.161  55.021  1.00  0.00    -0.550 OA
ATOM     14  O   UNL     1      50.807  21.160  54.664  1.00  0.00    -0.550 OA
ENDBRANCH  11  12
ENDBRANCH  10  11
ENDBRANCH   9  10
ENDBRANCH   8   9
ENDBRANCH   7   8
ENDBRANCH   6   7
ENDBRANCH   5   6
ENDBRANCH   4   5
ENDBRANCH   3   4
ENDBRANCH   2   3
ENDBRANCH   1   2
BRANCH   1  15
ATOM     15  C   UNL     1      48.616  22.513  52.242  1.00  0.00     0.000 C 
BRANCH  15  16
ATOM     16  C   UNL     1      47.774  23.793  52.353  1.00  0.00     0.000 C 
BRANCH  16  17
ATOM     17  C   UNL     1      47.861  24.447  53.742  1.00  0.00     0.000 C 
BRANCH  17  18
ATOM     18  C   UNL     1      46.517  24.592  54.484  1.00  0.00    -0.000 C 
BRANCH  18  19
ATOM     19  C   UNL     1      46.047  23.305  55.194  1.00  0.00    -0.000 C 
BRANCH  19  20
ATOM     20  C   UNL     1      47.204  22.539  55.856  1.00  0.00    -0.000 C 
BRANCH  20  21
ATOM     21  C   UNL     1      47.134  21.041  55.532  1.00  0.00    -0.000 C 
BRANCH  21  22
ATOM     22  C   UNL     1      45.685  20.605  55.261  1.00  0.00    -0.000 C 
BRANCH  22  23
ATOM     23  C   UNL     1      45.549  19.765  53.981  1.00  0.00    -0.000 C 
BRANCH  23  24
ATOM     24  C   UNL     1      44.390  18.760  54.051  1.00  0.00    -0.000 C 
BRANCH  24  25
ATOM     25  C   UNL     1      44.403  17.819  52.841  1.00  0.00    -0.003 C 
ATOM     26  C   UNL     1      45.503  18.205  51.855  1.00  0.00     0.004 C 
ENDBRANCH  24  25
ENDBRANCH  23  24
ENDBRANCH  22  23
ENDBRANCH  21  22
ENDBRANCH  20  21
ENDBRANCH  19  20
ENDBRANCH  18  19
ENDBRANCH  17  18
ENDBRANCH  16  17
ENDBRANCH  15  16
ENDBRANCH   1  15
TORSDOF 22
ENDMDL
MODEL 7
REMARK VINA RESULT:    -5.164      2.068      3.795
REMARK INTER + INTRA:         -13.274
REMARK INTER:                 -10.072
REMARK INTRA:                  -3.203
REMARK UNBOUND:                -1.469
REMARK SMILES CCCCCCCCCCCCCCCCCCCCCCCC(=O)[O-]
REMARK SMILES IDX 13 1 14 2 15 3 16 4 17 5 18 6 19 7 20 8 21 9 22 10 23 11
REMARK SMILES IDX 24 12 25 13 26 14 12 15 11 16 10 17 9 18 8 19 7 20 6 21 5 22
REMARK SMILES IDX 4 23 3 24 2 25 1 26
REMARK H PARENT
REMARK Flexibility Score: inf
ROOT
ATOM      1  C   UNL     1      48.902  23.319  52.667  1.00  0.00     0.000 C 
ENDROOT
BRANCH   1   2
ATOM      2  C   UNL     1      47.480  23.904  52.758  1.00  0.00     0.000 C 
BRANCH   2   3
ATOM      3  C   UNL     1      47.130  24.520  54.124  1.00  0.00     0.000 C 
BRANCH   3   4
ATOM      4  C   UNL     1      46.268  23.583  54.992  1.00  0.00     0.000 C 
BRANCH   4   5
ATOM      5  C   UNL     1      47.083  22.865  56.080  1.00  0.00     0.000 C 
BRANCH   5   6
ATOM      6  C   UNL     1      46.878  21.342  56.075  1.00  0.00     0.000 C 
BRANCH   6   7
ATOM      7  C   UNL     1      45.856  20.929  55.003  1.00  0.00     0.000 C 
BRANCH   7   8
ATOM      8  C   UNL     1      44.838  19.898  55.535  1.00  0.00     0.000 C 
BRANCH   8   9
ATOM      9  C   UNL     1      43.429  20.052  54.939  1.00  0.00     0.000 C 
BRANCH   9  10
ATOM     10  C   UNL     1      42.962  18.806  54.173  1.00  0.00     0.006 C 
BRANCH  10  11
ATOM     11  C   UNL     1      44.144  18.112  53.488  1.00  0.00     0.053 C 
BRANCH  11  12
ATOM     12  C   UNL     1      43.936  18.026  52.009  1.00  0.00     0.041 C 
ATOM     13  O   UNL     1      44.696  17.314  51.301  1.00  0.00    -0.550 OA
ATOM     14  O   UNL     1      42.910  18.748  51.408  1.00  0.00    -0.550 OA
ENDBRANCH  11  12
ENDBRANCH  10  11
ENDBRANCH   9  10
ENDBRANCH   8   9
ENDBRANCH   7   8
ENDBRANCH   6   7
ENDBRANCH   5   6
ENDBRANCH   4   5
ENDBRANCH   3   4
ENDBRANCH   2   3
ENDBRANCH   1   2
BRANCH   1  15
ATOM     15  C   UNL     1      49.909  24.067  53.557  1.00  0.00     0.000 C 
BRANCH  15  16
ATOM     16  C   UNL     1      50.508  23.129  54.616  1.00  0.00     0.000 C 
BRANCH  16  17
ATOM     17  C   UNL     1      50.220  21.646  54.332  1.00  0.00     0.000 C 
BRANCH  17  18
ATOM     18  C   UNL     1      51.388  20.858  53.706  1.00  0.00    -0.000 C 
BRANCH  18  19
ATOM     19  C   UNL     1      52.784  21.366  54.123  1.00  0.00    -0.000 C 
BRANCH  19  20
ATOM     20  C   UNL     1      53.449  22.230  53.039  1.00  0.00    -0.000 C 
BRANCH  20  21
ATOM     21  C   UNL     1      52.654  22.182  51.728  1.00  0.00    -0.000 C 
BRANCH  21  22
ATOM     22  C   UNL     1      53.205  21.096  50.791  1.00  0.00    -0.000 C 
BRANCH  22  23
ATOM     23  C   UNL     1      52.152  20.577  49.800  1.00  0.00    -0.000 C 
BRANCH  23  24
ATOM     24  C   UNL     1      50.826  21.348  49.885  1.00  0.00    -0.000 C 
BRANCH  24  25
ATOM     25  C   UNL     1      49.670  20.415  50.265  1.00  0.00    -0.003 C 
ATOM     26  C   UNL     1      50.100  18.952  50.204  1.00  0.00     0.004 C 
ENDBRANCH  24  25
ENDBRANCH  23  24
ENDBRANCH  22  23
ENDBRANCH  21  22
ENDBRANCH  20  21
ENDBRANCH  19  20
ENDBRANCH  18  19
ENDBRANCH  17  18
ENDBRANCH  16  17
ENDBRANCH  15  16
ENDBRANCH   1  15
TORSDOF 22
ENDMDL
MODEL 8
REMARK VINA RESULT:    -5.159      1.862      3.952
REMARK INTER + INTRA:         -13.263
REMARK INTER:                 -11.029
REMARK INTRA:                  -2.234
REMARK UNBOUND:                -1.469
REMARK SMILES CCCCCCCCCCCCCCCCCCCCCCCC(=O)[O-]
REMARK SMILES IDX 13 1 14 2 15 3 16 4 17 5 18 6 19 7 20 8 21 9 22 10 23 11
REMARK SMILES IDX 24 12 25 13 26 14 12 15 11 16 10 17 9 18 8 19 7 20 6 21 5 22
REMARK SMILES IDX 4 23 3 24 2 25 1 26
REMARK H PARENT
REMARK Flexibility Score: inf
ROOT
ATOM      1  C   UNL     1      49.245  22.428  53.918  1.00  0.00     0.000 C 
ENDROOT
BRANCH   1   2
ATOM      2  C   UNL     1      48.128  21.985  54.881  1.00  0.00     0.000 C 
BRANCH   2   3
ATOM      3  C   UNL     1      47.377  23.144  55.561  1.00  0.00     0.000 C 
BRANCH   3   4
ATOM      4  C   UNL     1      45.970  23.362  54.975  1.00  0.00     0.000 C 
BRANCH   4   5
ATOM      5  C   UNL     1      45.295  24.635  55.509  1.00  0.00     0.000 C 
BRANCH   5   6
ATOM      6  C   UNL     1      43.964  24.948  54.806  1.00  0.00     0.000 C 
BRANCH   6   7
ATOM      7  C   UNL     1      42.776  24.733  55.757  1.00  0.00     0.000 C 
BRANCH   7   8
ATOM      8  C   UNL     1      41.660  23.884  55.113  1.00  0.00     0.000 C 
BRANCH   8   9
ATOM      9  C   UNL     1      41.984  22.382  55.043  1.00  0.00     0.000 C 
BRANCH   9  10
ATOM     10  C   UNL     1      40.946  21.581  54.245  1.00  0.00     0.006 C 
BRANCH  10  11
ATOM     11  C   UNL     1      41.608  20.408  53.513  1.00  0.00     0.053 C 
BRANCH  11  12
ATOM     12  C   UNL     1      42.122  19.389  54.481  1.00  0.00     0.041 C 
ATOM     13  O   UNL     1      41.321  18.740  55.204  1.00  0.00    -0.550 OA
ATOM     14  O   UNL     1      43.490  19.168  54.597  1.00  0.00    -0.550 OA
ENDBRANCH  11  12
ENDBRANCH  10  11
ENDBRANCH   9  10
ENDBRANCH   8   9
ENDBRANCH   7   8
ENDBRANCH   6   7
ENDBRANCH   5   6
ENDBRANCH   4   5
ENDBRANCH   3   4
ENDBRANCH   2   3
ENDBRANCH   1   2
BRANCH   1  15
ATOM     15  C   UNL     1      48.781  22.476  52.452  1.00  0.00     0.000 C 
BRANCH  15  16
ATOM     16  C   UNL     1      47.813  21.324  52.144  1.00  0.00     0.000 C 
BRANCH  16  17
ATOM     17  C   UNL     1      47.369  21.294  50.672  1.00  0.00     0.000 C 
BRANCH  17  18
ATOM     18  C   UNL     1      48.400  20.705  49.688  1.00  0.00    -0.000 C 
BRANCH  18  19
ATOM     19  C   UNL     1      48.960  19.331  50.111  1.00  0.00    -0.000 C 
BRANCH  19  20
ATOM     20  C   UNL     1      50.496  19.299  50.134  1.00  0.00    -0.000 C 
BRANCH  20  21
ATOM     21  C   UNL     1      51.082  20.714  50.043  1.00  0.00    -0.000 C 
BRANCH  21  22
ATOM     22  C   UNL     1      52.605  20.666  49.846  1.00  0.00    -0.000 C 
BRANCH  22  23
ATOM     23  C   UNL     1      53.376  21.248  51.041  1.00  0.00    -0.000 C 
BRANCH  23  24
ATOM     24  C   UNL     1      52.495  21.424  52.287  1.00  0.00    -0.000 C 
BRANCH  24  25
ATOM     25  C   UNL     1      53.347  21.724  53.526  1.00  0.00    -0.003 C 
ATOM     26  C   UNL     1      52.717  21.135  54.785  1.00  0.00     0.004 C 
ENDBRANCH  24  25
ENDBRANCH  23  24
ENDBRANCH  22  23
ENDBRANCH  21  22
ENDBRANCH  20  21
ENDBRANCH  19  20
ENDBRANCH  18  19
ENDBRANCH  17  18
ENDBRANCH  16  17
ENDBRANCH  15  16
ENDBRANCH   1  15
TORSDOF 22
ENDMDL
MODEL 9
REMARK VINA RESULT:    -5.126      2.986      5.504
REMARK INTER + INTRA:         -13.189
REMARK INTER:                 -10.751
REMARK INTRA:                  -2.438
REMARK UNBOUND:                -1.469
REMARK SMILES CCCCCCCCCCCCCCCCCCCCCCCC(=O)[O-]
REMARK SMILES IDX 13 1 14 2 15 3 16 4 17 5 18 6 19 7 20 8 21 9 22 10 23 11
REMARK SMILES IDX 24 12 25 13 26 14 12 15 11 16 10 17 9 18 8 19 7 20 6 21 5 22
REMARK SMILES IDX 4 23 3 24 2 25 1 26
REMARK H PARENT
REMARK Flexibility Score: inf
ROOT
ATOM      1  C   UNL     1      44.262  18.167  53.551  1.00  0.00     0.000 C 
ENDROOT
BRANCH   1   2
ATOM      2  C   UNL     1      43.668  18.683  54.875  1.00  0.00     0.000 C 
BRANCH   2   3
ATOM      3  C   UNL     1      44.344  19.953  55.424  1.00  0.00     0.000 C 
BRANCH   3   4
ATOM      4  C   UNL     1      45.678  20.264  54.720  1.00  0.00     0.000 C 
BRANCH   4   5
ATOM      5  C   UNL     1      46.526  21.294  55.484  1.00  0.00     0.000 C 
BRANCH   5   6
ATOM      6  C   UNL     1      46.257  22.740  55.038  1.00  0.00     0.000 C 
BRANCH   6   7
ATOM      7  C   UNL     1      47.554  23.421  54.571  1.00  0.00     0.000 C 
BRANCH   7   8
ATOM      8  C   UNL     1      48.081  22.824  53.249  1.00  0.00     0.000 C 
BRANCH   8   9
ATOM      9  C   UNL     1      49.512  23.265  52.896  1.00  0.00     0.000 C 
BRANCH   9  10
ATOM     10  C   UNL     1      50.546  22.852  53.953  1.00  0.00     0.006 C 
BRANCH  10  11
ATOM     11  C   UNL     1      50.374  21.378  54.337  1.00  0.00     0.053 C 
BRANCH  11  12
ATOM     12  C   UNL     1      51.686  20.658  54.311  1.00  0.00     0.041 C 
ATOM     13  O   UNL     1      52.691  21.190  53.770  1.00  0.00    -0.550 OA
ATOM     14  O   UNL     1      51.794  19.390  54.872  1.00  0.00    -0.550 OA
ENDBRANCH  11  12
ENDBRANCH  10  11
ENDBRANCH   9  10
ENDBRANCH   8   9
ENDBRANCH   7   8
ENDBRANCH   6   7
ENDBRANCH   5   6
ENDBRANCH   4   5
ENDBRANCH   3   4
ENDBRANCH   2   3
ENDBRANCH   1   2
BRANCH   1  15
ATOM     15  C   UNL     1      43.404  18.539  52.330  1.00  0.00     0.000 C 
BRANCH  15  16
ATOM     16  C   UNL     1      44.274  18.693  51.074  1.00  0.00     0.000 C 
BRANCH  16  17
ATOM     17  C   UNL     1      45.779  18.713  51.388  1.00  0.00     0.000 C 
BRANCH  17  18
ATOM     18  C   UNL     1      46.601  19.749  50.594  1.00  0.00    -0.000 C 
BRANCH  18  19
ATOM     19  C   UNL     1      48.029  19.966  51.135  1.00  0.00    -0.000 C 
BRANCH  19  20
ATOM     20  C   UNL     1      49.095  19.923  50.028  1.00  0.00    -0.000 C 
BRANCH  20  21
ATOM     21  C   UNL     1      50.102  21.070  50.183  1.00  0.00    -0.000 C 
BRANCH  21  22
ATOM     22  C   UNL     1      51.497  20.530  50.535  1.00  0.00    -0.000 C 
BRANCH  22  23
ATOM     23  C   UNL     1      52.557  20.894  49.482  1.00  0.00    -0.000 C 
BRANCH  23  24
ATOM     24  C   UNL     1      53.987  20.581  49.947  1.00  0.00    -0.000 C 
BRANCH  24  25
ATOM     25  C   UNL     1      54.862  20.136  48.769  1.00  0.00    -0.003 C 
ATOM     26  C   UNL     1      55.303  21.330  47.928  1.00  0.00     0.004 C 
ENDBRANCH  24  25
ENDBRANCH  23  24
ENDBRANCH  22  23
ENDBRANCH  21  22
ENDBRANCH  20  21
ENDBRANCH  19  20
ENDBRANCH  18  19
ENDBRANCH  17  18
ENDBRANCH  16  17
ENDBRANCH  15  16
ENDBRANCH   1  15
TORSDOF 22
ENDMDL
