MODEL 1
REMARK VINA RESULT:    -3.284      0.000      0.000
REMARK INTER + INTRA:          -9.871
REMARK INTER:                  -8.276
REMARK INTRA:                  -1.595
REMARK UNBOUND:                -1.595
REMARK SMILES CCCCCCCCCCCCCCCCCCCCCCCCCCCC(=O)[O-]
REMARK SMILES IDX 15 1 16 2 17 3 18 4 19 5 20 6 21 7 22 8 23 9 24 10 25 11
REMARK SMILES IDX 26 12 27 13 28 14 29 15 30 16 14 17 13 18 12 19 11 20 10 21
REMARK SMILES IDX 9 22 8 23 7 24 6 25 5 26 4 27 3 28 2 29 1 30
REMARK H PARENT
REMARK Flexibility Score: inf
ROOT
ATOM      1  C   UNL     1      24.545 -20.236 -19.081  1.00  0.00     0.000 C 
ENDROOT
BRANCH   1   2
ATOM      2  C   UNL     1      24.066 -20.802 -20.429  1.00  0.00     0.000 C 
BRANCH   2   3
ATOM      3  C   UNL     1      22.819 -21.693 -20.288  1.00  0.00     0.000 C 
BRANCH   3   4
ATOM      4  C   UNL     1      21.571 -20.903 -19.861  1.00  0.00     0.000 C 
BRANCH   4   5
ATOM      5  C   UNL     1      20.600 -21.747 -19.016  1.00  0.00     0.000 C 
BRANCH   5   6
ATOM      6  C   UNL     1      20.673 -23.251 -19.341  1.00  0.00     0.000 C 
BRANCH   6   7
ATOM      7  C   UNL     1      20.006 -23.664 -20.665  1.00  0.00     0.000 C 
BRANCH   7   8
ATOM      8  C   UNL     1      18.604 -23.058 -20.842  1.00  0.00     0.000 C 
BRANCH   8   9
ATOM      9  C   UNL     1      17.504 -23.888 -20.158  1.00  0.00     0.000 C 
BRANCH   9  10
ATOM     10  C   UNL     1      17.505 -23.828 -18.619  1.00  0.00     0.000 C 
BRANCH  10  11
ATOM     11  C   UNL     1      16.124 -23.494 -18.029  1.00  0.00     0.000 C 
BRANCH  11  12
ATOM     12  C   UNL     1      14.971 -24.022 -18.898  1.00  0.00     0.006 C 
BRANCH  12  13
ATOM     13  C   UNL     1      13.794 -23.038 -18.981  1.00  0.00     0.053 C 
BRANCH  13  14
ATOM     14  C   UNL     1      14.148 -21.876 -19.854  1.00  0.00     0.041 C 
ATOM     15  O   UNL     1      15.105 -21.963 -20.670  1.00  0.00    -0.550 OA
ATOM     16  O   UNL     1      13.392 -20.712 -19.804  1.00  0.00    -0.550 OA
ENDBRANCH  13  14
ENDBRANCH  12  13
ENDBRANCH  11  12
ENDBRANCH  10  11
ENDBRANCH   9  10
ENDBRANCH   8   9
ENDBRANCH   7   8
ENDBRANCH   6   7
ENDBRANCH   5   6
ENDBRANCH   4   5
ENDBRANCH   3   4
ENDBRANCH   2   3
ENDBRANCH   1   2
BRANCH   1  17
ATOM     17  C   UNL     1      24.167 -18.762 -18.815  1.00  0.00     0.000 C 
BRANCH  17  18
ATOM     18  C   UNL     1      23.840 -18.409 -17.347  1.00  0.00     0.000 C 
BRANCH  18  19
ATOM     19  C   UNL     1      24.978 -17.693 -16.585  1.00  0.00     0.000 C 
BRANCH  19  20
ATOM     20  C   UNL     1      24.767 -16.177 -16.426  1.00  0.00     0.000 C 
BRANCH  20  21
ATOM     21  C   UNL     1      23.658 -15.626 -17.338  1.00  0.00     0.000 C 
BRANCH  21  22
ATOM     22  C   UNL     1      22.794 -14.562 -16.644  1.00  0.00    -0.000 C 
BRANCH  22  23
ATOM     23  C   UNL     1      21.326 -14.997 -16.498  1.00  0.00    -0.000 C 
BRANCH  23  24
ATOM     24  C   UNL     1      21.093 -16.472 -16.899  1.00  0.00    -0.000 C 
BRANCH  24  25
ATOM     25  C   UNL     1      19.825 -17.089 -16.281  1.00  0.00    -0.000 C 
BRANCH  25  26
ATOM     26  C   UNL     1      19.155 -16.230 -15.194  1.00  0.00    -0.000 C 
BRANCH  26  27
ATOM     27  C   UNL     1      17.643 -16.007 -15.423  1.00  0.00    -0.000 C 
BRANCH  27  28
ATOM     28  C   UNL     1      17.228 -14.539 -15.253  1.00  0.00    -0.000 C 
BRANCH  28  29
ATOM     29  C   UNL     1      16.237 -14.116 -16.344  1.00  0.00    -0.003 C 
ATOM     30  C   UNL     1      16.037 -15.231 -17.366  1.00  0.00     0.004 C 
ENDBRANCH  28  29
ENDBRANCH  27  28
ENDBRANCH  26  27
ENDBRANCH  25  26
ENDBRANCH  24  25
ENDBRANCH  23  24
ENDBRANCH  22  23
ENDBRANCH  21  22
ENDBRANCH  20  21
ENDBRANCH  19  20
ENDBRANCH  18  19
ENDBRANCH  17  18
ENDBRANCH   1  17
TORSDOF 26
ENDMDL
MODEL 2
REMARK VINA RESULT:    -3.140      6.686     11.362
REMARK INTER + INTRA:          -9.507
REMARK INTER:                  -8.083
REMARK INTRA:                  -1.424
REMARK UNBOUND:                -1.595
REMARK SMILES CCCCCCCCCCCCCCCCCCCCCCCCCCCC(=O)[O-]
REMARK SMILES IDX 15 1 16 2 17 3 18 4 19 5 20 6 21 7 22 8 23 9 24 10 25 11
REMARK SMILES IDX 26 12 27 13 28 14 29 15 30 16 14 17 13 18 12 19 11 20 10 21
REMARK SMILES IDX 9 22 8 23 7 24 6 25 5 26 4 27 3 28 2 29 1 30
REMARK H PARENT
REMARK Flexibility Score: inf
ROOT
ATOM      1  C   UNL     1      14.372 -22.035 -16.527  1.00  0.00     0.000 C 
ENDROOT
BRANCH   1   2
ATOM      2  C   UNL     1      15.063 -23.378 -16.820  1.00  0.00     0.000 C 
BRANCH   2   3
ATOM      3  C   UNL     1      14.631 -23.987 -18.166  1.00  0.00     0.000 C 
BRANCH   3   4
ATOM      4  C   UNL     1      15.824 -24.307 -19.081  1.00  0.00     0.000 C 
BRANCH   4   5
ATOM      5  C   UNL     1      15.841 -23.441 -20.352  1.00  0.00     0.000 C 
BRANCH   5   6
ATOM      6  C   UNL     1      16.074 -21.947 -20.057  1.00  0.00     0.000 C 
BRANCH   6   7
ATOM      7  C   UNL     1      17.358 -21.355 -20.665  1.00  0.00     0.000 C 
BRANCH   7   8
ATOM      8  C   UNL     1      18.554 -22.318 -20.589  1.00  0.00     0.000 C 
BRANCH   8   9
ATOM      9  C   UNL     1      19.004 -22.598 -19.143  1.00  0.00     0.000 C 
BRANCH   9  10
ATOM     10  C   UNL     1      20.434 -22.137 -18.807  1.00  0.00     0.000 C 
BRANCH  10  11
ATOM     11  C   UNL     1      20.659 -20.638 -19.068  1.00  0.00     0.000 C 
BRANCH  11  12
ATOM     12  C   UNL     1      21.928 -20.105 -18.381  1.00  0.00     0.006 C 
BRANCH  12  13
ATOM     13  C   UNL     1      21.636 -19.464 -17.016  1.00  0.00     0.053 C 
BRANCH  13  14
ATOM     14  C   UNL     1      21.350 -18.004 -17.176  1.00  0.00     0.041 C 
ATOM     15  O   UNL     1      20.336 -17.493 -16.631  1.00  0.00    -0.550 OA
ATOM     16  O   UNL     1      22.230 -17.197 -17.886  1.00  0.00    -0.550 OA
ENDBRANCH  13  14
ENDBRANCH  12  13
ENDBRANCH  11  12
ENDBRANCH  10  11
ENDBRANCH   9  10
ENDBRANCH   8   9
ENDBRANCH   7   8
ENDBRANCH   6   7
ENDBRANCH   5   6
ENDBRANCH   4   5
ENDBRANCH   3   4
ENDBRANCH   2   3
ENDBRANCH   1   2
BRANCH   1  17
ATOM     17  C   UNL     1      14.063 -21.765 -15.038  1.00  0.00     0.000 C 
BRANCH  17  18
ATOM     18  C   UNL     1      12.754 -20.996 -14.755  1.00  0.00     0.000 C 
BRANCH  18  19
ATOM     19  C   UNL     1      11.749 -20.973 -15.929  1.00  0.00     0.000 C 
BRANCH  19  20
ATOM     20  C   UNL     1      10.441 -20.225 -15.619  1.00  0.00     0.000 C 
BRANCH  20  21
ATOM     21  C   UNL     1       9.191 -20.972 -16.112  1.00  0.00     0.000 C 
BRANCH  21  22
ATOM     22  C   UNL     1       7.969 -20.743 -15.209  1.00  0.00    -0.000 C 
BRANCH  22  23
ATOM     23  C   UNL     1       6.660 -20.622 -16.007  1.00  0.00    -0.000 C 
BRANCH  23  24
ATOM     24  C   UNL     1       5.413 -20.499 -15.102  1.00  0.00    -0.000 C 
BRANCH  24  25
ATOM     25  C   UNL     1       5.735 -20.504 -13.598  1.00  0.00    -0.000 C 
BRANCH  25  26
ATOM     26  C   UNL     1       5.348 -21.798 -12.860  1.00  0.00    -0.000 C 
BRANCH  26  27
ATOM     27  C   UNL     1       5.308 -21.647 -11.322  1.00  0.00    -0.000 C 
BRANCH  27  28
ATOM     28  C   UNL     1       5.064 -22.981 -10.602  1.00  0.00    -0.000 C 
BRANCH  28  29
ATOM     29  C   UNL     1       6.105 -23.211  -9.500  1.00  0.00    -0.003 C 
ATOM     30  C   UNL     1       5.547 -22.837  -8.131  1.00  0.00     0.004 C 
ENDBRANCH  28  29
ENDBRANCH  27  28
ENDBRANCH  26  27
ENDBRANCH  25  26
ENDBRANCH  24  25
ENDBRANCH  23  24
ENDBRANCH  22  23
ENDBRANCH  21  22
ENDBRANCH  20  21
ENDBRANCH  19  20
ENDBRANCH  18  19
ENDBRANCH  17  18
ENDBRANCH   1  17
TORSDOF 26
ENDMDL
MODEL 3
REMARK VINA RESULT:    -2.996      2.113      8.598
REMARK INTER + INTRA:          -9.145
REMARK INTER:                  -6.942
REMARK INTRA:                  -2.203
REMARK UNBOUND:                -1.595
REMARK SMILES CCCCCCCCCCCCCCCCCCCCCCCCCCCC(=O)[O-]
REMARK SMILES IDX 15 1 16 2 17 3 18 4 19 5 20 6 21 7 22 8 23 9 24 10 25 11
REMARK SMILES IDX 26 12 27 13 28 14 29 15 30 16 14 17 13 18 12 19 11 20 10 21
REMARK SMILES IDX 9 22 8 23 7 24 6 25 5 26 4 27 3 28 2 29 1 30
REMARK H PARENT
REMARK Flexibility Score: inf
ROOT
ATOM      1  C   UNL     1      17.273 -15.264 -15.514  1.00  0.00     0.000 C 
ENDROOT
BRANCH   1   2
ATOM      2  C   UNL     1      18.668 -15.071 -16.132  1.00  0.00     0.000 C 
BRANCH   2   3
ATOM      3  C   UNL     1      19.549 -16.328 -16.014  1.00  0.00     0.000 C 
BRANCH   3   4
ATOM      4  C   UNL     1      20.810 -16.252 -16.890  1.00  0.00     0.000 C 
BRANCH   4   5
ATOM      5  C   UNL     1      22.017 -15.667 -16.136  1.00  0.00     0.000 C 
BRANCH   5   6
ATOM      6  C   UNL     1      23.077 -15.064 -17.077  1.00  0.00     0.000 C 
BRANCH   6   7
ATOM      7  C   UNL     1      23.454 -15.944 -18.282  1.00  0.00     0.000 C 
BRANCH   7   8
ATOM      8  C   UNL     1      24.404 -17.093 -17.909  1.00  0.00     0.000 C 
BRANCH   8   9
ATOM      9  C   UNL     1      24.167 -18.361 -18.749  1.00  0.00     0.000 C 
BRANCH   9  10
ATOM     10  C   UNL     1      23.681 -19.587 -17.954  1.00  0.00     0.000 C 
BRANCH  10  11
ATOM     11  C   UNL     1      22.418 -19.302 -17.123  1.00  0.00     0.000 C 
BRANCH  11  12
ATOM     12  C   UNL     1      21.132 -19.763 -17.829  1.00  0.00     0.006 C 
BRANCH  12  13
ATOM     13  C   UNL     1      21.406 -20.770 -18.956  1.00  0.00     0.053 C 
BRANCH  13  14
ATOM     14  C   UNL     1      20.227 -20.860 -19.872  1.00  0.00     0.041 C 
ATOM     15  O   UNL     1      19.739 -21.983 -20.170  1.00  0.00    -0.550 OA
ATOM     16  O   UNL     1      19.634 -19.702 -20.359  1.00  0.00    -0.550 OA
ENDBRANCH  13  14
ENDBRANCH  12  13
ENDBRANCH  11  12
ENDBRANCH  10  11
ENDBRANCH   9  10
ENDBRANCH   8   9
ENDBRANCH   7   8
ENDBRANCH   6   7
ENDBRANCH   5   6
ENDBRANCH   4   5
ENDBRANCH   3   4
ENDBRANCH   2   3
ENDBRANCH   1   2
BRANCH   1  17
ATOM     17  C   UNL     1      16.237 -15.952 -16.430  1.00  0.00     0.000 C 
BRANCH  17  18
ATOM     18  C   UNL     1      15.724 -15.103 -17.615  1.00  0.00     0.000 C 
BRANCH  18  19
ATOM     19  C   UNL     1      16.154 -15.613 -19.009  1.00  0.00     0.000 C 
BRANCH  19  20
ATOM     20  C   UNL     1      14.987 -15.791 -19.997  1.00  0.00     0.000 C 
BRANCH  20  21
ATOM     21  C   UNL     1      15.238 -16.903 -21.028  1.00  0.00     0.000 C 
BRANCH  21  22
ATOM     22  C   UNL     1      14.070 -17.898 -21.122  1.00  0.00    -0.000 C 
BRANCH  22  23
ATOM     23  C   UNL     1      14.507 -19.347 -20.848  1.00  0.00    -0.000 C 
BRANCH  23  24
ATOM     24  C   UNL     1      13.319 -20.282 -20.528  1.00  0.00    -0.000 C 
BRANCH  24  25
ATOM     25  C   UNL     1      13.729 -21.581 -19.810  1.00  0.00    -0.000 C 
BRANCH  25  26
ATOM     26  C   UNL     1      13.598 -22.856 -20.661  1.00  0.00    -0.000 C 
BRANCH  26  27
ATOM     27  C   UNL     1      13.916 -24.155 -19.886  1.00  0.00    -0.000 C 
BRANCH  27  28
ATOM     28  C   UNL     1      14.405 -23.886 -18.455  1.00  0.00    -0.000 C 
BRANCH  28  29
ATOM     29  C   UNL     1      15.888 -24.242 -18.304  1.00  0.00    -0.003 C 
ATOM     30  C   UNL     1      16.779 -23.072 -18.708  1.00  0.00     0.004 C 
ENDBRANCH  28  29
ENDBRANCH  27  28
ENDBRANCH  26  27
ENDBRANCH  25  26
ENDBRANCH  24  25
ENDBRANCH  23  24
ENDBRANCH  22  23
ENDBRANCH  21  22
ENDBRANCH  20  21
ENDBRANCH  19  20
ENDBRANCH  18  19
ENDBRANCH  17  18
ENDBRANCH   1  17
TORSDOF 26
ENDMDL
MODEL 4
REMARK VINA RESULT:    -2.985      6.547     11.700
REMARK INTER + INTRA:          -9.117
REMARK INTER:                  -7.527
REMARK INTRA:                  -1.591
REMARK UNBOUND:                -1.595
REMARK SMILES CCCCCCCCCCCCCCCCCCCCCCCCCCCC(=O)[O-]
REMARK SMILES IDX 15 1 16 2 17 3 18 4 19 5 20 6 21 7 22 8 23 9 24 10 25 11
REMARK SMILES IDX 26 12 27 13 28 14 29 15 30 16 14 17 13 18 12 19 11 20 10 21
REMARK SMILES IDX 9 22 8 23 7 24 6 25 5 26 4 27 3 28 2 29 1 30
REMARK H PARENT
REMARK Flexibility Score: inf
ROOT
ATOM      1  C   UNL     1      12.507 -20.892 -14.673  1.00  0.00     0.000 C 
ENDROOT
BRANCH   1   2
ATOM      2  C   UNL     1      13.819 -21.685 -14.796  1.00  0.00     0.000 C 
BRANCH   2   3
ATOM      3  C   UNL     1      14.227 -21.934 -16.259  1.00  0.00     0.000 C 
BRANCH   3   4
ATOM      4  C   UNL     1      15.003 -23.249 -16.443  1.00  0.00     0.000 C 
BRANCH   4   5
ATOM      5  C   UNL     1      15.052 -23.705 -17.911  1.00  0.00     0.000 C 
BRANCH   5   6
ATOM      6  C   UNL     1      15.918 -22.788 -18.796  1.00  0.00     0.000 C 
BRANCH   6   7
ATOM      7  C   UNL     1      17.362 -23.272 -19.018  1.00  0.00     0.000 C 
BRANCH   7   8
ATOM      8  C   UNL     1      18.202 -22.286 -19.845  1.00  0.00     0.000 C 
BRANCH   8   9
ATOM      9  C   UNL     1      19.674 -22.717 -19.976  1.00  0.00     0.000 C 
BRANCH   9  10
ATOM     10  C   UNL     1      20.599 -22.222 -18.849  1.00  0.00     0.000 C 
BRANCH  10  11
ATOM     11  C   UNL     1      21.312 -20.902 -19.193  1.00  0.00     0.000 C 
BRANCH  11  12
ATOM     12  C   UNL     1      20.764 -19.712 -18.389  1.00  0.00     0.006 C 
BRANCH  12  13
ATOM     13  C   UNL     1      21.425 -19.577 -17.009  1.00  0.00     0.053 C 
BRANCH  13  14
ATOM     14  C   UNL     1      22.531 -18.570 -17.056  1.00  0.00     0.041 C 
ATOM     15  O   UNL     1      23.726 -18.933 -16.888  1.00  0.00    -0.550 OA
ATOM     16  O   UNL     1      22.249 -17.239 -17.334  1.00  0.00    -0.550 OA
ENDBRANCH  13  14
ENDBRANCH  12  13
ENDBRANCH  11  12
ENDBRANCH  10  11
ENDBRANCH   9  10
ENDBRANCH   8   9
ENDBRANCH   7   8
ENDBRANCH   6   7
ENDBRANCH   5   6
ENDBRANCH   4   5
ENDBRANCH   3   4
ENDBRANCH   2   3
ENDBRANCH   1   2
BRANCH   1  17
ATOM     17  C   UNL     1      11.627 -20.875 -15.943  1.00  0.00     0.000 C 
BRANCH  17  18
ATOM     18  C   UNL     1      10.245 -20.202 -15.791  1.00  0.00     0.000 C 
BRANCH  18  19
ATOM     19  C   UNL     1       9.040 -21.151 -15.977  1.00  0.00     0.000 C 
BRANCH  19  20
ATOM     20  C   UNL     1       7.789 -20.736 -15.183  1.00  0.00     0.000 C 
BRANCH  20  21
ATOM     21  C   UNL     1       6.621 -20.303 -16.085  1.00  0.00     0.000 C 
BRANCH  21  22
ATOM     22  C   UNL     1       5.700 -19.275 -15.409  1.00  0.00    -0.000 C 
BRANCH  22  23
ATOM     23  C   UNL     1       5.951 -17.842 -15.906  1.00  0.00    -0.000 C 
BRANCH  23  24
ATOM     24  C   UNL     1       5.076 -17.465 -17.123  1.00  0.00    -0.000 C 
BRANCH  24  25
ATOM     25  C   UNL     1       5.582 -16.232 -17.893  1.00  0.00    -0.000 C 
BRANCH  25  26
ATOM     26  C   UNL     1       5.746 -16.443 -19.409  1.00  0.00    -0.000 C 
BRANCH  26  27
ATOM     27  C   UNL     1       4.996 -17.682 -19.948  1.00  0.00    -0.000 C 
BRANCH  27  28
ATOM     28  C   UNL     1       5.946 -18.780 -20.447  1.00  0.00    -0.000 C 
BRANCH  28  29
ATOM     29  C   UNL     1       5.773 -20.069 -19.635  1.00  0.00    -0.003 C 
ATOM     30  C   UNL     1       6.489 -21.239 -20.302  1.00  0.00     0.004 C 
ENDBRANCH  28  29
ENDBRANCH  27  28
ENDBRANCH  26  27
ENDBRANCH  25  26
ENDBRANCH  24  25
ENDBRANCH  23  24
ENDBRANCH  22  23
ENDBRANCH  21  22
ENDBRANCH  20  21
ENDBRANCH  19  20
ENDBRANCH  18  19
ENDBRANCH  17  18
ENDBRANCH   1  17
TORSDOF 26
ENDMDL
MODEL 5
REMARK VINA RESULT:    -2.865      6.285     11.594
REMARK INTER + INTRA:          -8.816
REMARK INTER:                  -7.528
REMARK INTRA:                  -1.288
REMARK UNBOUND:                -1.595
REMARK SMILES CCCCCCCCCCCCCCCCCCCCCCCCCCCC(=O)[O-]
REMARK SMILES IDX 15 1 16 2 17 3 18 4 19 5 20 6 21 7 22 8 23 9 24 10 25 11
REMARK SMILES IDX 26 12 27 13 28 14 29 15 30 16 14 17 13 18 12 19 11 20 10 21
REMARK SMILES IDX 9 22 8 23 7 24 6 25 5 26 4 27 3 28 2 29 1 30
REMARK H PARENT
REMARK Flexibility Score: inf
ROOT
ATOM      1  C   UNL     1      12.595 -20.954 -14.712  1.00  0.00     0.000 C 
ENDROOT
BRANCH   1   2
ATOM      2  C   UNL     1      13.916 -21.729 -14.849  1.00  0.00     0.000 C 
BRANCH   2   3
ATOM      3  C   UNL     1      14.289 -22.012 -16.316  1.00  0.00     0.000 C 
BRANCH   3   4
ATOM      4  C   UNL     1      14.982 -23.372 -16.499  1.00  0.00     0.000 C 
BRANCH   4   5
ATOM      5  C   UNL     1      14.987 -23.838 -17.966  1.00  0.00     0.000 C 
BRANCH   5   6
ATOM      6  C   UNL     1      16.133 -23.218 -18.788  1.00  0.00     0.000 C 
BRANCH   6   7
ATOM      7  C   UNL     1      17.513 -23.864 -18.573  1.00  0.00     0.000 C 
BRANCH   7   8
ATOM      8  C   UNL     1      18.222 -24.212 -19.892  1.00  0.00     0.000 C 
BRANCH   8   9
ATOM      9  C   UNL     1      19.338 -23.215 -20.251  1.00  0.00     0.000 C 
BRANCH   9  10
ATOM     10  C   UNL     1      19.371 -21.937 -19.392  1.00  0.00     0.000 C 
BRANCH  10  11
ATOM     11  C   UNL     1      20.710 -21.739 -18.661  1.00  0.00     0.000 C 
BRANCH  11  12
ATOM     12  C   UNL     1      21.193 -20.280 -18.705  1.00  0.00     0.006 C 
BRANCH  12  13
ATOM     13  C   UNL     1      21.424 -19.692 -17.304  1.00  0.00     0.053 C 
BRANCH  13  14
ATOM     14  C   UNL     1      22.648 -18.832 -17.295  1.00  0.00     0.041 C 
ATOM     15  O   UNL     1      22.586 -17.644 -16.879  1.00  0.00    -0.550 OA
ATOM     16  O   UNL     1      23.869 -19.355 -17.700  1.00  0.00    -0.550 OA
ENDBRANCH  13  14
ENDBRANCH  12  13
ENDBRANCH  11  12
ENDBRANCH  10  11
ENDBRANCH   9  10
ENDBRANCH   8   9
ENDBRANCH   7   8
ENDBRANCH   6   7
ENDBRANCH   5   6
ENDBRANCH   4   5
ENDBRANCH   3   4
ENDBRANCH   2   3
ENDBRANCH   1   2
BRANCH   1  17
ATOM     17  C   UNL     1      11.693 -20.964 -15.966  1.00  0.00     0.000 C 
BRANCH  17  18
ATOM     18  C   UNL     1      10.391 -20.140 -15.861  1.00  0.00     0.000 C 
BRANCH  18  19
ATOM     19  C   UNL     1       9.091 -20.976 -15.910  1.00  0.00     0.000 C 
BRANCH  19  20
ATOM     20  C   UNL     1       7.815 -20.163 -15.628  1.00  0.00     0.000 C 
BRANCH  20  21
ATOM     21  C   UNL     1       6.527 -20.965 -15.873  1.00  0.00     0.000 C 
BRANCH  21  22
ATOM     22  C   UNL     1       5.944 -20.735 -17.277  1.00  0.00    -0.000 C 
BRANCH  22  23
ATOM     23  C   UNL     1       6.498 -21.725 -18.315  1.00  0.00    -0.000 C 
BRANCH  23  24
ATOM     24  C   UNL     1       6.550 -21.133 -19.742  1.00  0.00    -0.000 C 
BRANCH  24  25
ATOM     25  C   UNL     1       5.454 -20.089 -20.021  1.00  0.00    -0.000 C 
BRANCH  25  26
ATOM     26  C   UNL     1       5.910 -18.889 -20.870  1.00  0.00    -0.000 C 
BRANCH  26  27
ATOM     27  C   UNL     1       5.498 -17.521 -20.280  1.00  0.00    -0.000 C 
BRANCH  27  28
ATOM     28  C   UNL     1       6.520 -16.414 -20.580  1.00  0.00    -0.000 C 
BRANCH  28  29
ATOM     29  C   UNL     1       6.477 -15.319 -19.508  1.00  0.00    -0.003 C 
ATOM     30  C   UNL     1       5.541 -15.705 -18.366  1.00  0.00     0.004 C 
ENDBRANCH  28  29
ENDBRANCH  27  28
ENDBRANCH  26  27
ENDBRANCH  25  26
ENDBRANCH  24  25
ENDBRANCH  23  24
ENDBRANCH  22  23
ENDBRANCH  21  22
ENDBRANCH  20  21
ENDBRANCH  19  20
ENDBRANCH  18  19
ENDBRANCH  17  18
ENDBRANCH   1  17
TORSDOF 26
ENDMDL
MODEL 6
REMARK VINA RESULT:    -2.780      1.871      6.344
REMARK INTER + INTRA:          -8.600
REMARK INTER:                  -6.475
REMARK INTRA:                  -2.125
REMARK UNBOUND:                -1.595
REMARK SMILES CCCCCCCCCCCCCCCCCCCCCCCCCCCC(=O)[O-]
REMARK SMILES IDX 15 1 16 2 17 3 18 4 19 5 20 6 21 7 22 8 23 9 24 10 25 11
REMARK SMILES IDX 26 12 27 13 28 14 29 15 30 16 14 17 13 18 12 19 11 20 10 21
REMARK SMILES IDX 9 22 8 23 7 24 6 25 5 26 4 27 3 28 2 29 1 30
REMARK H PARENT
REMARK Flexibility Score: inf
ROOT
ATOM      1  C   UNL     1      16.139 -14.689 -16.648  1.00  0.00     0.000 C 
ENDROOT
BRANCH   1   2
ATOM      2  C   UNL     1      15.511 -15.607 -17.711  1.00  0.00     0.000 C 
BRANCH   2   3
ATOM      3  C   UNL     1      16.020 -15.305 -19.131  1.00  0.00     0.000 C 
BRANCH   3   4
ATOM      4  C   UNL     1      14.887 -15.263 -20.170  1.00  0.00     0.000 C 
BRANCH   4   5
ATOM      5  C   UNL     1      14.876 -16.502 -21.081  1.00  0.00     0.000 C 
BRANCH   5   6
ATOM      6  C   UNL     1      15.747 -17.652 -20.541  1.00  0.00     0.000 C 
BRANCH   6   7
ATOM      7  C   UNL     1      15.421 -19.042 -21.116  1.00  0.00     0.000 C 
BRANCH   7   8
ATOM      8  C   UNL     1      14.015 -19.532 -20.734  1.00  0.00     0.000 C 
BRANCH   8   9
ATOM      9  C   UNL     1      13.895 -21.067 -20.741  1.00  0.00     0.000 C 
BRANCH   9  10
ATOM     10  C   UNL     1      13.873 -21.725 -19.349  1.00  0.00     0.000 C 
BRANCH  10  11
ATOM     11  C   UNL     1      13.899 -23.262 -19.410  1.00  0.00     0.000 C 
BRANCH  11  12
ATOM     12  C   UNL     1      14.773 -23.880 -18.306  1.00  0.00     0.006 C 
BRANCH  12  13
ATOM     13  C   UNL     1      16.082 -23.107 -18.086  1.00  0.00     0.053 C 
BRANCH  13  14
ATOM     14  C   UNL     1      17.083 -23.466 -19.138  1.00  0.00     0.041 C 
ATOM     15  O   UNL     1      17.833 -24.467 -18.984  1.00  0.00    -0.550 OA
ATOM     16  O   UNL     1      17.156 -22.726 -20.311  1.00  0.00    -0.550 OA
ENDBRANCH  13  14
ENDBRANCH  12  13
ENDBRANCH  11  12
ENDBRANCH  10  11
ENDBRANCH   9  10
ENDBRANCH   8   9
ENDBRANCH   7   8
ENDBRANCH   6   7
ENDBRANCH   5   6
ENDBRANCH   4   5
ENDBRANCH   3   4
ENDBRANCH   2   3
ENDBRANCH   1   2
BRANCH   1  17
ATOM     17  C   UNL     1      17.678 -14.765 -16.539  1.00  0.00     0.000 C 
BRANCH  17  18
ATOM     18  C   UNL     1      18.237 -16.007 -15.810  1.00  0.00     0.000 C 
BRANCH  18  19
ATOM     19  C   UNL     1      19.740 -16.274 -16.048  1.00  0.00     0.000 C 
BRANCH  19  20
ATOM     20  C   UNL     1      20.599 -14.999 -16.113  1.00  0.00     0.000 C 
BRANCH  20  21
ATOM     21  C   UNL     1      22.004 -15.250 -16.684  1.00  0.00     0.000 C 
BRANCH  21  22
ATOM     22  C   UNL     1      22.197 -16.695 -17.172  1.00  0.00    -0.000 C 
BRANCH  22  23
ATOM     23  C   UNL     1      23.673 -17.036 -17.438  1.00  0.00    -0.000 C 
BRANCH  23  24
ATOM     24  C   UNL     1      23.972 -17.291 -18.932  1.00  0.00    -0.000 C 
BRANCH  24  25
ATOM     25  C   UNL     1      24.638 -18.650 -19.208  1.00  0.00    -0.000 C 
BRANCH  25  26
ATOM     26  C   UNL     1      23.981 -19.846 -18.496  1.00  0.00    -0.000 C 
BRANCH  26  27
ATOM     27  C   UNL     1      22.750 -20.410 -19.241  1.00  0.00    -0.000 C 
BRANCH  27  28
ATOM     28  C   UNL     1      21.421 -19.972 -18.608  1.00  0.00    -0.000 C 
BRANCH  28  29
ATOM     29  C   UNL     1      20.289 -20.936 -18.981  1.00  0.00    -0.003 C 
ATOM     30  C   UNL     1      20.830 -22.329 -19.284  1.00  0.00     0.004 C 
ENDBRANCH  28  29
ENDBRANCH  27  28
ENDBRANCH  26  27
ENDBRANCH  25  26
ENDBRANCH  24  25
ENDBRANCH  23  24
ENDBRANCH  22  23
ENDBRANCH  21  22
ENDBRANCH  20  21
ENDBRANCH  19  20
ENDBRANCH  18  19
ENDBRANCH  17  18
ENDBRANCH   1  17
TORSDOF 26
ENDMDL
MODEL 7
REMARK VINA RESULT:    -2.602      5.449     10.864
REMARK INTER + INTRA:          -8.153
REMARK INTER:                  -6.442
REMARK INTRA:                  -1.711
REMARK UNBOUND:                -1.595
REMARK SMILES CCCCCCCCCCCCCCCCCCCCCCCCCCCC(=O)[O-]
REMARK SMILES IDX 15 1 16 2 17 3 18 4 19 5 20 6 21 7 22 8 23 9 24 10 25 11
REMARK SMILES IDX 26 12 27 13 28 14 29 15 30 16 14 17 13 18 12 19 11 20 10 21
REMARK SMILES IDX 9 22 8 23 7 24 6 25 5 26 4 27 3 28 2 29 1 30
REMARK H PARENT
REMARK Flexibility Score: inf
ROOT
ATOM      1  C   UNL     1      14.624 -22.300 -16.821  1.00  0.00     0.000 C 
ENDROOT
BRANCH   1   2
ATOM      2  C   UNL     1      15.059 -23.665 -17.382  1.00  0.00     0.000 C 
BRANCH   2   3
ATOM      3  C   UNL     1      14.349 -24.019 -18.701  1.00  0.00     0.000 C 
BRANCH   3   4
ATOM      4  C   UNL     1      15.129 -25.047 -19.537  1.00  0.00     0.000 C 
BRANCH   4   5
ATOM      5  C   UNL     1      16.169 -24.388 -20.460  1.00  0.00     0.000 C 
BRANCH   5   6
ATOM      6  C   UNL     1      15.777 -22.960 -20.883  1.00  0.00     0.000 C 
BRANCH   6   7
ATOM      7  C   UNL     1      16.715 -21.850 -20.375  1.00  0.00     0.000 C 
BRANCH   7   8
ATOM      8  C   UNL     1      18.201 -22.219 -20.501  1.00  0.00     0.000 C 
BRANCH   8   9
ATOM      9  C   UNL     1      18.803 -22.734 -19.181  1.00  0.00     0.000 C 
BRANCH   9  10
ATOM     10  C   UNL     1      20.240 -22.260 -18.892  1.00  0.00     0.000 C 
BRANCH  10  11
ATOM     11  C   UNL     1      20.356 -20.730 -18.782  1.00  0.00     0.000 C 
BRANCH  11  12
ATOM     12  C   UNL     1      21.790 -20.270 -18.472  1.00  0.00     0.006 C 
BRANCH  12  13
ATOM     13  C   UNL     1      21.940 -19.725 -17.044  1.00  0.00     0.053 C 
BRANCH  13  14
ATOM     14  C   UNL     1      21.705 -18.248 -17.022  1.00  0.00     0.041 C 
ATOM     15  O   UNL     1      20.548 -17.793 -16.818  1.00  0.00    -0.550 OA
ATOM     16  O   UNL     1      22.771 -17.371 -17.178  1.00  0.00    -0.550 OA
ENDBRANCH  13  14
ENDBRANCH  12  13
ENDBRANCH  11  12
ENDBRANCH  10  11
ENDBRANCH   9  10
ENDBRANCH   8   9
ENDBRANCH   7   8
ENDBRANCH   6   7
ENDBRANCH   5   6
ENDBRANCH   4   5
ENDBRANCH   3   4
ENDBRANCH   2   3
ENDBRANCH   1   2
BRANCH   1  17
ATOM     17  C   UNL     1      14.459 -22.242 -15.287  1.00  0.00     0.000 C 
BRANCH  17  18
ATOM     18  C   UNL     1      13.334 -21.319 -14.769  1.00  0.00     0.000 C 
BRANCH  18  19
ATOM     19  C   UNL     1      12.258 -20.960 -15.818  1.00  0.00     0.000 C 
BRANCH  19  20
ATOM     20  C   UNL     1      10.913 -20.523 -15.210  1.00  0.00     0.000 C 
BRANCH  20  21
ATOM     21  C   UNL     1       9.752 -20.580 -16.216  1.00  0.00     0.000 C 
BRANCH  21  22
ATOM     22  C   UNL     1       8.513 -21.291 -15.650  1.00  0.00    -0.000 C 
BRANCH  22  23
ATOM     23  C   UNL     1       7.300 -20.354 -15.528  1.00  0.00    -0.000 C 
BRANCH  23  24
ATOM     24  C   UNL     1       6.234 -20.603 -16.618  1.00  0.00    -0.000 C 
BRANCH  24  25
ATOM     25  C   UNL     1       6.700 -21.555 -17.734  1.00  0.00    -0.000 C 
BRANCH  25  26
ATOM     26  C   UNL     1       5.586 -22.424 -18.346  1.00  0.00    -0.000 C 
BRANCH  26  27
ATOM     27  C   UNL     1       5.619 -22.478 -19.890  1.00  0.00    -0.000 C 
BRANCH  27  28
ATOM     28  C   UNL     1       6.252 -21.225 -20.514  1.00  0.00    -0.000 C 
BRANCH  28  29
ATOM     29  C   UNL     1       5.192 -20.153 -20.792  1.00  0.00    -0.003 C 
ATOM     30  C   UNL     1       5.575 -18.822 -20.152  1.00  0.00     0.004 C 
ENDBRANCH  28  29
ENDBRANCH  27  28
ENDBRANCH  26  27
ENDBRANCH  25  26
ENDBRANCH  24  25
ENDBRANCH  23  24
ENDBRANCH  22  23
ENDBRANCH  21  22
ENDBRANCH  20  21
ENDBRANCH  19  20
ENDBRANCH  18  19
ENDBRANCH  17  18
ENDBRANCH   1  17
TORSDOF 26
ENDMDL
MODEL 8
REMARK VINA RESULT:    -2.602      1.907      6.385
REMARK INTER + INTRA:          -8.151
REMARK INTER:                  -5.743
REMARK INTRA:                  -2.409
REMARK UNBOUND:                -1.595
REMARK SMILES CCCCCCCCCCCCCCCCCCCCCCCCCCCC(=O)[O-]
REMARK SMILES IDX 15 1 16 2 17 3 18 4 19 5 20 6 21 7 22 8 23 9 24 10 25 11
REMARK SMILES IDX 26 12 27 13 28 14 29 15 30 16 14 17 13 18 12 19 11 20 10 21
REMARK SMILES IDX 9 22 8 23 7 24 6 25 5 26 4 27 3 28 2 29 1 30
REMARK H PARENT
REMARK Flexibility Score: inf
ROOT
ATOM      1  C   UNL     1      20.260 -16.283 -16.261  1.00  0.00     0.000 C 
ENDROOT
BRANCH   1   2
ATOM      2  C   UNL     1      18.813 -16.091 -15.772  1.00  0.00     0.000 C 
BRANCH   2   3
ATOM      3  C   UNL     1      18.270 -14.681 -16.064  1.00  0.00     0.000 C 
BRANCH   3   4
ATOM      4  C   UNL     1      16.744 -14.660 -16.251  1.00  0.00     0.000 C 
BRANCH   4   5
ATOM      5  C   UNL     1      16.268 -15.656 -17.323  1.00  0.00     0.000 C 
BRANCH   5   6
ATOM      6  C   UNL     1      15.504 -14.977 -18.475  1.00  0.00     0.000 C 
BRANCH   6   7
ATOM      7  C   UNL     1      15.932 -15.415 -19.887  1.00  0.00     0.000 C 
BRANCH   7   8
ATOM      8  C   UNL     1      14.755 -15.481 -20.874  1.00  0.00     0.000 C 
BRANCH   8   9
ATOM      9  C   UNL     1      14.265 -16.918 -21.125  1.00  0.00     0.000 C 
BRANCH   9  10
ATOM     10  C   UNL     1      15.319 -18.016 -20.886  1.00  0.00     0.000 C 
BRANCH  10  11
ATOM     11  C   UNL     1      14.746 -19.438 -21.020  1.00  0.00     0.000 C 
BRANCH  11  12
ATOM     12  C   UNL     1      15.834 -20.521 -20.933  1.00  0.00     0.006 C 
BRANCH  12  13
ATOM     13  C   UNL     1      15.687 -21.407 -19.687  1.00  0.00     0.053 C 
BRANCH  13  14
ATOM     14  C   UNL     1      14.648 -22.459 -19.915  1.00  0.00     0.041 C 
ATOM     15  O   UNL     1      13.781 -22.696 -19.032  1.00  0.00    -0.550 OA
ATOM     16  O   UNL     1      14.604 -23.144 -21.123  1.00  0.00    -0.550 OA
ENDBRANCH  13  14
ENDBRANCH  12  13
ENDBRANCH  11  12
ENDBRANCH  10  11
ENDBRANCH   9  10
ENDBRANCH   8   9
ENDBRANCH   7   8
ENDBRANCH   6   7
ENDBRANCH   5   6
ENDBRANCH   4   5
ENDBRANCH   3   4
ENDBRANCH   2   3
ENDBRANCH   1   2
BRANCH   1  17
ATOM     17  C   UNL     1      21.114 -14.997 -16.305  1.00  0.00     0.000 C 
BRANCH  17  18
ATOM     18  C   UNL     1      22.582 -15.184 -16.747  1.00  0.00     0.000 C 
BRANCH  18  19
ATOM     19  C   UNL     1      23.378 -16.223 -15.924  1.00  0.00     0.000 C 
BRANCH  19  20
ATOM     20  C   UNL     1      24.859 -16.337 -16.326  1.00  0.00     0.000 C 
BRANCH  20  21
ATOM     21  C   UNL     1      25.122 -15.911 -17.779  1.00  0.00     0.000 C 
BRANCH  21  22
ATOM     22  C   UNL     1      25.110 -17.097 -18.756  1.00  0.00    -0.000 C 
BRANCH  22  23
ATOM     23  C   UNL     1      23.689 -17.472 -19.212  1.00  0.00    -0.000 C 
BRANCH  23  24
ATOM     24  C   UNL     1      23.265 -18.887 -18.757  1.00  0.00    -0.000 C 
BRANCH  24  25
ATOM     25  C   UNL     1      21.835 -18.953 -18.193  1.00  0.00    -0.000 C 
BRANCH  25  26
ATOM     26  C   UNL     1      20.952 -20.056 -18.804  1.00  0.00    -0.000 C 
BRANCH  26  27
ATOM     27  C   UNL     1      21.720 -21.018 -19.739  1.00  0.00    -0.000 C 
BRANCH  27  28
ATOM     28  C   UNL     1      21.116 -22.429 -19.764  1.00  0.00    -0.000 C 
BRANCH  28  29
ATOM     29  C   UNL     1      19.888 -22.519 -18.850  1.00  0.00    -0.003 C 
ATOM     30  C   UNL     1      18.720 -23.191 -19.564  1.00  0.00     0.004 C 
ENDBRANCH  28  29
ENDBRANCH  27  28
ENDBRANCH  26  27
ENDBRANCH  25  26
ENDBRANCH  24  25
ENDBRANCH  23  24
ENDBRANCH  22  23
ENDBRANCH  21  22
ENDBRANCH  20  21
ENDBRANCH  19  20
ENDBRANCH  18  19
ENDBRANCH  17  18
ENDBRANCH   1  17
TORSDOF 26
ENDMDL
MODEL 9
REMARK VINA RESULT:    -2.552      2.118      6.284
REMARK INTER + INTRA:          -8.026
REMARK INTER:                  -5.645
REMARK INTRA:                  -2.381
REMARK UNBOUND:                -1.595
REMARK SMILES CCCCCCCCCCCCCCCCCCCCCCCCCCCC(=O)[O-]
REMARK SMILES IDX 15 1 16 2 17 3 18 4 19 5 20 6 21 7 22 8 23 9 24 10 25 11
REMARK SMILES IDX 26 12 27 13 28 14 29 15 30 16 14 17 13 18 12 19 11 20 10 21
REMARK SMILES IDX 9 22 8 23 7 24 6 25 5 26 4 27 3 28 2 29 1 30
REMARK H PARENT
REMARK Flexibility Score: inf
ROOT
ATOM      1  C   UNL     1      17.114 -14.324 -15.854  1.00  0.00     0.000 C 
ENDROOT
BRANCH   1   2
ATOM      2  C   UNL     1      16.228 -15.510 -16.270  1.00  0.00     0.000 C 
BRANCH   2   3
ATOM      3  C   UNL     1      16.279 -15.787 -17.783  1.00  0.00     0.000 C 
BRANCH   3   4
ATOM      4  C   UNL     1      15.399 -14.820 -18.593  1.00  0.00     0.000 C 
BRANCH   4   5
ATOM      5  C   UNL     1      14.766 -15.489 -19.825  1.00  0.00     0.000 C 
BRANCH   5   6
ATOM      6  C   UNL     1      15.810 -16.098 -20.780  1.00  0.00     0.000 C 
BRANCH   6   7
ATOM      7  C   UNL     1      15.689 -17.618 -20.994  1.00  0.00     0.000 C 
BRANCH   7   8
ATOM      8  C   UNL     1      14.232 -18.088 -21.125  1.00  0.00     0.000 C 
BRANCH   8   9
ATOM      9  C   UNL     1      14.060 -19.590 -20.834  1.00  0.00     0.000 C 
BRANCH   9  10
ATOM     10  C   UNL     1      15.316 -20.448 -21.080  1.00  0.00     0.000 C 
BRANCH  10  11
ATOM     11  C   UNL     1      15.028 -21.959 -21.040  1.00  0.00     0.000 C 
BRANCH  11  12
ATOM     12  C   UNL     1      16.146 -22.752 -20.342  1.00  0.00     0.006 C 
BRANCH  12  13
ATOM     13  C   UNL     1      15.605 -23.903 -19.482  1.00  0.00     0.053 C 
BRANCH  13  14
ATOM     14  C   UNL     1      15.348 -23.434 -18.085  1.00  0.00     0.041 C 
ATOM     15  O   UNL     1      16.019 -23.899 -17.125  1.00  0.00    -0.550 OA
ATOM     16  O   UNL     1      14.401 -22.446 -17.845  1.00  0.00    -0.550 OA
ENDBRANCH  13  14
ENDBRANCH  12  13
ENDBRANCH  11  12
ENDBRANCH  10  11
ENDBRANCH   9  10
ENDBRANCH   8   9
ENDBRANCH   7   8
ENDBRANCH   6   7
ENDBRANCH   5   6
ENDBRANCH   4   5
ENDBRANCH   3   4
ENDBRANCH   2   3
ENDBRANCH   1   2
BRANCH   1  17
ATOM     17  C   UNL     1      18.635 -14.584 -15.921  1.00  0.00     0.000 C 
BRANCH  17  18
ATOM     18  C   UNL     1      19.061 -16.069 -15.933  1.00  0.00     0.000 C 
BRANCH  18  19
ATOM     19  C   UNL     1      20.428 -16.345 -16.599  1.00  0.00     0.000 C 
BRANCH  19  20
ATOM     20  C   UNL     1      21.560 -15.425 -16.107  1.00  0.00     0.000 C 
BRANCH  20  21
ATOM     21  C   UNL     1      22.812 -15.485 -16.997  1.00  0.00     0.000 C 
BRANCH  21  22
ATOM     22  C   UNL     1      22.839 -16.729 -17.898  1.00  0.00    -0.000 C 
BRANCH  22  23
ATOM     23  C   UNL     1      23.619 -17.896 -17.269  1.00  0.00    -0.000 C 
BRANCH  23  24
ATOM     24  C   UNL     1      22.738 -19.139 -17.009  1.00  0.00    -0.000 C 
BRANCH  24  25
ATOM     25  C   UNL     1      22.335 -19.892 -18.289  1.00  0.00    -0.000 C 
BRANCH  25  26
ATOM     26  C   UNL     1      21.087 -20.782 -18.147  1.00  0.00    -0.000 C 
BRANCH  26  27
ATOM     27  C   UNL     1      20.934 -21.821 -19.281  1.00  0.00    -0.000 C 
BRANCH  27  28
ATOM     28  C   UNL     1      19.519 -21.843 -19.877  1.00  0.00    -0.000 C 
BRANCH  28  29
ATOM     29  C   UNL     1      19.425 -20.931 -21.107  1.00  0.00    -0.003 C 
ATOM     30  C   UNL     1      18.903 -19.549 -20.727  1.00  0.00     0.004 C 
ENDBRANCH  28  29
ENDBRANCH  27  28
ENDBRANCH  26  27
ENDBRANCH  25  26
ENDBRANCH  24  25
ENDBRANCH  23  24
ENDBRANCH  22  23
ENDBRANCH  21  22
ENDBRANCH  20  21
ENDBRANCH  19  20
ENDBRANCH  18  19
ENDBRANCH  17  18
ENDBRANCH   1  17
TORSDOF 26
ENDMDL
