MODEL 1
REMARK VINA RESULT:    61.665      0.000      0.000
REMARK INTER + INTRA:          84.245
REMARK INTER:                  81.493
REMARK INTRA:                   2.753
REMARK UNBOUND:                 2.753
REMARK SMILES CC[C@@H](C=C[C@@H](C)[C@H]1CC[C@H]2C3=CC[C@H]4C[C@H](O)CC[C@@]4(C)[C@H]3CC[C@@]12C)C(C)C
REMARK SMILES IDX 6 1 7 2 5 3 4 4 3 5 2 6 1 7 28 8 29 9 30 10 8 11 9 12 26 13
REMARK SMILES IDX 10 14 11 15 25 16 27 17 12 18 24 19 23 20 13 21 21 22 14 23
REMARK SMILES IDX 15 24 20 25 22 26 16 27 19 28 17 29 18 30
REMARK H PARENT 18 31
REMARK Flexibility Score: inf
ROOT
ATOM      1  C   UNL     1     -37.716  22.627   6.777  1.00  0.00     0.012 C 
ATOM      2  C   UNL     1     -38.029  21.956   8.122  1.00  0.00     0.012 C 
ENDROOT
BRANCH   1   3
ATOM      3  C   UNL     1     -36.275  23.104   6.766  1.00  0.00    -0.028 C 
ATOM      4  C   UNL     1     -35.932  24.379   7.048  1.00  0.00    -0.027 C 
BRANCH   4   5
ATOM      5  C   UNL     1     -34.521  24.972   7.018  1.00  0.00     0.014 C 
BRANCH   5   6
ATOM      6  C   UNL     1     -34.604  26.391   7.650  1.00  0.00     0.004 C 
ATOM      7  C   UNL     1     -34.458  27.544   6.662  1.00  0.00     0.004 C 
ENDBRANCH   5   6
BRANCH   5   8
ATOM      8  C   UNL     1     -33.805  24.900   5.620  1.00  0.00    -0.011 C 
ATOM      9  C   UNL     1     -34.636  24.170   4.545  1.00  0.00     0.008 C 
ATOM     10  C   UNL     1     -33.335  26.273   5.105  1.00  0.00     0.008 C 
ENDBRANCH   5   8
ENDBRANCH   4   5
ENDBRANCH   1   3
BRANCH   1  11
ATOM     11  C   UNL     1     -38.691  23.801   6.407  1.00  0.00     0.002 C 
ATOM     12  C   UNL     1     -38.216  25.131   7.009  1.00  0.00     0.005 C 
ATOM     13  C   UNL     1     -38.985  24.114   4.897  1.00  0.00    -0.023 C 
ATOM     14  C   UNL     1     -38.675  26.240   6.076  1.00  0.00     0.009 C 
ATOM     15  C   UNL     1     -39.500  25.573   4.968  1.00  0.00     0.021 C 
ATOM     16  C   UNL     1     -37.697  23.995   4.002  1.00  0.00     0.008 C 
ATOM     17  C   UNL     1     -40.119  23.189   4.374  1.00  0.00     0.012 C 
ATOM     18  C   UNL     1     -39.431  26.367   3.668  1.00  0.00    -0.067 C 
ATOM     19  C   UNL     1     -37.522  25.032   2.863  1.00  0.00     0.009 C 
ATOM     20  C   UNL     1     -38.827  25.722   2.428  1.00  0.00     0.021 C 
ATOM     21  C   UNL     1     -39.828  27.657   3.701  1.00  0.00    -0.027 C 
ATOM     22  C   UNL     1     -38.770  26.675   1.150  1.00  0.00    -0.023 C 
ATOM     23  C   UNL     1     -39.683  28.616   2.558  1.00  0.00     0.031 C 
ATOM     24  C   UNL     1     -38.624  28.181   1.531  1.00  0.00     0.002 C 
ATOM     25  C   UNL     1     -37.656  26.306   0.109  1.00  0.00     0.010 C 
ATOM     26  C   UNL     1     -40.124  26.504   0.397  1.00  0.00     0.012 C 
ATOM     27  C   UNL     1     -37.200  28.544   1.993  1.00  0.00     0.036 C 
ATOM     28  C   UNL     1     -36.224  26.775   0.455  1.00  0.00     0.032 C 
ATOM     29  C   UNL     1     -36.161  28.242   0.897  1.00  0.00     0.114 C 
BRANCH  29  30
ATOM     30  O   UNL     1     -36.357  29.082  -0.212  1.00  0.00    -0.393 OA
ATOM     31  H   UNL     1     -36.650  29.963   0.145  1.00  0.00     0.210 HD
ENDBRANCH  29  30
ENDBRANCH   1  11
TORSDOF 6
ENDMDL
