MODEL 1
REMARK VINA RESULT:    -7.360      0.000      0.000
REMARK INTER + INTRA:          -8.803
REMARK INTER:                  -9.080
REMARK INTRA:                   0.278
REMARK UNBOUND:                 0.278
REMARK SMILES Oc1cc(O)c2cc(O)c(-c3cc(O)c(O)c(O)c3)[o+]c2c1
REMARK SMILES IDX 10 1 20 2 21 3 22 4 2 5 3 6 4 7 6 8 7 9 8 10 11 11 12 12
REMARK SMILES IDX 13 13 19 14 15 15 17 16 14 17 16 19 18 21 9 23 1 25 5 27
REMARK H PARENT 14 18 16 20 18 22 9 24 1 26 5 28
REMARK Flexibility Score: inf
ROOT
ATOM      1  C   UNL     1      48.231 -28.354   3.562  1.00  0.00     0.402 A 
ATOM      2  O   UNL     1      47.302 -27.424   3.365  1.00  0.00    -0.202 OA
ATOM      3  C   UNL     1      46.600 -27.318   2.242  1.00  0.00     0.368 A 
ATOM      4  C   UNL     1      45.646 -26.304   2.128  1.00  0.00     0.162 A 
ATOM      5  C   UNL     1      44.896 -26.167   0.959  1.00  0.00     0.128 A 
ATOM      6  C   UNL     1      45.100 -27.053  -0.106  1.00  0.00     0.093 A 
ATOM      7  C   UNL     1      46.050 -28.078  -0.017  1.00  0.00     0.136 A 
ATOM      8  C   UNL     1      46.813 -28.221   1.171  1.00  0.00     0.125 A 
ATOM      9  C   UNL     1      47.776 -29.226   1.354  1.00  0.00     0.078 A 
ATOM     10  C   UNL     1      48.486 -29.306   2.556  1.00  0.00     0.223 A 
ENDROOT
BRANCH   1  11
ATOM     11  C   UNL     1      48.954 -28.362   4.854  1.00  0.00     0.091 A 
ATOM     12  C   UNL     1      49.430 -29.576   5.371  1.00  0.00     0.068 A 
ATOM     13  C   UNL     1      50.098 -29.617   6.599  1.00  0.00     0.162 A 
ATOM     14  C   UNL     1      49.125 -27.186   5.604  1.00  0.00     0.068 A 
ATOM     15  C   UNL     1      50.286 -28.434   7.335  1.00  0.00     0.200 A 
ATOM     16  C   UNL     1      49.792 -27.217   6.836  1.00  0.00     0.162 A 
BRANCH  13  17
ATOM     17  O   UNL     1      50.570 -30.841   7.070  1.00  0.00    -0.504 OA
ATOM     18  H   UNL     1      50.779 -30.997   8.050  1.00  0.00     0.293 HD
ENDBRANCH  13  17
BRANCH  15  19
ATOM     19  O   UNL     1      50.957 -28.482   8.558  1.00  0.00    -0.502 OA
ATOM     20  H   UNL     1      50.798 -27.799   9.289  1.00  0.00     0.293 HD
ENDBRANCH  15  19
BRANCH  16  21
ATOM     21  O   UNL     1      49.961 -26.042   7.569  1.00  0.00    -0.504 OA
ATOM     22  H   UNL     1      50.768 -25.445   7.436  1.00  0.00     0.293 HD
ENDBRANCH  16  21
ENDBRANCH   1  11
BRANCH  10  23
ATOM     23  O   UNL     1      49.407 -30.334   2.758  1.00  0.00    -0.500 OA
ATOM     24  H   UNL     1      50.170 -30.499   2.112  1.00  0.00     0.294 HD
ENDBRANCH  10  23
BRANCH   5  25
ATOM     25  O   UNL     1      43.950 -25.149   0.866  1.00  0.00    -0.507 OA
ATOM     26  H   UNL     1      43.313 -24.947   1.628  1.00  0.00     0.293 HD
ENDBRANCH   5  25
BRANCH   7  27
ATOM     27  O   UNL     1      46.196 -28.918  -1.125  1.00  0.00    -0.507 OA
ATOM     28  H   UNL     1      46.133 -29.924  -1.090  1.00  0.00     0.293 HD
ENDBRANCH   7  27
TORSDOF 7
ENDMDL
MODEL 2
REMARK VINA RESULT:    -7.160      0.091      1.796
REMARK INTER + INTRA:          -8.556
REMARK INTER:                  -8.824
REMARK INTRA:                   0.268
REMARK UNBOUND:                 0.278
REMARK SMILES Oc1cc(O)c2cc(O)c(-c3cc(O)c(O)c(O)c3)[o+]c2c1
REMARK SMILES IDX 10 1 20 2 21 3 22 4 2 5 3 6 4 7 6 8 7 9 8 10 11 11 12 12
REMARK SMILES IDX 13 13 19 14 15 15 17 16 14 17 16 19 18 21 9 23 1 25 5 27
REMARK H PARENT 14 18 16 20 18 22 9 24 1 26 5 28
REMARK Flexibility Score: inf
ROOT
ATOM      1  C   UNL     1      48.237 -28.429   3.607  1.00  0.00     0.402 A 
ATOM      2  O   UNL     1      47.319 -27.486   3.417  1.00  0.00    -0.202 OA
ATOM      3  C   UNL     1      46.637 -27.348   2.285  1.00  0.00     0.368 A 
ATOM      4  C   UNL     1      45.694 -26.323   2.179  1.00  0.00     0.162 A 
ATOM      5  C   UNL     1      44.965 -26.152   1.001  1.00  0.00     0.128 A 
ATOM      6  C   UNL     1      45.180 -27.014  -0.081  1.00  0.00     0.093 A 
ATOM      7  C   UNL     1      46.119 -28.049   0.000  1.00  0.00     0.136 A 
ATOM      8  C   UNL     1      46.861 -28.227   1.197  1.00  0.00     0.125 A 
ATOM      9  C   UNL     1      47.813 -29.244   1.372  1.00  0.00     0.078 A 
ATOM     10  C   UNL     1      48.501 -29.359   2.584  1.00  0.00     0.223 A 
ENDROOT
BRANCH   1  11
ATOM     11  C   UNL     1      48.937 -28.473   4.911  1.00  0.00     0.091 A 
ATOM     12  C   UNL     1      49.097 -27.289   5.649  1.00  0.00     0.068 A 
ATOM     13  C   UNL     1      49.772 -27.297   6.873  1.00  0.00     0.162 A 
ATOM     14  C   UNL     1      49.497 -29.665   5.402  1.00  0.00     0.068 A 
ATOM     15  C   UNL     1      50.311 -28.496   7.370  1.00  0.00     0.200 A 
ATOM     16  C   UNL     1      50.176 -29.680   6.628  1.00  0.00     0.162 A 
BRANCH  13  17
ATOM     17  O   UNL     1      49.895 -26.103   7.583  1.00  0.00    -0.504 OA
ATOM     18  H   UNL     1      50.247 -26.074   8.533  1.00  0.00     0.293 HD
ENDBRANCH  13  17
BRANCH  15  19
ATOM     19  O   UNL     1      50.980 -28.495   8.595  1.00  0.00    -0.502 OA
ATOM     20  H   UNL     1      50.487 -28.462   9.480  1.00  0.00     0.293 HD
ENDBRANCH  15  19
BRANCH  16  21
ATOM     21  O   UNL     1      50.722 -30.871   7.108  1.00  0.00    -0.504 OA
ATOM     22  H   UNL     1      51.714 -31.066   7.041  1.00  0.00     0.293 HD
ENDBRANCH  16  21
ENDBRANCH   1  11
BRANCH  10  23
ATOM     23  O   UNL     1      49.410 -30.399   2.777  1.00  0.00    -0.500 OA
ATOM     24  H   UNL     1      49.255 -31.320   2.383  1.00  0.00     0.294 HD
ENDBRANCH  10  23
BRANCH   5  25
ATOM     25  O   UNL     1      44.029 -25.124   0.916  1.00  0.00    -0.507 OA
ATOM     26  H   UNL     1      43.674 -24.662   1.745  1.00  0.00     0.293 HD
ENDBRANCH   5  25
BRANCH   7  27
ATOM     27  O   UNL     1      46.278 -28.864  -1.125  1.00  0.00    -0.507 OA
ATOM     28  H   UNL     1      46.904 -29.654  -1.173  1.00  0.00     0.293 HD
ENDBRANCH   7  27
TORSDOF 7
ENDMDL
MODEL 3
REMARK VINA RESULT:    -7.088      1.567      7.551
REMARK INTER + INTRA:          -8.468
REMARK INTER:                  -8.761
REMARK INTRA:                   0.294
REMARK UNBOUND:                 0.278
REMARK SMILES Oc1cc(O)c2cc(O)c(-c3cc(O)c(O)c(O)c3)[o+]c2c1
REMARK SMILES IDX 10 1 20 2 21 3 22 4 2 5 3 6 4 7 6 8 7 9 8 10 11 11 12 12
REMARK SMILES IDX 13 13 19 14 15 15 17 16 14 17 16 19 18 21 9 23 1 25 5 27
REMARK H PARENT 14 18 16 20 18 22 9 24 1 26 5 28
REMARK Flexibility Score: inf
ROOT
ATOM      1  C   UNL     1      48.803 -28.544   4.504  1.00  0.00     0.402 A 
ATOM      2  O   UNL     1      49.151 -29.810   4.712  1.00  0.00    -0.202 OA
ATOM      3  C   UNL     1      49.871 -30.208   5.754  1.00  0.00     0.368 A 
ATOM      4  C   UNL     1      50.190 -31.562   5.885  1.00  0.00     0.162 A 
ATOM      5  C   UNL     1      50.948 -32.008   6.969  1.00  0.00     0.128 A 
ATOM      6  C   UNL     1      51.392 -31.094   7.931  1.00  0.00     0.093 A 
ATOM      7  C   UNL     1      51.087 -29.732   7.823  1.00  0.00     0.136 A 
ATOM      8  C   UNL     1      50.314 -29.275   6.723  1.00  0.00     0.125 A 
ATOM      9  C   UNL     1      49.949 -27.931   6.541  1.00  0.00     0.078 A 
ATOM     10  C   UNL     1      49.181 -27.557   5.434  1.00  0.00     0.223 A 
ENDROOT
BRANCH   1  11
ATOM     11  C   UNL     1      48.006 -28.225   3.297  1.00  0.00     0.091 A 
ATOM     12  C   UNL     1      47.139 -27.121   3.315  1.00  0.00     0.068 A 
ATOM     13  C   UNL     1      46.359 -26.808   2.198  1.00  0.00     0.162 A 
ATOM     14  C   UNL     1      48.056 -29.036   2.151  1.00  0.00     0.068 A 
ATOM     15  C   UNL     1      46.428 -27.610   1.046  1.00  0.00     0.200 A 
ATOM     16  C   UNL     1      47.276 -28.729   1.027  1.00  0.00     0.162 A 
BRANCH  13  17
ATOM     17  O   UNL     1      45.521 -25.694   2.251  1.00  0.00    -0.504 OA
ATOM     18  H   UNL     1      45.882 -24.754   2.370  1.00  0.00     0.293 HD
ENDBRANCH  13  17
BRANCH  15  19
ATOM     19  O   UNL     1      45.649 -27.288  -0.066  1.00  0.00    -0.502 OA
ATOM     20  H   UNL     1      45.522 -27.929  -0.841  1.00  0.00     0.293 HD
ENDBRANCH  15  19
BRANCH  16  21
ATOM     21  O   UNL     1      47.339 -29.539  -0.107  1.00  0.00    -0.504 OA
ATOM     22  H   UNL     1      46.898 -30.450  -0.135  1.00  0.00     0.293 HD
ENDBRANCH  16  21
ENDBRANCH   1  11
BRANCH  10  23
ATOM     23  O   UNL     1      48.776 -26.232   5.278  1.00  0.00    -0.500 OA
ATOM     24  H   UNL     1      49.390 -25.531   4.879  1.00  0.00     0.294 HD
ENDBRANCH  10  23
BRANCH   5  25
ATOM     25  O   UNL     1      51.255 -33.362   7.081  1.00  0.00    -0.507 OA
ATOM     26  H   UNL     1      50.752 -34.065   6.549  1.00  0.00     0.293 HD
ENDBRANCH   5  25
BRANCH   7  27
ATOM     27  O   UNL     1      51.570 -28.882   8.822  1.00  0.00    -0.507 OA
ATOM     28  H   UNL     1      51.008 -28.500   9.567  1.00  0.00     0.293 HD
ENDBRANCH   7  27
TORSDOF 7
ENDMDL
MODEL 4
REMARK VINA RESULT:    -7.060      1.402      6.947
REMARK INTER + INTRA:          -8.433
REMARK INTER:                  -8.364
REMARK INTRA:                  -0.069
REMARK UNBOUND:                 0.278
REMARK SMILES Oc1cc(O)c2cc(O)c(-c3cc(O)c(O)c(O)c3)[o+]c2c1
REMARK SMILES IDX 10 1 20 2 21 3 22 4 2 5 3 6 4 7 6 8 7 9 8 10 11 11 12 12
REMARK SMILES IDX 13 13 19 14 15 15 17 16 14 17 16 19 18 21 9 23 1 25 5 27
REMARK H PARENT 14 18 16 20 18 22 9 24 1 26 5 28
REMARK Flexibility Score: inf
ROOT
ATOM      1  C   UNL     1      47.113 -27.987   2.694  1.00  0.00     0.402 A 
ATOM      2  O   UNL     1      47.051 -27.506   3.932  1.00  0.00    -0.202 OA
ATOM      3  C   UNL     1      47.926 -27.817   4.882  1.00  0.00     0.368 A 
ATOM      4  C   UNL     1      47.775 -27.263   6.155  1.00  0.00     0.162 A 
ATOM      5  C   UNL     1      48.677 -27.575   7.173  1.00  0.00     0.128 A 
ATOM      6  C   UNL     1      49.739 -28.450   6.917  1.00  0.00     0.093 A 
ATOM      7  C   UNL     1      49.913 -29.019   5.650  1.00  0.00     0.136 A 
ATOM      8  C   UNL     1      48.999 -28.702   4.612  1.00  0.00     0.125 A 
ATOM      9  C   UNL     1      49.102 -29.215   3.308  1.00  0.00     0.078 A 
ATOM     10  C   UNL     1      48.164 -28.852   2.336  1.00  0.00     0.223 A 
ENDROOT
BRANCH   1  11
ATOM     11  C   UNL     1      46.072 -27.571   1.726  1.00  0.00     0.091 A 
ATOM     12  C   UNL     1      45.389 -28.548   0.986  1.00  0.00     0.068 A 
ATOM     13  C   UNL     1      44.415 -28.185   0.051  1.00  0.00     0.162 A 
ATOM     14  C   UNL     1      45.790 -26.215   1.492  1.00  0.00     0.068 A 
ATOM     15  C   UNL     1      44.122 -26.827  -0.165  1.00  0.00     0.200 A 
ATOM     16  C   UNL     1      44.816 -25.842   0.555  1.00  0.00     0.162 A 
BRANCH  13  17
ATOM     17  O   UNL     1      43.749 -29.187  -0.654  1.00  0.00    -0.504 OA
ATOM     18  H   UNL     1      43.238 -29.927  -0.185  1.00  0.00     0.293 HD
ENDBRANCH  13  17
BRANCH  15  19
ATOM     19  O   UNL     1      43.146 -26.473  -1.098  1.00  0.00    -0.502 OA
ATOM     20  H   UNL     1      42.223 -26.158  -0.821  1.00  0.00     0.293 HD
ENDBRANCH  15  19
BRANCH  16  21
ATOM     21  O   UNL     1      44.541 -24.492   0.335  1.00  0.00    -0.504 OA
ATOM     22  H   UNL     1      45.280 -23.819   0.169  1.00  0.00     0.293 HD
ENDBRANCH  16  21
ENDBRANCH   1  11
BRANCH  10  23
ATOM     23  O   UNL     1      48.295 -29.321   1.029  1.00  0.00    -0.500 OA
ATOM     24  H   UNL     1      47.511 -29.330   0.386  1.00  0.00     0.294 HD
ENDBRANCH  10  23
BRANCH   5  25
ATOM     25  O   UNL     1      48.509 -27.011   8.436  1.00  0.00    -0.507 OA
ATOM     26  H   UNL     1      48.315 -27.584   9.249  1.00  0.00     0.293 HD
ENDBRANCH   5  25
BRANCH   7  27
ATOM     27  O   UNL     1      50.996 -29.885   5.476  1.00  0.00    -0.507 OA
ATOM     28  H   UNL     1      51.852 -29.640   5.001  1.00  0.00     0.293 HD
ENDBRANCH   7  27
TORSDOF 7
ENDMDL
MODEL 5
REMARK VINA RESULT:    -7.031      1.381      7.146
REMARK INTER + INTRA:          -8.397
REMARK INTER:                  -8.293
REMARK INTRA:                  -0.104
REMARK UNBOUND:                 0.278
REMARK SMILES Oc1cc(O)c2cc(O)c(-c3cc(O)c(O)c(O)c3)[o+]c2c1
REMARK SMILES IDX 10 1 20 2 21 3 22 4 2 5 3 6 4 7 6 8 7 9 8 10 11 11 12 12
REMARK SMILES IDX 13 13 19 14 15 15 17 16 14 17 16 19 18 21 9 23 1 25 5 27
REMARK H PARENT 14 18 16 20 18 22 9 24 1 26 5 28
REMARK Flexibility Score: inf
ROOT
ATOM      1  C   UNL     1      47.189 -28.011   2.707  1.00  0.00     0.402 A 
ATOM      2  O   UNL     1      47.079 -27.498   3.929  1.00  0.00    -0.202 OA
ATOM      3  C   UNL     1      47.919 -27.783   4.919  1.00  0.00     0.368 A 
ATOM      4  C   UNL     1      47.719 -27.197   6.171  1.00  0.00     0.162 A 
ATOM      5  C   UNL     1      48.583 -27.479   7.230  1.00  0.00     0.128 A 
ATOM      6  C   UNL     1      49.657 -28.357   7.036  1.00  0.00     0.093 A 
ATOM      7  C   UNL     1      49.879 -28.957   5.791  1.00  0.00     0.136 A 
ATOM      8  C   UNL     1      49.003 -28.670   4.712  1.00  0.00     0.125 A 
ATOM      9  C   UNL     1      49.156 -29.216   3.427  1.00  0.00     0.078 A 
ATOM     10  C   UNL     1      48.255 -28.881   2.411  1.00  0.00     0.223 A 
ENDROOT
BRANCH   1  11
ATOM     11  C   UNL     1      46.183 -27.624   1.691  1.00  0.00     0.091 A 
ATOM     12  C   UNL     1      45.862 -26.268   1.520  1.00  0.00     0.068 A 
ATOM     13  C   UNL     1      44.902 -25.875   0.583  1.00  0.00     0.162 A 
ATOM     14  C   UNL     1      45.501 -28.589   0.933  1.00  0.00     0.068 A 
ATOM     15  C   UNL     1      44.237 -26.843  -0.189  1.00  0.00     0.200 A 
ATOM     16  C   UNL     1      44.535 -28.203  -0.008  1.00  0.00     0.162 A 
BRANCH  13  17
ATOM     17  O   UNL     1      44.623 -24.517   0.433  1.00  0.00    -0.504 OA
ATOM     18  H   UNL     1      44.373 -23.928   1.219  1.00  0.00     0.293 HD
ENDBRANCH  13  17
BRANCH  15  19
ATOM     19  O   UNL     1      43.282 -26.441  -1.125  1.00  0.00    -0.502 OA
ATOM     20  H   UNL     1      42.783 -27.105  -1.706  1.00  0.00     0.293 HD
ENDBRANCH  15  19
BRANCH  16  21
ATOM     21  O   UNL     1      43.868 -29.171  -0.760  1.00  0.00    -0.504 OA
ATOM     22  H   UNL     1      43.487 -30.006  -0.333  1.00  0.00     0.293 HD
ENDBRANCH  16  21
ENDBRANCH   1  11
BRANCH  10  23
ATOM     23  O   UNL     1      48.435 -29.383   1.123  1.00  0.00    -0.500 OA
ATOM     24  H   UNL     1      48.901 -28.843   0.402  1.00  0.00     0.294 HD
ENDBRANCH  10  23
BRANCH   5  25
ATOM     25  O   UNL     1      48.366 -26.884   8.470  1.00  0.00    -0.507 OA
ATOM     26  H   UNL     1      48.020 -25.935   8.548  1.00  0.00     0.293 HD
ENDBRANCH   5  25
BRANCH   7  27
ATOM     27  O   UNL     1      50.970 -29.824   5.680  1.00  0.00    -0.507 OA
ATOM     28  H   UNL     1      51.872 -29.561   5.313  1.00  0.00     0.293 HD
ENDBRANCH   7  27
TORSDOF 7
ENDMDL
MODEL 6
REMARK VINA RESULT:    -6.994      1.567      7.356
REMARK INTER + INTRA:          -8.352
REMARK INTER:                  -8.661
REMARK INTRA:                   0.309
REMARK UNBOUND:                 0.278
REMARK SMILES Oc1cc(O)c2cc(O)c(-c3cc(O)c(O)c(O)c3)[o+]c2c1
REMARK SMILES IDX 10 1 20 2 21 3 22 4 2 5 3 6 4 7 6 8 7 9 8 10 11 11 12 12
REMARK SMILES IDX 13 13 19 14 15 15 17 16 14 17 16 19 18 21 9 23 1 25 5 27
REMARK H PARENT 14 18 16 20 18 22 9 24 1 26 5 28
REMARK Flexibility Score: inf
ROOT
ATOM      1  C   UNL     1      48.750 -28.508   4.575  1.00  0.00     0.402 A 
ATOM      2  O   UNL     1      49.113 -29.774   4.754  1.00  0.00    -0.202 OA
ATOM      3  C   UNL     1      49.837 -30.187   5.788  1.00  0.00     0.368 A 
ATOM      4  C   UNL     1      50.172 -31.540   5.888  1.00  0.00     0.162 A 
ATOM      5  C   UNL     1      50.935 -32.002   6.962  1.00  0.00     0.128 A 
ATOM      6  C   UNL     1      51.368 -31.103   7.944  1.00  0.00     0.093 A 
ATOM      7  C   UNL     1      51.047 -29.743   7.867  1.00  0.00     0.136 A 
ATOM      8  C   UNL     1      50.269 -29.271   6.778  1.00  0.00     0.125 A 
ATOM      9  C   UNL     1      49.888 -27.927   6.626  1.00  0.00     0.078 A 
ATOM     10  C   UNL     1      49.116 -27.538   5.527  1.00  0.00     0.223 A 
ENDROOT
BRANCH   1  11
ATOM     11  C   UNL     1      47.949 -28.171   3.375  1.00  0.00     0.091 A 
ATOM     12  C   UNL     1      48.011 -29.004   2.248  1.00  0.00     0.068 A 
ATOM     13  C   UNL     1      47.282 -28.700   1.094  1.00  0.00     0.162 A 
ATOM     14  C   UNL     1      47.171 -27.002   3.319  1.00  0.00     0.068 A 
ATOM     15  C   UNL     1      46.489 -27.541   1.050  1.00  0.00     0.200 A 
ATOM     16  C   UNL     1      46.439 -26.689   2.166  1.00  0.00     0.162 A 
BRANCH  13  17
ATOM     17  O   UNL     1      47.359 -29.562   0.001  1.00  0.00    -0.504 OA
ATOM     18  H   UNL     1      47.223 -29.240  -0.951  1.00  0.00     0.293 HD
ENDBRANCH  13  17
BRANCH  15  19
ATOM     19  O   UNL     1      45.761 -27.247  -0.104  1.00  0.00    -0.502 OA
ATOM     20  H   UNL     1      45.898 -27.752  -0.972  1.00  0.00     0.293 HD
ENDBRANCH  15  19
BRANCH  16  21
ATOM     21  O   UNL     1      45.665 -25.529   2.124  1.00  0.00    -0.504 OA
ATOM     22  H   UNL     1      44.924 -25.360   2.794  1.00  0.00     0.293 HD
ENDBRANCH  16  21
ENDBRANCH   1  11
BRANCH  10  23
ATOM     23  O   UNL     1      48.695 -26.214   5.401  1.00  0.00    -0.500 OA
ATOM     24  H   UNL     1      48.228 -25.881   4.566  1.00  0.00     0.294 HD
ENDBRANCH  10  23
BRANCH   5  25
ATOM     25  O   UNL     1      51.258 -33.354   7.043  1.00  0.00    -0.507 OA
ATOM     26  H   UNL     1      50.737 -34.054   6.527  1.00  0.00     0.293 HD
ENDBRANCH   5  25
BRANCH   7  27
ATOM     27  O   UNL     1      51.520 -28.910   8.886  1.00  0.00    -0.507 OA
ATOM     28  H   UNL     1      50.936 -28.314   9.452  1.00  0.00     0.293 HD
ENDBRANCH   7  27
TORSDOF 7
ENDMDL
MODEL 7
REMARK VINA RESULT:    -6.717      1.381      2.521
REMARK INTER + INTRA:          -8.010
REMARK INTER:                  -7.988
REMARK INTRA:                  -0.022
REMARK UNBOUND:                 0.278
REMARK SMILES Oc1cc(O)c2cc(O)c(-c3cc(O)c(O)c(O)c3)[o+]c2c1
REMARK SMILES IDX 10 1 20 2 21 3 22 4 2 5 3 6 4 7 6 8 7 9 8 10 11 11 12 12
REMARK SMILES IDX 13 13 19 14 15 15 17 16 14 17 16 19 18 21 9 23 1 25 5 27
REMARK H PARENT 14 18 16 20 18 22 9 24 1 26 5 28
REMARK Flexibility Score: inf
ROOT
ATOM      1  C   UNL     1      47.810 -27.764   3.449  1.00  0.00     0.402 A 
ATOM      2  O   UNL     1      47.196 -28.583   2.601  1.00  0.00    -0.202 OA
ATOM      3  C   UNL     1      46.434 -28.159   1.598  1.00  0.00     0.368 A 
ATOM      4  C   UNL     1      45.826 -29.097   0.761  1.00  0.00     0.162 A 
ATOM      5  C   UNL     1      45.018 -28.681  -0.298  1.00  0.00     0.128 A 
ATOM      6  C   UNL     1      44.814 -27.314  -0.522  1.00  0.00     0.093 A 
ATOM      7  C   UNL     1      45.411 -26.354   0.303  1.00  0.00     0.136 A 
ATOM      8  C   UNL     1      46.236 -26.774   1.379  1.00  0.00     0.125 A 
ATOM      9  C   UNL     1      46.884 -25.882   2.249  1.00  0.00     0.078 A 
ATOM     10  C   UNL     1      47.685 -26.372   3.285  1.00  0.00     0.223 A 
ENDROOT
BRANCH   1  11
ATOM     11  C   UNL     1      48.625 -28.359   4.533  1.00  0.00     0.091 A 
ATOM     12  C   UNL     1      49.450 -29.460   4.251  1.00  0.00     0.068 A 
ATOM     13  C   UNL     1      50.215 -30.055   5.258  1.00  0.00     0.162 A 
ATOM     14  C   UNL     1      48.549 -27.882   5.852  1.00  0.00     0.068 A 
ATOM     15  C   UNL     1      50.151 -29.561   6.573  1.00  0.00     0.200 A 
ATOM     16  C   UNL     1      49.312 -28.475   6.869  1.00  0.00     0.162 A 
BRANCH  13  17
ATOM     17  O   UNL     1      51.033 -31.137   4.934  1.00  0.00    -0.504 OA
ATOM     18  H   UNL     1      50.814 -31.769   4.172  1.00  0.00     0.293 HD
ENDBRANCH  13  17
BRANCH  15  19
ATOM     19  O   UNL     1      50.921 -30.159   7.571  1.00  0.00    -0.502 OA
ATOM     20  H   UNL     1      51.928 -30.249   7.496  1.00  0.00     0.293 HD
ENDBRANCH  15  19
BRANCH  16  21
ATOM     21  O   UNL     1      49.233 -27.988   8.174  1.00  0.00    -0.504 OA
ATOM     22  H   UNL     1      48.673 -28.451   8.880  1.00  0.00     0.293 HD
ENDBRANCH  16  21
ENDBRANCH   1  11
BRANCH  10  23
ATOM     23  O   UNL     1      48.370 -25.487   4.118  1.00  0.00    -0.500 OA
ATOM     24  H   UNL     1      49.207 -25.765   4.617  1.00  0.00     0.294 HD
ENDBRANCH  10  23
BRANCH   5  25
ATOM     25  O   UNL     1      44.422 -29.633  -1.122  1.00  0.00    -0.507 OA
ATOM     26  H   UNL     1      44.429 -30.618  -0.883  1.00  0.00     0.293 HD
ENDBRANCH   5  25
BRANCH   7  27
ATOM     27  O   UNL     1      45.155 -25.009   0.016  1.00  0.00    -0.507 OA
ATOM     28  H   UNL     1      45.868 -24.304  -0.091  1.00  0.00     0.293 HD
ENDBRANCH   7  27
TORSDOF 7
ENDMDL
MODEL 8
REMARK VINA RESULT:    -6.297      1.353      2.913
REMARK INTER + INTRA:          -7.492
REMARK INTER:                  -7.817
REMARK INTRA:                   0.325
REMARK UNBOUND:                 0.278
REMARK SMILES Oc1cc(O)c2cc(O)c(-c3cc(O)c(O)c(O)c3)[o+]c2c1
REMARK SMILES IDX 10 1 20 2 21 3 22 4 2 5 3 6 4 7 6 8 7 9 8 10 11 11 12 12
REMARK SMILES IDX 13 13 19 14 15 15 17 16 14 17 16 19 18 21 9 23 1 25 5 27
REMARK H PARENT 14 18 16 20 18 22 9 24 1 26 5 28
REMARK Flexibility Score: inf
ROOT
ATOM      1  C   UNL     1      48.634 -28.573   4.636  1.00  0.00     0.402 A 
ATOM      2  O   UNL     1      48.409 -29.105   3.438  1.00  0.00    -0.202 OA
ATOM      3  C   UNL     1      47.638 -28.534   2.519  1.00  0.00     0.368 A 
ATOM      4  C   UNL     1      47.457 -29.172   1.289  1.00  0.00     0.162 A 
ATOM      5  C   UNL     1      46.651 -28.598   0.306  1.00  0.00     0.128 A 
ATOM      6  C   UNL     1      46.018 -27.374   0.554  1.00  0.00     0.093 A 
ATOM      7  C   UNL     1      46.182 -26.714   1.778  1.00  0.00     0.136 A 
ATOM      8  C   UNL     1      47.004 -27.295   2.779  1.00  0.00     0.125 A 
ATOM      9  C   UNL     1      47.235 -26.699   4.029  1.00  0.00     0.078 A 
ATOM     10  C   UNL     1      48.062 -27.330   4.964  1.00  0.00     0.223 A 
ENDROOT
BRANCH   1  11
ATOM     11  C   UNL     1      49.505 -29.312   5.578  1.00  0.00     0.091 A 
ATOM     12  C   UNL     1      49.696 -30.692   5.405  1.00  0.00     0.068 A 
ATOM     13  C   UNL     1      50.496 -31.420   6.291  1.00  0.00     0.162 A 
ATOM     14  C   UNL     1      50.102 -28.673   6.678  1.00  0.00     0.068 A 
ATOM     15  C   UNL     1      51.108 -30.771   7.377  1.00  0.00     0.200 A 
ATOM     16  C   UNL     1      50.905 -29.396   7.572  1.00  0.00     0.162 A 
BRANCH  13  17
ATOM     17  O   UNL     1      50.672 -32.786   6.074  1.00  0.00    -0.504 OA
ATOM     18  H   UNL     1      49.899 -33.441   6.110  1.00  0.00     0.293 HD
ENDBRANCH  13  17
BRANCH  15  19
ATOM     19  O   UNL     1      51.908 -31.505   8.255  1.00  0.00    -0.502 OA
ATOM     20  H   UNL     1      52.594 -31.064   8.857  1.00  0.00     0.293 HD
ENDBRANCH  15  19
BRANCH  16  21
ATOM     21  O   UNL     1      51.497 -28.749   8.657  1.00  0.00    -0.504 OA
ATOM     22  H   UNL     1      52.371 -29.071   9.055  1.00  0.00     0.293 HD
ENDBRANCH  16  21
ENDBRANCH   1  11
BRANCH  10  23
ATOM     23  O   UNL     1      48.333 -26.715   6.186  1.00  0.00    -0.500 OA
ATOM     24  H   UNL     1      47.606 -26.553   6.873  1.00  0.00     0.294 HD
ENDBRANCH  10  23
BRANCH   5  25
ATOM     25  O   UNL     1      46.485 -29.250  -0.913  1.00  0.00    -0.507 OA
ATOM     26  H   UNL     1      47.154 -29.141  -1.667  1.00  0.00     0.293 HD
ENDBRANCH   5  25
BRANCH   7  27
ATOM     27  O   UNL     1      45.513 -25.498   1.948  1.00  0.00    -0.507 OA
ATOM     28  H   UNL     1      44.765 -25.171   1.357  1.00  0.00     0.293 HD
ENDBRANCH   7  27
TORSDOF 7
ENDMDL
MODEL 9
REMARK VINA RESULT:    -5.289     13.185     14.578
REMARK INTER + INTRA:          -6.248
REMARK INTER:                  -6.153
REMARK INTRA:                  -0.095
REMARK UNBOUND:                 0.278
REMARK SMILES Oc1cc(O)c2cc(O)c(-c3cc(O)c(O)c(O)c3)[o+]c2c1
REMARK SMILES IDX 10 1 20 2 21 3 22 4 2 5 3 6 4 7 6 8 7 9 8 10 11 11 12 12
REMARK SMILES IDX 13 13 19 14 15 15 17 16 14 17 16 19 18 21 9 23 1 25 5 27
REMARK H PARENT 14 18 16 20 18 22 9 24 1 26 5 28
REMARK Flexibility Score: inf
ROOT
ATOM      1  C   UNL     1      50.072 -27.119  16.985  1.00  0.00     0.402 A 
ATOM      2  O   UNL     1      48.881 -27.343  17.533  1.00  0.00    -0.202 OA
ATOM      3  C   UNL     1      48.348 -28.554  17.652  1.00  0.00     0.368 A 
ATOM      4  C   UNL     1      47.088 -28.689  18.239  1.00  0.00     0.162 A 
ATOM      5  C   UNL     1      46.502 -29.948  18.374  1.00  0.00     0.128 A 
ATOM      6  C   UNL     1      47.181 -31.084  17.917  1.00  0.00     0.093 A 
ATOM      7  C   UNL     1      48.444 -30.976  17.325  1.00  0.00     0.136 A 
ATOM      8  C   UNL     1      49.044 -29.697  17.188  1.00  0.00     0.125 A 
ATOM      9  C   UNL     1      50.312 -29.496  16.619  1.00  0.00     0.078 A 
ATOM     10  C   UNL     1      50.840 -28.204  16.523  1.00  0.00     0.223 A 
ENDROOT
BRANCH   1  11
ATOM     11  C   UNL     1      50.553 -25.721  16.902  1.00  0.00     0.091 A 
ATOM     12  C   UNL     1      50.467 -24.893  18.031  1.00  0.00     0.068 A 
ATOM     13  C   UNL     1      50.895 -23.563  17.976  1.00  0.00     0.162 A 
ATOM     14  C   UNL     1      51.044 -25.187  15.698  1.00  0.00     0.068 A 
ATOM     15  C   UNL     1      51.405 -23.039  16.775  1.00  0.00     0.200 A 
ATOM     16  C   UNL     1      51.473 -23.854  15.634  1.00  0.00     0.162 A 
BRANCH  13  17
ATOM     17  O   UNL     1      50.807 -22.778  19.125  1.00  0.00    -0.504 OA
ATOM     18  H   UNL     1      50.338 -21.879  19.129  1.00  0.00     0.293 HD
ENDBRANCH  13  17
BRANCH  15  19
ATOM     19  O   UNL     1      51.833 -21.712  16.730  1.00  0.00    -0.502 OA
ATOM     20  H   UNL     1      52.274 -21.259  17.522  1.00  0.00     0.293 HD
ENDBRANCH  15  19
BRANCH  16  21
ATOM     21  O   UNL     1      51.964 -23.336  14.435  1.00  0.00    -0.504 OA
ATOM     22  H   UNL     1      51.417 -23.359  13.583  1.00  0.00     0.293 HD
ENDBRANCH  16  21
ENDBRANCH   1  11
BRANCH  10  23
ATOM     23  O   UNL     1      52.119 -28.008  16.004  1.00  0.00    -0.500 OA
ATOM     24  H   UNL     1      52.912 -27.810  16.603  1.00  0.00     0.294 HD
ENDBRANCH  10  23
BRANCH   5  25
ATOM     25  O   UNL     1      45.245 -30.061  18.963  1.00  0.00    -0.507 OA
ATOM     26  H   UNL     1      44.749 -30.945  18.989  1.00  0.00     0.293 HD
ENDBRANCH   5  25
BRANCH   7  27
ATOM     27  O   UNL     1      49.055 -32.157  16.891  1.00  0.00    -0.507 OA
ATOM     28  H   UNL     1      48.787 -33.081  17.192  1.00  0.00     0.293 HD
ENDBRANCH   7  27
TORSDOF 7
ENDMDL
