MODEL 1
REMARK VINA RESULT:    16.112      0.000      0.000
REMARK INTER + INTRA:          36.947
REMARK INTER:                  36.835
REMARK INTRA:                   0.112
REMARK UNBOUND:                 0.112
REMARK SMILES CCCCCCCCCCCCCCCCCCCCCCCC(=O)[O-]
REMARK SMILES IDX 13 1 14 2 15 3 16 4 17 5 18 6 19 7 20 8 21 9 22 10 23 11
REMARK SMILES IDX 24 12 25 13 26 14 12 15 11 16 10 17 9 18 8 19 7 20 6 21 5 22
REMARK SMILES IDX 4 23 3 24 2 25 1 26
REMARK H PARENT
REMARK Flexibility Score: inf
ROOT
ATOM      1  C   UNL     1       4.852  42.063  11.172  1.00  0.00     0.000 C 
ENDROOT
BRANCH   1   2
ATOM      2  C   UNL     1       3.786  41.198  11.862  1.00  0.00     0.000 C 
BRANCH   2   3
ATOM      3  C   UNL     1       4.110  41.006  13.351  1.00  0.00     0.000 C 
BRANCH   3   4
ATOM      4  C   UNL     1       2.954  40.362  14.135  1.00  0.00     0.000 C 
BRANCH   4   5
ATOM      5  C   UNL     1       3.385  39.359  15.223  1.00  0.00     0.000 C 
BRANCH   5   6
ATOM      6  C   UNL     1       4.802  38.776  15.052  1.00  0.00     0.000 C 
BRANCH   6   7
ATOM      7  C   UNL     1       5.819  39.207  16.124  1.00  0.00     0.000 C 
BRANCH   7   8
ATOM      8  C   UNL     1       6.122  40.712  16.091  1.00  0.00     0.000 C 
BRANCH   8   9
ATOM      9  C   UNL     1       7.622  40.964  15.881  1.00  0.00     0.000 C 
BRANCH   9  10
ATOM     10  C   UNL     1       8.454  39.668  15.893  1.00  0.00     0.006 C 
BRANCH  10  11
ATOM     11  C   UNL     1       9.008  39.257  14.518  1.00  0.00     0.053 C 
BRANCH  11  12
ATOM     12  C   UNL     1      10.485  39.010  14.558  1.00  0.00     0.041 C 
ATOM     13  O   UNL     1      11.151  38.970  13.490  1.00  0.00    -0.550 OA
ATOM     14  O   UNL     1      11.133  38.864  15.779  1.00  0.00    -0.550 OA
ENDBRANCH  11  12
ENDBRANCH  10  11
ENDBRANCH   9  10
ENDBRANCH   8   9
ENDBRANCH   7   8
ENDBRANCH   6   7
ENDBRANCH   5   6
ENDBRANCH   4   5
ENDBRANCH   3   4
ENDBRANCH   2   3
ENDBRANCH   1   2
BRANCH   1  15
ATOM     15  C   UNL     1       4.232  43.114  10.228  1.00  0.00     0.000 C 
BRANCH  15  16
ATOM     16  C   UNL     1       4.461  42.824   8.734  1.00  0.00     0.000 C 
BRANCH  16  17
ATOM     17  C   UNL     1       5.871  43.207   8.261  1.00  0.00     0.000 C 
BRANCH  17  18
ATOM     18  C   UNL     1       6.705  41.997   7.797  1.00  0.00    -0.000 C 
BRANCH  18  19
ATOM     19  C   UNL     1       7.998  41.741   8.596  1.00  0.00    -0.000 C 
BRANCH  19  20
ATOM     20  C   UNL     1       9.151  42.672   8.192  1.00  0.00    -0.000 C 
BRANCH  20  21
ATOM     21  C   UNL     1       9.341  42.688   6.666  1.00  0.00    -0.000 C 
BRANCH  21  22
ATOM     22  C   UNL     1       8.223  41.918   5.932  1.00  0.00    -0.000 C 
BRANCH  22  23
ATOM     23  C   UNL     1       8.584  41.527   4.488  1.00  0.00    -0.000 C 
BRANCH  23  24
ATOM     24  C   UNL     1       9.888  40.722   4.391  1.00  0.00    -0.000 C 
BRANCH  24  25
ATOM     25  C   UNL     1      10.356  40.604   2.937  1.00  0.00    -0.003 C 
ATOM     26  C   UNL     1       9.617  39.487   2.208  1.00  0.00     0.004 C 
ENDBRANCH  24  25
ENDBRANCH  23  24
ENDBRANCH  22  23
ENDBRANCH  21  22
ENDBRANCH  20  21
ENDBRANCH  19  20
ENDBRANCH  18  19
ENDBRANCH  17  18
ENDBRANCH  16  17
ENDBRANCH  15  16
ENDBRANCH   1  15
TORSDOF 22
ENDMDL
MODEL 2
REMARK VINA RESULT:    16.730      2.808      3.975
REMARK INTER + INTRA:          38.357
REMARK INTER:                  36.572
REMARK INTRA:                   1.785
REMARK UNBOUND:                 0.112
REMARK SMILES CCCCCCCCCCCCCCCCCCCCCCCC(=O)[O-]
REMARK SMILES IDX 13 1 14 2 15 3 16 4 17 5 18 6 19 7 20 8 21 9 22 10 23 11
REMARK SMILES IDX 24 12 25 13 26 14 12 15 11 16 10 17 9 18 8 19 7 20 6 21 5 22
REMARK SMILES IDX 4 23 3 24 2 25 1 26
REMARK H PARENT
REMARK Flexibility Score: inf
ROOT
ATOM      1  C   UNL     1       6.438  42.215  10.108  1.00  0.00     0.000 C 
ENDROOT
BRANCH   1   2
ATOM      2  C   UNL     1       7.369  41.525  11.116  1.00  0.00     0.000 C 
BRANCH   2   3
ATOM      3  C   UNL     1       6.683  41.362  12.481  1.00  0.00     0.000 C 
BRANCH   3   4
ATOM      4  C   UNL     1       7.592  40.703  13.532  1.00  0.00     0.000 C 
BRANCH   4   5
ATOM      5  C   UNL     1       8.078  41.642  14.653  1.00  0.00     0.000 C 
BRANCH   5   6
ATOM      6  C   UNL     1       8.088  41.025  16.066  1.00  0.00     0.000 C 
BRANCH   6   7
ATOM      7  C   UNL     1       8.459  39.532  16.124  1.00  0.00     0.000 C 
BRANCH   7   8
ATOM      8  C   UNL     1       7.847  38.717  14.976  1.00  0.00     0.000 C 
BRANCH   8   9
ATOM      9  C   UNL     1       6.663  37.876  15.473  1.00  0.00     0.000 C 
BRANCH   9  10
ATOM     10  C   UNL     1       5.298  38.501  15.130  1.00  0.00     0.006 C 
BRANCH  10  11
ATOM     11  C   UNL     1       4.138  38.020  16.018  1.00  0.00     0.053 C 
BRANCH  11  12
ATOM     12  C   UNL     1       2.812  38.510  15.523  1.00  0.00     0.041 C 
ATOM     13  O   UNL     1       2.755  39.442  14.678  1.00  0.00    -0.550 OA
ATOM     14  O   UNL     1       1.639  37.911  15.967  1.00  0.00    -0.550 OA
ENDBRANCH  11  12
ENDBRANCH  10  11
ENDBRANCH   9  10
ENDBRANCH   8   9
ENDBRANCH   7   8
ENDBRANCH   6   7
ENDBRANCH   5   6
ENDBRANCH   4   5
ENDBRANCH   3   4
ENDBRANCH   2   3
ENDBRANCH   1   2
BRANCH   1  15
ATOM     15  C   UNL     1       5.026  42.452  10.683  1.00  0.00     0.000 C 
BRANCH  15  16
ATOM     16  C   UNL     1       3.972  42.814   9.621  1.00  0.00     0.000 C 
BRANCH  16  17
ATOM     17  C   UNL     1       4.524  42.756   8.189  1.00  0.00     0.000 C 
BRANCH  17  18
ATOM     18  C   UNL     1       5.981  43.243   8.080  1.00  0.00    -0.000 C 
BRANCH  18  19
ATOM     19  C   UNL     1       6.465  43.565   6.652  1.00  0.00    -0.000 C 
BRANCH  19  20
ATOM     20  C   UNL     1       7.389  42.485   6.072  1.00  0.00    -0.000 C 
BRANCH  20  21
ATOM     21  C   UNL     1       8.822  43.015   5.899  1.00  0.00    -0.000 C 
BRANCH  21  22
ATOM     22  C   UNL     1       9.874  41.889   5.985  1.00  0.00    -0.000 C 
BRANCH  22  23
ATOM     23  C   UNL     1       9.372  40.530   5.465  1.00  0.00    -0.000 C 
BRANCH  23  24
ATOM     24  C   UNL     1       9.019  40.552   3.971  1.00  0.00    -0.000 C 
BRANCH  24  25
ATOM     25  C   UNL     1      10.284  40.569   3.105  1.00  0.00    -0.003 C 
ATOM     26  C   UNL     1      10.179  39.571   1.956  1.00  0.00     0.004 C 
ENDBRANCH  24  25
ENDBRANCH  23  24
ENDBRANCH  22  23
ENDBRANCH  21  22
ENDBRANCH  20  21
ENDBRANCH  19  20
ENDBRANCH  18  19
ENDBRANCH  17  18
ENDBRANCH  16  17
ENDBRANCH  15  16
ENDBRANCH   1  15
TORSDOF 22
ENDMDL
MODEL 3
REMARK VINA RESULT:    17.208      3.356      9.528
REMARK INTER + INTRA:          39.451
REMARK INTER:                  40.397
REMARK INTRA:                  -0.947
REMARK UNBOUND:                 0.112
REMARK SMILES CCCCCCCCCCCCCCCCCCCCCCCC(=O)[O-]
REMARK SMILES IDX 13 1 14 2 15 3 16 4 17 5 18 6 19 7 20 8 21 9 22 10 23 11
REMARK SMILES IDX 24 12 25 13 26 14 12 15 11 16 10 17 9 18 8 19 7 20 6 21 5 22
REMARK SMILES IDX 4 23 3 24 2 25 1 26
REMARK H PARENT
REMARK Flexibility Score: inf
ROOT
ATOM      1  C   UNL     1       6.342  42.481   7.898  1.00  0.00     0.000 C 
ENDROOT
BRANCH   1   2
ATOM      2  C   UNL     1       5.950  43.205   6.601  1.00  0.00     0.000 C 
BRANCH   2   3
ATOM      3  C   UNL     1       7.158  43.352   5.663  1.00  0.00     0.000 C 
BRANCH   3   4
ATOM      4  C   UNL     1       8.287  44.200   6.273  1.00  0.00     0.000 C 
BRANCH   4   5
ATOM      5  C   UNL     1       9.668  43.517   6.309  1.00  0.00     0.000 C 
BRANCH   5   6
ATOM      6  C   UNL     1      10.171  43.128   7.713  1.00  0.00     0.000 C 
BRANCH   6   7
ATOM      7  C   UNL     1      10.075  41.628   8.049  1.00  0.00     0.000 C 
BRANCH   7   8
ATOM      8  C   UNL     1       8.857  40.948   7.409  1.00  0.00     0.000 C 
BRANCH   8   9
ATOM      9  C   UNL     1       9.295  39.907   6.368  1.00  0.00     0.000 C 
BRANCH   9  10
ATOM     10  C   UNL     1       8.543  40.045   5.032  1.00  0.00     0.006 C 
BRANCH  10  11
ATOM     11  C   UNL     1       9.144  41.082   4.068  1.00  0.00     0.053 C 
BRANCH  11  12
ATOM     12  C   UNL     1       9.988  40.442   3.009  1.00  0.00     0.041 C 
ATOM     13  O   UNL     1      10.688  39.430   3.280  1.00  0.00    -0.550 OA
ATOM     14  O   UNL     1       9.972  40.939   1.711  1.00  0.00    -0.550 OA
ENDBRANCH  11  12
ENDBRANCH  10  11
ENDBRANCH   9  10
ENDBRANCH   8   9
ENDBRANCH   7   8
ENDBRANCH   6   7
ENDBRANCH   5   6
ENDBRANCH   4   5
ENDBRANCH   3   4
ENDBRANCH   2   3
ENDBRANCH   1   2
BRANCH   1  15
ATOM     15  C   UNL     1       5.778  43.180   9.152  1.00  0.00     0.000 C 
BRANCH  15  16
ATOM     16  C   UNL     1       4.374  42.697   9.557  1.00  0.00     0.000 C 
BRANCH  16  17
ATOM     17  C   UNL     1       4.129  42.774  11.072  1.00  0.00     0.000 C 
BRANCH  17  18
ATOM     18  C   UNL     1       4.747  41.595  11.847  1.00  0.00    -0.000 C 
BRANCH  18  19
ATOM     19  C   UNL     1       4.155  41.342  13.247  1.00  0.00    -0.000 C 
BRANCH  19  20
ATOM     20  C   UNL     1       5.153  40.686  14.214  1.00  0.00    -0.000 C 
BRANCH  20  21
ATOM     21  C   UNL     1       4.426  39.836  15.269  1.00  0.00    -0.000 C 
BRANCH  21  22
ATOM     22  C   UNL     1       5.162  38.511  15.556  1.00  0.00    -0.000 C 
BRANCH  22  23
ATOM     23  C   UNL     1       6.582  38.699  16.119  1.00  0.00    -0.000 C 
BRANCH  23  24
ATOM     24  C   UNL     1       7.636  38.928  15.027  1.00  0.00    -0.000 C 
BRANCH  24  25
ATOM     25  C   UNL     1       8.749  39.859  15.521  1.00  0.00    -0.003 C 
ATOM     26  C   UNL     1      10.118  39.199  15.394  1.00  0.00     0.004 C 
ENDBRANCH  24  25
ENDBRANCH  23  24
ENDBRANCH  22  23
ENDBRANCH  21  22
ENDBRANCH  20  21
ENDBRANCH  19  20
ENDBRANCH  18  19
ENDBRANCH  17  18
ENDBRANCH  16  17
ENDBRANCH  15  16
ENDBRANCH   1  15
TORSDOF 22
ENDMDL
MODEL 4
REMARK VINA RESULT:    17.860      1.536      2.534
REMARK INTER + INTRA:          40.941
REMARK INTER:                  41.714
REMARK INTRA:                  -0.773
REMARK UNBOUND:                 0.112
REMARK SMILES CCCCCCCCCCCCCCCCCCCCCCCC(=O)[O-]
REMARK SMILES IDX 13 1 14 2 15 3 16 4 17 5 18 6 19 7 20 8 21 9 22 10 23 11
REMARK SMILES IDX 24 12 25 13 26 14 12 15 11 16 10 17 9 18 8 19 7 20 6 21 5 22
REMARK SMILES IDX 4 23 3 24 2 25 1 26
REMARK H PARENT
REMARK Flexibility Score: inf
ROOT
ATOM      1  C   UNL     1       5.226  43.274   8.962  1.00  0.00     0.000 C 
ENDROOT
BRANCH   1   2
ATOM      2  C   UNL     1       4.071  43.034   9.946  1.00  0.00     0.000 C 
BRANCH   2   3
ATOM      3  C   UNL     1       4.334  41.792  10.812  1.00  0.00     0.000 C 
BRANCH   3   4
ATOM      4  C   UNL     1       3.846  41.961  12.261  1.00  0.00     0.000 C 
BRANCH   4   5
ATOM      5  C   UNL     1       4.663  41.190  13.316  1.00  0.00     0.000 C 
BRANCH   5   6
ATOM      6  C   UNL     1       3.830  40.367  14.318  1.00  0.00     0.000 C 
BRANCH   6   7
ATOM      7  C   UNL     1       4.341  38.937  14.572  1.00  0.00     0.000 C 
BRANCH   7   8
ATOM      8  C   UNL     1       5.863  38.809  14.421  1.00  0.00     0.000 C 
BRANCH   8   9
ATOM      9  C   UNL     1       6.472  38.066  15.619  1.00  0.00     0.000 C 
BRANCH   9  10
ATOM     10  C   UNL     1       7.786  38.700  16.112  1.00  0.00     0.006 C 
BRANCH  10  11
ATOM     11  C   UNL     1       9.054  37.936  15.695  1.00  0.00     0.053 C 
BRANCH  11  12
ATOM     12  C   UNL     1       9.825  38.663  14.636  1.00  0.00     0.041 C 
ATOM     13  O   UNL     1      10.002  38.135  13.506  1.00  0.00    -0.550 OA
ATOM     14  O   UNL     1      10.314  39.940  14.883  1.00  0.00    -0.550 OA
ENDBRANCH  11  12
ENDBRANCH  10  11
ENDBRANCH   9  10
ENDBRANCH   8   9
ENDBRANCH   7   8
ENDBRANCH   6   7
ENDBRANCH   5   6
ENDBRANCH   4   5
ENDBRANCH   3   4
ENDBRANCH   2   3
ENDBRANCH   1   2
BRANCH   1  15
ATOM     15  C   UNL     1       6.543  42.623   9.433  1.00  0.00     0.000 C 
BRANCH  15  16
ATOM     16  C   UNL     1       7.518  42.288   8.290  1.00  0.00     0.000 C 
BRANCH  16  17
ATOM     17  C   UNL     1       6.875  42.415   6.901  1.00  0.00     0.000 C 
BRANCH  17  18
ATOM     18  C   UNL     1       7.712  43.258   5.920  1.00  0.00    -0.000 C 
BRANCH  18  19
ATOM     19  C   UNL     1       9.141  42.743   5.660  1.00  0.00    -0.000 C 
BRANCH  19  20
ATOM     20  C   UNL     1       9.414  41.374   6.302  1.00  0.00    -0.000 C 
BRANCH  20  21
ATOM     21  C   UNL     1       9.430  40.259   5.243  1.00  0.00    -0.000 C 
BRANCH  21  22
ATOM     22  C   UNL     1       9.885  40.774   3.861  1.00  0.00    -0.000 C 
BRANCH  22  23
ATOM     23  C   UNL     1       8.733  40.953   2.856  1.00  0.00    -0.000 C 
BRANCH  23  24
ATOM     24  C   UNL     1       8.903  42.190   1.962  1.00  0.00    -0.000 C 
BRANCH  24  25
ATOM     25  C   UNL     1       9.461  41.803   0.587  1.00  0.00    -0.003 C 
ATOM     26  C   UNL     1       8.831  42.642  -0.520  1.00  0.00     0.004 C 
ENDBRANCH  24  25
ENDBRANCH  23  24
ENDBRANCH  22  23
ENDBRANCH  21  22
ENDBRANCH  20  21
ENDBRANCH  19  20
ENDBRANCH  18  19
ENDBRANCH  17  18
ENDBRANCH  16  17
ENDBRANCH  15  16
ENDBRANCH   1  15
TORSDOF 22
ENDMDL
MODEL 5
REMARK VINA RESULT:    17.959      3.330      9.332
REMARK INTER + INTRA:          41.168
REMARK INTER:                  38.935
REMARK INTRA:                   2.233
REMARK UNBOUND:                 0.112
REMARK SMILES CCCCCCCCCCCCCCCCCCCCCCCC(=O)[O-]
REMARK SMILES IDX 13 1 14 2 15 3 16 4 17 5 18 6 19 7 20 8 21 9 22 10 23 11
REMARK SMILES IDX 24 12 25 13 26 14 12 15 11 16 10 17 9 18 8 19 7 20 6 21 5 22
REMARK SMILES IDX 4 23 3 24 2 25 1 26
REMARK H PARENT
REMARK Flexibility Score: inf
ROOT
ATOM      1  C   UNL     1       3.952  43.444   8.835  1.00  0.00     0.000 C 
ENDROOT
BRANCH   1   2
ATOM      2  C   UNL     1       4.948  43.891   7.753  1.00  0.00     0.000 C 
BRANCH   2   3
ATOM      3  C   UNL     1       6.142  42.928   7.670  1.00  0.00     0.000 C 
BRANCH   3   4
ATOM      4  C   UNL     1       6.798  42.673   9.038  1.00  0.00     0.000 C 
BRANCH   4   5
ATOM      5  C   UNL     1       7.901  41.597   9.039  1.00  0.00     0.000 C 
BRANCH   5   6
ATOM      6  C   UNL     1       8.539  41.311   7.665  1.00  0.00     0.000 C 
BRANCH   6   7
ATOM      7  C   UNL     1       9.574  42.351   7.196  1.00  0.00     0.000 C 
BRANCH   7   8
ATOM      8  C   UNL     1       9.191  43.022   5.870  1.00  0.00     0.000 C 
BRANCH   8   9
ATOM      9  C   UNL     1       8.298  42.099   5.028  1.00  0.00     0.000 C 
BRANCH   9  10
ATOM     10  C   UNL     1       8.399  40.622   5.449  1.00  0.00     0.006 C 
BRANCH  10  11
ATOM     11  C   UNL     1       9.522  39.838   4.751  1.00  0.00     0.053 C 
BRANCH  11  12
ATOM     12  C   UNL     1      10.024  40.543   3.529  1.00  0.00     0.041 C 
ATOM     13  O   UNL     1       9.530  40.284   2.399  1.00  0.00    -0.550 OA
ATOM     14  O   UNL     1      11.011  41.515   3.641  1.00  0.00    -0.550 OA
ENDBRANCH  11  12
ENDBRANCH  10  11
ENDBRANCH   9  10
ENDBRANCH   8   9
ENDBRANCH   7   8
ENDBRANCH   6   7
ENDBRANCH   5   6
ENDBRANCH   4   5
ENDBRANCH   3   4
ENDBRANCH   2   3
ENDBRANCH   1   2
BRANCH   1  15
ATOM     15  C   UNL     1       4.654  43.057  10.153  1.00  0.00     0.000 C 
BRANCH  15  16
ATOM     16  C   UNL     1       3.716  42.430  11.199  1.00  0.00     0.000 C 
BRANCH  16  17
ATOM     17  C   UNL     1       4.452  41.520  12.193  1.00  0.00     0.000 C 
BRANCH  17  18
ATOM     18  C   UNL     1       3.656  41.266  13.488  1.00  0.00    -0.000 C 
BRANCH  18  19
ATOM     19  C   UNL     1       3.875  39.886  14.137  1.00  0.00    -0.000 C 
BRANCH  19  20
ATOM     20  C   UNL     1       4.815  39.934  15.352  1.00  0.00    -0.000 C 
BRANCH  20  21
ATOM     21  C   UNL     1       4.792  38.605  16.123  1.00  0.00    -0.000 C 
BRANCH  21  22
ATOM     22  C   UNL     1       6.155  37.881  16.076  1.00  0.00    -0.000 C 
BRANCH  22  23
ATOM     23  C   UNL     1       7.305  38.758  15.551  1.00  0.00    -0.000 C 
BRANCH  23  24
ATOM     24  C   UNL     1       8.693  38.183  15.869  1.00  0.00    -0.000 C 
BRANCH  24  25
ATOM     25  C   UNL     1       9.801  39.046  15.257  1.00  0.00    -0.003 C 
ATOM     26  C   UNL     1      11.161  38.368  15.382  1.00  0.00     0.004 C 
ENDBRANCH  24  25
ENDBRANCH  23  24
ENDBRANCH  22  23
ENDBRANCH  21  22
ENDBRANCH  20  21
ENDBRANCH  19  20
ENDBRANCH  18  19
ENDBRANCH  17  18
ENDBRANCH  16  17
ENDBRANCH  15  16
ENDBRANCH   1  15
TORSDOF 22
ENDMDL
MODEL 6
REMARK VINA RESULT:    18.645      3.668      9.519
REMARK INTER + INTRA:          42.737
REMARK INTER:                  42.679
REMARK INTRA:                   0.059
REMARK UNBOUND:                 0.112
REMARK SMILES CCCCCCCCCCCCCCCCCCCCCCCC(=O)[O-]
REMARK SMILES IDX 13 1 14 2 15 3 16 4 17 5 18 6 19 7 20 8 21 9 22 10 23 11
REMARK SMILES IDX 24 12 25 13 26 14 12 15 11 16 10 17 9 18 8 19 7 20 6 21 5 22
REMARK SMILES IDX 4 23 3 24 2 25 1 26
REMARK H PARENT
REMARK Flexibility Score: inf
ROOT
ATOM      1  C   UNL     1       5.794  41.979  11.248  1.00  0.00     0.000 C 
ENDROOT
BRANCH   1   2
ATOM      2  C   UNL     1       4.290  42.023  10.933  1.00  0.00     0.000 C 
BRANCH   2   3
ATOM      3  C   UNL     1       4.038  42.574   9.522  1.00  0.00     0.000 C 
BRANCH   3   4
ATOM      4  C   UNL     1       4.992  43.721   9.149  1.00  0.00     0.000 C 
BRANCH   4   5
ATOM      5  C   UNL     1       6.170  43.319   8.240  1.00  0.00     0.000 C 
BRANCH   5   6
ATOM      6  C   UNL     1       6.941  42.060   8.685  1.00  0.00     0.000 C 
BRANCH   6   7
ATOM      7  C   UNL     1       8.207  41.747   7.868  1.00  0.00     0.000 C 
BRANCH   7   8
ATOM      8  C   UNL     1       7.921  41.542   6.374  1.00  0.00     0.000 C 
BRANCH   8   9
ATOM      9  C   UNL     1       8.699  40.336   5.828  1.00  0.00     0.000 C 
BRANCH   9  10
ATOM     10  C   UNL     1       9.787  40.736   4.814  1.00  0.00     0.006 C 
BRANCH  10  11
ATOM     11  C   UNL     1       9.300  40.810   3.356  1.00  0.00     0.053 C 
BRANCH  11  12
ATOM     12  C   UNL     1      10.295  40.225   2.401  1.00  0.00     0.041 C 
ATOM     13  O   UNL     1       9.974  39.255   1.665  1.00  0.00    -0.550 OA
ATOM     14  O   UNL     1      11.566  40.777   2.296  1.00  0.00    -0.550 OA
ENDBRANCH  11  12
ENDBRANCH  10  11
ENDBRANCH   9  10
ENDBRANCH   8   9
ENDBRANCH   7   8
ENDBRANCH   6   7
ENDBRANCH   5   6
ENDBRANCH   4   5
ENDBRANCH   3   4
ENDBRANCH   2   3
ENDBRANCH   1   2
BRANCH   1  15
ATOM     15  C   UNL     1       6.148  40.875  12.265  1.00  0.00     0.000 C 
BRANCH  15  16
ATOM     16  C   UNL     1       7.365  41.206  13.147  1.00  0.00     0.000 C 
BRANCH  16  17
ATOM     17  C   UNL     1       7.112  40.940  14.639  1.00  0.00     0.000 C 
BRANCH  17  18
ATOM     18  C   UNL     1       8.394  40.993  15.491  1.00  0.00    -0.000 C 
BRANCH  18  19
ATOM     19  C   UNL     1       9.058  39.630  15.768  1.00  0.00    -0.000 C 
BRANCH  19  20
ATOM     20  C   UNL     1       8.901  38.635  14.608  1.00  0.00    -0.000 C 
BRANCH  20  21
ATOM     21  C   UNL     1       7.524  37.954  14.645  1.00  0.00    -0.000 C 
BRANCH  21  22
ATOM     22  C   UNL     1       6.947  37.884  16.075  1.00  0.00    -0.000 C 
BRANCH  22  23
ATOM     23  C   UNL     1       5.409  37.886  16.124  1.00  0.00    -0.000 C 
BRANCH  23  24
ATOM     24  C   UNL     1       4.764  38.185  14.763  1.00  0.00    -0.000 C 
BRANCH  24  25
ATOM     25  C   UNL     1       3.251  37.943  14.804  1.00  0.00    -0.003 C 
ATOM     26  C   UNL     1       2.550  38.634  13.639  1.00  0.00     0.004 C 
ENDBRANCH  24  25
ENDBRANCH  23  24
ENDBRANCH  22  23
ENDBRANCH  21  22
ENDBRANCH  20  21
ENDBRANCH  19  20
ENDBRANCH  18  19
ENDBRANCH  17  18
ENDBRANCH  16  17
ENDBRANCH  15  16
ENDBRANCH   1  15
TORSDOF 22
ENDMDL
MODEL 7
REMARK VINA RESULT:    18.727      1.502      2.215
REMARK INTER + INTRA:          42.924
REMARK INTER:                  42.985
REMARK INTRA:                  -0.061
REMARK UNBOUND:                 0.112
REMARK SMILES CCCCCCCCCCCCCCCCCCCCCCCC(=O)[O-]
REMARK SMILES IDX 13 1 14 2 15 3 16 4 17 5 18 6 19 7 20 8 21 9 22 10 23 11
REMARK SMILES IDX 24 12 25 13 26 14 12 15 11 16 10 17 9 18 8 19 7 20 6 21 5 22
REMARK SMILES IDX 4 23 3 24 2 25 1 26
REMARK H PARENT
REMARK Flexibility Score: inf
ROOT
ATOM      1  C   UNL     1       4.514  42.010  10.914  1.00  0.00     0.000 C 
ENDROOT
BRANCH   1   2
ATOM      2  C   UNL     1       3.173  41.366  11.298  1.00  0.00     0.000 C 
BRANCH   2   3
ATOM      3  C   UNL     1       3.220  40.804  12.727  1.00  0.00     0.000 C 
BRANCH   3   4
ATOM      4  C   UNL     1       2.120  39.762  12.995  1.00  0.00     0.000 C 
BRANCH   4   5
ATOM      5  C   UNL     1       2.619  38.424  13.574  1.00  0.00     0.000 C 
BRANCH   5   6
ATOM      6  C   UNL     1       1.797  37.875  14.757  1.00  0.00     0.000 C 
BRANCH   6   7
ATOM      7  C   UNL     1       2.511  37.911  16.121  1.00  0.00     0.000 C 
BRANCH   7   8
ATOM      8  C   UNL     1       4.036  38.033  15.995  1.00  0.00     0.000 C 
BRANCH   8   9
ATOM      9  C   UNL     1       4.447  39.483  15.701  1.00  0.00     0.000 C 
BRANCH   9  10
ATOM     10  C   UNL     1       5.939  39.749  15.977  1.00  0.00     0.006 C 
BRANCH  10  11
ATOM     11  C   UNL     1       6.849  39.593  14.747  1.00  0.00     0.053 C 
BRANCH  11  12
ATOM     12  C   UNL     1       8.289  39.842  15.078  1.00  0.00     0.041 C 
ATOM     13  O   UNL     1       8.652  40.962  15.526  1.00  0.00    -0.550 OA
ATOM     14  O   UNL     1       9.223  38.825  14.930  1.00  0.00    -0.550 OA
ENDBRANCH  11  12
ENDBRANCH  10  11
ENDBRANCH   9  10
ENDBRANCH   8   9
ENDBRANCH   7   8
ENDBRANCH   6   7
ENDBRANCH   5   6
ENDBRANCH   4   5
ENDBRANCH   3   4
ENDBRANCH   2   3
ENDBRANCH   1   2
BRANCH   1  15
ATOM     15  C   UNL     1       4.341  43.173   9.914  1.00  0.00     0.000 C 
BRANCH  15  16
ATOM     16  C   UNL     1       5.533  43.358   8.959  1.00  0.00     0.000 C 
BRANCH  16  17
ATOM     17  C   UNL     1       5.113  43.413   7.482  1.00  0.00     0.000 C 
BRANCH  17  18
ATOM     18  C   UNL     1       5.997  42.544   6.568  1.00  0.00    -0.000 C 
BRANCH  18  19
ATOM     19  C   UNL     1       7.248  43.243   6.000  1.00  0.00    -0.000 C 
BRANCH  19  20
ATOM     20  C   UNL     1       8.554  42.762   6.650  1.00  0.00    -0.000 C 
BRANCH  20  21
ATOM     21  C   UNL     1       8.333  41.463   7.442  1.00  0.00    -0.000 C 
BRANCH  21  22
ATOM     22  C   UNL     1       9.467  40.441   7.212  1.00  0.00    -0.000 C 
BRANCH  22  23
ATOM     23  C   UNL     1       9.676  40.069   5.733  1.00  0.00    -0.000 C 
BRANCH  23  24
ATOM     24  C   UNL     1       8.572  40.611   4.815  1.00  0.00    -0.000 C 
BRANCH  24  25
ATOM     25  C   UNL     1       9.162  41.182   3.520  1.00  0.00    -0.003 C 
ATOM     26  C   UNL     1      10.366  40.369   3.057  1.00  0.00     0.004 C 
ENDBRANCH  24  25
ENDBRANCH  23  24
ENDBRANCH  22  23
ENDBRANCH  21  22
ENDBRANCH  20  21
ENDBRANCH  19  20
ENDBRANCH  18  19
ENDBRANCH  17  18
ENDBRANCH  16  17
ENDBRANCH  15  16
ENDBRANCH   1  15
TORSDOF 22
ENDMDL
