MODEL 1
REMARK VINA RESULT:    -4.462      0.000      0.000
REMARK INTER + INTRA:         -10.276
REMARK INTER:                  -8.374
REMARK INTRA:                  -1.902
REMARK UNBOUND:                -1.902
REMARK SMILES CCCCCCCCC=CCCCCCCCC(=O)[O-]
REMARK SMILES IDX 10 1 9 2 11 3 12 4 13 5 14 6 15 7 16 8 17 9 18 10 19 11
REMARK SMILES IDX 20 12 8 13 7 14 6 15 5 16 4 17 3 18 2 19 1 20
REMARK H PARENT
REMARK Flexibility Score: inf
ROOT
ATOM      1  C   UNL     1       7.233   4.748  -2.171  1.00  0.00    -0.031 C 
ATOM      2  C   UNL     1       7.966   4.382  -1.102  1.00  0.00    -0.031 C 
ENDROOT
BRANCH   1   3
ATOM      3  C   UNL     1       7.801   5.288  -3.461  1.00  0.00     0.027 C 
BRANCH   3   4
ATOM      4  C   UNL     1       7.490   6.783  -3.645  1.00  0.00     0.004 C 
BRANCH   4   5
ATOM      5  C   UNL     1       8.346   7.664  -2.719  1.00  0.00     0.000 C 
BRANCH   5   6
ATOM      6  C   UNL     1       7.520   8.358  -1.624  1.00  0.00     0.000 C 
BRANCH   6   7
ATOM      7  C   UNL     1       7.315   9.856  -1.893  1.00  0.00     0.000 C 
BRANCH   7   8
ATOM      8  C   UNL     1       6.072  10.382  -1.165  1.00  0.00     0.006 C 
BRANCH   8   9
ATOM      9  C   UNL     1       5.140  11.125  -2.132  1.00  0.00     0.053 C 
BRANCH   9  10
ATOM     10  C   UNL     1       3.846  10.389  -2.300  1.00  0.00     0.041 C 
ATOM     11  O   UNL     1       3.771   9.166  -2.007  1.00  0.00    -0.550 OA
ATOM     12  O   UNL     1       2.725  11.052  -2.785  1.00  0.00    -0.550 OA
ENDBRANCH   9  10
ENDBRANCH   8   9
ENDBRANCH   7   8
ENDBRANCH   6   7
ENDBRANCH   5   6
ENDBRANCH   4   5
ENDBRANCH   3   4
ENDBRANCH   1   3
BRANCH   2  13
ATOM     13  C   UNL     1       9.477   4.401  -1.038  1.00  0.00     0.027 C 
BRANCH  13  14
ATOM     14  C   UNL     1       9.988   5.540  -0.147  1.00  0.00     0.004 C 
BRANCH  14  15
ATOM     15  C   UNL     1       9.117   5.734   1.104  1.00  0.00     0.000 C 
BRANCH  15  16
ATOM     16  C   UNL     1       9.978   6.063   2.329  1.00  0.00     0.000 C 
BRANCH  16  17
ATOM     17  C   UNL     1       9.478   7.333   3.028  1.00  0.00    -0.000 C 
BRANCH  17  18
ATOM     18  C   UNL     1       9.061   8.398   2.001  1.00  0.00    -0.000 C 
BRANCH  18  19
ATOM     19  C   UNL     1       9.107   9.822   2.576  1.00  0.00    -0.003 C 
ATOM     20  C   UNL     1       8.352  10.831   1.712  1.00  0.00     0.004 C 
ENDBRANCH  18  19
ENDBRANCH  17  18
ENDBRANCH  16  17
ENDBRANCH  15  16
ENDBRANCH  14  15
ENDBRANCH  13  14
ENDBRANCH   2  13
TORSDOF 15
ENDMDL
MODEL 2
REMARK VINA RESULT:    -4.414     14.961     17.426
REMARK INTER + INTRA:         -10.187
REMARK INTER:                  -7.753
REMARK INTRA:                  -2.434
REMARK UNBOUND:                -1.902
REMARK SMILES CCCCCCCCC=CCCCCCCCC(=O)[O-]
REMARK SMILES IDX 10 1 9 2 11 3 12 4 13 5 14 6 15 7 16 8 17 9 18 10 19 11
REMARK SMILES IDX 20 12 8 13 7 14 6 15 5 16 4 17 3 18 2 19 1 20
REMARK H PARENT
REMARK Flexibility Score: inf
ROOT
ATOM      1  C   UNL     1      -0.009  -5.803  -6.331  1.00  0.00    -0.031 C 
ATOM      2  C   UNL     1       1.035  -4.955  -6.401  1.00  0.00    -0.031 C 
ENDROOT
BRANCH   1   3
ATOM      3  C   UNL     1      -0.117  -7.101  -7.094  1.00  0.00     0.027 C 
BRANCH   3   4
ATOM      4  C   UNL     1      -1.055  -6.979  -8.306  1.00  0.00     0.004 C 
BRANCH   4   5
ATOM      5  C   UNL     1      -2.062  -5.828  -8.138  1.00  0.00     0.000 C 
BRANCH   5   6
ATOM      6  C   UNL     1      -3.124  -5.798  -9.248  1.00  0.00     0.000 C 
BRANCH   6   7
ATOM      7  C   UNL     1      -4.137  -4.656  -9.072  1.00  0.00     0.000 C 
BRANCH   7   8
ATOM      8  C   UNL     1      -4.487  -4.455  -7.593  1.00  0.00     0.006 C 
BRANCH   8   9
ATOM      9  C   UNL     1      -5.892  -4.989  -7.281  1.00  0.00     0.053 C 
BRANCH   9  10
ATOM     10  C   UNL     1      -6.305  -4.627  -5.888  1.00  0.00     0.041 C 
ATOM     11  O   UNL     1      -6.162  -3.447  -5.471  1.00  0.00    -0.550 OA
ATOM     12  O   UNL     1      -6.843  -5.594  -5.047  1.00  0.00    -0.550 OA
ENDBRANCH   9  10
ENDBRANCH   8   9
ENDBRANCH   7   8
ENDBRANCH   6   7
ENDBRANCH   5   6
ENDBRANCH   4   5
ENDBRANCH   3   4
ENDBRANCH   1   3
BRANCH   2  13
ATOM     13  C   UNL     1       2.291  -5.189  -7.210  1.00  0.00     0.027 C 
BRANCH  13  14
ATOM     14  C   UNL     1       2.074  -4.856  -8.692  1.00  0.00     0.004 C 
BRANCH  14  15
ATOM     15  C   UNL     1       1.321  -3.530  -8.885  1.00  0.00     0.000 C 
BRANCH  15  16
ATOM     16  C   UNL     1       0.196  -3.681  -9.915  1.00  0.00     0.000 C 
BRANCH  16  17
ATOM     17  C   UNL     1      -0.954  -2.711  -9.620  1.00  0.00    -0.000 C 
BRANCH  17  18
ATOM     18  C   UNL     1      -0.948  -2.286  -8.143  1.00  0.00    -0.000 C 
BRANCH  18  19
ATOM     19  C   UNL     1      -1.014  -0.761  -7.968  1.00  0.00    -0.003 C 
ATOM     20  C   UNL     1      -2.002  -0.098  -8.927  1.00  0.00     0.004 C 
ENDBRANCH  18  19
ENDBRANCH  17  18
ENDBRANCH  16  17
ENDBRANCH  15  16
ENDBRANCH  14  15
ENDBRANCH  13  14
ENDBRANCH   2  13
TORSDOF 15
ENDMDL
MODEL 3
REMARK VINA RESULT:    -4.381     14.778     17.024
REMARK INTER + INTRA:         -10.124
REMARK INTER:                  -7.702
REMARK INTRA:                  -2.422
REMARK UNBOUND:                -1.902
REMARK SMILES CCCCCCCCC=CCCCCCCCC(=O)[O-]
REMARK SMILES IDX 10 1 9 2 11 3 12 4 13 5 14 6 15 7 16 8 17 9 18 10 19 11
REMARK SMILES IDX 20 12 8 13 7 14 6 15 5 16 4 17 3 18 2 19 1 20
REMARK H PARENT
REMARK Flexibility Score: inf
ROOT
ATOM      1  C   UNL     1       0.271  -4.631  -6.162  1.00  0.00    -0.031 C 
ATOM      2  C   UNL     1      -0.954  -4.635  -6.724  1.00  0.00    -0.031 C 
ENDROOT
BRANCH   1   3
ATOM      3  C   UNL     1       1.390  -5.576  -6.531  1.00  0.00     0.027 C 
BRANCH   3   4
ATOM      4  C   UNL     1       2.309  -4.983  -7.612  1.00  0.00     0.004 C 
BRANCH   4   5
ATOM      5  C   UNL     1       1.993  -5.550  -9.007  1.00  0.00     0.000 C 
BRANCH   5   6
ATOM      6  C   UNL     1       1.423  -4.492  -9.965  1.00  0.00     0.000 C 
BRANCH   6   7
ATOM      7  C   UNL     1       1.345  -3.095  -9.331  1.00  0.00     0.000 C 
BRANCH   7   8
ATOM      8  C   UNL     1      -0.015  -2.442  -9.603  1.00  0.00     0.006 C 
BRANCH   8   9
ATOM      9  C   UNL     1      -0.358  -1.409  -8.521  1.00  0.00     0.053 C 
BRANCH   9  10
ATOM     10  C   UNL     1      -1.608  -0.662  -8.870  1.00  0.00     0.041 C 
ATOM     11  O   UNL     1      -2.372  -1.094  -9.774  1.00  0.00    -0.550 OA
ATOM     12  O   UNL     1      -1.928   0.513  -8.200  1.00  0.00    -0.550 OA
ENDBRANCH   9  10
ENDBRANCH   8   9
ENDBRANCH   7   8
ENDBRANCH   6   7
ENDBRANCH   5   6
ENDBRANCH   4   5
ENDBRANCH   3   4
ENDBRANCH   1   3
BRANCH   2  13
ATOM     13  C   UNL     1      -1.391  -5.547  -7.849  1.00  0.00     0.027 C 
BRANCH  13  14
ATOM     14  C   UNL     1      -2.716  -5.082  -8.466  1.00  0.00     0.004 C 
BRANCH  14  15
ATOM     15  C   UNL     1      -3.291  -3.851  -7.747  1.00  0.00     0.000 C 
BRANCH  15  16
ATOM     16  C   UNL     1      -4.756  -3.621  -8.135  1.00  0.00     0.000 C 
BRANCH  16  17
ATOM     17  C   UNL     1      -5.677  -4.622  -7.426  1.00  0.00    -0.000 C 
BRANCH  17  18
ATOM     18  C   UNL     1      -5.775  -4.310  -5.925  1.00  0.00    -0.000 C 
BRANCH  18  19
ATOM     19  C   UNL     1      -7.145  -3.736  -5.530  1.00  0.00    -0.003 C 
ATOM     20  C   UNL     1      -7.175  -2.208  -5.561  1.00  0.00     0.004 C 
ENDBRANCH  18  19
ENDBRANCH  17  18
ENDBRANCH  16  17
ENDBRANCH  15  16
ENDBRANCH  14  15
ENDBRANCH  13  14
ENDBRANCH   2  13
TORSDOF 15
ENDMDL
MODEL 4
REMARK VINA RESULT:    -4.278      2.839      5.483
REMARK INTER + INTRA:          -9.931
REMARK INTER:                  -7.730
REMARK INTRA:                  -2.201
REMARK UNBOUND:                -1.902
REMARK SMILES CCCCCCCCC=CCCCCCCCC(=O)[O-]
REMARK SMILES IDX 10 1 9 2 11 3 12 4 13 5 14 6 15 7 16 8 17 9 18 10 19 11
REMARK SMILES IDX 20 12 8 13 7 14 6 15 5 16 4 17 3 18 2 19 1 20
REMARK H PARENT
REMARK Flexibility Score: inf
ROOT
ATOM      1  C   UNL     1       6.022  10.584  -1.080  1.00  0.00    -0.031 C 
ATOM      2  C   UNL     1       6.886  11.078  -0.171  1.00  0.00    -0.031 C 
ENDROOT
BRANCH   1   3
ATOM      3  C   UNL     1       6.392   9.625  -2.186  1.00  0.00     0.027 C 
BRANCH   3   4
ATOM      4  C   UNL     1       5.974   8.182  -1.859  1.00  0.00     0.004 C 
BRANCH   4   5
ATOM      5  C   UNL     1       7.114   7.182  -2.118  1.00  0.00     0.000 C 
BRANCH   5   6
ATOM      6  C   UNL     1       8.360   7.844  -2.728  1.00  0.00     0.000 C 
BRANCH   6   7
ATOM      7  C   UNL     1       8.541   7.510  -4.217  1.00  0.00     0.000 C 
BRANCH   7   8
ATOM      8  C   UNL     1       7.725   6.272  -4.607  1.00  0.00     0.006 C 
BRANCH   8   9
ATOM      9  C   UNL     1       8.574   5.285  -5.420  1.00  0.00     0.053 C 
BRANCH   9  10
ATOM     10  C   UNL     1       8.128   5.246  -6.849  1.00  0.00     0.041 C 
ATOM     11  O   UNL     1       8.569   4.359  -7.626  1.00  0.00    -0.550 OA
ATOM     12  O   UNL     1       7.228   6.194  -7.324  1.00  0.00    -0.550 OA
ENDBRANCH   9  10
ENDBRANCH   8   9
ENDBRANCH   7   8
ENDBRANCH   6   7
ENDBRANCH   5   6
ENDBRANCH   4   5
ENDBRANCH   3   4
ENDBRANCH   1   3
BRANCH   2  13
ATOM     13  C   UNL     1       8.351  10.714  -0.078  1.00  0.00     0.027 C 
BRANCH  13  14
ATOM     14  C   UNL     1       8.653   9.926   1.203  1.00  0.00     0.004 C 
BRANCH  14  15
ATOM     15  C   UNL     1       9.148   8.502   0.906  1.00  0.00     0.000 C 
BRANCH  15  16
ATOM     16  C   UNL     1       9.175   7.652   2.181  1.00  0.00     0.000 C 
BRANCH  16  17
ATOM     17  C   UNL     1       9.541   6.197   1.864  1.00  0.00    -0.000 C 
BRANCH  17  18
ATOM     18  C   UNL     1       8.876   5.735   0.559  1.00  0.00    -0.000 C 
BRANCH  18  19
ATOM     19  C   UNL     1       9.840   4.962  -0.354  1.00  0.00    -0.003 C 
ATOM     20  C   UNL     1       9.117   4.181  -1.451  1.00  0.00     0.004 C 
ENDBRANCH  18  19
ENDBRANCH  17  18
ENDBRANCH  16  17
ENDBRANCH  15  16
ENDBRANCH  14  15
ENDBRANCH  13  14
ENDBRANCH   2  13
TORSDOF 15
ENDMDL
MODEL 5
REMARK VINA RESULT:    -4.276     15.303     17.692
REMARK INTER + INTRA:          -9.928
REMARK INTER:                  -7.610
REMARK INTRA:                  -2.318
REMARK UNBOUND:                -1.902
REMARK SMILES CCCCCCCCC=CCCCCCCCC(=O)[O-]
REMARK SMILES IDX 10 1 9 2 11 3 12 4 13 5 14 6 15 7 16 8 17 9 18 10 19 11
REMARK SMILES IDX 20 12 8 13 7 14 6 15 5 16 4 17 3 18 2 19 1 20
REMARK H PARENT
REMARK Flexibility Score: inf
ROOT
ATOM      1  C   UNL     1      -1.035  -4.382  -6.636  1.00  0.00    -0.031 C 
ATOM      2  C   UNL     1       0.219  -4.531  -6.167  1.00  0.00    -0.031 C 
ENDROOT
BRANCH   1   3
ATOM      3  C   UNL     1      -1.655  -5.230  -7.721  1.00  0.00     0.027 C 
BRANCH   3   4
ATOM      4  C   UNL     1      -2.629  -4.422  -8.595  1.00  0.00     0.004 C 
BRANCH   4   5
ATOM      5  C   UNL     1      -3.833  -5.268  -9.044  1.00  0.00     0.000 C 
BRANCH   5   6
ATOM      6  C   UNL     1      -4.919  -5.383  -7.962  1.00  0.00     0.000 C 
BRANCH   6   7
ATOM      7  C   UNL     1      -5.303  -4.023  -7.359  1.00  0.00     0.000 C 
BRANCH   7   8
ATOM      8  C   UNL     1      -5.795  -4.180  -5.915  1.00  0.00     0.006 C 
BRANCH   8   9
ATOM      9  C   UNL     1      -6.516  -5.521  -5.721  1.00  0.00     0.053 C 
BRANCH   9  10
ATOM     10  C   UNL     1      -7.736  -5.353  -4.869  1.00  0.00     0.041 C 
ATOM     11  O   UNL     1      -7.907  -6.082  -3.856  1.00  0.00    -0.550 OA
ATOM     12  O   UNL     1      -8.688  -4.394  -5.195  1.00  0.00    -0.550 OA
ENDBRANCH   9  10
ENDBRANCH   8   9
ENDBRANCH   7   8
ENDBRANCH   6   7
ENDBRANCH   5   6
ENDBRANCH   4   5
ENDBRANCH   3   4
ENDBRANCH   1   3
BRANCH   2  13
ATOM     13  C   UNL     1       1.189  -5.603  -6.610  1.00  0.00     0.027 C 
BRANCH  13  14
ATOM     14  C   UNL     1       2.128  -5.091  -7.710  1.00  0.00     0.004 C 
BRANCH  14  15
ATOM     15  C   UNL     1       1.800  -5.699  -9.083  1.00  0.00     0.000 C 
BRANCH  15  16
ATOM     16  C   UNL     1       1.230  -4.640 -10.032  1.00  0.00     0.000 C 
BRANCH  16  17
ATOM     17  C   UNL     1       1.390  -3.232  -9.446  1.00  0.00    -0.000 C 
BRANCH  17  18
ATOM     18  C   UNL     1       0.100  -2.415  -9.618  1.00  0.00    -0.000 C 
BRANCH  18  19
ATOM     19  C   UNL     1      -0.071  -1.347  -8.527  1.00  0.00    -0.003 C 
ATOM     20  C   UNL     1      -1.447  -0.682  -8.562  1.00  0.00     0.004 C 
ENDBRANCH  18  19
ENDBRANCH  17  18
ENDBRANCH  16  17
ENDBRANCH  15  16
ENDBRANCH  14  15
ENDBRANCH  13  14
ENDBRANCH   2  13
TORSDOF 15
ENDMDL
MODEL 6
REMARK VINA RESULT:    -4.275      3.116      5.737
REMARK INTER + INTRA:          -9.925
REMARK INTER:                  -7.851
REMARK INTRA:                  -2.073
REMARK UNBOUND:                -1.902
REMARK SMILES CCCCCCCCC=CCCCCCCCC(=O)[O-]
REMARK SMILES IDX 10 1 9 2 11 3 12 4 13 5 14 6 15 7 16 8 17 9 18 10 19 11
REMARK SMILES IDX 20 12 8 13 7 14 6 15 5 16 4 17 3 18 2 19 1 20
REMARK H PARENT
REMARK Flexibility Score: inf
ROOT
ATOM      1  C   UNL     1       8.905   6.151   0.137  1.00  0.00    -0.031 C 
ATOM      2  C   UNL     1       9.393   7.303  -0.361  1.00  0.00    -0.031 C 
ENDROOT
BRANCH   1   3
ATOM      3  C   UNL     1       8.948   4.819  -0.574  1.00  0.00     0.027 C 
BRANCH   3   4
ATOM      4  C   UNL     1       7.568   4.411  -1.114  1.00  0.00     0.004 C 
BRANCH   4   5
ATOM      5  C   UNL     1       6.977   5.483  -2.046  1.00  0.00     0.000 C 
BRANCH   5   6
ATOM      6  C   UNL     1       7.042   5.085  -3.529  1.00  0.00     0.000 C 
BRANCH   6   7
ATOM      7  C   UNL     1       8.332   5.560  -4.215  1.00  0.00     0.000 C 
BRANCH   7   8
ATOM      8  C   UNL     1       8.036   6.652  -5.250  1.00  0.00     0.006 C 
BRANCH   8   9
ATOM      9  C   UNL     1       8.744   6.359  -6.580  1.00  0.00     0.053 C 
BRANCH   9  10
ATOM     10  C   UNL     1       7.812   5.698  -7.548  1.00  0.00     0.041 C 
ATOM     11  O   UNL     1       6.917   6.371  -8.126  1.00  0.00    -0.550 OA
ATOM     12  O   UNL     1       7.928   4.337  -7.810  1.00  0.00    -0.550 OA
ENDBRANCH   9  10
ENDBRANCH   8   9
ENDBRANCH   7   8
ENDBRANCH   6   7
ENDBRANCH   5   6
ENDBRANCH   4   5
ENDBRANCH   3   4
ENDBRANCH   1   3
BRANCH   2  13
ATOM     13  C   UNL     1      10.110   7.443  -1.685  1.00  0.00     0.027 C 
BRANCH  13  14
ATOM     14  C   UNL     1       9.679   8.716  -2.425  1.00  0.00     0.004 C 
BRANCH  14  15
ATOM     15  C   UNL     1       8.155   8.914  -2.401  1.00  0.00     0.000 C 
BRANCH  15  16
ATOM     16  C   UNL     1       7.743  10.120  -3.252  1.00  0.00     0.000 C 
BRANCH  16  17
ATOM     17  C   UNL     1       6.455  10.758  -2.716  1.00  0.00    -0.000 C 
BRANCH  17  18
ATOM     18  C   UNL     1       5.864   9.922  -1.570  1.00  0.00    -0.000 C 
BRANCH  18  19
ATOM     19  C   UNL     1       4.333  10.023  -1.495  1.00  0.00    -0.003 C 
ATOM     20  C   UNL     1       3.729  10.742  -2.701  1.00  0.00     0.004 C 
ENDBRANCH  18  19
ENDBRANCH  17  18
ENDBRANCH  16  17
ENDBRANCH  15  16
ENDBRANCH  14  15
ENDBRANCH  13  14
ENDBRANCH   2  13
TORSDOF 15
ENDMDL
MODEL 7
REMARK VINA RESULT:    -4.268      2.715      5.412
REMARK INTER + INTRA:          -9.912
REMARK INTER:                  -7.803
REMARK INTRA:                  -2.109
REMARK UNBOUND:                -1.902
REMARK SMILES CCCCCCCCC=CCCCCCCCC(=O)[O-]
REMARK SMILES IDX 10 1 9 2 11 3 12 4 13 5 14 6 15 7 16 8 17 9 18 10 19 11
REMARK SMILES IDX 20 12 8 13 7 14 6 15 5 16 4 17 3 18 2 19 1 20
REMARK H PARENT
REMARK Flexibility Score: inf
ROOT
ATOM      1  C   UNL     1       9.299   5.965   2.013  1.00  0.00    -0.031 C 
ATOM      2  C   UNL     1       9.374   7.232   2.466  1.00  0.00    -0.031 C 
ENDROOT
BRANCH   1   3
ATOM      3  C   UNL     1       9.584   5.540   0.593  1.00  0.00     0.027 C 
BRANCH   3   4
ATOM      4  C   UNL     1       8.305   5.108  -0.145  1.00  0.00     0.004 C 
BRANCH   4   5
ATOM      5  C   UNL     1       8.539   4.962  -1.658  1.00  0.00     0.000 C 
BRANCH   5   6
ATOM      6  C   UNL     1       7.230   4.832  -2.454  1.00  0.00     0.000 C 
BRANCH   6   7
ATOM      7  C   UNL     1       7.228   5.675  -3.738  1.00  0.00     0.000 C 
BRANCH   7   8
ATOM      8  C   UNL     1       8.654   6.081  -4.132  1.00  0.00     0.006 C 
BRANCH   8   9
ATOM      9  C   UNL     1       8.667   6.804  -5.486  1.00  0.00     0.053 C 
BRANCH   9  10
ATOM     10  C   UNL     1       8.097   5.933  -6.562  1.00  0.00     0.041 C 
ATOM     11  O   UNL     1       7.154   6.352  -7.284  1.00  0.00    -0.550 OA
ATOM     12  O   UNL     1       8.604   4.654  -6.766  1.00  0.00    -0.550 OA
ENDBRANCH   9  10
ENDBRANCH   8   9
ENDBRANCH   7   8
ENDBRANCH   6   7
ENDBRANCH   5   6
ENDBRANCH   4   5
ENDBRANCH   3   4
ENDBRANCH   1   3
BRANCH   2  13
ATOM     13  C   UNL     1       9.808   8.423   1.642  1.00  0.00     0.027 C 
BRANCH  13  14
ATOM     14  C   UNL     1       8.885   9.628   1.868  1.00  0.00     0.004 C 
BRANCH  14  15
ATOM     15  C   UNL     1       8.266  10.139   0.557  1.00  0.00     0.000 C 
BRANCH  15  16
ATOM     16  C   UNL     1       8.903   9.453  -0.657  1.00  0.00     0.000 C 
BRANCH  16  17
ATOM     17  C   UNL     1       7.926   8.466  -1.306  1.00  0.00    -0.000 C 
BRANCH  17  18
ATOM     18  C   UNL     1       6.958   9.193  -2.252  1.00  0.00    -0.000 C 
BRANCH  18  19
ATOM     19  C   UNL     1       5.485   8.877  -1.947  1.00  0.00    -0.003 C 
ATOM     20  C   UNL     1       4.732  10.074  -1.369  1.00  0.00     0.004 C 
ENDBRANCH  18  19
ENDBRANCH  17  18
ENDBRANCH  16  17
ENDBRANCH  15  16
ENDBRANCH  14  15
ENDBRANCH  13  14
ENDBRANCH   2  13
TORSDOF 15
ENDMDL
MODEL 8
REMARK VINA RESULT:    -4.247      3.159      5.042
REMARK INTER + INTRA:          -9.873
REMARK INTER:                  -7.264
REMARK INTRA:                  -2.610
REMARK UNBOUND:                -1.902
REMARK SMILES CCCCCCCCC=CCCCCCCCC(=O)[O-]
REMARK SMILES IDX 10 1 9 2 11 3 12 4 13 5 14 6 15 7 16 8 17 9 18 10 19 11
REMARK SMILES IDX 20 12 8 13 7 14 6 15 5 16 4 17 3 18 2 19 1 20
REMARK H PARENT
REMARK Flexibility Score: inf
ROOT
ATOM      1  C   UNL     1       7.336   4.896  -2.430  1.00  0.00    -0.031 C 
ATOM      2  C   UNL     1       6.891   6.125  -2.755  1.00  0.00    -0.031 C 
ENDROOT
BRANCH   1   3
ATOM      3  C   UNL     1       8.095   4.560  -1.169  1.00  0.00     0.027 C 
BRANCH   3   4
ATOM      4  C   UNL     1       9.524   4.077  -1.470  1.00  0.00     0.004 C 
BRANCH   4   5
ATOM      5  C   UNL     1      10.411   5.211  -2.009  1.00  0.00     0.000 C 
BRANCH   5   6
ATOM      6  C   UNL     1      10.822   5.001  -3.475  1.00  0.00     0.000 C 
BRANCH   6   7
ATOM      7  C   UNL     1      10.189   6.030  -4.424  1.00  0.00     0.000 C 
BRANCH   7   8
ATOM      8  C   UNL     1       9.430   5.337  -5.562  1.00  0.00     0.006 C 
BRANCH   8   9
ATOM      9  C   UNL     1       8.149   6.103  -5.917  1.00  0.00     0.053 C 
BRANCH   9  10
ATOM     10  C   UNL     1       7.735   5.827  -7.330  1.00  0.00     0.041 C 
ATOM     11  O   UNL     1       7.443   6.778  -8.102  1.00  0.00    -0.550 OA
ATOM     12  O   UNL     1       7.666   4.517  -7.793  1.00  0.00    -0.550 OA
ENDBRANCH   9  10
ENDBRANCH   8   9
ENDBRANCH   7   8
ENDBRANCH   6   7
ENDBRANCH   5   6
ENDBRANCH   4   5
ENDBRANCH   3   4
ENDBRANCH   1   3
BRANCH   2  13
ATOM     13  C   UNL     1       7.031   7.356  -1.887  1.00  0.00     0.027 C 
BRANCH  13  14
ATOM     14  C   UNL     1       8.161   8.267  -2.383  1.00  0.00     0.004 C 
BRANCH  14  15
ATOM     15  C   UNL     1       9.181   8.582  -1.278  1.00  0.00     0.000 C 
BRANCH  15  16
ATOM     16  C   UNL     1       8.499   8.671   0.092  1.00  0.00     0.000 C 
BRANCH  16  17
ATOM     17  C   UNL     1       9.489   8.364   1.221  1.00  0.00    -0.000 C 
BRANCH  17  18
ATOM     18  C   UNL     1       9.824   6.865   1.266  1.00  0.00    -0.000 C 
BRANCH  18  19
ATOM     19  C   UNL     1       9.348   6.192   2.562  1.00  0.00    -0.003 C 
ATOM     20  C   UNL     1       9.431   7.119   3.774  1.00  0.00     0.004 C 
ENDBRANCH  18  19
ENDBRANCH  17  18
ENDBRANCH  16  17
ENDBRANCH  15  16
ENDBRANCH  14  15
ENDBRANCH  13  14
ENDBRANCH   2  13
TORSDOF 15
ENDMDL
MODEL 9
REMARK VINA RESULT:    -4.239     15.380     17.859
REMARK INTER + INTRA:          -9.858
REMARK INTER:                  -7.651
REMARK INTRA:                  -2.207
REMARK UNBOUND:                -1.902
REMARK SMILES CCCCCCCCC=CCCCCCCCC(=O)[O-]
REMARK SMILES IDX 10 1 9 2 11 3 12 4 13 5 14 6 15 7 16 8 17 9 18 10 19 11
REMARK SMILES IDX 20 12 8 13 7 14 6 15 5 16 4 17 3 18 2 19 1 20
REMARK H PARENT
REMARK Flexibility Score: inf
ROOT
ATOM      1  C   UNL     1      -2.028  -3.875  -7.220  1.00  0.00    -0.031 C 
ATOM      2  C   UNL     1      -1.227  -2.792  -7.249  1.00  0.00    -0.031 C 
ENDROOT
BRANCH   1   3
ATOM      3  C   UNL     1      -3.078  -4.197  -8.257  1.00  0.00     0.027 C 
BRANCH   3   4
ATOM      4  C   UNL     1      -3.041  -5.678  -8.670  1.00  0.00     0.004 C 
BRANCH   4   5
ATOM      5  C   UNL     1      -4.396  -6.370  -8.441  1.00  0.00     0.000 C 
BRANCH   5   6
ATOM      6  C   UNL     1      -5.421  -5.459  -7.747  1.00  0.00     0.000 C 
BRANCH   6   7
ATOM      7  C   UNL     1      -6.334  -6.224  -6.776  1.00  0.00     0.000 C 
BRANCH   7   8
ATOM      8  C   UNL     1      -6.909  -5.286  -5.707  1.00  0.00     0.006 C 
BRANCH   8   9
ATOM      9  C   UNL     1      -6.204  -3.923  -5.732  1.00  0.00     0.053 C 
BRANCH   9  10
ATOM     10  C   UNL     1      -7.195  -2.806  -5.618  1.00  0.00     0.041 C 
ATOM     11  O   UNL     1      -6.926  -1.788  -4.927  1.00  0.00    -0.550 OA
ATOM     12  O   UNL     1      -8.419  -2.892  -6.272  1.00  0.00    -0.550 OA
ENDBRANCH   9  10
ENDBRANCH   8   9
ENDBRANCH   7   8
ENDBRANCH   6   7
ENDBRANCH   5   6
ENDBRANCH   4   5
ENDBRANCH   3   4
ENDBRANCH   1   3
BRANCH   2  13
ATOM     13  C   UNL     1      -1.209  -1.754  -8.348  1.00  0.00     0.027 C 
BRANCH  13  14
ATOM     14  C   UNL     1      -0.330  -2.197  -9.525  1.00  0.00     0.004 C 
BRANCH  14  15
ATOM     15  C   UNL     1       1.006  -2.796  -9.058  1.00  0.00     0.000 C 
BRANCH  15  16
ATOM     16  C   UNL     1       1.303  -4.112  -9.786  1.00  0.00     0.000 C 
BRANCH  16  17
ATOM     17  C   UNL     1       1.821  -5.175  -8.810  1.00  0.00    -0.000 C 
BRANCH  17  18
ATOM     18  C   UNL     1       0.690  -6.119  -8.375  1.00  0.00    -0.000 C 
BRANCH  18  19
ATOM     19  C   UNL     1       0.588  -6.254  -6.848  1.00  0.00    -0.003 C 
ATOM     20  C   UNL     1       1.339  -5.149  -6.106  1.00  0.00     0.004 C 
ENDBRANCH  18  19
ENDBRANCH  17  18
ENDBRANCH  16  17
ENDBRANCH  15  16
ENDBRANCH  14  15
ENDBRANCH  13  14
ENDBRANCH   2  13
TORSDOF 15
ENDMDL
