MODEL 1
REMARK VINA RESULT:    -6.210      0.000      0.000
REMARK INTER + INTRA:          -6.391
REMARK INTER:                  -6.391
REMARK INTRA:                   0.000
REMARK UNBOUND:                 0.000
REMARK SMILES O=c1ccc2ccc(O)cc2o1
REMARK SMILES IDX 6 1 7 2 8 3 10 4 11 5 5 6 4 7 3 8 2 9 1 10 12 11 9 12
REMARK H PARENT 9 13
REMARK Flexibility Score: inf
ROOT
ATOM      1  C   UNL     1     -38.940  -8.973 -13.565  1.00  0.00     0.016 A 
ATOM      2  C   UNL     1     -40.333  -8.850 -13.564  1.00  0.00     0.047 A 
ATOM      3  C   UNL     1     -40.932  -7.599 -13.374  1.00  0.00     0.119 A 
ATOM      4  C   UNL     1     -40.134  -6.461 -13.184  1.00  0.00     0.094 A 
ATOM      5  C   UNL     1     -38.739  -6.575 -13.184  1.00  0.00     0.142 A 
ATOM      6  C   UNL     1     -38.138  -7.838 -13.375  1.00  0.00     0.018 A 
ATOM      7  C   UNL     1     -36.742  -7.920 -13.369  1.00  0.00     0.019 A 
ATOM      8  C   UNL     1     -35.990  -6.761 -13.176  1.00  0.00     0.094 A 
ATOM      9  C   UNL     1     -36.655  -5.544 -12.994  1.00  0.00     0.336 A 
ATOM     10  O   UNL     1     -35.993  -4.487 -12.818  1.00  0.00    -0.246 OA
ATOM     11  O   UNL     1     -37.984  -5.494 -13.003  1.00  0.00    -0.423 OA
ENDROOT
BRANCH   3  12
ATOM     12  O   UNL     1     -42.322  -7.497 -13.376  1.00  0.00    -0.508 OA
ATOM     13  H   UNL     1     -42.909  -8.251 -13.712  1.00  0.00     0.293 HD
ENDBRANCH   3  12
TORSDOF 1
ENDMDL
MODEL 2
REMARK VINA RESULT:    -6.204      7.780     10.031
REMARK INTER + INTRA:          -6.386
REMARK INTER:                  -6.386
REMARK INTRA:                   0.000
REMARK UNBOUND:                 0.000
REMARK SMILES O=c1ccc2ccc(O)cc2o1
REMARK SMILES IDX 6 1 7 2 8 3 10 4 11 5 5 6 4 7 3 8 2 9 1 10 12 11 9 12
REMARK H PARENT 9 13
REMARK Flexibility Score: inf
ROOT
ATOM      1  C   UNL     1     -30.039  -3.152 -18.453  1.00  0.00     0.016 A 
ATOM      2  C   UNL     1     -29.864  -2.630 -19.740  1.00  0.00     0.047 A 
ATOM      3  C   UNL     1     -30.972  -2.377 -20.556  1.00  0.00     0.119 A 
ATOM      4  C   UNL     1     -32.266  -2.646 -20.086  1.00  0.00     0.094 A 
ATOM      5  C   UNL     1     -32.450  -3.167 -18.800  1.00  0.00     0.142 A 
ATOM      6  C   UNL     1     -31.330  -3.422 -17.978  1.00  0.00     0.018 A 
ATOM      7  C   UNL     1     -31.546  -3.943 -16.699  1.00  0.00     0.019 A 
ATOM      8  C   UNL     1     -32.851  -4.194 -16.274  1.00  0.00     0.094 A 
ATOM      9  C   UNL     1     -33.912  -3.917 -17.143  1.00  0.00     0.336 A 
ATOM     10  O   UNL     1     -35.096  -4.137 -16.777  1.00  0.00    -0.246 OA
ATOM     11  O   UNL     1     -33.679  -3.422 -18.355  1.00  0.00    -0.423 OA
ENDROOT
BRANCH   3  12
ATOM     12  O   UNL     1     -30.778  -1.858 -21.835  1.00  0.00    -0.508 OA
ATOM     13  H   UNL     1     -30.664  -2.462 -22.641  1.00  0.00     0.293 HD
ENDBRANCH   3  12
TORSDOF 1
ENDMDL
MODEL 3
REMARK VINA RESULT:    -6.121      6.744      8.864
REMARK INTER + INTRA:          -6.300
REMARK INTER:                  -6.300
REMARK INTRA:                   0.000
REMARK UNBOUND:                 0.000
REMARK SMILES O=c1ccc2ccc(O)cc2o1
REMARK SMILES IDX 6 1 7 2 8 3 10 4 11 5 5 6 4 7 3 8 2 9 1 10 12 11 9 12
REMARK H PARENT 9 13
REMARK Flexibility Score: inf
ROOT
ATOM      1  C   UNL     1     -31.448  -2.846 -17.922  1.00  0.00     0.016 A 
ATOM      2  C   UNL     1     -31.549  -2.214 -19.167  1.00  0.00     0.047 A 
ATOM      3  C   UNL     1     -32.625  -2.494 -20.016  1.00  0.00     0.119 A 
ATOM      4  C   UNL     1     -33.610  -3.412 -19.621  1.00  0.00     0.094 A 
ATOM      5  C   UNL     1     -33.518  -4.048 -18.377  1.00  0.00     0.142 A 
ATOM      6  C   UNL     1     -32.430  -3.763 -17.522  1.00  0.00     0.018 A 
ATOM      7  C   UNL     1     -32.364  -4.414 -16.287  1.00  0.00     0.019 A 
ATOM      8  C   UNL     1     -33.367  -5.319 -15.937  1.00  0.00     0.094 A 
ATOM      9  C   UNL     1     -34.415  -5.551 -16.835  1.00  0.00     0.336 A 
ATOM     10  O   UNL     1     -35.329  -6.364 -16.536  1.00  0.00    -0.246 OA
ATOM     11  O   UNL     1     -34.453  -4.918 -18.004  1.00  0.00    -0.423 OA
ENDROOT
BRANCH   3  12
ATOM     12  O   UNL     1     -32.708  -1.856 -21.252  1.00  0.00    -0.508 OA
ATOM     13  H   UNL     1     -32.460  -0.880 -21.362  1.00  0.00     0.293 HD
ENDBRANCH   3  12
TORSDOF 1
ENDMDL
MODEL 4
REMARK VINA RESULT:    -5.837      1.273      1.733
REMARK INTER + INTRA:          -6.008
REMARK INTER:                  -6.008
REMARK INTRA:                   0.000
REMARK UNBOUND:                 0.000
REMARK SMILES O=c1ccc2ccc(O)cc2o1
REMARK SMILES IDX 6 1 7 2 8 3 10 4 11 5 5 6 4 7 3 8 2 9 1 10 12 11 9 12
REMARK H PARENT 9 13
REMARK Flexibility Score: inf
ROOT
ATOM      1  C   UNL     1     -37.034  -8.356 -13.689  1.00  0.00     0.016 A 
ATOM      2  C   UNL     1     -38.187  -9.150 -13.695  1.00  0.00     0.047 A 
ATOM      3  C   UNL     1     -39.432  -8.589 -13.389  1.00  0.00     0.119 A 
ATOM      4  C   UNL     1     -39.529  -7.226 -13.074  1.00  0.00     0.094 A 
ATOM      5  C   UNL     1     -38.382  -6.424 -13.066  1.00  0.00     0.142 A 
ATOM      6  C   UNL     1     -37.126  -6.993 -13.376  1.00  0.00     0.018 A 
ATOM      7  C   UNL     1     -35.998  -6.167 -13.359  1.00  0.00     0.019 A 
ATOM      8  C   UNL     1     -36.144  -4.817 -13.040  1.00  0.00     0.094 A 
ATOM      9  C   UNL     1     -37.419  -4.323 -12.745  1.00  0.00     0.336 A 
ATOM     10  O   UNL     1     -37.570  -3.108 -12.455  1.00  0.00    -0.246 OA
ATOM     11  O   UNL     1     -38.476  -5.131 -12.768  1.00  0.00    -0.423 OA
ENDROOT
BRANCH   3  12
ATOM     12  O   UNL     1     -40.569  -9.396 -13.399  1.00  0.00    -0.508 OA
ATOM     13  H   UNL     1     -41.320  -9.245 -14.062  1.00  0.00     0.293 HD
ENDBRANCH   3  12
TORSDOF 1
ENDMDL
MODEL 5
REMARK VINA RESULT:    -5.715      1.328      4.153
REMARK INTER + INTRA:          -5.882
REMARK INTER:                  -5.882
REMARK INTRA:                   0.000
REMARK UNBOUND:                 0.000
REMARK SMILES O=c1ccc2ccc(O)cc2o1
REMARK SMILES IDX 6 1 7 2 8 3 10 4 11 5 5 6 4 7 3 8 2 9 1 10 12 11 9 12
REMARK H PARENT 9 13
REMARK Flexibility Score: inf
ROOT
ATOM      1  C   UNL     1     -35.990  -6.590 -13.387  1.00  0.00     0.016 A 
ATOM      2  C   UNL     1     -35.927  -5.195 -13.291  1.00  0.00     0.047 A 
ATOM      3  C   UNL     1     -37.100  -4.440 -13.185  1.00  0.00     0.119 A 
ATOM      4  C   UNL     1     -38.348  -5.081 -13.174  1.00  0.00     0.094 A 
ATOM      5  C   UNL     1     -38.421  -6.476 -13.268  1.00  0.00     0.142 A 
ATOM      6  C   UNL     1     -37.235  -7.235 -13.375  1.00  0.00     0.018 A 
ATOM      7  C   UNL     1     -37.339  -8.626 -13.469  1.00  0.00     0.019 A 
ATOM      8  C   UNL     1     -38.602  -9.220 -13.453  1.00  0.00     0.094 A 
ATOM      9  C   UNL     1     -39.734  -8.403 -13.344  1.00  0.00     0.336 A 
ATOM     10  O   UNL     1     -40.881  -8.921 -13.328  1.00  0.00    -0.246 OA
ATOM     11  O   UNL     1     -39.606  -7.083 -13.257  1.00  0.00    -0.423 OA
ENDROOT
BRANCH   3  12
ATOM     12  O   UNL     1     -37.017  -3.053 -13.092  1.00  0.00    -0.508 OA
ATOM     13  H   UNL     1     -37.674  -2.448 -13.571  1.00  0.00     0.293 HD
ENDBRANCH   3  12
TORSDOF 1
ENDMDL
MODEL 6
REMARK VINA RESULT:    -5.667      1.877      3.212
REMARK INTER + INTRA:          -5.832
REMARK INTER:                  -5.832
REMARK INTRA:                   0.000
REMARK UNBOUND:                 0.000
REMARK SMILES O=c1ccc2ccc(O)cc2o1
REMARK SMILES IDX 6 1 7 2 8 3 10 4 11 5 5 6 4 7 3 8 2 9 1 10 12 11 9 12
REMARK H PARENT 9 13
REMARK Flexibility Score: inf
ROOT
ATOM      1  C   UNL     1     -39.647  -8.390 -13.396  1.00  0.00     0.016 A 
ATOM      2  C   UNL     1     -38.669  -9.099 -14.103  1.00  0.00     0.047 A 
ATOM      3  C   UNL     1     -37.451  -8.490 -14.426  1.00  0.00     0.119 A 
ATOM      4  C   UNL     1     -37.206  -7.164 -14.041  1.00  0.00     0.094 A 
ATOM      5  C   UNL     1     -38.178  -6.448 -13.333  1.00  0.00     0.142 A 
ATOM      6  C   UNL     1     -39.406  -7.064 -13.008  1.00  0.00     0.018 A 
ATOM      7  C   UNL     1     -40.358  -6.324 -12.301  1.00  0.00     0.019 A 
ATOM      8  C   UNL     1     -40.069  -5.008 -11.939  1.00  0.00     0.094 A 
ATOM      9  C   UNL     1     -38.830  -4.463 -12.294  1.00  0.00     0.336 A 
ATOM     10  O   UNL     1     -38.552  -3.277 -11.976  1.00  0.00    -0.246 OA
ATOM     11  O   UNL     1     -37.943  -5.189 -12.968  1.00  0.00    -0.423 OA
ENDROOT
BRANCH   3  12
ATOM     12  O   UNL     1     -36.490  -9.211 -15.131  1.00  0.00    -0.508 OA
ATOM     13  H   UNL     1     -35.745  -8.748 -15.638  1.00  0.00     0.293 HD
ENDBRANCH   3  12
TORSDOF 1
ENDMDL
MODEL 7
REMARK VINA RESULT:    -5.607      1.614      2.358
REMARK INTER + INTRA:          -5.771
REMARK INTER:                  -5.771
REMARK INTRA:                   0.000
REMARK UNBOUND:                 0.000
REMARK SMILES O=c1ccc2ccc(O)cc2o1
REMARK SMILES IDX 6 1 7 2 8 3 10 4 11 5 5 6 4 7 3 8 2 9 1 10 12 11 9 12
REMARK H PARENT 9 13
REMARK Flexibility Score: inf
ROOT
ATOM      1  C   UNL     1     -40.005  -6.448 -12.999  1.00  0.00     0.016 A 
ATOM      2  C   UNL     1     -40.464  -7.770 -12.994  1.00  0.00     0.047 A 
ATOM      3  C   UNL     1     -39.613  -8.814 -13.374  1.00  0.00     0.119 A 
ATOM      4  C   UNL     1     -38.294  -8.538 -13.763  1.00  0.00     0.094 A 
ATOM      5  C   UNL     1     -37.826  -7.219 -13.770  1.00  0.00     0.142 A 
ATOM      6  C   UNL     1     -38.687  -6.167 -13.385  1.00  0.00     0.018 A 
ATOM      7  C   UNL     1     -38.191  -4.860 -13.403  1.00  0.00     0.019 A 
ATOM      8  C   UNL     1     -36.872  -4.634 -13.796  1.00  0.00     0.094 A 
ATOM      9  C   UNL     1     -36.077  -5.726 -14.163  1.00  0.00     0.336 A 
ATOM     10  O   UNL     1     -34.884  -5.542 -14.521  1.00  0.00    -0.246 OA
ATOM     11  O   UNL     1     -36.574  -6.959 -14.138  1.00  0.00    -0.423 OA
ENDROOT
BRANCH   3  12
ATOM     12  O   UNL     1     -40.089 -10.124 -13.364  1.00  0.00    -0.508 OA
ATOM     13  H   UNL     1     -39.591 -10.866 -12.885  1.00  0.00     0.293 HD
ENDBRANCH   3  12
TORSDOF 1
ENDMDL
MODEL 8
REMARK VINA RESULT:    -5.510      1.641      4.725
REMARK INTER + INTRA:          -5.671
REMARK INTER:                  -5.671
REMARK INTRA:                   0.000
REMARK UNBOUND:                 0.000
REMARK SMILES O=c1ccc2ccc(O)cc2o1
REMARK SMILES IDX 6 1 7 2 8 3 10 4 11 5 5 6 4 7 3 8 2 9 1 10 12 11 9 12
REMARK H PARENT 9 13
REMARK Flexibility Score: inf
ROOT
ATOM      1  C   UNL     1     -38.422  -4.409 -12.686  1.00  0.00     0.016 A 
ATOM      2  C   UNL     1     -37.105  -3.973 -12.867  1.00  0.00     0.047 A 
ATOM      3  C   UNL     1     -36.109  -4.876 -13.256  1.00  0.00     0.119 A 
ATOM      4  C   UNL     1     -36.429  -6.226 -13.466  1.00  0.00     0.094 A 
ATOM      5  C   UNL     1     -37.744  -6.671 -13.288  1.00  0.00     0.142 A 
ATOM      6  C   UNL     1     -38.747  -5.757 -12.895  1.00  0.00     0.018 A 
ATOM      7  C   UNL     1     -40.051  -6.231 -12.724  1.00  0.00     0.019 A 
ATOM      8  C   UNL     1     -40.322  -7.582 -12.945  1.00  0.00     0.094 A 
ATOM      9  C   UNL     1     -39.278  -8.428 -13.333  1.00  0.00     0.336 A 
ATOM     10  O   UNL     1     -39.503  -9.650 -13.536  1.00  0.00    -0.246 OA
ATOM     11  O   UNL     1     -38.046  -7.951 -13.488  1.00  0.00    -0.423 OA
ENDROOT
BRANCH   3  12
ATOM     12  O   UNL     1     -34.803  -4.423 -13.431  1.00  0.00    -0.508 OA
ATOM     13  H   UNL     1     -34.597  -3.596 -13.978  1.00  0.00     0.293 HD
ENDBRANCH   3  12
TORSDOF 1
ENDMDL
MODEL 9
REMARK VINA RESULT:    -5.465      2.135      3.504
REMARK INTER + INTRA:          -5.625
REMARK INTER:                  -5.625
REMARK INTRA:                   0.000
REMARK UNBOUND:                 0.000
REMARK SMILES O=c1ccc2ccc(O)cc2o1
REMARK SMILES IDX 6 1 7 2 8 3 10 4 11 5 5 6 4 7 3 8 2 9 1 10 12 11 9 12
REMARK H PARENT 9 13
REMARK Flexibility Score: inf
ROOT
ATOM      1  C   UNL     1     -40.417  -6.354 -12.259  1.00  0.00     0.016 A 
ATOM      2  C   UNL     1     -40.197  -5.020 -11.900  1.00  0.00     0.047 A 
ATOM      3  C   UNL     1     -38.989  -4.391 -12.223  1.00  0.00     0.119 A 
ATOM      4  C   UNL     1     -37.992  -5.100 -12.911  1.00  0.00     0.094 A 
ATOM      5  C   UNL     1     -38.204  -6.435 -13.275  1.00  0.00     0.142 A 
ATOM      6  C   UNL     1     -39.424  -7.066 -12.946  1.00  0.00     0.018 A 
ATOM      7  C   UNL     1     -39.607  -8.400 -13.322  1.00  0.00     0.019 A 
ATOM      8  C   UNL     1     -38.588  -9.064 -14.005  1.00  0.00     0.094 A 
ATOM      9  C   UNL     1     -37.406  -8.374 -14.297  1.00  0.00     0.336 A 
ATOM     10  O   UNL     1     -36.475  -8.957 -14.912  1.00  0.00    -0.246 OA
ATOM     11  O   UNL     1     -37.258  -7.105 -13.927  1.00  0.00    -0.423 OA
ENDROOT
BRANCH   3  12
ATOM     12  O   UNL     1     -38.787  -3.062 -11.857  1.00  0.00    -0.508 OA
ATOM     13  H   UNL     1     -38.788  -2.317 -12.543  1.00  0.00     0.293 HD
ENDBRANCH   3  12
TORSDOF 1
ENDMDL
