MODEL 1
REMARK VINA RESULT:    -4.149      0.000      0.000
REMARK INTER + INTRA:         -12.126
REMARK INTER:                  -9.485
REMARK INTRA:                  -2.642
REMARK UNBOUND:                -2.642
REMARK SMILES CCCCCCCCCCCCCCCCCCCCCCCC(=O)[O-]
REMARK SMILES IDX 13 1 14 2 15 3 16 4 17 5 18 6 19 7 20 8 21 9 22 10 23 11
REMARK SMILES IDX 24 12 25 13 26 14 12 15 11 16 10 17 9 18 8 19 7 20 6 21 5 22
REMARK SMILES IDX 4 23 3 24 2 25 1 26
REMARK H PARENT
REMARK Flexibility Score: inf
ROOT
ATOM      1  C   UNL     1      -3.997  -0.300  -6.702  1.00  0.00     0.000 C 
ENDROOT
BRANCH   1   2
ATOM      2  C   UNL     1      -4.547  -1.173  -5.558  1.00  0.00     0.000 C 
BRANCH   2   3
ATOM      3  C   UNL     1      -5.120  -0.389  -4.364  1.00  0.00     0.000 C 
BRANCH   3   4
ATOM      4  C   UNL     1      -6.652  -0.279  -4.402  1.00  0.00     0.000 C 
BRANCH   4   5
ATOM      5  C   UNL     1      -7.091   1.147  -4.754  1.00  0.00     0.000 C 
BRANCH   5   6
ATOM      6  C   UNL     1      -8.007   1.150  -5.988  1.00  0.00     0.000 C 
BRANCH   6   7
ATOM      7  C   UNL     1      -7.256   0.806  -7.284  1.00  0.00     0.000 C 
BRANCH   7   8
ATOM      8  C   UNL     1      -7.766  -0.494  -7.929  1.00  0.00     0.000 C 
BRANCH   8   9
ATOM      9  C   UNL     1      -6.690  -1.210  -8.767  1.00  0.00     0.000 C 
BRANCH   9  10
ATOM     10  C   UNL     1      -6.828  -2.741  -8.838  1.00  0.00     0.006 C 
BRANCH  10  11
ATOM     11  C   UNL     1      -6.294  -3.448  -7.584  1.00  0.00     0.053 C 
BRANCH  11  12
ATOM     12  C   UNL     1      -5.008  -4.154  -7.884  1.00  0.00     0.041 C 
ATOM     13  O   UNL     1      -4.179  -4.380  -6.963  1.00  0.00    -0.550 OA
ATOM     14  O   UNL     1      -4.715  -4.547  -9.184  1.00  0.00    -0.550 OA
ENDBRANCH  11  12
ENDBRANCH  10  11
ENDBRANCH   9  10
ENDBRANCH   8   9
ENDBRANCH   7   8
ENDBRANCH   6   7
ENDBRANCH   5   6
ENDBRANCH   4   5
ENDBRANCH   3   4
ENDBRANCH   2   3
ENDBRANCH   1   2
BRANCH   1  15
ATOM     15  C   UNL     1      -2.799  -0.900  -7.464  1.00  0.00     0.000 C 
BRANCH  15  16
ATOM     16  C   UNL     1      -1.710   0.110  -7.877  1.00  0.00     0.000 C 
BRANCH  16  17
ATOM     17  C   UNL     1      -1.875   0.708  -9.287  1.00  0.00     0.000 C 
BRANCH  17  18
ATOM     18  C   UNL     1      -2.446   2.131  -9.275  1.00  0.00    -0.000 C 
BRANCH  18  19
ATOM     19  C   UNL     1      -3.961   2.112  -9.520  1.00  0.00    -0.000 C 
BRANCH  19  20
ATOM     20  C   UNL     1      -4.584   3.518  -9.598  1.00  0.00    -0.000 C 
BRANCH  20  21
ATOM     21  C   UNL     1      -3.591   4.701  -9.566  1.00  0.00    -0.000 C 
BRANCH  21  22
ATOM     22  C   UNL     1      -4.215   6.103  -9.387  1.00  0.00    -0.000 C 
BRANCH  22  23
ATOM     23  C   UNL     1      -5.019   6.284  -8.087  1.00  0.00    -0.000 C 
BRANCH  23  24
ATOM     24  C   UNL     1      -4.669   7.572  -7.327  1.00  0.00    -0.000 C 
BRANCH  24  25
ATOM     25  C   UNL     1      -3.382   7.405  -6.510  1.00  0.00    -0.003 C 
ATOM     26  C   UNL     1      -3.661   7.511  -5.013  1.00  0.00     0.004 C 
ENDBRANCH  24  25
ENDBRANCH  23  24
ENDBRANCH  22  23
ENDBRANCH  21  22
ENDBRANCH  20  21
ENDBRANCH  19  20
ENDBRANCH  18  19
ENDBRANCH  17  18
ENDBRANCH  16  17
ENDBRANCH  15  16
ENDBRANCH   1  15
TORSDOF 22
ENDMDL
MODEL 2
REMARK VINA RESULT:    -4.064      9.182     11.998
REMARK INTER + INTRA:         -11.932
REMARK INTER:                 -10.657
REMARK INTRA:                  -1.275
REMARK UNBOUND:                -2.642
REMARK SMILES CCCCCCCCCCCCCCCCCCCCCCCC(=O)[O-]
REMARK SMILES IDX 13 1 14 2 15 3 16 4 17 5 18 6 19 7 20 8 21 9 22 10 23 11
REMARK SMILES IDX 24 12 25 13 26 14 12 15 11 16 10 17 9 18 8 19 7 20 6 21 5 22
REMARK SMILES IDX 4 23 3 24 2 25 1 26
REMARK H PARENT
REMARK Flexibility Score: inf
ROOT
ATOM      1  C   UNL     1      -6.996  -0.294   3.648  1.00  0.00     0.000 C 
ENDROOT
BRANCH   1   2
ATOM      2  C   UNL     1      -8.048  -1.126   2.890  1.00  0.00     0.000 C 
BRANCH   2   3
ATOM      3  C   UNL     1      -7.922  -2.649   3.072  1.00  0.00     0.000 C 
BRANCH   3   4
ATOM      4  C   UNL     1      -7.515  -3.047   4.499  1.00  0.00     0.000 C 
BRANCH   4   5
ATOM      5  C   UNL     1      -6.262  -3.930   4.486  1.00  0.00     0.000 C 
BRANCH   5   6
ATOM      6  C   UNL     1      -5.671  -4.064   5.898  1.00  0.00     0.000 C 
BRANCH   6   7
ATOM      7  C   UNL     1      -5.531  -2.711   6.613  1.00  0.00     0.000 C 
BRANCH   7   8
ATOM      8  C   UNL     1      -4.112  -2.480   7.160  1.00  0.00     0.000 C 
BRANCH   8   9
ATOM      9  C   UNL     1      -3.646  -1.018   7.021  1.00  0.00     0.000 C 
BRANCH   9  10
ATOM     10  C   UNL     1      -4.775   0.028   6.991  1.00  0.00     0.006 C 
BRANCH  10  11
ATOM     11  C   UNL     1      -4.257   1.462   6.815  1.00  0.00     0.053 C 
BRANCH  11  12
ATOM     12  C   UNL     1      -3.899   2.061   8.139  1.00  0.00     0.041 C 
ATOM     13  O   UNL     1      -3.738   3.305   8.250  1.00  0.00    -0.550 OA
ATOM     14  O   UNL     1      -3.726   1.244   9.250  1.00  0.00    -0.550 OA
ENDBRANCH  11  12
ENDBRANCH  10  11
ENDBRANCH   9  10
ENDBRANCH   8   9
ENDBRANCH   7   8
ENDBRANCH   6   7
ENDBRANCH   5   6
ENDBRANCH   4   5
ENDBRANCH   3   4
ENDBRANCH   2   3
ENDBRANCH   1   2
BRANCH   1  15
ATOM     15  C   UNL     1      -7.063   1.226   3.400  1.00  0.00     0.000 C 
BRANCH  15  16
ATOM     16  C   UNL     1      -7.835   1.651   2.134  1.00  0.00     0.000 C 
BRANCH  16  17
ATOM     17  C   UNL     1      -7.350   2.959   1.483  1.00  0.00     0.000 C 
BRANCH  17  18
ATOM     18  C   UNL     1      -7.864   3.146   0.050  1.00  0.00    -0.000 C 
BRANCH  18  19
ATOM     19  C   UNL     1      -6.922   4.053  -0.754  1.00  0.00    -0.000 C 
BRANCH  19  20
ATOM     20  C   UNL     1      -6.666   5.414  -0.081  1.00  0.00    -0.000 C 
BRANCH  20  21
ATOM     21  C   UNL     1      -7.027   6.662  -0.919  1.00  0.00    -0.000 C 
BRANCH  21  22
ATOM     22  C   UNL     1      -6.022   7.044  -2.029  1.00  0.00    -0.000 C 
BRANCH  22  23
ATOM     23  C   UNL     1      -6.651   7.733  -3.253  1.00  0.00    -0.000 C 
BRANCH  23  24
ATOM     24  C   UNL     1      -5.803   7.608  -4.527  1.00  0.00    -0.000 C 
BRANCH  24  25
ATOM     25  C   UNL     1      -4.305   7.609  -4.202  1.00  0.00    -0.003 C 
ATOM     26  C   UNL     1      -3.464   7.722  -5.472  1.00  0.00     0.004 C 
ENDBRANCH  24  25
ENDBRANCH  23  24
ENDBRANCH  22  23
ENDBRANCH  21  22
ENDBRANCH  20  21
ENDBRANCH  19  20
ENDBRANCH  18  19
ENDBRANCH  17  18
ENDBRANCH  16  17
ENDBRANCH  15  16
ENDBRANCH   1  15
TORSDOF 22
ENDMDL
MODEL 3
REMARK VINA RESULT:    -4.021     10.726     13.681
REMARK INTER + INTRA:         -11.833
REMARK INTER:                  -9.509
REMARK INTRA:                  -2.325
REMARK UNBOUND:                -2.642
REMARK SMILES CCCCCCCCCCCCCCCCCCCCCCCC(=O)[O-]
REMARK SMILES IDX 13 1 14 2 15 3 16 4 17 5 18 6 19 7 20 8 21 9 22 10 23 11
REMARK SMILES IDX 24 12 25 13 26 14 12 15 11 16 10 17 9 18 8 19 7 20 6 21 5 22
REMARK SMILES IDX 4 23 3 24 2 25 1 26
REMARK H PARENT
REMARK Flexibility Score: inf
ROOT
ATOM      1  C   UNL     1      -6.018  -3.912   4.527  1.00  0.00     0.000 C 
ENDROOT
BRANCH   1   2
ATOM      2  C   UNL     1      -5.831  -4.089   6.046  1.00  0.00     0.000 C 
BRANCH   2   3
ATOM      3  C   UNL     1      -7.127  -4.354   6.832  1.00  0.00     0.000 C 
BRANCH   3   4
ATOM      4  C   UNL     1      -7.299  -3.411   8.033  1.00  0.00     0.000 C 
BRANCH   4   5
ATOM      5  C   UNL     1      -6.059  -3.439   8.934  1.00  0.00     0.000 C 
BRANCH   5   6
ATOM      6  C   UNL     1      -5.859  -2.086   9.634  1.00  0.00     0.000 C 
BRANCH   6   7
ATOM      7  C   UNL     1      -4.458  -1.498   9.397  1.00  0.00     0.000 C 
BRANCH   7   8
ATOM      8  C   UNL     1      -3.839  -1.975   8.072  1.00  0.00     0.000 C 
BRANCH   8   9
ATOM      9  C   UNL     1      -4.036  -0.969   6.922  1.00  0.00     0.000 C 
BRANCH   9  10
ATOM     10  C   UNL     1      -4.855   0.282   7.281  1.00  0.00     0.006 C 
BRANCH  10  11
ATOM     11  C   UNL     1      -4.215   1.583   6.776  1.00  0.00     0.053 C 
BRANCH  11  12
ATOM     12  C   UNL     1      -3.259   2.129   7.790  1.00  0.00     0.041 C 
ATOM     13  O   UNL     1      -3.451   3.266   8.296  1.00  0.00    -0.550 OA
ATOM     14  O   UNL     1      -2.142   1.391   8.165  1.00  0.00    -0.550 OA
ENDBRANCH  11  12
ENDBRANCH  10  11
ENDBRANCH   9  10
ENDBRANCH   8   9
ENDBRANCH   7   8
ENDBRANCH   6   7
ENDBRANCH   5   6
ENDBRANCH   4   5
ENDBRANCH   3   4
ENDBRANCH   2   3
ENDBRANCH   1   2
BRANCH   1  15
ATOM     15  C   UNL     1      -7.435  -3.494   4.088  1.00  0.00     0.000 C 
BRANCH  15  16
ATOM     16  C   UNL     1      -7.553  -2.063   3.525  1.00  0.00     0.000 C 
BRANCH  16  17
ATOM     17  C   UNL     1      -6.732  -0.997   4.274  1.00  0.00     0.000 C 
BRANCH  17  18
ATOM     18  C   UNL     1      -7.495   0.318   4.478  1.00  0.00    -0.000 C 
BRANCH  18  19
ATOM     19  C   UNL     1      -6.928   1.422   3.576  1.00  0.00    -0.000 C 
BRANCH  19  20
ATOM     20  C   UNL     1      -7.642   1.527   2.216  1.00  0.00    -0.000 C 
BRANCH  20  21
ATOM     21  C   UNL     1      -7.938   2.958   1.715  1.00  0.00    -0.000 C 
BRANCH  21  22
ATOM     22  C   UNL     1      -7.090   3.444   0.519  1.00  0.00    -0.000 C 
BRANCH  22  23
ATOM     23  C   UNL     1      -6.871   4.967   0.465  1.00  0.00    -0.000 C 
BRANCH  23  24
ATOM     24  C   UNL     1      -7.856   5.693  -0.462  1.00  0.00    -0.000 C 
BRANCH  24  25
ATOM     25  C   UNL     1      -7.263   5.890  -1.862  1.00  0.00    -0.003 C 
ATOM     26  C   UNL     1      -6.154   6.940  -1.848  1.00  0.00     0.004 C 
ENDBRANCH  24  25
ENDBRANCH  23  24
ENDBRANCH  22  23
ENDBRANCH  21  22
ENDBRANCH  20  21
ENDBRANCH  19  20
ENDBRANCH  18  19
ENDBRANCH  17  18
ENDBRANCH  16  17
ENDBRANCH  15  16
ENDBRANCH   1  15
TORSDOF 22
ENDMDL
MODEL 4
REMARK VINA RESULT:    -3.893      9.620     13.899
REMARK INTER + INTRA:         -11.543
REMARK INTER:                  -9.696
REMARK INTRA:                  -1.847
REMARK UNBOUND:                -2.642
REMARK SMILES CCCCCCCCCCCCCCCCCCCCCCCC(=O)[O-]
REMARK SMILES IDX 13 1 14 2 15 3 16 4 17 5 18 6 19 7 20 8 21 9 22 10 23 11
REMARK SMILES IDX 24 12 25 13 26 14 12 15 11 16 10 17 9 18 8 19 7 20 6 21 5 22
REMARK SMILES IDX 4 23 3 24 2 25 1 26
REMARK H PARENT
REMARK Flexibility Score: inf
ROOT
ATOM      1  C   UNL     1      -7.159  -0.116   4.017  1.00  0.00     0.000 C 
ENDROOT
BRANCH   1   2
ATOM      2  C   UNL     1      -7.576   0.446   2.643  1.00  0.00     0.000 C 
BRANCH   2   3
ATOM      3  C   UNL     1      -7.658   1.981   2.570  1.00  0.00     0.000 C 
BRANCH   3   4
ATOM      4  C   UNL     1      -8.025   2.491   1.168  1.00  0.00     0.000 C 
BRANCH   4   5
ATOM      5  C   UNL     1      -6.922   3.395   0.607  1.00  0.00     0.000 C 
BRANCH   5   6
ATOM      6  C   UNL     1      -7.511   4.705   0.060  1.00  0.00     0.000 C 
BRANCH   6   7
ATOM      7  C   UNL     1      -6.589   5.913   0.294  1.00  0.00     0.000 C 
BRANCH   7   8
ATOM      8  C   UNL     1      -7.311   7.253   0.072  1.00  0.00     0.000 C 
BRANCH   8   9
ATOM      9  C   UNL     1      -7.353   7.674  -1.409  1.00  0.00     0.000 C 
BRANCH   9  10
ATOM     10  C   UNL     1      -6.129   7.254  -2.243  1.00  0.00     0.006 C 
BRANCH  10  11
ATOM     11  C   UNL     1      -6.364   7.379  -3.755  1.00  0.00     0.053 C 
BRANCH  11  12
ATOM     12  C   UNL     1      -5.115   7.828  -4.447  1.00  0.00     0.041 C 
ATOM     13  O   UNL     1      -5.131   8.088  -5.679  1.00  0.00    -0.550 OA
ATOM     14  O   UNL     1      -3.926   7.941  -3.737  1.00  0.00    -0.550 OA
ENDBRANCH  11  12
ENDBRANCH  10  11
ENDBRANCH   9  10
ENDBRANCH   8   9
ENDBRANCH   7   8
ENDBRANCH   6   7
ENDBRANCH   5   6
ENDBRANCH   4   5
ENDBRANCH   3   4
ENDBRANCH   2   3
ENDBRANCH   1   2
BRANCH   1  15
ATOM     15  C   UNL     1      -6.805   0.946   5.076  1.00  0.00     0.000 C 
BRANCH  15  16
ATOM     16  C   UNL     1      -5.536   0.652   5.902  1.00  0.00     0.000 C 
BRANCH  16  17
ATOM     17  C   UNL     1      -5.263   1.637   7.053  1.00  0.00     0.000 C 
BRANCH  17  18
ATOM     18  C   UNL     1      -3.806   2.111   7.109  1.00  0.00    -0.000 C 
BRANCH  18  19
ATOM     19  C   UNL     1      -2.866   0.946   7.448  1.00  0.00    -0.000 C 
BRANCH  19  20
ATOM     20  C   UNL     1      -3.192   0.270   8.792  1.00  0.00    -0.000 C 
BRANCH  20  21
ATOM     21  C   UNL     1      -3.732  -1.176   8.708  1.00  0.00    -0.000 C 
BRANCH  21  22
ATOM     22  C   UNL     1      -5.194  -1.379   9.165  1.00  0.00    -0.000 C 
BRANCH  22  23
ATOM     23  C   UNL     1      -5.979  -2.424   8.352  1.00  0.00    -0.000 C 
BRANCH  23  24
ATOM     24  C   UNL     1      -5.268  -2.851   7.059  1.00  0.00    -0.000 C 
BRANCH  24  25
ATOM     25  C   UNL     1      -6.231  -3.565   6.103  1.00  0.00    -0.003 C 
ATOM     26  C   UNL     1      -5.606  -3.744   4.721  1.00  0.00     0.004 C 
ENDBRANCH  24  25
ENDBRANCH  23  24
ENDBRANCH  22  23
ENDBRANCH  21  22
ENDBRANCH  20  21
ENDBRANCH  19  20
ENDBRANCH  18  19
ENDBRANCH  17  18
ENDBRANCH  16  17
ENDBRANCH  15  16
ENDBRANCH   1  15
TORSDOF 22
ENDMDL
MODEL 5
REMARK VINA RESULT:    -3.813     12.993     17.218
REMARK INTER + INTRA:         -11.359
REMARK INTER:                  -8.143
REMARK INTRA:                  -3.216
REMARK UNBOUND:                -2.642
REMARK SMILES CCCCCCCCCCCCCCCCCCCCCCCC(=O)[O-]
REMARK SMILES IDX 13 1 14 2 15 3 16 4 17 5 18 6 19 7 20 8 21 9 22 10 23 11
REMARK SMILES IDX 24 12 25 13 26 14 12 15 11 16 10 17 9 18 8 19 7 20 6 21 5 22
REMARK SMILES IDX 4 23 3 24 2 25 1 26
REMARK H PARENT
REMARK Flexibility Score: inf
ROOT
ATOM      1  C   UNL     1      -6.544   0.698   4.564  1.00  0.00     0.000 C 
ENDROOT
BRANCH   1   2
ATOM      2  C   UNL     1      -7.624   1.373   5.432  1.00  0.00     0.000 C 
BRANCH   2   3
ATOM      3  C   UNL     1      -7.188   1.695   6.872  1.00  0.00     0.000 C 
BRANCH   3   4
ATOM      4  C   UNL     1      -7.901   0.826   7.919  1.00  0.00     0.000 C 
BRANCH   4   5
ATOM      5  C   UNL     1      -7.239  -0.553   8.029  1.00  0.00     0.000 C 
BRANCH   5   6
ATOM      6  C   UNL     1      -6.101  -0.535   9.062  1.00  0.00     0.000 C 
BRANCH   6   7
ATOM      7  C   UNL     1      -5.019  -1.587   8.770  1.00  0.00     0.000 C 
BRANCH   7   8
ATOM      8  C   UNL     1      -3.666  -0.951   8.407  1.00  0.00     0.000 C 
BRANCH   8   9
ATOM      9  C   UNL     1      -3.677  -0.266   7.027  1.00  0.00     0.000 C 
BRANCH   9  10
ATOM     10  C   UNL     1      -3.570   1.269   7.058  1.00  0.00     0.006 C 
BRANCH  10  11
ATOM     11  C   UNL     1      -2.705   1.785   8.216  1.00  0.00     0.053 C 
BRANCH  11  12
ATOM     12  C   UNL     1      -3.438   2.830   8.998  1.00  0.00     0.041 C 
ATOM     13  O   UNL     1      -4.392   2.505   9.753  1.00  0.00    -0.550 OA
ATOM     14  O   UNL     1      -3.081   4.168   8.880  1.00  0.00    -0.550 OA
ENDBRANCH  11  12
ENDBRANCH  10  11
ENDBRANCH   9  10
ENDBRANCH   8   9
ENDBRANCH   7   8
ENDBRANCH   6   7
ENDBRANCH   5   6
ENDBRANCH   4   5
ENDBRANCH   3   4
ENDBRANCH   2   3
ENDBRANCH   1   2
BRANCH   1  15
ATOM     15  C   UNL     1      -7.022  -0.530   3.765  1.00  0.00     0.000 C 
BRANCH  15  16
ATOM     16  C   UNL     1      -7.689  -1.640   4.602  1.00  0.00     0.000 C 
BRANCH  16  17
ATOM     17  C   UNL     1      -7.462  -3.073   4.085  1.00  0.00     0.000 C 
BRANCH  17  18
ATOM     18  C   UNL     1      -6.079  -3.631   4.443  1.00  0.00    -0.000 C 
BRANCH  18  19
ATOM     19  C   UNL     1      -5.863  -3.622   5.962  1.00  0.00    -0.000 C 
BRANCH  19  20
ATOM     20  C   UNL     1      -6.646  -4.726   6.696  1.00  0.00    -0.000 C 
BRANCH  20  21
ATOM     21  C   UNL     1      -7.479  -4.269   7.915  1.00  0.00    -0.000 C 
BRANCH  21  22
ATOM     22  C   UNL     1      -7.249  -5.057   9.224  1.00  0.00    -0.000 C 
BRANCH  22  23
ATOM     23  C   UNL     1      -7.389  -6.583   9.085  1.00  0.00    -0.000 C 
BRANCH  23  24
ATOM     24  C   UNL     1      -6.335  -7.368   9.881  1.00  0.00    -0.000 C 
BRANCH  24  25
ATOM     25  C   UNL     1      -6.227  -8.815   9.387  1.00  0.00    -0.003 C 
ATOM     26  C   UNL     1      -4.788  -9.319   9.466  1.00  0.00     0.004 C 
ENDBRANCH  24  25
ENDBRANCH  23  24
ENDBRANCH  22  23
ENDBRANCH  21  22
ENDBRANCH  20  21
ENDBRANCH  19  20
ENDBRANCH  18  19
ENDBRANCH  17  18
ENDBRANCH  16  17
ENDBRANCH  15  16
ENDBRANCH   1  15
TORSDOF 22
ENDMDL
MODEL 6
REMARK VINA RESULT:    -3.710      5.994      8.987
REMARK INTER + INTRA:         -11.124
REMARK INTER:                  -9.834
REMARK INTRA:                  -1.290
REMARK UNBOUND:                -2.642
REMARK SMILES CCCCCCCCCCCCCCCCCCCCCCCC(=O)[O-]
REMARK SMILES IDX 13 1 14 2 15 3 16 4 17 5 18 6 19 7 20 8 21 9 22 10 23 11
REMARK SMILES IDX 24 12 25 13 26 14 12 15 11 16 10 17 9 18 8 19 7 20 6 21 5 22
REMARK SMILES IDX 4 23 3 24 2 25 1 26
REMARK H PARENT
REMARK Flexibility Score: inf
ROOT
ATOM      1  C   UNL     1      -8.098   2.362  -2.685  1.00  0.00     0.000 C 
ENDROOT
BRANCH   1   2
ATOM      2  C   UNL     1      -7.799   3.871  -2.584  1.00  0.00     0.000 C 
BRANCH   2   3
ATOM      3  C   UNL     1      -7.858   4.448  -1.158  1.00  0.00     0.000 C 
BRANCH   3   4
ATOM      4  C   UNL     1      -6.941   3.704  -0.176  1.00  0.00     0.000 C 
BRANCH   4   5
ATOM      5  C   UNL     1      -7.576   3.630   1.218  1.00  0.00     0.000 C 
BRANCH   5   6
ATOM      6  C   UNL     1      -8.086   2.211   1.515  1.00  0.00     0.000 C 
BRANCH   6   7
ATOM      7  C   UNL     1      -7.923   1.820   2.992  1.00  0.00     0.000 C 
BRANCH   7   8
ATOM      8  C   UNL     1      -7.055   0.562   3.174  1.00  0.00     0.000 C 
BRANCH   8   9
ATOM      9  C   UNL     1      -7.735  -0.716   2.649  1.00  0.00     0.000 C 
BRANCH   9  10
ATOM     10  C   UNL     1      -7.344  -2.012   3.380  1.00  0.00     0.006 C 
BRANCH  10  11
ATOM     11  C   UNL     1      -6.583  -1.755   4.689  1.00  0.00     0.053 C 
BRANCH  11  12
ATOM     12  C   UNL     1      -6.345  -3.038   5.422  1.00  0.00     0.041 C 
ATOM     13  O   UNL     1      -6.195  -4.114   4.786  1.00  0.00    -0.550 OA
ATOM     14  O   UNL     1      -6.308  -3.050   6.812  1.00  0.00    -0.550 OA
ENDBRANCH  11  12
ENDBRANCH  10  11
ENDBRANCH   9  10
ENDBRANCH   8   9
ENDBRANCH   7   8
ENDBRANCH   6   7
ENDBRANCH   5   6
ENDBRANCH   4   5
ENDBRANCH   3   4
ENDBRANCH   2   3
ENDBRANCH   1   2
BRANCH   1  15
ATOM     15  C   UNL     1      -7.680   1.701  -4.013  1.00  0.00     0.000 C 
BRANCH  15  16
ATOM     16  C   UNL     1      -7.772   0.162  -4.037  1.00  0.00     0.000 C 
BRANCH  16  17
ATOM     17  C   UNL     1      -6.436  -0.576  -3.837  1.00  0.00     0.000 C 
BRANCH  17  18
ATOM     18  C   UNL     1      -5.219   0.256  -4.261  1.00  0.00    -0.000 C 
BRANCH  18  19
ATOM     19  C   UNL     1      -4.830  -0.047  -5.714  1.00  0.00    -0.000 C 
BRANCH  19  20
ATOM     20  C   UNL     1      -4.671  -1.552  -6.002  1.00  0.00    -0.000 C 
BRANCH  20  21
ATOM     21  C   UNL     1      -4.908  -1.990  -7.465  1.00  0.00    -0.000 C 
BRANCH  21  22
ATOM     22  C   UNL     1      -4.489  -0.973  -8.550  1.00  0.00    -0.000 C 
BRANCH  22  23
ATOM     23  C   UNL     1      -3.041  -1.129  -9.049  1.00  0.00    -0.000 C 
BRANCH  23  24
ATOM     24  C   UNL     1      -1.989  -0.751  -7.996  1.00  0.00    -0.000 C 
BRANCH  24  25
ATOM     25  C   UNL     1      -1.496   0.687  -8.191  1.00  0.00    -0.003 C 
ATOM     26  C   UNL     1      -2.171   1.343  -9.394  1.00  0.00     0.004 C 
ENDBRANCH  24  25
ENDBRANCH  23  24
ENDBRANCH  22  23
ENDBRANCH  21  22
ENDBRANCH  20  21
ENDBRANCH  19  20
ENDBRANCH  18  19
ENDBRANCH  17  18
ENDBRANCH  16  17
ENDBRANCH  15  16
ENDBRANCH   1  15
TORSDOF 22
ENDMDL
MODEL 7
REMARK VINA RESULT:    -3.696     13.283     17.744
REMARK INTER + INTRA:         -11.090
REMARK INTER:                  -8.860
REMARK INTRA:                  -2.230
REMARK UNBOUND:                -2.642
REMARK SMILES CCCCCCCCCCCCCCCCCCCCCCCC(=O)[O-]
REMARK SMILES IDX 13 1 14 2 15 3 16 4 17 5 18 6 19 7 20 8 21 9 22 10 23 11
REMARK SMILES IDX 24 12 25 13 26 14 12 15 11 16 10 17 9 18 8 19 7 20 6 21 5 22
REMARK SMILES IDX 4 23 3 24 2 25 1 26
REMARK H PARENT
REMARK Flexibility Score: inf
ROOT
ATOM      1  C   UNL     1      -7.535  -1.837   3.004  1.00  0.00     0.000 C 
ENDROOT
BRANCH   1   2
ATOM      2  C   UNL     1      -6.998  -0.422   3.296  1.00  0.00     0.000 C 
BRANCH   2   3
ATOM      3  C   UNL     1      -7.421   0.162   4.656  1.00  0.00     0.000 C 
BRANCH   3   4
ATOM      4  C   UNL     1      -6.224   0.498   5.558  1.00  0.00     0.000 C 
BRANCH   4   5
ATOM      5  C   UNL     1      -5.875  -0.684   6.470  1.00  0.00     0.000 C 
BRANCH   5   6
ATOM      6  C   UNL     1      -4.376  -0.691   6.811  1.00  0.00     0.000 C 
BRANCH   6   7
ATOM      7  C   UNL     1      -3.980  -1.868   7.716  1.00  0.00     0.000 C 
BRANCH   7   8
ATOM      8  C   UNL     1      -3.891  -1.463   9.198  1.00  0.00     0.000 C 
BRANCH   8   9
ATOM      9  C   UNL     1      -4.411  -0.038   9.463  1.00  0.00     0.000 C 
BRANCH   9  10
ATOM     10  C   UNL     1      -3.363   0.951  10.004  1.00  0.00     0.006 C 
BRANCH  10  11
ATOM     11  C   UNL     1      -2.490   1.562   8.899  1.00  0.00     0.053 C 
BRANCH  11  12
ATOM     12  C   UNL     1      -3.188   2.720   8.255  1.00  0.00     0.041 C 
ATOM     13  O   UNL     1      -3.739   2.583   7.131  1.00  0.00    -0.550 OA
ATOM     14  O   UNL     1      -3.215   3.957   8.887  1.00  0.00    -0.550 OA
ENDBRANCH  11  12
ENDBRANCH  10  11
ENDBRANCH   9  10
ENDBRANCH   8   9
ENDBRANCH   7   8
ENDBRANCH   6   7
ENDBRANCH   5   6
ENDBRANCH   4   5
ENDBRANCH   3   4
ENDBRANCH   2   3
ENDBRANCH   1   2
BRANCH   1  15
ATOM     15  C   UNL     1      -7.604  -2.774   4.225  1.00  0.00     0.000 C 
BRANCH  15  16
ATOM     16  C   UNL     1      -6.523  -3.873   4.272  1.00  0.00     0.000 C 
BRANCH  16  17
ATOM     17  C   UNL     1      -5.909  -4.126   5.661  1.00  0.00     0.000 C 
BRANCH  17  18
ATOM     18  C   UNL     1      -6.889  -4.779   6.644  1.00  0.00    -0.000 C 
BRANCH  18  19
ATOM     19  C   UNL     1      -7.210  -3.829   7.806  1.00  0.00    -0.000 C 
BRANCH  19  20
ATOM     20  C   UNL     1      -7.005  -4.469   9.191  1.00  0.00    -0.000 C 
BRANCH  20  21
ATOM     21  C   UNL     1      -7.301  -5.982   9.288  1.00  0.00    -0.000 C 
BRANCH  21  22
ATOM     22  C   UNL     1      -6.303  -6.814  10.125  1.00  0.00    -0.000 C 
BRANCH  22  23
ATOM     23  C   UNL     1      -6.466  -8.338   9.986  1.00  0.00    -0.000 C 
BRANCH  23  24
ATOM     24  C   UNL     1      -5.260  -9.022   9.324  1.00  0.00    -0.000 C 
BRANCH  24  25
ATOM     25  C   UNL     1      -5.667 -10.339   8.652  1.00  0.00    -0.003 C 
ATOM     26  C   UNL     1      -4.938 -11.526   9.278  1.00  0.00     0.004 C 
ENDBRANCH  24  25
ENDBRANCH  23  24
ENDBRANCH  22  23
ENDBRANCH  21  22
ENDBRANCH  20  21
ENDBRANCH  19  20
ENDBRANCH  18  19
ENDBRANCH  17  18
ENDBRANCH  16  17
ENDBRANCH  15  16
ENDBRANCH   1  15
TORSDOF 22
ENDMDL
MODEL 8
REMARK VINA RESULT:    -3.688      9.260     13.355
REMARK INTER + INTRA:         -11.074
REMARK INTER:                  -9.265
REMARK INTRA:                  -1.809
REMARK UNBOUND:                -2.642
REMARK SMILES CCCCCCCCCCCCCCCCCCCCCCCC(=O)[O-]
REMARK SMILES IDX 13 1 14 2 15 3 16 4 17 5 18 6 19 7 20 8 21 9 22 10 23 11
REMARK SMILES IDX 24 12 25 13 26 14 12 15 11 16 10 17 9 18 8 19 7 20 6 21 5 22
REMARK SMILES IDX 4 23 3 24 2 25 1 26
REMARK H PARENT
REMARK Flexibility Score: inf
ROOT
ATOM      1  C   UNL     1      -6.984   0.259   3.435  1.00  0.00     0.000 C 
ENDROOT
BRANCH   1   2
ATOM      2  C   UNL     1      -7.922   0.851   2.366  1.00  0.00     0.000 C 
BRANCH   2   3
ATOM      3  C   UNL     1      -7.864   2.383   2.230  1.00  0.00     0.000 C 
BRANCH   3   4
ATOM      4  C   UNL     1      -7.963   2.856   0.771  1.00  0.00     0.000 C 
BRANCH   4   5
ATOM      5  C   UNL     1      -6.766   3.739   0.399  1.00  0.00     0.000 C 
BRANCH   5   6
ATOM      6  C   UNL     1      -7.217   4.950  -0.435  1.00  0.00     0.000 C 
BRANCH   6   7
ATOM      7  C   UNL     1      -6.590   6.268   0.048  1.00  0.00     0.000 C 
BRANCH   7   8
ATOM      8  C   UNL     1      -6.494   7.317  -1.073  1.00  0.00     0.000 C 
BRANCH   8   9
ATOM      9  C   UNL     1      -6.229   6.694  -2.457  1.00  0.00     0.000 C 
BRANCH   9  10
ATOM     10  C   UNL     1      -5.898   7.699  -3.574  1.00  0.00     0.006 C 
BRANCH  10  11
ATOM     11  C   UNL     1      -4.407   7.720  -3.938  1.00  0.00     0.053 C 
BRANCH  11  12
ATOM     12  C   UNL     1      -4.226   7.653  -5.423  1.00  0.00     0.041 C 
ATOM     13  O   UNL     1      -3.093   7.856  -5.933  1.00  0.00    -0.550 OA
ATOM     14  O   UNL     1      -5.312   7.384  -6.247  1.00  0.00    -0.550 OA
ENDBRANCH  11  12
ENDBRANCH  10  11
ENDBRANCH   9  10
ENDBRANCH   8   9
ENDBRANCH   7   8
ENDBRANCH   6   7
ENDBRANCH   5   6
ENDBRANCH   4   5
ENDBRANCH   3   4
ENDBRANCH   2   3
ENDBRANCH   1   2
BRANCH   1  15
ATOM     15  C   UNL     1      -7.074   0.924   4.823  1.00  0.00     0.000 C 
BRANCH  15  16
ATOM     16  C   UNL     1      -7.492  -0.014   5.974  1.00  0.00     0.000 C 
BRANCH  16  17
ATOM     17  C   UNL     1      -7.967  -1.412   5.538  1.00  0.00     0.000 C 
BRANCH  17  18
ATOM     18  C   UNL     1      -7.291  -2.548   6.315  1.00  0.00    -0.000 C 
BRANCH  18  19
ATOM     19  C   UNL     1      -6.066  -3.075   5.556  1.00  0.00    -0.000 C 
BRANCH  19  20
ATOM     20  C   UNL     1      -4.786  -3.110   6.412  1.00  0.00    -0.000 C 
BRANCH  20  21
ATOM     21  C   UNL     1      -4.313  -1.752   6.976  1.00  0.00    -0.000 C 
BRANCH  21  22
ATOM     22  C   UNL     1      -4.742  -1.437   8.426  1.00  0.00    -0.000 C 
BRANCH  22  23
ATOM     23  C   UNL     1      -4.198  -0.108   8.981  1.00  0.00    -0.000 C 
BRANCH  23  24
ATOM     24  C   UNL     1      -4.794   1.130   8.294  1.00  0.00    -0.000 C 
BRANCH  24  25
ATOM     25  C   UNL     1      -3.730   1.894   7.499  1.00  0.00    -0.003 C 
ATOM     26  C   UNL     1      -2.326   1.392   7.832  1.00  0.00     0.004 C 
ENDBRANCH  24  25
ENDBRANCH  23  24
ENDBRANCH  22  23
ENDBRANCH  21  22
ENDBRANCH  20  21
ENDBRANCH  19  20
ENDBRANCH  18  19
ENDBRANCH  17  18
ENDBRANCH  16  17
ENDBRANCH  15  16
ENDBRANCH   1  15
TORSDOF 22
ENDMDL
MODEL 9
REMARK VINA RESULT:    -3.667      3.595      8.310
REMARK INTER + INTRA:         -11.024
REMARK INTER:                  -8.060
REMARK INTRA:                  -2.964
REMARK UNBOUND:                -2.642
REMARK SMILES CCCCCCCCCCCCCCCCCCCCCCCC(=O)[O-]
REMARK SMILES IDX 13 1 14 2 15 3 16 4 17 5 18 6 19 7 20 8 21 9 22 10 23 11
REMARK SMILES IDX 24 12 25 13 26 14 12 15 11 16 10 17 9 18 8 19 7 20 6 21 5 22
REMARK SMILES IDX 4 23 3 24 2 25 1 26
REMARK H PARENT
REMARK Flexibility Score: inf
ROOT
ATOM      1  C   UNL     1      -3.551  -0.443  -6.809  1.00  0.00     0.000 C 
ENDROOT
BRANCH   1   2
ATOM      2  C   UNL     1      -3.470  -0.978  -8.252  1.00  0.00     0.000 C 
BRANCH   2   3
ATOM      3  C   UNL     1      -3.393   0.106  -9.341  1.00  0.00     0.000 C 
BRANCH   3   4
ATOM      4  C   UNL     1      -2.345   1.187  -9.034  1.00  0.00     0.000 C 
BRANCH   4   5
ATOM      5  C   UNL     1      -2.797   2.555  -9.559  1.00  0.00     0.000 C 
BRANCH   5   6
ATOM      6  C   UNL     1      -4.317   2.725  -9.407  1.00  0.00     0.000 C 
BRANCH   6   7
ATOM      7  C   UNL     1      -4.775   4.176  -9.630  1.00  0.00     0.000 C 
BRANCH   7   8
ATOM      8  C   UNL     1      -3.655   5.193  -9.355  1.00  0.00     0.000 C 
BRANCH   8   9
ATOM      9  C   UNL     1      -4.053   6.258  -8.316  1.00  0.00     0.000 C 
BRANCH   9  10
ATOM     10  C   UNL     1      -2.912   6.738  -7.402  1.00  0.00     0.006 C 
BRANCH  10  11
ATOM     11  C   UNL     1      -3.241   8.048  -6.671  1.00  0.00     0.053 C 
BRANCH  11  12
ATOM     12  C   UNL     1      -4.060   7.778  -5.447  1.00  0.00     0.041 C 
ATOM     13  O   UNL     1      -3.497   7.498  -4.356  1.00  0.00    -0.550 OA
ATOM     14  O   UNL     1      -5.448   7.816  -5.514  1.00  0.00    -0.550 OA
ENDBRANCH  11  12
ENDBRANCH  10  11
ENDBRANCH   9  10
ENDBRANCH   8   9
ENDBRANCH   7   8
ENDBRANCH   6   7
ENDBRANCH   5   6
ENDBRANCH   4   5
ENDBRANCH   3   4
ENDBRANCH   2   3
ENDBRANCH   1   2
BRANCH   1  15
ATOM     15  C   UNL     1      -4.431  -1.272  -5.853  1.00  0.00     0.000 C 
BRANCH  15  16
ATOM     16  C   UNL     1      -5.118  -0.468  -4.730  1.00  0.00     0.000 C 
BRANCH  16  17
ATOM     17  C   UNL     1      -6.563  -0.030  -5.032  1.00  0.00     0.000 C 
BRANCH  17  18
ATOM     18  C   UNL     1      -6.668   0.914  -6.237  1.00  0.00    -0.000 C 
BRANCH  18  19
ATOM     19  C   UNL     1      -7.601   0.331  -7.306  1.00  0.00    -0.000 C 
BRANCH  19  20
ATOM     20  C   UNL     1      -6.987   0.331  -8.718  1.00  0.00    -0.000 C 
BRANCH  20  21
ATOM     21  C   UNL     1      -7.491  -0.773  -9.675  1.00  0.00    -0.000 C 
BRANCH  21  22
ATOM     22  C   UNL     1      -6.792  -2.146  -9.551  1.00  0.00    -0.000 C 
BRANCH  22  23
ATOM     23  C   UNL     1      -7.603  -3.210  -8.790  1.00  0.00    -0.000 C 
BRANCH  23  24
ATOM     24  C   UNL     1      -6.848  -3.815  -7.597  1.00  0.00    -0.000 C 
BRANCH  24  25
ATOM     25  C   UNL     1      -5.382  -4.095  -7.948  1.00  0.00    -0.003 C 
ATOM     26  C   UNL     1      -4.845  -5.289  -7.161  1.00  0.00     0.004 C 
ENDBRANCH  24  25
ENDBRANCH  23  24
ENDBRANCH  22  23
ENDBRANCH  21  22
ENDBRANCH  20  21
ENDBRANCH  19  20
ENDBRANCH  18  19
ENDBRANCH  17  18
ENDBRANCH  16  17
ENDBRANCH  15  16
ENDBRANCH   1  15
TORSDOF 22
ENDMDL
