MODEL 1
REMARK VINA RESULT:    -5.893      0.000      0.000
REMARK INTER + INTRA:          -7.201
REMARK INTER:                  -6.926
REMARK INTRA:                  -0.274
REMARK UNBOUND:                -0.274
REMARK SMILES O=c1c(O)c(-c2ccc(O)cc2)oc2cc(O)cc(O)c12
REMARK SMILES IDX 5 1 3 2 2 3 1 4 21 5 19 6 18 7 16 8 15 9 14 10 13 11 6 12
REMARK SMILES IDX 7 13 8 14 9 15 12 16 11 17 10 18 4 20 20 22 17 24
REMARK H PARENT 10 19 4 21 20 23 17 25
REMARK Flexibility Score: inf
ROOT
ATOM      1  C   UNL     1      -5.056 -16.335  16.688  1.00  0.00     0.180 A 
ATOM      2  C   UNL     1      -4.804 -17.583  17.285  1.00  0.00     0.208 A 
ATOM      3  C   UNL     1      -5.589 -18.685  16.914  1.00  0.00     0.238 A 
ATOM      4  O   UNL     1      -5.324 -19.811  17.411  1.00  0.00    -0.285 OA
ATOM      5  C   UNL     1      -6.628 -18.524  15.966  1.00  0.00     0.111 A 
ATOM      6  C   UNL     1      -7.512 -19.563  15.547  1.00  0.00     0.134 A 
ATOM      7  C   UNL     1      -8.418 -19.322  14.507  1.00  0.00     0.093 A 
ATOM      8  C   UNL     1      -8.518 -18.063  13.916  1.00  0.00     0.123 A 
ATOM      9  C   UNL     1      -7.699 -17.023  14.359  1.00  0.00     0.094 A 
ATOM     10  C   UNL     1      -6.760 -17.242  15.370  1.00  0.00     0.146 A 
ATOM     11  O   UNL     1      -5.993 -16.229  15.754  1.00  0.00    -0.452 OA
ENDROOT
BRANCH   1  12
ATOM     12  C   UNL     1      -4.286 -15.121  17.045  1.00  0.00     0.021 A 
ATOM     13  C   UNL     1      -4.780 -14.254  18.034  1.00  0.00     0.016 A 
ATOM     14  C   UNL     1      -4.059 -13.115  18.402  1.00  0.00     0.047 A 
ATOM     15  C   UNL     1      -2.827 -12.835  17.798  1.00  0.00     0.115 A 
ATOM     16  C   UNL     1      -3.038 -14.846  16.457  1.00  0.00     0.016 A 
ATOM     17  C   UNL     1      -2.318 -13.706  16.828  1.00  0.00     0.047 A 
BRANCH  15  18
ATOM     18  O   UNL     1      -2.099 -11.703  18.157  1.00  0.00    -0.508 OA
ATOM     19  H   UNL     1      -1.650 -11.627  19.061  1.00  0.00     0.293 HD
ENDBRANCH  15  18
ENDBRANCH   1  12
BRANCH   2  20
ATOM     20  O   UNL     1      -3.759 -17.725  18.202  1.00  0.00    -0.502 OA
ATOM     21  H   UNL     1      -2.819 -17.977  17.921  1.00  0.00     0.293 HD
ENDBRANCH   2  20
BRANCH   6  22
ATOM     22  O   UNL     1      -7.559 -20.831  16.134  1.00  0.00    -0.507 OA
ATOM     23  H   UNL     1      -7.224 -21.678  15.699  1.00  0.00     0.293 HD
ENDBRANCH   6  22
BRANCH   8  24
ATOM     24  O   UNL     1      -9.442 -17.855  12.894  1.00  0.00    -0.508 OA
ATOM     25  H   UNL     1     -10.430 -18.034  13.030  1.00  0.00     0.293 HD
ENDBRANCH   8  24
TORSDOF 5
ENDMDL
MODEL 2
REMARK VINA RESULT:    -5.626      1.709      6.978
REMARK INTER + INTRA:          -6.887
REMARK INTER:                  -6.645
REMARK INTRA:                  -0.243
REMARK UNBOUND:                -0.274
REMARK SMILES O=c1c(O)c(-c2ccc(O)cc2)oc2cc(O)cc(O)c12
REMARK SMILES IDX 5 1 3 2 2 3 1 4 21 5 19 6 18 7 16 8 15 9 14 10 13 11 6 12
REMARK SMILES IDX 7 13 8 14 9 15 12 16 11 17 10 18 4 20 20 22 17 24
REMARK H PARENT 10 19 4 21 20 23 17 25
REMARK Flexibility Score: inf
ROOT
ATOM      1  C   UNL     1      -5.787 -16.000  16.321  1.00  0.00     0.180 A 
ATOM      2  C   UNL     1      -6.324 -14.935  17.066  1.00  0.00     0.208 A 
ATOM      3  C   UNL     1      -5.456 -13.961  17.584  1.00  0.00     0.238 A 
ATOM      4  O   UNL     1      -5.947 -12.982  18.203  1.00  0.00    -0.285 OA
ATOM      5  C   UNL     1      -4.061 -14.073  17.366  1.00  0.00     0.111 A 
ATOM      6  C   UNL     1      -3.086 -13.165  17.880  1.00  0.00     0.134 A 
ATOM      7  C   UNL     1      -1.747 -13.299  17.492  1.00  0.00     0.093 A 
ATOM      8  C   UNL     1      -1.338 -14.345  16.665  1.00  0.00     0.123 A 
ATOM      9  C   UNL     1      -2.274 -15.273  16.206  1.00  0.00     0.094 A 
ATOM     10  C   UNL     1      -3.623 -15.144  16.546  1.00  0.00     0.146 A 
ATOM     11  O   UNL     1      -4.483 -16.042  16.079  1.00  0.00    -0.452 OA
ENDROOT
BRANCH   1  12
ATOM     12  C   UNL     1      -6.635 -17.078  15.764  1.00  0.00     0.021 A 
ATOM     13  C   UNL     1      -7.363 -16.847  14.585  1.00  0.00     0.016 A 
ATOM     14  C   UNL     1      -8.152 -17.858  14.029  1.00  0.00     0.047 A 
ATOM     15  C   UNL     1      -8.212 -19.119  14.636  1.00  0.00     0.115 A 
ATOM     16  C   UNL     1      -6.683 -18.354  16.357  1.00  0.00     0.016 A 
ATOM     17  C   UNL     1      -7.473 -19.364  15.798  1.00  0.00     0.047 A 
BRANCH  15  18
ATOM     18  O   UNL     1      -8.995 -20.134  14.092  1.00  0.00    -0.508 OA
ATOM     19  H   UNL     1      -9.975 -19.990  13.879  1.00  0.00     0.293 HD
ENDBRANCH  15  18
ENDBRANCH   1  12
BRANCH   2  20
ATOM     20  O   UNL     1      -7.706 -14.833  17.249  1.00  0.00    -0.502 OA
ATOM     21  H   UNL     1      -8.205 -15.383  17.938  1.00  0.00     0.293 HD
ENDBRANCH   2  20
BRANCH   6  22
ATOM     22  O   UNL     1      -3.374 -12.141  18.786  1.00  0.00    -0.507 OA
ATOM     23  H   UNL     1      -4.086 -11.438  18.653  1.00  0.00     0.293 HD
ENDBRANCH   6  22
BRANCH   8  24
ATOM     24  O   UNL     1       0.006 -14.456  16.314  1.00  0.00    -0.508 OA
ATOM     25  H   UNL     1       0.678 -13.738  16.557  1.00  0.00     0.293 HD
ENDBRANCH   8  24
TORSDOF 5
ENDMDL
MODEL 3
REMARK VINA RESULT:    -5.234     13.784     15.713
REMARK INTER + INTRA:          -6.427
REMARK INTER:                  -6.144
REMARK INTRA:                  -0.282
REMARK UNBOUND:                -0.274
REMARK SMILES O=c1c(O)c(-c2ccc(O)cc2)oc2cc(O)cc(O)c12
REMARK SMILES IDX 5 1 3 2 2 3 1 4 21 5 19 6 18 7 16 8 15 9 14 10 13 11 6 12
REMARK SMILES IDX 7 13 8 14 9 15 12 16 11 17 10 18 4 20 20 22 17 24
REMARK H PARENT 10 19 4 21 20 23 17 25
REMARK Flexibility Score: inf
ROOT
ATOM      1  C   UNL     1       4.461 -17.384   5.527  1.00  0.00     0.180 A 
ATOM      2  C   UNL     1       4.286 -18.301   6.579  1.00  0.00     0.208 A 
ATOM      3  C   UNL     1       4.512 -17.875   7.897  1.00  0.00     0.238 A 
ATOM      4  O   UNL     1       4.302 -18.684   8.838  1.00  0.00    -0.285 OA
ATOM      5  C   UNL     1       4.928 -16.544   8.147  1.00  0.00     0.111 A 
ATOM      6  C   UNL     1       5.225 -16.018   9.440  1.00  0.00     0.134 A 
ATOM      7  C   UNL     1       5.500 -14.652   9.582  1.00  0.00     0.093 A 
ATOM      8  C   UNL     1       5.554 -13.809   8.473  1.00  0.00     0.123 A 
ATOM      9  C   UNL     1       5.324 -14.326   7.198  1.00  0.00     0.094 A 
ATOM     10  C   UNL     1       5.011 -15.677   7.028  1.00  0.00     0.146 A 
ATOM     11  O   UNL     1       4.787 -16.126   5.798  1.00  0.00    -0.452 OA
ENDROOT
BRANCH   1  12
ATOM     12  C   UNL     1       4.265 -17.764   4.110  1.00  0.00     0.021 A 
ATOM     13  C   UNL     1       3.076 -17.403   3.454  1.00  0.00     0.016 A 
ATOM     14  C   UNL     1       2.881 -17.732   2.110  1.00  0.00     0.047 A 
ATOM     15  C   UNL     1       3.877 -18.414   1.399  1.00  0.00     0.115 A 
ATOM     16  C   UNL     1       5.271 -18.431   3.384  1.00  0.00     0.016 A 
ATOM     17  C   UNL     1       5.072 -18.758   2.040  1.00  0.00     0.047 A 
BRANCH  15  18
ATOM     18  O   UNL     1       3.692 -18.747   0.060  1.00  0.00    -0.508 OA
ATOM     19  H   UNL     1       4.306 -19.400  -0.413  1.00  0.00     0.293 HD
ENDBRANCH  15  18
ENDBRANCH   1  12
BRANCH   2  20
ATOM     20  O   UNL     1       3.854 -19.602   6.312  1.00  0.00    -0.502 OA
ATOM     21  H   UNL     1       3.136 -20.061   6.861  1.00  0.00     0.293 HD
ENDBRANCH   2  20
BRANCH   6  22
ATOM     22  O   UNL     1       5.289 -16.792  10.603  1.00  0.00    -0.507 OA
ATOM     23  H   UNL     1       4.867 -17.702  10.711  1.00  0.00     0.293 HD
ENDBRANCH   6  22
BRANCH   8  24
ATOM     24  O   UNL     1       5.846 -12.458   8.651  1.00  0.00    -0.508 OA
ATOM     25  H   UNL     1       6.802 -12.120   8.659  1.00  0.00     0.293 HD
ENDBRANCH   8  24
TORSDOF 5
ENDMDL
MODEL 4
REMARK VINA RESULT:    -5.209      2.987      6.832
REMARK INTER + INTRA:          -6.397
REMARK INTER:                  -6.451
REMARK INTRA:                   0.053
REMARK UNBOUND:                -0.274
REMARK SMILES O=c1c(O)c(-c2ccc(O)cc2)oc2cc(O)cc(O)c12
REMARK SMILES IDX 5 1 3 2 2 3 1 4 21 5 19 6 18 7 16 8 15 9 14 10 13 11 6 12
REMARK SMILES IDX 7 13 8 14 9 15 12 16 11 17 10 18 4 20 20 22 17 24
REMARK H PARENT 10 19 4 21 20 23 17 25
REMARK Flexibility Score: inf
ROOT
ATOM      1  C   UNL     1      -3.243 -15.335  17.236  1.00  0.00     0.180 A 
ATOM      2  C   UNL     1      -2.787 -16.665  17.282  1.00  0.00     0.208 A 
ATOM      3  C   UNL     1      -1.407 -16.910  17.337  1.00  0.00     0.238 A 
ATOM      4  O   UNL     1      -1.007 -18.099  17.433  1.00  0.00    -0.285 OA
ATOM      5  C   UNL     1      -0.497 -15.824  17.327  1.00  0.00     0.111 A 
ATOM      6  C   UNL     1       0.924 -15.957  17.339  1.00  0.00     0.134 A 
ATOM      7  C   UNL     1       1.724 -14.814  17.461  1.00  0.00     0.093 A 
ATOM      8  C   UNL     1       1.158 -13.540  17.504  1.00  0.00     0.123 A 
ATOM      9  C   UNL     1      -0.228 -13.395  17.433  1.00  0.00     0.094 A 
ATOM     10  C   UNL     1      -1.054 -14.519  17.348  1.00  0.00     0.146 A 
ATOM     11  O   UNL     1      -2.368 -14.338  17.295  1.00  0.00    -0.452 OA
ENDROOT
BRANCH   1  12
ATOM     12  C   UNL     1      -4.682 -14.998  17.152  1.00  0.00     0.021 A 
ATOM     13  C   UNL     1      -5.199 -13.964  17.951  1.00  0.00     0.016 A 
ATOM     14  C   UNL     1      -6.549 -13.614  17.870  1.00  0.00     0.047 A 
ATOM     15  C   UNL     1      -7.399 -14.282  16.979  1.00  0.00     0.115 A 
ATOM     16  C   UNL     1      -5.536 -15.651  16.243  1.00  0.00     0.016 A 
ATOM     17  C   UNL     1      -6.887 -15.298  16.165  1.00  0.00     0.047 A 
BRANCH  15  18
ATOM     18  O   UNL     1      -8.746 -13.942  16.891  1.00  0.00    -0.508 OA
ATOM     19  H   UNL     1      -9.463 -14.497  17.344  1.00  0.00     0.293 HD
ENDBRANCH  15  18
ENDBRANCH   1  12
BRANCH   2  20
ATOM     20  O   UNL     1      -3.703 -17.720  17.313  1.00  0.00    -0.502 OA
ATOM     21  H   UNL     1      -4.512 -17.756  16.704  1.00  0.00     0.293 HD
ENDBRANCH   2  20
BRANCH   6  22
ATOM     22  O   UNL     1       1.595 -17.177  17.208  1.00  0.00    -0.507 OA
ATOM     23  H   UNL     1       2.559 -17.333  17.463  1.00  0.00     0.293 HD
ENDBRANCH   6  22
BRANCH   8  24
ATOM     24  O   UNL     1       1.985 -12.425  17.609  1.00  0.00    -0.508 OA
ATOM     25  H   UNL     1       2.032 -11.730  16.873  1.00  0.00     0.293 HD
ENDBRANCH   8  24
TORSDOF 5
ENDMDL
MODEL 5
REMARK VINA RESULT:    -5.206     11.989     13.466
REMARK INTER + INTRA:          -6.393
REMARK INTER:                  -6.107
REMARK INTRA:                  -0.286
REMARK UNBOUND:                -0.274
REMARK SMILES O=c1c(O)c(-c2ccc(O)cc2)oc2cc(O)cc(O)c12
REMARK SMILES IDX 5 1 3 2 2 3 1 4 21 5 19 6 18 7 16 8 15 9 14 10 13 11 6 12
REMARK SMILES IDX 7 13 8 14 9 15 12 16 11 17 10 18 4 20 20 22 17 24
REMARK H PARENT 10 19 4 21 20 23 17 25
REMARK Flexibility Score: inf
ROOT
ATOM      1  C   UNL     1       6.129 -16.701  11.612  1.00  0.00     0.180 A 
ATOM      2  C   UNL     1       5.309 -17.715  11.087  1.00  0.00     0.208 A 
ATOM      3  C   UNL     1       4.882 -17.623   9.753  1.00  0.00     0.238 A 
ATOM      4  O   UNL     1       4.193 -18.560   9.273  1.00  0.00    -0.285 OA
ATOM      5  C   UNL     1       5.265 -16.510   8.965  1.00  0.00     0.111 A 
ATOM      6  C   UNL     1       4.857 -16.295   7.615  1.00  0.00     0.134 A 
ATOM      7  C   UNL     1       5.403 -15.228   6.891  1.00  0.00     0.093 A 
ATOM      8  C   UNL     1       6.290 -14.332   7.486  1.00  0.00     0.123 A 
ATOM      9  C   UNL     1       6.649 -14.499   8.824  1.00  0.00     0.094 A 
ATOM     10  C   UNL     1       6.150 -15.575   9.562  1.00  0.00     0.146 A 
ATOM     11  O   UNL     1       6.526 -15.704  10.829  1.00  0.00    -0.452 OA
ENDROOT
BRANCH   1  12
ATOM     12  C   UNL     1       6.599 -16.715  13.016  1.00  0.00     0.021 A 
ATOM     13  C   UNL     1       7.906 -17.140  13.304  1.00  0.00     0.016 A 
ATOM     14  C   UNL     1       8.378 -17.140  14.620  1.00  0.00     0.047 A 
ATOM     15  C   UNL     1       7.554 -16.700  15.663  1.00  0.00     0.115 A 
ATOM     16  C   UNL     1       5.783 -16.254  14.067  1.00  0.00     0.016 A 
ATOM     17  C   UNL     1       6.258 -16.255  15.382  1.00  0.00     0.047 A 
BRANCH  15  18
ATOM     18  O   UNL     1       8.013 -16.695  16.978  1.00  0.00    -0.508 OA
ATOM     19  H   UNL     1       8.705 -16.027  17.295  1.00  0.00     0.293 HD
ENDBRANCH  15  18
ENDBRANCH   1  12
BRANCH   2  20
ATOM     20  O   UNL     1       4.961 -18.815  11.876  1.00  0.00    -0.502 OA
ATOM     21  H   UNL     1       4.056 -18.897  12.324  1.00  0.00     0.293 HD
ENDBRANCH   2  20
BRANCH   6  22
ATOM     22  O   UNL     1       3.906 -17.077   6.952  1.00  0.00    -0.507 OA
ATOM     23  H   UNL     1       3.549 -17.958   7.291  1.00  0.00     0.293 HD
ENDBRANCH   6  22
BRANCH   8  24
ATOM     24  O   UNL     1       6.800 -13.272   6.740  1.00  0.00    -0.508 OA
ATOM     25  H   UNL     1       7.787 -13.209   6.518  1.00  0.00     0.293 HD
ENDBRANCH   8  24
TORSDOF 5
ENDMDL
MODEL 6
REMARK VINA RESULT:    -5.205      2.291      3.173
REMARK INTER + INTRA:          -6.392
REMARK INTER:                  -6.144
REMARK INTRA:                  -0.248
REMARK UNBOUND:                -0.274
REMARK SMILES O=c1c(O)c(-c2ccc(O)cc2)oc2cc(O)cc(O)c12
REMARK SMILES IDX 5 1 3 2 2 3 1 4 21 5 19 6 18 7 16 8 15 9 14 10 13 11 6 12
REMARK SMILES IDX 7 13 8 14 9 15 12 16 11 17 10 18 4 20 20 22 17 24
REMARK H PARENT 10 19 4 21 20 23 17 25
REMARK Flexibility Score: inf
ROOT
ATOM      1  C   UNL     1      -5.129 -15.815  16.628  1.00  0.00     0.180 A 
ATOM      2  C   UNL     1      -6.032 -14.928  17.241  1.00  0.00     0.208 A 
ATOM      3  C   UNL     1      -7.401 -15.239  17.236  1.00  0.00     0.238 A 
ATOM      4  O   UNL     1      -8.198 -14.470  17.833  1.00  0.00    -0.285 OA
ATOM      5  C   UNL     1      -7.853 -16.423  16.603  1.00  0.00     0.111 A 
ATOM      6  C   UNL     1      -9.221 -16.816  16.503  1.00  0.00     0.134 A 
ATOM      7  C   UNL     1      -9.541 -18.071  15.970  1.00  0.00     0.093 A 
ATOM      8  C   UNL     1      -8.550 -18.918  15.475  1.00  0.00     0.123 A 
ATOM      9  C   UNL     1      -7.214 -18.517  15.514  1.00  0.00     0.094 A 
ATOM     10  C   UNL     1      -6.860 -17.287  16.073  1.00  0.00     0.146 A 
ATOM     11  O   UNL     1      -5.576 -16.949  16.101  1.00  0.00    -0.452 OA
ENDROOT
BRANCH   1  12
ATOM     12  C   UNL     1      -3.675 -15.544  16.571  1.00  0.00     0.021 A 
ATOM     13  C   UNL     1      -2.800 -16.289  17.379  1.00  0.00     0.016 A 
ATOM     14  C   UNL     1      -1.422 -16.066  17.324  1.00  0.00     0.047 A 
ATOM     15  C   UNL     1      -0.898 -15.105  16.450  1.00  0.00     0.115 A 
ATOM     16  C   UNL     1      -3.140 -14.595  15.680  1.00  0.00     0.016 A 
ATOM     17  C   UNL     1      -1.761 -14.374  15.628  1.00  0.00     0.047 A 
BRANCH  15  18
ATOM     18  O   UNL     1       0.474 -14.874  16.388  1.00  0.00    -0.508 OA
ATOM     19  H   UNL     1       0.950 -14.747  15.503  1.00  0.00     0.293 HD
ENDBRANCH  15  18
ENDBRANCH   1  12
BRANCH   2  20
ATOM     20  O   UNL     1      -5.563 -13.777  17.879  1.00  0.00    -0.502 OA
ATOM     21  H   UNL     1      -4.647 -13.386  17.690  1.00  0.00     0.293 HD
ENDBRANCH   2  20
BRANCH   6  22
ATOM     22  O   UNL     1     -10.296 -16.007  16.883  1.00  0.00    -0.507 OA
ATOM     23  H   UNL     1     -10.625 -15.206  16.364  1.00  0.00     0.293 HD
ENDBRANCH   6  22
BRANCH   8  24
ATOM     24  O   UNL     1      -8.907 -20.152  14.937  1.00  0.00    -0.508 OA
ATOM     25  H   UNL     1      -8.410 -21.000  15.183  1.00  0.00     0.293 HD
ENDBRANCH   8  24
TORSDOF 5
ENDMDL
MODEL 7
REMARK VINA RESULT:    -5.165     12.136     13.570
REMARK INTER + INTRA:          -6.345
REMARK INTER:                  -6.312
REMARK INTRA:                  -0.033
REMARK UNBOUND:                -0.274
REMARK SMILES O=c1c(O)c(-c2ccc(O)cc2)oc2cc(O)cc(O)c12
REMARK SMILES IDX 5 1 3 2 2 3 1 4 21 5 19 6 18 7 16 8 15 9 14 10 13 11 6 12
REMARK SMILES IDX 7 13 8 14 9 15 12 16 11 17 10 18 4 20 20 22 17 24
REMARK H PARENT 10 19 4 21 20 23 17 25
REMARK Flexibility Score: inf
ROOT
ATOM      1  C   UNL     1       5.998 -16.587  10.344  1.00  0.00     0.180 A 
ATOM      2  C   UNL     1       5.563 -17.888  10.034  1.00  0.00     0.208 A 
ATOM      3  C   UNL     1       5.444 -18.830  11.068  1.00  0.00     0.238 A 
ATOM      4  O   UNL     1       5.003 -19.976  10.793  1.00  0.00    -0.285 OA
ATOM      5  C   UNL     1       5.777 -18.465  12.395  1.00  0.00     0.111 A 
ATOM      6  C   UNL     1       5.732 -19.351  13.514  1.00  0.00     0.134 A 
ATOM      7  C   UNL     1       5.956 -18.849  14.801  1.00  0.00     0.093 A 
ATOM      8  C   UNL     1       6.288 -17.510  15.005  1.00  0.00     0.123 A 
ATOM      9  C   UNL     1       6.393 -16.648  13.912  1.00  0.00     0.094 A 
ATOM     10  C   UNL     1       6.139 -17.112  12.618  1.00  0.00     0.146 A 
ATOM     11  O   UNL     1       6.238 -16.257  11.607  1.00  0.00    -0.452 OA
ENDROOT
BRANCH   1  12
ATOM     12  C   UNL     1       6.171 -15.546   9.306  1.00  0.00     0.021 A 
ATOM     13  C   UNL     1       5.588 -14.281   9.488  1.00  0.00     0.016 A 
ATOM     14  C   UNL     1       5.759 -13.277   8.531  1.00  0.00     0.047 A 
ATOM     15  C   UNL     1       6.527 -13.519   7.386  1.00  0.00     0.115 A 
ATOM     16  C   UNL     1       6.960 -15.776   8.162  1.00  0.00     0.016 A 
ATOM     17  C   UNL     1       7.129 -14.769   7.207  1.00  0.00     0.047 A 
BRANCH  15  18
ATOM     18  O   UNL     1       6.704 -12.526   6.426  1.00  0.00    -0.508 OA
ATOM     19  H   UNL     1       6.002 -12.342   5.719  1.00  0.00     0.293 HD
ENDBRANCH  15  18
ENDBRANCH   1  12
BRANCH   2  20
ATOM     20  O   UNL     1       5.219 -18.219   8.721  1.00  0.00    -0.502 OA
ATOM     21  H   UNL     1       4.635 -17.624   8.145  1.00  0.00     0.293 HD
ENDBRANCH   2  20
BRANCH   6  22
ATOM     22  O   UNL     1       5.501 -20.726  13.412  1.00  0.00    -0.507 OA
ATOM     23  H   UNL     1       6.224 -21.429  13.362  1.00  0.00     0.293 HD
ENDBRANCH   6  22
BRANCH   8  24
ATOM     24  O   UNL     1       6.520 -17.048  16.298  1.00  0.00    -0.508 OA
ATOM     25  H   UNL     1       7.123 -17.551  16.939  1.00  0.00     0.293 HD
ENDBRANCH   8  24
TORSDOF 5
ENDMDL
MODEL 8
REMARK VINA RESULT:    -4.992      2.101      6.549
REMARK INTER + INTRA:          -6.142
REMARK INTER:                  -5.858
REMARK INTRA:                  -0.284
REMARK UNBOUND:                -0.274
REMARK SMILES O=c1c(O)c(-c2ccc(O)cc2)oc2cc(O)cc(O)c12
REMARK SMILES IDX 5 1 3 2 2 3 1 4 21 5 19 6 18 7 16 8 15 9 14 10 13 11 6 12
REMARK SMILES IDX 7 13 8 14 9 15 12 16 11 17 10 18 4 20 20 22 17 24
REMARK H PARENT 10 19 4 21 20 23 17 25
REMARK Flexibility Score: inf
ROOT
ATOM      1  C   UNL     1      -4.689 -16.422  16.893  1.00  0.00     0.180 A 
ATOM      2  C   UNL     1      -3.780 -17.485  17.038  1.00  0.00     0.208 A 
ATOM      3  C   UNL     1      -2.411 -17.199  17.156  1.00  0.00     0.238 A 
ATOM      4  O   UNL     1      -1.608 -18.150  17.340  1.00  0.00    -0.285 OA
ATOM      5  C   UNL     1      -1.965 -15.855  17.108  1.00  0.00     0.111 A 
ATOM      6  C   UNL     1      -0.597 -15.453  17.176  1.00  0.00     0.134 A 
ATOM      7  C   UNL     1      -0.282 -14.091  17.253  1.00  0.00     0.093 A 
ATOM      8  C   UNL     1      -1.278 -13.116  17.196  1.00  0.00     0.123 A 
ATOM      9  C   UNL     1      -2.614 -13.498  17.069  1.00  0.00     0.094 A 
ATOM     10  C   UNL     1      -2.963 -14.850  17.028  1.00  0.00     0.146 A 
ATOM     11  O   UNL     1      -4.247 -15.170  16.918  1.00  0.00    -0.452 OA
ENDROOT
BRANCH   1  12
ATOM     12  C   UNL     1      -6.145 -16.645  16.739  1.00  0.00     0.021 A 
ATOM     13  C   UNL     1      -6.672 -16.920  15.466  1.00  0.00     0.016 A 
ATOM     14  C   UNL     1      -8.040 -17.157  15.302  1.00  0.00     0.047 A 
ATOM     15  C   UNL     1      -8.896 -17.136  16.410  1.00  0.00     0.115 A 
ATOM     16  C   UNL     1      -7.008 -16.646  17.851  1.00  0.00     0.016 A 
ATOM     17  C   UNL     1      -8.375 -16.884  17.683  1.00  0.00     0.047 A 
BRANCH  15  18
ATOM     18  O   UNL     1     -10.261 -17.370  16.258  1.00  0.00    -0.508 OA
ATOM     19  H   UNL     1     -10.768 -17.978  16.890  1.00  0.00     0.293 HD
ENDBRANCH  15  18
ENDBRANCH   1  12
BRANCH   2  20
ATOM     20  O   UNL     1      -4.244 -18.801  17.105  1.00  0.00    -0.502 OA
ATOM     21  H   UNL     1      -5.028 -19.073  17.686  1.00  0.00     0.293 HD
ENDBRANCH   2  20
BRANCH   6  22
ATOM     22  O   UNL     1       0.481 -16.343  17.146  1.00  0.00    -0.507 OA
ATOM     23  H   UNL     1       0.955 -16.700  17.962  1.00  0.00     0.293 HD
ENDBRANCH   6  22
BRANCH   8  24
ATOM     24  O   UNL     1      -0.925 -11.770  17.258  1.00  0.00    -0.508 OA
ATOM     25  H   UNL     1      -1.609 -11.054  17.473  1.00  0.00     0.293 HD
ENDBRANCH   8  24
TORSDOF 5
ENDMDL
MODEL 9
REMARK VINA RESULT:    -4.832     13.349     15.246
REMARK INTER + INTRA:          -5.954
REMARK INTER:                  -5.681
REMARK INTRA:                  -0.273
REMARK UNBOUND:                -0.274
REMARK SMILES O=c1c(O)c(-c2ccc(O)cc2)oc2cc(O)cc(O)c12
REMARK SMILES IDX 5 1 3 2 2 3 1 4 21 5 19 6 18 7 16 8 15 9 14 10 13 11 6 12
REMARK SMILES IDX 7 13 8 14 9 15 12 16 11 17 10 18 4 20 20 22 17 24
REMARK H PARENT 10 19 4 21 20 23 17 25
REMARK Flexibility Score: inf
ROOT
ATOM      1  C   UNL     1       5.002 -16.902   6.524  1.00  0.00     0.180 A 
ATOM      2  C   UNL     1       5.086 -15.726   7.291  1.00  0.00     0.208 A 
ATOM      3  C   UNL     1       5.240 -15.830   8.682  1.00  0.00     0.238 A 
ATOM      4  O   UNL     1       5.369 -14.776   9.357  1.00  0.00    -0.285 OA
ATOM      5  C   UNL     1       5.290 -17.107   9.292  1.00  0.00     0.111 A 
ATOM      6  C   UNL     1       5.403 -17.330  10.698  1.00  0.00     0.134 A 
ATOM      7  C   UNL     1       5.577 -18.634  11.178  1.00  0.00     0.093 A 
ATOM      8  C   UNL     1       5.574 -19.727  10.313  1.00  0.00     0.123 A 
ATOM      9  C   UNL     1       5.405 -19.525   8.942  1.00  0.00     0.094 A 
ATOM     10  C   UNL     1       5.266 -18.233   8.429  1.00  0.00     0.146 A 
ATOM     11  O   UNL     1       5.119 -18.084   7.118  1.00  0.00    -0.452 OA
ENDROOT
BRANCH   1  12
ATOM     12  C   UNL     1       4.815 -16.874   5.056  1.00  0.00     0.021 A 
ATOM     13  C   UNL     1       5.934 -16.733   4.218  1.00  0.00     0.016 A 
ATOM     14  C   UNL     1       5.782 -16.727   2.829  1.00  0.00     0.047 A 
ATOM     15  C   UNL     1       4.512 -16.876   2.258  1.00  0.00     0.115 A 
ATOM     16  C   UNL     1       3.544 -17.045   4.476  1.00  0.00     0.016 A 
ATOM     17  C   UNL     1       3.396 -17.038   3.085  1.00  0.00     0.047 A 
BRANCH  15  18
ATOM     18  O   UNL     1       4.349 -16.871   0.875  1.00  0.00    -0.508 OA
ATOM     19  H   UNL     1       4.073 -17.705   0.371  1.00  0.00     0.293 HD
ENDBRANCH  15  18
ENDBRANCH   1  12
BRANCH   2  20
ATOM     20  O   UNL     1       5.056 -14.477   6.666  1.00  0.00    -0.502 OA
ATOM     21  H   UNL     1       4.368 -14.237   5.962  1.00  0.00     0.293 HD
ENDBRANCH   2  20
BRANCH   6  22
ATOM     22  O   UNL     1       5.325 -16.316  11.657  1.00  0.00    -0.507 OA
ATOM     23  H   UNL     1       5.984 -16.185  12.410  1.00  0.00     0.293 HD
ENDBRANCH   6  22
BRANCH   8  24
ATOM     24  O   UNL     1       5.733 -21.011  10.828  1.00  0.00    -0.508 OA
ATOM     25  H   UNL     1       6.645 -21.368  11.088  1.00  0.00     0.293 HD
ENDBRANCH   8  24
TORSDOF 5
ENDMDL
