MODEL 1
REMARK VINA RESULT:    -6.404      0.000      0.000
REMARK INTER + INTRA:          -8.043
REMARK INTER:                  -7.714
REMARK INTRA:                  -0.329
REMARK UNBOUND:                -0.329
REMARK SMILES O=c1c(O)c(-c2ccc(O)c(O)c2)oc2cc(O)cc(O)c12
REMARK SMILES IDX 5 1 3 2 2 3 1 4 22 5 20 6 19 7 17 8 16 9 15 10 14 11 6 12
REMARK SMILES IDX 7 13 8 14 9 15 13 16 11 17 10 18 12 20 4 22 21 24 18 26
REMARK H PARENT 10 19 12 21 4 23 21 25 18 27
REMARK Flexibility Score: inf
ROOT
ATOM      1  C   UNL     1     100.723 121.503  95.443  1.00  0.00     0.180 A 
ATOM      2  C   UNL     1      99.454 120.899  95.538  1.00  0.00     0.208 A 
ATOM      3  C   UNL     1      99.358 119.503  95.428  1.00  0.00     0.238 A 
ATOM      4  O   UNL     1      98.226 118.952  95.501  1.00  0.00    -0.285 OA
ATOM      5  C   UNL     1     100.527 118.736  95.247  1.00  0.00     0.111 A 
ATOM      6  C   UNL     1     100.517 117.325  95.131  1.00  0.00     0.134 A 
ATOM      7  C   UNL     1     101.725 116.632  94.962  1.00  0.00     0.093 A 
ATOM      8  C   UNL     1     102.939 117.321  94.907  1.00  0.00     0.123 A 
ATOM      9  C   UNL     1     102.955 118.714  95.020  1.00  0.00     0.094 A 
ATOM     10  C   UNL     1     101.762 119.423  95.187  1.00  0.00     0.146 A 
ATOM     11  O   UNL     1     101.806 120.747  95.287  1.00  0.00    -0.452 OA
ENDROOT
BRANCH   1  12
ATOM     12  C   UNL     1     100.904 122.970  95.529  1.00  0.00     0.025 A 
ATOM     13  C   UNL     1     101.125 123.566  96.781  1.00  0.00     0.016 A 
ATOM     14  C   UNL     1     101.320 124.946  96.885  1.00  0.00     0.051 A 
ATOM     15  C   UNL     1     101.310 125.748  95.736  1.00  0.00     0.157 A 
ATOM     16  C   UNL     1     100.916 123.777  94.377  1.00  0.00     0.062 A 
ATOM     17  C   UNL     1     101.113 125.162  94.479  1.00  0.00     0.158 A 
BRANCH  15  18
ATOM     18  O   UNL     1     101.502 127.125  95.834  1.00  0.00    -0.504 OA
ATOM     19  H   UNL     1     100.801 127.782  95.512  1.00  0.00     0.293 HD
ENDBRANCH  15  18
BRANCH  17  20
ATOM     20  O   UNL     1     101.118 125.960  93.336  1.00  0.00    -0.504 OA
ATOM     21  H   UNL     1     100.317 126.525  93.081  1.00  0.00     0.293 HD
ENDBRANCH  17  20
ENDBRANCH   1  12
BRANCH   2  22
ATOM     22  O   UNL     1      98.317 121.678  95.766  1.00  0.00    -0.502 OA
ATOM     23  H   UNL     1      97.768 122.072  95.011  1.00  0.00     0.293 HD
ENDBRANCH   2  22
BRANCH   6  24
ATOM     24  O   UNL     1      99.320 116.608  95.184  1.00  0.00    -0.507 OA
ATOM     25  H   UNL     1      98.424 117.074  95.272  1.00  0.00     0.293 HD
ENDBRANCH   6  24
BRANCH   8  26
ATOM     26  O   UNL     1     104.125 116.608  94.739  1.00  0.00    -0.508 OA
ATOM     27  H   UNL     1     104.133 115.596  94.701  1.00  0.00     0.293 HD
ENDBRANCH   8  26
TORSDOF 6
ENDMDL
MODEL 2
REMARK VINA RESULT:    -6.310      1.602      6.665
REMARK INTER + INTRA:          -7.930
REMARK INTER:                  -7.605
REMARK INTRA:                  -0.324
REMARK UNBOUND:                -0.329
REMARK SMILES O=c1c(O)c(-c2ccc(O)c(O)c2)oc2cc(O)cc(O)c12
REMARK SMILES IDX 5 1 3 2 2 3 1 4 22 5 20 6 19 7 17 8 16 9 15 10 14 11 6 12
REMARK SMILES IDX 7 13 8 14 9 15 13 16 11 17 10 18 12 20 4 22 21 24 18 26
REMARK H PARENT 10 19 12 21 4 23 21 25 18 27
REMARK Flexibility Score: inf
ROOT
ATOM      1  C   UNL     1     101.126 120.641  95.089  1.00  0.00     0.180 A 
ATOM      2  C   UNL     1     100.167 120.709  96.118  1.00  0.00     0.208 A 
ATOM      3  C   UNL     1      99.578 121.948  96.414  1.00  0.00     0.238 A 
ATOM      4  O   UNL     1      98.725 122.023  97.341  1.00  0.00    -0.285 OA
ATOM      5  C   UNL     1      99.939 123.088  95.668  1.00  0.00     0.111 A 
ATOM      6  C   UNL     1      99.389 124.372  95.901  1.00  0.00     0.134 A 
ATOM      7  C   UNL     1      99.795 125.456  95.108  1.00  0.00     0.093 A 
ATOM      8  C   UNL     1     100.735 125.282  94.090  1.00  0.00     0.123 A 
ATOM      9  C   UNL     1     101.281 124.017  93.856  1.00  0.00     0.094 A 
ATOM     10  C   UNL     1     100.892 122.924  94.636  1.00  0.00     0.146 A 
ATOM     11  O   UNL     1     101.431 121.734  94.396  1.00  0.00    -0.452 OA
ENDROOT
BRANCH   1  12
ATOM     12  C   UNL     1     101.805 119.376  94.730  1.00  0.00     0.025 A 
ATOM     13  C   UNL     1     102.978 119.005  95.409  1.00  0.00     0.016 A 
ATOM     14  C   UNL     1     103.625 117.805  95.102  1.00  0.00     0.051 A 
ATOM     15  C   UNL     1     103.101 116.952  94.121  1.00  0.00     0.157 A 
ATOM     16  C   UNL     1     101.272 118.505  93.762  1.00  0.00     0.062 A 
ATOM     17  C   UNL     1     101.921 117.300  93.454  1.00  0.00     0.158 A 
BRANCH  15  18
ATOM     18  O   UNL     1     103.744 115.755  93.810  1.00  0.00    -0.504 OA
ATOM     19  H   UNL     1     104.266 115.237  94.507  1.00  0.00     0.293 HD
ENDBRANCH  15  18
BRANCH  17  20
ATOM     20  O   UNL     1     101.394 116.443  92.489  1.00  0.00    -0.504 OA
ATOM     21  H   UNL     1     100.411 116.200  92.475  1.00  0.00     0.293 HD
ENDBRANCH  17  20
ENDBRANCH   1  12
BRANCH   2  22
ATOM     22  O   UNL     1      99.790 119.554  96.809  1.00  0.00    -0.502 OA
ATOM     23  H   UNL     1      99.933 118.625  96.432  1.00  0.00     0.293 HD
ENDBRANCH   2  22
BRANCH   6  24
ATOM     24  O   UNL     1      98.447 124.578  96.910  1.00  0.00    -0.507 OA
ATOM     25  H   UNL     1      97.453 124.486  96.737  1.00  0.00     0.293 HD
ENDBRANCH   6  24
BRANCH   8  26
ATOM     26  O   UNL     1     101.119 126.376  93.317  1.00  0.00    -0.508 OA
ATOM     27  H   UNL     1     100.527 127.193  93.224  1.00  0.00     0.293 HD
ENDBRANCH   8  26
TORSDOF 6
ENDMDL
MODEL 3
REMARK VINA RESULT:    -5.969      1.601      7.052
REMARK INTER + INTRA:          -7.519
REMARK INTER:                  -7.190
REMARK INTRA:                  -0.328
REMARK UNBOUND:                -0.329
REMARK SMILES O=c1c(O)c(-c2ccc(O)c(O)c2)oc2cc(O)cc(O)c12
REMARK SMILES IDX 5 1 3 2 2 3 1 4 22 5 20 6 19 7 17 8 16 9 15 10 14 11 6 12
REMARK SMILES IDX 7 13 8 14 9 15 13 16 11 17 10 18 12 20 4 22 21 24 18 26
REMARK H PARENT 10 19 12 21 4 23 21 25 18 27
REMARK Flexibility Score: inf
ROOT
ATOM      1  C   UNL     1     101.660 121.092  96.115  1.00  0.00     0.180 A 
ATOM      2  C   UNL     1     101.837 121.555  97.433  1.00  0.00     0.208 A 
ATOM      3  C   UNL     1     101.805 122.937  97.675  1.00  0.00     0.238 A 
ATOM      4  O   UNL     1     101.972 123.365  98.850  1.00  0.00    -0.285 OA
ATOM      5  C   UNL     1     101.578 123.827  96.606  1.00  0.00     0.111 A 
ATOM      6  C   UNL     1     101.528 125.234  96.767  1.00  0.00     0.134 A 
ATOM      7  C   UNL     1     101.288 126.053  95.653  1.00  0.00     0.093 A 
ATOM      8  C   UNL     1     101.097 125.495  94.386  1.00  0.00     0.123 A 
ATOM      9  C   UNL     1     101.147 124.108  94.222  1.00  0.00     0.094 A 
ATOM     10  C   UNL     1     101.387 123.275  95.318  1.00  0.00     0.146 A 
ATOM     11  O   UNL     1     101.434 121.960  95.133  1.00  0.00    -0.452 OA
ENDROOT
BRANCH   1  12
ATOM     12  C   UNL     1     101.700 119.651  95.776  1.00  0.00     0.025 A 
ATOM     13  C   UNL     1     100.512 118.902  95.806  1.00  0.00     0.016 A 
ATOM     14  C   UNL     1     100.522 117.546  95.469  1.00  0.00     0.051 A 
ATOM     15  C   UNL     1     101.716 116.923  95.084  1.00  0.00     0.157 A 
ATOM     16  C   UNL     1     102.892 119.026  95.368  1.00  0.00     0.062 A 
ATOM     17  C   UNL     1     102.902 117.665  95.029  1.00  0.00     0.158 A 
BRANCH  15  18
ATOM     18  O   UNL     1     101.731 115.569  94.750  1.00  0.00    -0.504 OA
ATOM     19  H   UNL     1     102.543 114.990  94.922  1.00  0.00     0.293 HD
ENDBRANCH  15  18
BRANCH  17  20
ATOM     20  O   UNL     1     104.087 117.046  94.632  1.00  0.00    -0.504 OA
ATOM     21  H   UNL     1     104.830 117.565  94.181  1.00  0.00     0.293 HD
ENDBRANCH  17  20
ENDBRANCH   1  12
BRANCH   2  22
ATOM     22  O   UNL     1     102.010 120.649  98.482  1.00  0.00    -0.502 OA
ATOM     23  H   UNL     1     102.808 120.026  98.535  1.00  0.00     0.293 HD
ENDBRANCH   2  22
BRANCH   6  24
ATOM     24  O   UNL     1     101.712 125.821  98.019  1.00  0.00    -0.507 OA
ATOM     25  H   UNL     1     102.564 125.684  98.551  1.00  0.00     0.293 HD
ENDBRANCH   6  24
BRANCH   8  26
ATOM     26  O   UNL     1     100.860 126.332  93.297  1.00  0.00    -0.508 OA
ATOM     27  H   UNL     1     101.375 127.195  93.171  1.00  0.00     0.293 HD
ENDBRANCH   8  26
TORSDOF 6
ENDMDL
MODEL 4
REMARK VINA RESULT:    -5.928      1.698      6.688
REMARK INTER + INTRA:          -7.470
REMARK INTER:                  -7.200
REMARK INTRA:                  -0.269
REMARK UNBOUND:                -0.329
REMARK SMILES O=c1c(O)c(-c2ccc(O)c(O)c2)oc2cc(O)cc(O)c12
REMARK SMILES IDX 5 1 3 2 2 3 1 4 22 5 20 6 19 7 17 8 16 9 15 10 14 11 6 12
REMARK SMILES IDX 7 13 8 14 9 15 13 16 11 17 10 18 12 20 4 22 21 24 18 26
REMARK H PARENT 10 19 12 21 4 23 21 25 18 27
REMARK Flexibility Score: inf
ROOT
ATOM      1  C   UNL     1     100.497 120.419  94.659  1.00  0.00     0.180 A 
ATOM      2  C   UNL     1      99.245 120.929  94.265  1.00  0.00     0.208 A 
ATOM      3  C   UNL     1      99.013 122.309  94.370  1.00  0.00     0.238 A 
ATOM      4  O   UNL     1      97.892 122.777  94.029  1.00  0.00    -0.285 OA
ATOM      5  C   UNL     1     100.036 123.154  94.845  1.00  0.00     0.111 A 
ATOM      6  C   UNL     1      99.884 124.556  94.978  1.00  0.00     0.134 A 
ATOM      7  C   UNL     1     100.954 125.330  95.451  1.00  0.00     0.093 A 
ATOM      8  C   UNL     1     102.170 124.733  95.792  1.00  0.00     0.123 A 
ATOM      9  C   UNL     1     102.325 123.349  95.664  1.00  0.00     0.094 A 
ATOM     10  C   UNL     1     101.271 122.560  95.197  1.00  0.00     0.146 A 
ATOM     11  O   UNL     1     101.444 121.247  95.090  1.00  0.00    -0.452 OA
ENDROOT
BRANCH   1  12
ATOM     12  C   UNL     1     100.811 118.973  94.597  1.00  0.00     0.025 A 
ATOM     13  C   UNL     1     100.273 118.107  95.563  1.00  0.00     0.016 A 
ATOM     14  C   UNL     1     100.539 116.736  95.511  1.00  0.00     0.051 A 
ATOM     15  C   UNL     1     101.335 116.210  94.485  1.00  0.00     0.157 A 
ATOM     16  C   UNL     1     101.592 118.437  93.557  1.00  0.00     0.062 A 
ATOM     17  C   UNL     1     101.859 117.061  93.504  1.00  0.00     0.158 A 
BRANCH  15  18
ATOM     18  O   UNL     1     101.605 114.843  94.431  1.00  0.00    -0.504 OA
ATOM     19  H   UNL     1     102.235 114.454  93.740  1.00  0.00     0.293 HD
ENDBRANCH  15  18
BRANCH  17  20
ATOM     20  O   UNL     1     102.639 116.532  92.476  1.00  0.00    -0.504 OA
ATOM     21  H   UNL     1     102.223 116.034  91.698  1.00  0.00     0.293 HD
ENDBRANCH  17  20
ENDBRANCH   1  12
BRANCH   2  22
ATOM     22  O   UNL     1      98.265 120.076  93.750  1.00  0.00    -0.502 OA
ATOM     23  H   UNL     1      97.448 120.422  93.261  1.00  0.00     0.293 HD
ENDBRANCH   2  22
BRANCH   6  24
ATOM     24  O   UNL     1      98.683 125.183  94.643  1.00  0.00    -0.507 OA
ATOM     25  H   UNL     1      98.484 126.137  94.922  1.00  0.00     0.293 HD
ENDBRANCH   6  24
BRANCH   8  26
ATOM     26  O   UNL     1     103.217 125.525  96.258  1.00  0.00    -0.508 OA
ATOM     27  H   UNL     1     103.083 126.189  97.011  1.00  0.00     0.293 HD
ENDBRANCH   8  26
TORSDOF 6
ENDMDL
MODEL 5
REMARK VINA RESULT:    -5.917      2.000      7.137
REMARK INTER + INTRA:          -7.456
REMARK INTER:                  -7.126
REMARK INTRA:                  -0.330
REMARK UNBOUND:                -0.329
REMARK SMILES O=c1c(O)c(-c2ccc(O)c(O)c2)oc2cc(O)cc(O)c12
REMARK SMILES IDX 5 1 3 2 2 3 1 4 22 5 20 6 19 7 17 8 16 9 15 10 14 11 6 12
REMARK SMILES IDX 7 13 8 14 9 15 13 16 11 17 10 18 12 20 4 22 21 24 18 26
REMARK H PARENT 10 19 12 21 4 23 21 25 18 27
REMARK Flexibility Score: inf
ROOT
ATOM      1  C   UNL     1     100.803 120.515  94.882  1.00  0.00     0.180 A 
ATOM      2  C   UNL     1     101.774 121.322  95.505  1.00  0.00     0.208 A 
ATOM      3  C   UNL     1     101.550 122.705  95.592  1.00  0.00     0.238 A 
ATOM      4  O   UNL     1     102.417 123.440  96.139  1.00  0.00    -0.285 OA
ATOM      5  C   UNL     1     100.357 123.252  95.078  1.00  0.00     0.111 A 
ATOM      6  C   UNL     1     100.053 124.635  95.130  1.00  0.00     0.134 A 
ATOM      7  C   UNL     1      98.839 125.100  94.602  1.00  0.00     0.093 A 
ATOM      8  C   UNL     1      97.926 124.214  94.027  1.00  0.00     0.123 A 
ATOM      9  C   UNL     1      98.221 122.848  93.972  1.00  0.00     0.094 A 
ATOM     10  C   UNL     1      99.426 122.365  94.490  1.00  0.00     0.146 A 
ATOM     11  O   UNL     1      99.683 121.063  94.420  1.00  0.00    -0.452 OA
ENDROOT
BRANCH   1  12
ATOM     12  C   UNL     1     100.975 119.052  94.733  1.00  0.00     0.025 A 
ATOM     13  C   UNL     1     100.370 118.188  95.660  1.00  0.00     0.016 A 
ATOM     14  C   UNL     1     100.501 116.803  95.528  1.00  0.00     0.051 A 
ATOM     15  C   UNL     1     101.227 116.261  94.459  1.00  0.00     0.157 A 
ATOM     16  C   UNL     1     101.685 118.503  93.650  1.00  0.00     0.062 A 
ATOM     17  C   UNL     1     101.816 117.113  93.516  1.00  0.00     0.158 A 
BRANCH  15  18
ATOM     18  O   UNL     1     101.362 114.881  94.324  1.00  0.00    -0.504 OA
ATOM     19  H   UNL     1     100.914 114.239  94.968  1.00  0.00     0.293 HD
ENDBRANCH  15  18
BRANCH  17  20
ATOM     20  O   UNL     1     102.526 116.571  92.445  1.00  0.00    -0.504 OA
ATOM     21  H   UNL     1     103.332 115.975  92.590  1.00  0.00     0.293 HD
ENDBRANCH  17  20
ENDBRANCH   1  12
BRANCH   2  22
ATOM     22  O   UNL     1     102.925 120.748  96.051  1.00  0.00    -0.502 OA
ATOM     23  H   UNL     1     103.172 120.854  97.028  1.00  0.00     0.293 HD
ENDBRANCH   2  22
BRANCH   6  24
ATOM     24  O   UNL     1     100.945 125.545  95.700  1.00  0.00    -0.507 OA
ATOM     25  H   UNL     1     101.948 125.416  95.641  1.00  0.00     0.293 HD
ENDBRANCH   6  24
BRANCH   8  26
ATOM     26  O   UNL     1      96.727 124.703  93.512  1.00  0.00    -0.508 OA
ATOM     27  H   UNL     1      96.362 125.607  93.788  1.00  0.00     0.293 HD
ENDBRANCH   8  26
TORSDOF 6
ENDMDL
MODEL 6
REMARK VINA RESULT:    -5.897      2.672      5.036
REMARK INTER + INTRA:          -7.432
REMARK INTER:                  -7.108
REMARK INTRA:                  -0.324
REMARK UNBOUND:                -0.329
REMARK SMILES O=c1c(O)c(-c2ccc(O)c(O)c2)oc2cc(O)cc(O)c12
REMARK SMILES IDX 5 1 3 2 2 3 1 4 22 5 20 6 19 7 17 8 16 9 15 10 14 11 6 12
REMARK SMILES IDX 7 13 8 14 9 15 13 16 11 17 10 18 12 20 4 22 21 24 18 26
REMARK H PARENT 10 19 12 21 4 23 21 25 18 27
REMARK Flexibility Score: inf
ROOT
ATOM      1  C   UNL     1     102.324 117.562  94.416  1.00  0.00     0.180 A 
ATOM      2  C   UNL     1     103.000 117.365  93.197  1.00  0.00     0.208 A 
ATOM      3  C   UNL     1     103.181 116.055  92.727  1.00  0.00     0.238 A 
ATOM      4  O   UNL     1     103.794 115.865  91.640  1.00  0.00    -0.285 OA
ATOM      5  C   UNL     1     102.670 114.971  93.468  1.00  0.00     0.111 A 
ATOM      6  C   UNL     1     102.807 113.621  93.062  1.00  0.00     0.134 A 
ATOM      7  C   UNL     1     102.261 112.598  93.852  1.00  0.00     0.093 A 
ATOM      8  C   UNL     1     101.582 112.897  95.036  1.00  0.00     0.123 A 
ATOM      9  C   UNL     1     101.445 114.228  95.442  1.00  0.00     0.094 A 
ATOM     10  C   UNL     1     101.983 115.261  94.670  1.00  0.00     0.146 A 
ATOM     11  O   UNL     1     101.842 116.516  95.082  1.00  0.00    -0.452 OA
ENDROOT
BRANCH   1  12
ATOM     12  C   UNL     1     102.110 118.911  94.988  1.00  0.00     0.025 A 
ATOM     13  C   UNL     1     103.099 119.478  95.808  1.00  0.00     0.016 A 
ATOM     14  C   UNL     1     102.929 120.759  96.340  1.00  0.00     0.051 A 
ATOM     15  C   UNL     1     101.773 121.496  96.050  1.00  0.00     0.157 A 
ATOM     16  C   UNL     1     100.962 119.663  94.682  1.00  0.00     0.062 A 
ATOM     17  C   UNL     1     100.790 120.949  95.216  1.00  0.00     0.158 A 
BRANCH  15  18
ATOM     18  O   UNL     1     101.597 122.772  96.582  1.00  0.00    -0.504 OA
ATOM     19  H   UNL     1     102.297 123.496  96.464  1.00  0.00     0.293 HD
ENDBRANCH  15  18
BRANCH  17  20
ATOM     20  O   UNL     1      99.648 121.690  94.917  1.00  0.00    -0.504 OA
ATOM     21  H   UNL     1      99.581 122.242  94.070  1.00  0.00     0.293 HD
ENDBRANCH  17  20
ENDBRANCH   1  12
BRANCH   2  22
ATOM     22  O   UNL     1     103.453 118.460  92.456  1.00  0.00    -0.502 OA
ATOM     23  H   UNL     1     104.089 118.359  91.673  1.00  0.00     0.293 HD
ENDBRANCH   2  22
BRANCH   6  24
ATOM     24  O   UNL     1     103.478 113.290  91.884  1.00  0.00    -0.507 OA
ATOM     25  H   UNL     1     103.733 113.994  91.201  1.00  0.00     0.293 HD
ENDBRANCH   6  24
BRANCH   8  26
ATOM     26  O   UNL     1     101.049 111.862  95.801  1.00  0.00    -0.508 OA
ATOM     27  H   UNL     1     101.246 110.891  95.588  1.00  0.00     0.293 HD
ENDBRANCH   8  26
TORSDOF 6
ENDMDL
MODEL 7
REMARK VINA RESULT:    -5.479      2.398      6.930
REMARK INTER + INTRA:          -6.929
REMARK INTER:                  -7.025
REMARK INTRA:                   0.096
REMARK UNBOUND:                -0.329
REMARK SMILES O=c1c(O)c(-c2ccc(O)c(O)c2)oc2cc(O)cc(O)c12
REMARK SMILES IDX 5 1 3 2 2 3 1 4 22 5 20 6 19 7 17 8 16 9 15 10 14 11 6 12
REMARK SMILES IDX 7 13 8 14 9 15 13 16 11 17 10 18 12 20 4 22 21 24 18 26
REMARK H PARENT 10 19 12 21 4 23 21 25 18 27
REMARK Flexibility Score: inf
ROOT
ATOM      1  C   UNL     1     100.597 121.909  94.970  1.00  0.00     0.180 A 
ATOM      2  C   UNL     1     101.195 123.177  95.094  1.00  0.00     0.208 A 
ATOM      3  C   UNL     1     100.374 124.316  95.092  1.00  0.00     0.238 A 
ATOM      4  O   UNL     1     100.899 125.459  95.192  1.00  0.00    -0.285 OA
ATOM      5  C   UNL     1      98.977 124.168  94.989  1.00  0.00     0.111 A 
ATOM      6  C   UNL     1      98.080 125.264  94.983  1.00  0.00     0.134 A 
ATOM      7  C   UNL     1      96.699 125.033  94.885  1.00  0.00     0.093 A 
ATOM      8  C   UNL     1      96.199 123.732  94.794  1.00  0.00     0.123 A 
ATOM      9  C   UNL     1      97.080 122.646  94.798  1.00  0.00     0.094 A 
ATOM     10  C   UNL     1      98.459 122.855  94.892  1.00  0.00     0.146 A 
ATOM     11  O   UNL     1      99.273 121.806  94.889  1.00  0.00    -0.452 OA
ENDROOT
BRANCH   1  12
ATOM     12  C   UNL     1     101.395 120.662  94.944  1.00  0.00     0.025 A 
ATOM     13  C   UNL     1     102.408 120.471  95.898  1.00  0.00     0.016 A 
ATOM     14  C   UNL     1     103.160 119.293  95.906  1.00  0.00     0.051 A 
ATOM     15  C   UNL     1     102.902 118.284  94.969  1.00  0.00     0.157 A 
ATOM     16  C   UNL     1     101.126 119.637  94.019  1.00  0.00     0.062 A 
ATOM     17  C   UNL     1     101.880 118.455  94.027  1.00  0.00     0.158 A 
BRANCH  15  18
ATOM     18  O   UNL     1     103.651 117.109  94.971  1.00  0.00    -0.504 OA
ATOM     19  H   UNL     1     104.648 117.117  95.150  1.00  0.00     0.293 HD
ENDBRANCH  15  18
BRANCH  17  20
ATOM     20  O   UNL     1     101.615 117.443  93.104  1.00  0.00    -0.504 OA
ATOM     21  H   UNL     1     101.560 117.633  92.111  1.00  0.00     0.293 HD
ENDBRANCH  17  20
ENDBRANCH   1  12
BRANCH   2  22
ATOM     22  O   UNL     1     102.579 123.294  95.245  1.00  0.00    -0.502 OA
ATOM     23  H   UNL     1     103.039 123.169  96.140  1.00  0.00     0.293 HD
ENDBRANCH   2  22
BRANCH   6  24
ATOM     24  O   UNL     1      98.548 126.576  95.075  1.00  0.00    -0.507 OA
ATOM     25  H   UNL     1      97.920 127.370  95.036  1.00  0.00     0.293 HD
ENDBRANCH   6  24
BRANCH   8  26
ATOM     26  O   UNL     1      94.824 123.531  94.699  1.00  0.00    -0.508 OA
ATOM     27  H   UNL     1      94.240 123.468  95.524  1.00  0.00     0.293 HD
ENDBRANCH   8  26
TORSDOF 6
ENDMDL
MODEL 8
REMARK VINA RESULT:    -5.418      2.913      4.121
REMARK INTER + INTRA:          -6.855
REMARK INTER:                  -6.581
REMARK INTRA:                  -0.274
REMARK UNBOUND:                -0.329
REMARK SMILES O=c1c(O)c(-c2ccc(O)c(O)c2)oc2cc(O)cc(O)c12
REMARK SMILES IDX 5 1 3 2 2 3 1 4 22 5 20 6 19 7 17 8 16 9 15 10 14 11 6 12
REMARK SMILES IDX 7 13 8 14 9 15 13 16 11 17 10 18 12 20 4 22 21 24 18 26
REMARK H PARENT 10 19 12 21 4 23 21 25 18 27
REMARK Flexibility Score: inf
ROOT
ATOM      1  C   UNL     1      99.251 122.218  95.450  1.00  0.00     0.180 A 
ATOM      2  C   UNL     1     100.395 122.923  95.872  1.00  0.00     0.208 A 
ATOM      3  C   UNL     1     101.608 122.229  96.003  1.00  0.00     0.238 A 
ATOM      4  O   UNL     1     102.637 122.847  96.391  1.00  0.00    -0.285 OA
ATOM      5  C   UNL     1     101.662 120.855  95.692  1.00  0.00     0.111 A 
ATOM      6  C   UNL     1     102.846 120.084  95.795  1.00  0.00     0.134 A 
ATOM      7  C   UNL     1     102.820 118.722  95.458  1.00  0.00     0.093 A 
ATOM      8  C   UNL     1     101.638 118.118  95.021  1.00  0.00     0.123 A 
ATOM      9  C   UNL     1     100.467 118.874  94.919  1.00  0.00     0.094 A 
ATOM     10  C   UNL     1     100.471 120.232  95.252  1.00  0.00     0.146 A 
ATOM     11  O   UNL     1      99.343 120.926  95.151  1.00  0.00    -0.452 OA
ENDROOT
BRANCH   1  12
ATOM     12  C   UNL     1      97.932 122.875  95.306  1.00  0.00     0.025 A 
ATOM     13  C   UNL     1      96.968 122.716  96.314  1.00  0.00     0.016 A 
ATOM     14  C   UNL     1      95.724 123.344  96.211  1.00  0.00     0.051 A 
ATOM     15  C   UNL     1      95.431 124.151  95.103  1.00  0.00     0.157 A 
ATOM     16  C   UNL     1      97.641 123.704  94.207  1.00  0.00     0.062 A 
ATOM     17  C   UNL     1      96.393 124.335  94.102  1.00  0.00     0.158 A 
BRANCH  15  18
ATOM     18  O   UNL     1      94.190 124.777  94.994  1.00  0.00    -0.504 OA
ATOM     19  H   UNL     1      93.916 125.266  94.151  1.00  0.00     0.293 HD
ENDBRANCH  15  18
BRANCH  17  20
ATOM     20  O   UNL     1      96.104 125.151  93.009  1.00  0.00    -0.504 OA
ATOM     21  H   UNL     1      96.675 125.957  92.784  1.00  0.00     0.293 HD
ENDBRANCH  17  20
ENDBRANCH   1  12
BRANCH   2  22
ATOM     22  O   UNL     1     100.325 124.295  96.126  1.00  0.00    -0.502 OA
ATOM     23  H   UNL     1     101.147 124.888  96.132  1.00  0.00     0.293 HD
ENDBRANCH   2  22
BRANCH   6  24
ATOM     24  O   UNL     1     104.042 120.658  96.225  1.00  0.00    -0.507 OA
ATOM     25  H   UNL     1     104.093 121.626  96.520  1.00  0.00     0.293 HD
ENDBRANCH   6  24
BRANCH   8  26
ATOM     26  O   UNL     1     101.641 116.764  94.692  1.00  0.00    -0.508 OA
ATOM     27  H   UNL     1     101.679 116.454  93.729  1.00  0.00     0.293 HD
ENDBRANCH   8  26
TORSDOF 6
ENDMDL
MODEL 9
REMARK VINA RESULT:    -5.323      1.805      2.614
REMARK INTER + INTRA:          -6.742
REMARK INTER:                  -6.432
REMARK INTRA:                  -0.310
REMARK UNBOUND:                -0.329
REMARK SMILES O=c1c(O)c(-c2ccc(O)c(O)c2)oc2cc(O)cc(O)c12
REMARK SMILES IDX 5 1 3 2 2 3 1 4 22 5 20 6 19 7 17 8 16 9 15 10 14 11 6 12
REMARK SMILES IDX 7 13 8 14 9 15 13 16 11 17 10 18 12 20 4 22 21 24 18 26
REMARK H PARENT 10 19 12 21 4 23 21 25 18 27
REMARK Flexibility Score: inf
ROOT
ATOM      1  C   UNL     1     101.443 123.132  96.783  1.00  0.00     0.180 A 
ATOM      2  C   UNL     1     100.111 122.933  96.370  1.00  0.00     0.208 A 
ATOM      3  C   UNL     1      99.769 121.722  95.748  1.00  0.00     0.238 A 
ATOM      4  O   UNL     1      98.582 121.536  95.364  1.00  0.00    -0.285 OA
ATOM      5  C   UNL     1     100.752 120.728  95.570  1.00  0.00     0.111 A 
ATOM      6  C   UNL     1     100.489 119.479  94.956  1.00  0.00     0.134 A 
ATOM      7  C   UNL     1     101.520 118.537  94.823  1.00  0.00     0.093 A 
ATOM      8  C   UNL     1     102.806 118.818  95.292  1.00  0.00     0.123 A 
ATOM      9  C   UNL     1     103.072 120.050  95.898  1.00  0.00     0.094 A 
ATOM     10  C   UNL     1     102.059 121.002  96.037  1.00  0.00     0.146 A 
ATOM     11  O   UNL     1     102.341 122.166  96.612  1.00  0.00    -0.452 OA
ENDROOT
BRANCH   1  12
ATOM     12  C   UNL     1     101.886 124.389  97.429  1.00  0.00     0.025 A 
ATOM     13  C   UNL     1     102.081 124.420  98.819  1.00  0.00     0.016 A 
ATOM     14  C   UNL     1     102.519 125.589  99.447  1.00  0.00     0.051 A 
ATOM     15  C   UNL     1     102.782 126.740  98.692  1.00  0.00     0.157 A 
ATOM     16  C   UNL     1     102.171 125.540  96.673  1.00  0.00     0.062 A 
ATOM     17  C   UNL     1     102.612 126.714  97.302  1.00  0.00     0.158 A 
BRANCH  15  18
ATOM     18  O   UNL     1     103.217 127.908  99.314  1.00  0.00    -0.504 OA
ATOM     19  H   UNL     1     102.614 128.717  99.404  1.00  0.00     0.293 HD
ENDBRANCH  15  18
BRANCH  17  20
ATOM     20  O   UNL     1     102.888 127.856  96.551  1.00  0.00    -0.504 OA
ATOM     21  H   UNL     1     102.389 128.724  96.704  1.00  0.00     0.293 HD
ENDBRANCH  17  20
ENDBRANCH   1  12
BRANCH   2  22
ATOM     22  O   UNL     1      99.145 123.915  96.603  1.00  0.00    -0.502 OA
ATOM     23  H   UNL     1      98.275 123.954  96.085  1.00  0.00     0.293 HD
ENDBRANCH   2  22
BRANCH   6  24
ATOM     24  O   UNL     1      99.214 119.167  94.480  1.00  0.00    -0.507 OA
ATOM     25  H   UNL     1      98.398 119.702  94.753  1.00  0.00     0.293 HD
ENDBRANCH   6  24
BRANCH   8  26
ATOM     26  O   UNL     1     103.812 117.865  95.148  1.00  0.00    -0.508 OA
ATOM     27  H   UNL     1     103.614 116.936  94.797  1.00  0.00     0.293 HD
ENDBRANCH   8  26
TORSDOF 6
ENDMDL
