MODEL 1
REMARK VINA RESULT:    -3.465      0.000      0.000
REMARK INTER + INTRA:          -3.465
REMARK INTER:                  -3.465
REMARK INTRA:                   0.000
REMARK UNBOUND:                 0.000
REMARK SMILES CC1(C)O[C@]2(C)CC[C@H]1CC2
REMARK SMILES IDX 1 1 2 2 9 3 10 4 11 5 5 6 4 7 7 8 8 9 6 10 3 11
REMARK H PARENT
REMARK Flexibility Score: inf
ROOT
ATOM      1  C   UNL     1     147.436 137.879 138.218  1.00  0.00     0.042 C 
ATOM      2  C   UNL     1     147.593 139.104 139.145  1.00  0.00     0.066 C 
ATOM      3  C   UNL     1     148.253 140.309 138.371  1.00  0.00     0.021 C 
ATOM      4  C   UNL     1     148.433 141.487 139.358  1.00  0.00     0.009 C 
ATOM      5  C   UNL     1     149.169 140.981 140.623  1.00  0.00     0.035 C 
ATOM      6  C   UNL     1     149.562 139.488 140.442  1.00  0.00     0.066 C 
ATOM      7  O   UNL     1     148.377 138.706 140.280  1.00  0.00    -0.369 OA
ATOM      8  C   UNL     1     150.445 139.348 139.168  1.00  0.00     0.035 C 
ATOM      9  C   UNL     1     149.678 139.891 137.938  1.00  0.00     0.009 C 
ATOM     10  C   UNL     1     150.321 138.984 141.674  1.00  0.00     0.042 C 
ATOM     11  C   UNL     1     146.182 139.484 139.646  1.00  0.00     0.042 C 
ENDROOT
TORSDOF 0
ENDMDL
MODEL 2
REMARK VINA RESULT:    -3.459      7.421      9.450
REMARK INTER + INTRA:          -3.459
REMARK INTER:                  -3.459
REMARK INTRA:                   0.000
REMARK UNBOUND:                 0.000
REMARK SMILES CC1(C)O[C@]2(C)CC[C@H]1CC2
REMARK SMILES IDX 1 1 2 2 9 3 10 4 11 5 5 6 4 7 7 8 8 9 6 10 3 11
REMARK H PARENT
REMARK Flexibility Score: inf
ROOT
ATOM      1  C   UNL     1     142.050 142.307 143.098  1.00  0.00     0.042 C 
ATOM      2  C   UNL     1     141.277 141.818 141.854  1.00  0.00     0.066 C 
ATOM      3  C   UNL     1     139.853 142.492 141.782  1.00  0.00     0.021 C 
ATOM      4  C   UNL     1     139.105 141.928 140.550  1.00  0.00     0.009 C 
ATOM      5  C   UNL     1     139.145 140.381 140.596  1.00  0.00     0.035 C 
ATOM      6  C   UNL     1     139.839 139.910 141.906  1.00  0.00     0.066 C 
ATOM      7  O   UNL     1     141.186 140.387 141.921  1.00  0.00    -0.369 OA
ATOM      8  C   UNL     1     139.074 140.504 143.125  1.00  0.00     0.035 C 
ATOM      9  C   UNL     1     139.037 142.048 143.020  1.00  0.00     0.009 C 
ATOM     10  C   UNL     1     139.855 138.380 141.981  1.00  0.00     0.042 C 
ATOM     11  C   UNL     1     142.120 142.188 140.614  1.00  0.00     0.042 C 
ENDROOT
TORSDOF 0
ENDMDL
MODEL 3
REMARK VINA RESULT:    -3.450      6.766      8.123
REMARK INTER + INTRA:          -3.450
REMARK INTER:                  -3.450
REMARK INTRA:                   0.000
REMARK UNBOUND:                 0.000
REMARK SMILES CC1(C)O[C@]2(C)CC[C@H]1CC2
REMARK SMILES IDX 1 1 2 2 9 3 10 4 11 5 5 6 4 7 7 8 8 9 6 10 3 11
REMARK H PARENT
REMARK Flexibility Score: inf
ROOT
ATOM      1  C   UNL     1     139.532 139.322 143.077  1.00  0.00     0.042 C 
ATOM      2  C   UNL     1     140.324 139.796 141.839  1.00  0.00     0.066 C 
ATOM      3  C   UNL     1     141.752 139.126 141.800  1.00  0.00     0.021 C 
ATOM      4  C   UNL     1     142.517 139.675 140.572  1.00  0.00     0.009 C 
ATOM      5  C   UNL     1     142.470 141.222 140.594  1.00  0.00     0.035 C 
ATOM      6  C   UNL     1     141.753 141.710 141.885  1.00  0.00     0.066 C 
ATOM      7  O   UNL     1     140.408 141.228 141.886  1.00  0.00    -0.369 OA
ATOM      8  C   UNL     1     142.501 141.138 143.125  1.00  0.00     0.035 C 
ATOM      9  C   UNL     1     142.545 139.593 143.044  1.00  0.00     0.009 C 
ATOM     10  C   UNL     1     141.730 143.240 141.935  1.00  0.00     0.042 C 
ATOM     11  C   UNL     1     139.503 139.403 140.591  1.00  0.00     0.042 C 
ENDROOT
TORSDOF 0
ENDMDL
MODEL 4
REMARK VINA RESULT:    -3.430     13.792     16.184
REMARK INTER + INTRA:          -3.430
REMARK INTER:                  -3.430
REMARK INTRA:                   0.000
REMARK UNBOUND:                 0.000
REMARK SMILES CC1(C)O[C@]2(C)CC[C@H]1CC2
REMARK SMILES IDX 1 1 2 2 9 3 10 4 11 5 5 6 4 7 7 8 8 9 6 10 3 11
REMARK H PARENT
REMARK Flexibility Score: inf
ROOT
ATOM      1  C   UNL     1     134.253 143.718 138.211  1.00  0.00     0.042 C 
ATOM      2  C   UNL     1     134.082 142.503 139.148  1.00  0.00     0.066 C 
ATOM      3  C   UNL     1     133.418 141.296 138.380  1.00  0.00     0.021 C 
ATOM      4  C   UNL     1     133.223 140.128 139.376  1.00  0.00     0.009 C 
ATOM      5  C   UNL     1     132.483 140.650 140.632  1.00  0.00     0.035 C 
ATOM      6  C   UNL     1     132.101 142.145 140.436  1.00  0.00     0.066 C 
ATOM      7  O   UNL     1     133.292 142.916 140.274  1.00  0.00    -0.369 OA
ATOM      8  C   UNL     1     131.227 142.279 139.154  1.00  0.00     0.035 C 
ATOM      9  C   UNL     1     131.998 141.720 137.934  1.00  0.00     0.009 C 
ATOM     10  C   UNL     1     131.338 142.665 141.658  1.00  0.00     0.042 C 
ATOM     11  C   UNL     1     135.486 142.118 139.662  1.00  0.00     0.042 C 
ENDROOT
TORSDOF 0
ENDMDL
MODEL 5
REMARK VINA RESULT:    -3.406      7.256      8.764
REMARK INTER + INTRA:          -3.406
REMARK INTER:                  -3.406
REMARK INTRA:                   0.000
REMARK UNBOUND:                 0.000
REMARK SMILES CC1(C)O[C@]2(C)CC[C@H]1CC2
REMARK SMILES IDX 1 1 2 2 9 3 10 4 11 5 5 6 4 7 7 8 8 9 6 10 3 11
REMARK H PARENT
REMARK Flexibility Score: inf
ROOT
ATOM      1  C   UNL     1     141.988 139.392 143.005  1.00  0.00     0.042 C 
ATOM      2  C   UNL     1     141.545 140.231 141.787  1.00  0.00     0.066 C 
ATOM      3  C   UNL     1     142.328 141.600 141.737  1.00  0.00     0.021 C 
ATOM      4  C   UNL     1     141.809 142.418 140.531  1.00  0.00     0.009 C 
ATOM      5  C   UNL     1     140.264 142.497 140.597  1.00  0.00     0.035 C 
ATOM      6  C   UNL     1     139.756 141.810 141.897  1.00  0.00     0.066 C 
ATOM      7  O   UNL     1     140.127 140.431 141.875  1.00  0.00    -0.369 OA
ATOM      8  C   UNL     1     140.422 142.498 143.125  1.00  0.00     0.035 C 
ATOM      9  C   UNL     1     141.962 142.418 142.999  1.00  0.00     0.009 C 
ATOM     10  C   UNL     1     138.231 141.911 141.992  1.00  0.00     0.042 C 
ATOM     11  C   UNL     1     141.834 139.391 140.523  1.00  0.00     0.042 C 
ENDROOT
TORSDOF 0
ENDMDL
MODEL 6
REMARK VINA RESULT:    -3.396      7.764      9.486
REMARK INTER + INTRA:          -3.396
REMARK INTER:                  -3.396
REMARK INTRA:                   0.000
REMARK UNBOUND:                 0.000
REMARK SMILES CC1(C)O[C@]2(C)CC[C@H]1CC2
REMARK SMILES IDX 1 1 2 2 9 3 10 4 11 5 5 6 4 7 7 8 8 9 6 10 3 11
REMARK H PARENT
REMARK Flexibility Score: inf
ROOT
ATOM      1  C   UNL     1     139.528 139.058 140.596  1.00  0.00     0.042 C 
ATOM      2  C   UNL     1     139.611 140.028 141.794  1.00  0.00     0.066 C 
ATOM      3  C   UNL     1     138.422 141.064 141.756  1.00  0.00     0.021 C 
ATOM      4  C   UNL     1     138.584 142.039 142.947  1.00  0.00     0.009 C 
ATOM      5  C   UNL     1     140.019 142.621 142.936  1.00  0.00     0.035 C 
ATOM      6  C   UNL     1     140.787 142.105 141.686  1.00  0.00     0.066 C 
ATOM      7  O   UNL     1     140.888 140.681 141.751  1.00  0.00    -0.369 OA
ATOM      8  C   UNL     1     139.995 142.502 140.406  1.00  0.00     0.035 C 
ATOM      9  C   UNL     1     138.561 141.922 140.476  1.00  0.00     0.009 C 
ATOM     10  C   UNL     1     142.198 142.699 141.645  1.00  0.00     0.042 C 
ATOM     11  C   UNL     1     139.550 139.175 143.080  1.00  0.00     0.042 C 
ENDROOT
TORSDOF 0
ENDMDL
MODEL 7
REMARK VINA RESULT:    -3.381      7.046      9.186
REMARK INTER + INTRA:          -3.381
REMARK INTER:                  -3.381
REMARK INTRA:                   0.000
REMARK UNBOUND:                 0.000
REMARK SMILES CC1(C)O[C@]2(C)CC[C@H]1CC2
REMARK SMILES IDX 1 1 2 2 9 3 10 4 11 5 5 6 4 7 7 8 8 9 6 10 3 11
REMARK H PARENT
REMARK Flexibility Score: inf
ROOT
ATOM      1  C   UNL     1     142.469 141.409 140.615  1.00  0.00     0.042 C 
ATOM      2  C   UNL     1     141.645 141.008 141.858  1.00  0.00     0.066 C 
ATOM      3  C   UNL     1     141.411 139.448 141.892  1.00  0.00     0.021 C 
ATOM      4  C   UNL     1     140.539 139.110 143.125  1.00  0.00     0.009 C 
ATOM      5  C   UNL     1     139.277 140.007 143.116  1.00  0.00     0.035 C 
ATOM      6  C   UNL     1     139.259 140.879 141.829  1.00  0.00     0.066 C 
ATOM      7  O   UNL     1     140.406 141.732 141.823  1.00  0.00    -0.369 OA
ATOM      8  C   UNL     1     139.311 139.945 140.584  1.00  0.00     0.035 C 
ATOM      9  C   UNL     1     140.573 139.052 140.653  1.00  0.00     0.009 C 
ATOM     10  C   UNL     1     137.998 141.748 141.791  1.00  0.00     0.042 C 
ATOM     11  C   UNL     1     142.436 141.469 143.101  1.00  0.00     0.042 C 
ENDROOT
TORSDOF 0
ENDMDL
MODEL 8
REMARK VINA RESULT:    -3.369      6.598      8.280
REMARK INTER + INTRA:          -3.369
REMARK INTER:                  -3.369
REMARK INTRA:                   0.000
REMARK UNBOUND:                 0.000
REMARK SMILES CC1(C)O[C@]2(C)CC[C@H]1CC2
REMARK SMILES IDX 1 1 2 2 9 3 10 4 11 5 5 6 4 7 7 8 8 9 6 10 3 11
REMARK H PARENT
REMARK Flexibility Score: inf
ROOT
ATOM      1  C   UNL     1     138.873 142.120 140.716  1.00  0.00     0.042 C 
ATOM      2  C   UNL     1     139.917 141.705 141.775  1.00  0.00     0.066 C 
ATOM      3  C   UNL     1     140.888 142.905 142.101  1.00  0.00     0.021 C 
ATOM      4  C   UNL     1     141.941 142.419 143.125  1.00  0.00     0.009 C 
ATOM      5  C   UNL     1     142.593 141.114 142.604  1.00  0.00     0.035 C 
ATOM      6  C   UNL     1     142.040 140.778 141.190  1.00  0.00     0.066 C 
ATOM      7  O   UNL     1     140.630 140.564 141.274  1.00  0.00    -0.369 OA
ATOM      8  C   UNL     1     142.318 141.980 140.240  1.00  0.00     0.035 C 
ATOM      9  C   UNL     1     141.673 143.263 140.816  1.00  0.00     0.009 C 
ATOM     10  C   UNL     1     142.701 139.507 140.648  1.00  0.00     0.042 C 
ATOM     11  C   UNL     1     139.143 141.271 143.038  1.00  0.00     0.042 C 
ENDROOT
TORSDOF 0
ENDMDL
MODEL 9
REMARK VINA RESULT:    -3.356      6.787      8.304
REMARK INTER + INTRA:          -3.356
REMARK INTER:                  -3.356
REMARK INTRA:                   0.000
REMARK UNBOUND:                 0.000
REMARK SMILES CC1(C)O[C@]2(C)CC[C@H]1CC2
REMARK SMILES IDX 1 1 2 2 9 3 10 4 11 5 5 6 4 7 7 8 8 9 6 10 3 11
REMARK H PARENT
REMARK Flexibility Score: inf
ROOT
ATOM      1  C   UNL     1     140.252 142.490 140.634  1.00  0.00     0.042 C 
ATOM      2  C   UNL     1     140.664 141.658 141.867  1.00  0.00     0.066 C 
ATOM      3  C   UNL     1     142.227 141.448 141.901  1.00  0.00     0.021 C 
ATOM      4  C   UNL     1     142.577 140.568 143.125  1.00  0.00     0.009 C 
ATOM      5  C   UNL     1     141.700 139.292 143.100  1.00  0.00     0.035 C 
ATOM      6  C   UNL     1     140.830 139.275 141.812  1.00  0.00     0.066 C 
ATOM      7  O   UNL     1     139.959 140.408 141.818  1.00  0.00    -0.369 OA
ATOM      8  C   UNL     1     141.764 139.356 140.569  1.00  0.00     0.035 C 
ATOM      9  C   UNL     1     142.638 140.631 140.653  1.00  0.00     0.009 C 
ATOM     10  C   UNL     1     139.981 138.001 141.758  1.00  0.00     0.042 C 
ATOM     11  C   UNL     1     140.190 142.428 143.119  1.00  0.00     0.042 C 
ENDROOT
TORSDOF 0
ENDMDL
