MODEL 1
REMARK VINA RESULT:    -6.233      0.000      0.000
REMARK INTER + INTRA:          -7.745
REMARK INTER:                  -7.508
REMARK INTRA:                  -0.237
REMARK UNBOUND:                -0.237
REMARK SMILES O=c1c(O)c(-c2ccc(O)c(O)c2)oc2cc(O)cc(O)c12
REMARK SMILES IDX 5 1 3 2 2 3 1 4 22 5 20 6 19 7 17 8 16 9 15 10 14 11 6 12
REMARK SMILES IDX 7 13 8 14 9 15 13 16 11 17 10 18 12 20 4 22 21 24 18 26
REMARK H PARENT 10 19 12 21 4 23 21 25 18 27
REMARK Flexibility Score: inf
ROOT
ATOM      1  C   UNL     1       6.880  -9.077 -10.276  1.00  0.00     0.180 A 
ATOM      2  C   UNL     1       6.328  -9.741  -9.166  1.00  0.00     0.208 A 
ATOM      3  C   UNL     1       6.800  -9.427  -7.882  1.00  0.00     0.238 A 
ATOM      4  O   UNL     1       6.263  -9.984  -6.888  1.00  0.00    -0.285 OA
ATOM      5  C   UNL     1       7.828  -8.468  -7.724  1.00  0.00     0.111 A 
ATOM      6  C   UNL     1       8.411  -8.102  -6.472  1.00  0.00     0.134 A 
ATOM      7  C   UNL     1       9.330  -7.048  -6.420  1.00  0.00     0.093 A 
ATOM      8  C   UNL     1       9.737  -6.389  -7.583  1.00  0.00     0.123 A 
ATOM      9  C   UNL     1       9.218  -6.778  -8.816  1.00  0.00     0.094 A 
ATOM     10  C   UNL     1       8.273  -7.803  -8.896  1.00  0.00     0.146 A 
ATOM     11  O   UNL     1       7.797  -8.135 -10.090  1.00  0.00    -0.452 OA
ENDROOT
BRANCH   1  12
ATOM     12  C   UNL     1       6.453  -9.371 -11.663  1.00  0.00     0.025 A 
ATOM     13  C   UNL     1       5.777  -8.387 -12.401  1.00  0.00     0.016 A 
ATOM     14  C   UNL     1       5.383  -8.636 -13.718  1.00  0.00     0.051 A 
ATOM     15  C   UNL     1       5.670  -9.864 -14.322  1.00  0.00     0.157 A 
ATOM     16  C   UNL     1       6.759 -10.598 -12.279  1.00  0.00     0.062 A 
ATOM     17  C   UNL     1       6.366 -10.848 -13.602  1.00  0.00     0.158 A 
BRANCH  15  18
ATOM     18  O   UNL     1       5.261 -10.084 -15.638  1.00  0.00    -0.504 OA
ATOM     19  H   UNL     1       5.924 -10.179 -16.397  1.00  0.00     0.293 HD
ENDBRANCH  15  18
BRANCH  17  20
ATOM     20  O   UNL     1       6.668 -12.071 -14.203  1.00  0.00    -0.504 OA
ATOM     21  H   UNL     1       6.687 -12.176 -15.210  1.00  0.00     0.293 HD
ENDBRANCH  17  20
ENDBRANCH   1  12
BRANCH   2  22
ATOM     22  O   UNL     1       5.298 -10.669  -9.344  1.00  0.00    -0.502 OA
ATOM     23  H   UNL     1       4.958 -11.254  -8.590  1.00  0.00     0.293 HD
ENDBRANCH   2  22
BRANCH   6  24
ATOM     24  O   UNL     1       8.142  -8.757  -5.266  1.00  0.00    -0.507 OA
ATOM     25  H   UNL     1       8.581  -8.540  -4.384  1.00  0.00     0.293 HD
ENDBRANCH   6  24
BRANCH   8  26
ATOM     26  O   UNL     1      10.664  -5.350  -7.524  1.00  0.00    -0.508 OA
ATOM     27  H   UNL     1      10.371  -4.382  -7.469  1.00  0.00     0.293 HD
ENDBRANCH   8  26
TORSDOF 6
ENDMDL
MODEL 2
REMARK VINA RESULT:    -6.008      0.774      1.531
REMARK INTER + INTRA:          -7.474
REMARK INTER:                  -7.223
REMARK INTRA:                  -0.251
REMARK UNBOUND:                -0.237
REMARK SMILES O=c1c(O)c(-c2ccc(O)c(O)c2)oc2cc(O)cc(O)c12
REMARK SMILES IDX 5 1 3 2 2 3 1 4 22 5 20 6 19 7 17 8 16 9 15 10 14 11 6 12
REMARK SMILES IDX 7 13 8 14 9 15 13 16 11 17 10 18 12 20 4 22 21 24 18 26
REMARK H PARENT 10 19 12 21 4 23 21 25 18 27
REMARK Flexibility Score: inf
ROOT
ATOM      1  C   UNL     1       6.762  -9.176 -10.617  1.00  0.00     0.180 A 
ATOM      2  C   UNL     1       6.174  -9.891  -9.559  1.00  0.00     0.208 A 
ATOM      3  C   UNL     1       6.629  -9.666  -8.250  1.00  0.00     0.238 A 
ATOM      4  O   UNL     1       6.062 -10.268  -7.301  1.00  0.00    -0.285 OA
ATOM      5  C   UNL     1       7.676  -8.742  -8.017  1.00  0.00     0.111 A 
ATOM      6  C   UNL     1       8.243  -8.464  -6.736  1.00  0.00     0.134 A 
ATOM      7  C   UNL     1       9.184  -7.436  -6.606  1.00  0.00     0.093 A 
ATOM      8  C   UNL     1       9.627  -6.720  -7.721  1.00  0.00     0.123 A 
ATOM      9  C   UNL     1       9.123  -7.023  -8.983  1.00  0.00     0.094 A 
ATOM     10  C   UNL     1       8.157  -8.019  -9.140  1.00  0.00     0.146 A 
ATOM     11  O   UNL     1       7.696  -8.268 -10.359  1.00  0.00    -0.452 OA
ENDROOT
BRANCH   1  12
ATOM     12  C   UNL     1       6.353  -9.377 -12.026  1.00  0.00     0.025 A 
ATOM     13  C   UNL     1       6.724 -10.557 -12.691  1.00  0.00     0.016 A 
ATOM     14  C   UNL     1       6.332 -10.776 -14.014  1.00  0.00     0.051 A 
ATOM     15  C   UNL     1       5.553  -9.831 -14.687  1.00  0.00     0.157 A 
ATOM     16  C   UNL     1       5.552  -8.436 -12.698  1.00  0.00     0.062 A 
ATOM     17  C   UNL     1       5.156  -8.657 -14.026  1.00  0.00     0.158 A 
BRANCH  15  18
ATOM     18  O   UNL     1       5.179 -10.077 -16.008  1.00  0.00    -0.504 OA
ATOM     19  H   UNL     1       5.797 -10.543 -16.663  1.00  0.00     0.293 HD
ENDBRANCH  15  18
BRANCH  17  20
ATOM     20  O   UNL     1       4.367  -7.716 -14.687  1.00  0.00    -0.504 OA
ATOM     21  H   UNL     1       3.687  -7.990 -15.386  1.00  0.00     0.293 HD
ENDBRANCH  17  20
ENDBRANCH   1  12
BRANCH   2  22
ATOM     22  O   UNL     1       5.127 -10.783  -9.809  1.00  0.00    -0.502 OA
ATOM     23  H   UNL     1       4.627 -11.256  -9.065  1.00  0.00     0.293 HD
ENDBRANCH   2  22
BRANCH   6  24
ATOM     24  O   UNL     1       7.938  -9.183  -5.576  1.00  0.00    -0.507 OA
ATOM     25  H   UNL     1       8.598  -9.737  -5.053  1.00  0.00     0.293 HD
ENDBRANCH   6  24
BRANCH   8  26
ATOM     26  O   UNL     1      10.576  -5.708  -7.584  1.00  0.00    -0.508 OA
ATOM     27  H   UNL     1      11.147  -5.627  -6.751  1.00  0.00     0.293 HD
ENDBRANCH   8  26
TORSDOF 6
ENDMDL
MODEL 3
REMARK VINA RESULT:    -5.943      4.029      6.741
REMARK INTER + INTRA:          -7.396
REMARK INTER:                  -7.068
REMARK INTRA:                  -0.328
REMARK UNBOUND:                -0.237
REMARK SMILES O=c1c(O)c(-c2ccc(O)c(O)c2)oc2cc(O)cc(O)c12
REMARK SMILES IDX 5 1 3 2 2 3 1 4 22 5 20 6 19 7 17 8 16 9 15 10 14 11 6 12
REMARK SMILES IDX 7 13 8 14 9 15 13 16 11 17 10 18 12 20 4 22 21 24 18 26
REMARK H PARENT 10 19 12 21 4 23 21 25 18 27
REMARK Flexibility Score: inf
ROOT
ATOM      1  C   UNL     1       6.644  -9.454  -7.002  1.00  0.00     0.180 A 
ATOM      2  C   UNL     1       5.329  -9.204  -7.431  1.00  0.00     0.208 A 
ATOM      3  C   UNL     1       4.376 -10.230  -7.332  1.00  0.00     0.238 A 
ATOM      4  O   UNL     1       3.187  -9.984  -7.666  1.00  0.00    -0.285 OA
ATOM      5  C   UNL     1       4.752 -11.495  -6.822  1.00  0.00     0.111 A 
ATOM      6  C   UNL     1       3.877 -12.619  -6.714  1.00  0.00     0.134 A 
ATOM      7  C   UNL     1       4.322 -13.781  -6.073  1.00  0.00     0.093 A 
ATOM      8  C   UNL     1       5.631 -13.883  -5.594  1.00  0.00     0.123 A 
ATOM      9  C   UNL     1       6.509 -12.814  -5.747  1.00  0.00     0.094 A 
ATOM     10  C   UNL     1       6.084 -11.628  -6.350  1.00  0.00     0.146 A 
ATOM     11  O   UNL     1       6.951 -10.630  -6.467  1.00  0.00    -0.452 OA
ENDROOT
BRANCH   1  12
ATOM     12  C   UNL     1       7.712  -8.431  -7.099  1.00  0.00     0.025 A 
ATOM     13  C   UNL     1       7.934  -7.561  -6.020  1.00  0.00     0.016 A 
ATOM     14  C   UNL     1       8.949  -6.602  -6.082  1.00  0.00     0.051 A 
ATOM     15  C   UNL     1       9.766  -6.509  -7.213  1.00  0.00     0.157 A 
ATOM     16  C   UNL     1       8.547  -8.349  -8.227  1.00  0.00     0.062 A 
ATOM     17  C   UNL     1       9.568  -7.389  -8.289  1.00  0.00     0.158 A 
BRANCH  15  18
ATOM     18  O   UNL     1      10.769  -5.540  -7.246  1.00  0.00    -0.504 OA
ATOM     19  H   UNL     1      10.872  -4.901  -8.025  1.00  0.00     0.293 HD
ENDBRANCH  15  18
BRANCH  17  20
ATOM     20  O   UNL     1      10.388  -7.310  -9.415  1.00  0.00    -0.504 OA
ATOM     21  H   UNL     1      11.077  -8.023  -9.621  1.00  0.00     0.293 HD
ENDBRANCH  17  20
ENDBRANCH   1  12
BRANCH   2  22
ATOM     22  O   UNL     1       4.974  -7.940  -7.912  1.00  0.00    -0.502 OA
ATOM     23  H   UNL     1       4.424  -7.287  -7.367  1.00  0.00     0.293 HD
ENDBRANCH   2  22
BRANCH   6  24
ATOM     24  O   UNL     1       2.582 -12.652  -7.240  1.00  0.00    -0.507 OA
ATOM     25  H   UNL     1       2.078 -13.494  -7.474  1.00  0.00     0.293 HD
ENDBRANCH   6  24
BRANCH   8  26
ATOM     26  O   UNL     1       6.070 -15.050  -4.971  1.00  0.00    -0.508 OA
ATOM     27  H   UNL     1       5.432 -15.651  -4.462  1.00  0.00     0.293 HD
ENDBRANCH   8  26
TORSDOF 6
ENDMDL
MODEL 4
REMARK VINA RESULT:    -5.934      1.477      3.263
REMARK INTER + INTRA:          -7.386
REMARK INTER:                  -7.133
REMARK INTRA:                  -0.253
REMARK UNBOUND:                -0.237
REMARK SMILES O=c1c(O)c(-c2ccc(O)c(O)c2)oc2cc(O)cc(O)c12
REMARK SMILES IDX 5 1 3 2 2 3 1 4 22 5 20 6 19 7 17 8 16 9 15 10 14 11 6 12
REMARK SMILES IDX 7 13 8 14 9 15 13 16 11 17 10 18 12 20 4 22 21 24 18 26
REMARK H PARENT 10 19 12 21 4 23 21 25 18 27
REMARK Flexibility Score: inf
ROOT
ATOM      1  C   UNL     1       7.117  -9.260 -10.939  1.00  0.00     0.180 A 
ATOM      2  C   UNL     1       8.046  -8.212 -10.821  1.00  0.00     0.208 A 
ATOM      3  C   UNL     1       8.515  -7.859  -9.546  1.00  0.00     0.238 A 
ATOM      4  O   UNL     1       9.389  -6.957  -9.452  1.00  0.00    -0.285 OA
ATOM      5  C   UNL     1       8.039  -8.546  -8.405  1.00  0.00     0.111 A 
ATOM      6  C   UNL     1       8.416  -8.245  -7.061  1.00  0.00     0.134 A 
ATOM      7  C   UNL     1       7.983  -9.075  -6.020  1.00  0.00     0.093 A 
ATOM      8  C   UNL     1       7.133 -10.156  -6.266  1.00  0.00     0.123 A 
ATOM      9  C   UNL     1       6.712 -10.422  -7.567  1.00  0.00     0.094 A 
ATOM     10  C   UNL     1       7.156  -9.634  -8.631  1.00  0.00     0.146 A 
ATOM     11  O   UNL     1       6.739  -9.929  -9.856  1.00  0.00    -0.452 OA
ENDROOT
BRANCH   1  12
ATOM     12  C   UNL     1       6.556  -9.673 -12.246  1.00  0.00     0.025 A 
ATOM     13  C   UNL     1       6.904 -10.923 -12.783  1.00  0.00     0.016 A 
ATOM     14  C   UNL     1       6.370 -11.341 -14.005  1.00  0.00     0.051 A 
ATOM     15  C   UNL     1       5.472 -10.526 -14.700  1.00  0.00     0.157 A 
ATOM     16  C   UNL     1       5.637  -8.863 -12.937  1.00  0.00     0.062 A 
ATOM     17  C   UNL     1       5.099  -9.283 -14.163  1.00  0.00     0.158 A 
BRANCH  15  18
ATOM     18  O   UNL     1       4.959 -10.970 -15.919  1.00  0.00    -0.504 OA
ATOM     19  H   UNL     1       4.950 -10.382 -16.744  1.00  0.00     0.293 HD
ENDBRANCH  15  18
BRANCH  17  20
ATOM     20  O   UNL     1       4.193  -8.472 -14.845  1.00  0.00    -0.504 OA
ATOM     21  H   UNL     1       4.190  -8.413 -15.856  1.00  0.00     0.293 HD
ENDBRANCH  17  20
ENDBRANCH   1  12
BRANCH   2  22
ATOM     22  O   UNL     1       8.520  -7.561 -11.964  1.00  0.00    -0.502 OA
ATOM     23  H   UNL     1       8.403  -6.565 -12.110  1.00  0.00     0.293 HD
ENDBRANCH   2  22
BRANCH   6  24
ATOM     24  O   UNL     1       9.186  -7.136  -6.696  1.00  0.00    -0.507 OA
ATOM     25  H   UNL     1      10.111  -6.938  -7.047  1.00  0.00     0.293 HD
ENDBRANCH   6  24
BRANCH   8  26
ATOM     26  O   UNL     1       6.695 -10.968  -5.222  1.00  0.00    -0.508 OA
ATOM     27  H   UNL     1       5.875 -10.731  -4.676  1.00  0.00     0.293 HD
ENDBRANCH   8  26
TORSDOF 6
ENDMDL
MODEL 5
REMARK VINA RESULT:    -5.928      1.461      7.063
REMARK INTER + INTRA:          -7.378
REMARK INTER:                  -7.046
REMARK INTRA:                  -0.333
REMARK UNBOUND:                -0.237
REMARK SMILES O=c1c(O)c(-c2ccc(O)c(O)c2)oc2cc(O)cc(O)c12
REMARK SMILES IDX 5 1 3 2 2 3 1 4 22 5 20 6 19 7 17 8 16 9 15 10 14 11 6 12
REMARK SMILES IDX 7 13 8 14 9 15 13 16 11 17 10 18 12 20 4 22 21 24 18 26
REMARK H PARENT 10 19 12 21 4 23 21 25 18 27
REMARK Flexibility Score: inf
ROOT
ATOM      1  C   UNL     1       6.991  -8.316  -9.925  1.00  0.00     0.180 A 
ATOM      2  C   UNL     1       5.967  -7.528 -10.481  1.00  0.00     0.208 A 
ATOM      3  C   UNL     1       5.442  -7.881 -11.734  1.00  0.00     0.238 A 
ATOM      4  O   UNL     1       4.487  -7.205 -12.201  1.00  0.00    -0.285 OA
ATOM      5  C   UNL     1       5.956  -9.005 -12.423  1.00  0.00     0.111 A 
ATOM      6  C   UNL     1       5.525  -9.431 -13.716  1.00  0.00     0.134 A 
ATOM      7  C   UNL     1       6.012 -10.632 -14.245  1.00  0.00     0.093 A 
ATOM      8  C   UNL     1       6.962 -11.390 -13.556  1.00  0.00     0.123 A 
ATOM      9  C   UNL     1       7.432 -10.952 -12.320  1.00  0.00     0.094 A 
ATOM     10  C   UNL     1       6.940  -9.777 -11.750  1.00  0.00     0.146 A 
ATOM     11  O   UNL     1       7.407  -9.402 -10.566  1.00  0.00    -0.452 OA
ENDROOT
BRANCH   1  12
ATOM     12  C   UNL     1       7.613  -7.993  -8.621  1.00  0.00     0.025 A 
ATOM     13  C   UNL     1       7.149  -8.627  -7.458  1.00  0.00     0.016 A 
ATOM     14  C   UNL     1       7.735  -8.352  -6.220  1.00  0.00     0.051 A 
ATOM     15  C   UNL     1       8.802  -7.454  -6.126  1.00  0.00     0.157 A 
ATOM     16  C   UNL     1       8.699  -7.104  -8.528  1.00  0.00     0.062 A 
ATOM     17  C   UNL     1       9.291  -6.830  -7.285  1.00  0.00     0.158 A 
BRANCH  15  18
ATOM     18  O   UNL     1       9.365  -7.198  -4.876  1.00  0.00    -0.504 OA
ATOM     19  H   UNL     1      10.337  -7.397  -4.673  1.00  0.00     0.293 HD
ENDBRANCH  15  18
BRANCH  17  20
ATOM     20  O   UNL     1      10.364  -5.942  -7.201  1.00  0.00    -0.504 OA
ATOM     21  H   UNL     1      11.235  -6.115  -7.688  1.00  0.00     0.293 HD
ENDBRANCH  17  20
ENDBRANCH   1  12
BRANCH   2  22
ATOM     22  O   UNL     1       5.459  -6.435  -9.773  1.00  0.00    -0.502 OA
ATOM     23  H   UNL     1       4.465  -6.274  -9.662  1.00  0.00     0.293 HD
ENDBRANCH   2  22
BRANCH   6  24
ATOM     24  O   UNL     1       4.650  -8.701 -14.526  1.00  0.00    -0.507 OA
ATOM     25  H   UNL     1       4.648  -7.695 -14.610  1.00  0.00     0.293 HD
ENDBRANCH   6  24
BRANCH   8  26
ATOM     26  O   UNL     1       7.452 -12.577 -14.097  1.00  0.00    -0.508 OA
ATOM     27  H   UNL     1       7.752 -13.344 -13.507  1.00  0.00     0.293 HD
ENDBRANCH   8  26
TORSDOF 6
ENDMDL
MODEL 6
REMARK VINA RESULT:    -5.762     10.735     12.237
REMARK INTER + INTRA:          -7.178
REMARK INTER:                  -6.848
REMARK INTRA:                  -0.330
REMARK UNBOUND:                -0.237
REMARK SMILES O=c1c(O)c(-c2ccc(O)c(O)c2)oc2cc(O)cc(O)c12
REMARK SMILES IDX 5 1 3 2 2 3 1 4 22 5 20 6 19 7 17 8 16 9 15 10 14 11 6 12
REMARK SMILES IDX 7 13 8 14 9 15 13 16 11 17 10 18 12 20 4 22 21 24 18 26
REMARK H PARENT 10 19 12 21 4 23 21 25 18 27
REMARK Flexibility Score: inf
ROOT
ATOM      1  C   UNL     1       5.833 -20.497  -9.313  1.00  0.00     0.180 A 
ATOM      2  C   UNL     1       5.817 -19.157  -8.890  1.00  0.00     0.208 A 
ATOM      3  C   UNL     1       6.416 -18.823  -7.665  1.00  0.00     0.238 A 
ATOM      4  O   UNL     1       6.447 -17.613  -7.318  1.00  0.00    -0.285 OA
ATOM      5  C   UNL     1       7.010 -19.834  -6.872  1.00  0.00     0.111 A 
ATOM      6  C   UNL     1       7.610 -19.615  -5.595  1.00  0.00     0.134 A 
ATOM      7  C   UNL     1       8.282 -20.665  -4.959  1.00  0.00     0.093 A 
ATOM      8  C   UNL     1       8.319 -21.943  -5.523  1.00  0.00     0.123 A 
ATOM      9  C   UNL     1       7.685 -22.181  -6.740  1.00  0.00     0.094 A 
ATOM     10  C   UNL     1       7.037 -21.145  -7.416  1.00  0.00     0.146 A 
ATOM     11  O   UNL     1       6.455 -21.412  -8.578  1.00  0.00    -0.452 OA
ENDROOT
BRANCH   1  12
ATOM     12  C   UNL     1       5.199 -20.932 -10.580  1.00  0.00     0.025 A 
ATOM     13  C   UNL     1       5.964 -20.971 -11.756  1.00  0.00     0.016 A 
ATOM     14  C   UNL     1       5.391 -21.397 -12.958  1.00  0.00     0.051 A 
ATOM     15  C   UNL     1       4.054 -21.803 -12.999  1.00  0.00     0.157 A 
ATOM     16  C   UNL     1       3.860 -21.359 -10.619  1.00  0.00     0.062 A 
ATOM     17  C   UNL     1       3.285 -21.790 -11.824  1.00  0.00     0.158 A 
BRANCH  15  18
ATOM     18  O   UNL     1       3.511 -22.221 -14.214  1.00  0.00    -0.504 OA
ATOM     19  H   UNL     1       2.750 -21.723 -14.661  1.00  0.00     0.293 HD
ENDBRANCH  15  18
BRANCH  17  20
ATOM     20  O   UNL     1       1.954 -22.207 -11.856  1.00  0.00    -0.504 OA
ATOM     21  H   UNL     1       1.372 -22.060 -12.671  1.00  0.00     0.293 HD
ENDBRANCH  17  20
ENDBRANCH   1  12
BRANCH   2  22
ATOM     22  O   UNL     1       5.244 -18.171  -9.699  1.00  0.00    -0.502 OA
ATOM     23  H   UNL     1       5.802 -17.528 -10.249  1.00  0.00     0.293 HD
ENDBRANCH   2  22
BRANCH   6  24
ATOM     24  O   UNL     1       7.552 -18.401  -4.904  1.00  0.00    -0.507 OA
ATOM     25  H   UNL     1       8.099 -17.585  -5.128  1.00  0.00     0.293 HD
ENDBRANCH   6  24
BRANCH   8  26
ATOM     26  O   UNL     1       8.977 -22.987  -4.875  1.00  0.00    -0.508 OA
ATOM     27  H   UNL     1       9.981 -23.103  -4.942  1.00  0.00     0.293 HD
ENDBRANCH   8  26
TORSDOF 6
ENDMDL
MODEL 7
REMARK VINA RESULT:    -5.592      1.502      6.936
REMARK INTER + INTRA:          -6.973
REMARK INTER:                  -6.658
REMARK INTRA:                  -0.315
REMARK UNBOUND:                -0.237
REMARK SMILES O=c1c(O)c(-c2ccc(O)c(O)c2)oc2cc(O)cc(O)c12
REMARK SMILES IDX 5 1 3 2 2 3 1 4 22 5 20 6 19 7 17 8 16 9 15 10 14 11 6 12
REMARK SMILES IDX 7 13 8 14 9 15 13 16 11 17 10 18 12 20 4 22 21 24 18 26
REMARK H PARENT 10 19 12 21 4 23 21 25 18 27
REMARK Flexibility Score: inf
ROOT
ATOM      1  C   UNL     1       7.046  -9.140 -10.509  1.00  0.00     0.180 A 
ATOM      2  C   UNL     1       7.390 -10.370 -11.097  1.00  0.00     0.208 A 
ATOM      3  C   UNL     1       6.918 -10.662 -12.387  1.00  0.00     0.238 A 
ATOM      4  O   UNL     1       7.275 -11.741 -12.931  1.00  0.00    -0.285 OA
ATOM      5  C   UNL     1       6.097  -9.731 -13.065  1.00  0.00     0.111 A 
ATOM      6  C   UNL     1       5.531  -9.940 -14.359  1.00  0.00     0.134 A 
ATOM      7  C   UNL     1       4.842  -8.897 -14.988  1.00  0.00     0.093 A 
ATOM      8  C   UNL     1       4.642  -7.673 -14.344  1.00  0.00     0.123 A 
ATOM      9  C   UNL     1       5.140  -7.480 -13.057  1.00  0.00     0.094 A 
ATOM     10  C   UNL     1       5.863  -8.489 -12.418  1.00  0.00     0.146 A 
ATOM     11  O   UNL     1       6.329  -8.260 -11.197  1.00  0.00    -0.452 OA
ENDROOT
BRANCH   1  12
ATOM     12  C   UNL     1       7.483  -8.771  -9.143  1.00  0.00     0.025 A 
ATOM     13  C   UNL     1       6.747  -9.223  -8.037  1.00  0.00     0.016 A 
ATOM     14  C   UNL     1       7.154  -8.903  -6.738  1.00  0.00     0.051 A 
ATOM     15  C   UNL     1       8.307  -8.142  -6.525  1.00  0.00     0.157 A 
ATOM     16  C   UNL     1       8.654  -8.023  -8.927  1.00  0.00     0.062 A 
ATOM     17  C   UNL     1       9.065  -7.704  -7.624  1.00  0.00     0.158 A 
BRANCH  15  18
ATOM     18  O   UNL     1       8.686  -7.837  -5.218  1.00  0.00    -0.504 OA
ATOM     19  H   UNL     1       8.702  -8.537  -4.486  1.00  0.00     0.293 HD
ENDBRANCH  15  18
BRANCH  17  20
ATOM     20  O   UNL     1      10.224  -6.956  -7.418  1.00  0.00    -0.504 OA
ATOM     21  H   UNL     1      11.128  -7.398  -7.306  1.00  0.00     0.293 HD
ENDBRANCH  17  20
ENDBRANCH   1  12
BRANCH   2  22
ATOM     22  O   UNL     1       8.220 -11.267 -10.419  1.00  0.00    -0.502 OA
ATOM     23  H   UNL     1       7.892 -11.831  -9.644  1.00  0.00     0.293 HD
ENDBRANCH   2  22
BRANCH   6  24
ATOM     24  O   UNL     1       5.593 -11.154 -15.051  1.00  0.00    -0.507 OA
ATOM     25  H   UNL     1       5.331 -12.049 -14.667  1.00  0.00     0.293 HD
ENDBRANCH   6  24
BRANCH   8  26
ATOM     26  O   UNL     1       3.941  -6.645 -14.971  1.00  0.00    -0.508 OA
ATOM     27  H   UNL     1       3.040  -6.332 -14.629  1.00  0.00     0.293 HD
ENDBRANCH   8  26
TORSDOF 6
ENDMDL
MODEL 8
REMARK VINA RESULT:    -5.590      1.894      2.327
REMARK INTER + INTRA:          -6.971
REMARK INTER:                  -6.739
REMARK INTRA:                  -0.232
REMARK UNBOUND:                -0.237
REMARK SMILES O=c1c(O)c(-c2ccc(O)c(O)c2)oc2cc(O)cc(O)c12
REMARK SMILES IDX 5 1 3 2 2 3 1 4 22 5 20 6 19 7 17 8 16 9 15 10 14 11 6 12
REMARK SMILES IDX 7 13 8 14 9 15 13 16 11 17 10 18 12 20 4 22 21 24 18 26
REMARK H PARENT 10 19 12 21 4 23 21 25 18 27
REMARK Flexibility Score: inf
ROOT
ATOM      1  C   UNL     1       6.803  -7.908 -10.242  1.00  0.00     0.180 A 
ATOM      2  C   UNL     1       5.743  -7.524  -9.403  1.00  0.00     0.208 A 
ATOM      3  C   UNL     1       6.011  -6.687  -8.309  1.00  0.00     0.238 A 
ATOM      4  O   UNL     1       5.049  -6.301  -7.594  1.00  0.00    -0.285 OA
ATOM      5  C   UNL     1       7.336  -6.257  -8.058  1.00  0.00     0.111 A 
ATOM      6  C   UNL     1       7.728  -5.439  -6.956  1.00  0.00     0.134 A 
ATOM      7  C   UNL     1       9.044  -4.967  -6.880  1.00  0.00     0.093 A 
ATOM      8  C   UNL     1       9.998  -5.337  -7.831  1.00  0.00     0.123 A 
ATOM      9  C   UNL     1       9.639  -6.183  -8.878  1.00  0.00     0.094 A 
ATOM     10  C   UNL     1       8.325  -6.640  -9.001  1.00  0.00     0.146 A 
ATOM     11  O   UNL     1       8.024  -7.436 -10.020  1.00  0.00    -0.452 OA
ENDROOT
BRANCH   1  12
ATOM     12  C   UNL     1       6.604  -8.811 -11.401  1.00  0.00     0.025 A 
ATOM     13  C   UNL     1       7.036 -10.144 -11.320  1.00  0.00     0.016 A 
ATOM     14  C   UNL     1       6.840 -11.017 -12.393  1.00  0.00     0.051 A 
ATOM     15  C   UNL     1       6.197 -10.578 -13.554  1.00  0.00     0.157 A 
ATOM     16  C   UNL     1       5.940  -8.375 -12.562  1.00  0.00     0.062 A 
ATOM     17  C   UNL     1       5.741  -9.252 -13.638  1.00  0.00     0.158 A 
BRANCH  15  18
ATOM     18  O   UNL     1       6.019 -11.472 -14.609  1.00  0.00    -0.504 OA
ATOM     19  H   UNL     1       6.791 -11.990 -15.011  1.00  0.00     0.293 HD
ENDBRANCH  15  18
BRANCH  17  20
ATOM     20  O   UNL     1       5.087  -8.811 -14.789  1.00  0.00    -0.504 OA
ATOM     21  H   UNL     1       4.965  -9.414 -15.594  1.00  0.00     0.293 HD
ENDBRANCH  17  20
ENDBRANCH   1  12
BRANCH   2  22
ATOM     22  O   UNL     1       4.438  -7.943  -9.682  1.00  0.00    -0.502 OA
ATOM     23  H   UNL     1       3.758  -8.123  -8.953  1.00  0.00     0.293 HD
ENDBRANCH   2  22
BRANCH   6  24
ATOM     24  O   UNL     1       6.877  -5.087  -5.904  1.00  0.00    -0.507 OA
ATOM     25  H   UNL     1       7.126  -5.119  -4.927  1.00  0.00     0.293 HD
ENDBRANCH   6  24
BRANCH   8  26
ATOM     26  O   UNL     1      11.309  -4.875  -7.739  1.00  0.00    -0.508 OA
ATOM     27  H   UNL     1      11.524  -3.966  -7.348  1.00  0.00     0.293 HD
ENDBRANCH   8  26
TORSDOF 6
ENDMDL
MODEL 9
REMARK VINA RESULT:    -5.418      9.067     10.694
REMARK INTER + INTRA:          -6.763
REMARK INTER:                  -6.444
REMARK INTRA:                  -0.320
REMARK UNBOUND:                -0.237
REMARK SMILES O=c1c(O)c(-c2ccc(O)c(O)c2)oc2cc(O)cc(O)c12
REMARK SMILES IDX 5 1 3 2 2 3 1 4 22 5 20 6 19 7 17 8 16 9 15 10 14 11 6 12
REMARK SMILES IDX 7 13 8 14 9 15 13 16 11 17 10 18 12 20 4 22 21 24 18 26
REMARK H PARENT 10 19 12 21 4 23 21 25 18 27
REMARK Flexibility Score: inf
ROOT
ATOM      1  C   UNL     1       5.177 -19.207  -9.243  1.00  0.00     0.180 A 
ATOM      2  C   UNL     1       6.053 -19.359  -8.155  1.00  0.00     0.208 A 
ATOM      3  C   UNL     1       6.057 -18.386  -7.144  1.00  0.00     0.238 A 
ATOM      4  O   UNL     1       6.804 -18.556  -6.144  1.00  0.00    -0.285 OA
ATOM      5  C   UNL     1       5.197 -17.266  -7.240  1.00  0.00     0.111 A 
ATOM      6  C   UNL     1       5.146 -16.198  -6.293  1.00  0.00     0.134 A 
ATOM      7  C   UNL     1       4.166 -15.208  -6.421  1.00  0.00     0.093 A 
ATOM      8  C   UNL     1       3.277 -15.209  -7.499  1.00  0.00     0.123 A 
ATOM      9  C   UNL     1       3.357 -16.214  -8.460  1.00  0.00     0.094 A 
ATOM     10  C   UNL     1       4.301 -17.236  -8.340  1.00  0.00     0.146 A 
ATOM     11  O   UNL     1       4.336 -18.180  -9.273  1.00  0.00    -0.452 OA
ENDROOT
BRANCH   1  12
ATOM     12  C   UNL     1       5.133 -20.178 -10.361  1.00  0.00     0.025 A 
ATOM     13  C   UNL     1       6.036 -20.044 -11.427  1.00  0.00     0.016 A 
ATOM     14  C   UNL     1       6.026 -20.961 -12.482  1.00  0.00     0.051 A 
ATOM     15  C   UNL     1       5.126 -22.031 -12.481  1.00  0.00     0.157 A 
ATOM     16  C   UNL     1       4.242 -21.266 -10.352  1.00  0.00     0.062 A 
ATOM     17  C   UNL     1       4.232 -22.188 -11.409  1.00  0.00     0.158 A 
BRANCH  15  18
ATOM     18  O   UNL     1       5.138 -22.927 -13.550  1.00  0.00    -0.504 OA
ATOM     19  H   UNL     1       4.306 -23.428 -13.839  1.00  0.00     0.293 HD
ENDBRANCH  15  18
BRANCH  17  20
ATOM     20  O   UNL     1       3.341 -23.261 -11.395  1.00  0.00    -0.504 OA
ATOM     21  H   UNL     1       3.581 -24.156 -11.803  1.00  0.00     0.293 HD
ENDBRANCH  17  20
ENDBRANCH   1  12
BRANCH   2  22
ATOM     22  O   UNL     1       6.878 -20.485  -8.068  1.00  0.00    -0.502 OA
ATOM     23  H   UNL     1       7.870 -20.448  -8.273  1.00  0.00     0.293 HD
ENDBRANCH   2  22
BRANCH   6  24
ATOM     24  O   UNL     1       6.046 -16.053  -5.233  1.00  0.00    -0.507 OA
ATOM     25  H   UNL     1       6.119 -15.234  -4.648  1.00  0.00     0.293 HD
ENDBRANCH   6  24
BRANCH   8  26
ATOM     26  O   UNL     1       2.314 -14.210  -7.627  1.00  0.00    -0.508 OA
ATOM     27  H   UNL     1       1.904 -13.982  -8.526  1.00  0.00     0.293 HD
ENDBRANCH   8  26
TORSDOF 6
ENDMDL
