MODEL 1
REMARK VINA RESULT:    -5.199      0.000      0.000
REMARK INTER + INTRA:          -8.954
REMARK INTER:                  -8.239
REMARK INTRA:                  -0.715
REMARK UNBOUND:                -0.715
REMARK SMILES CCCCCCCCCCCC(=O)[O-]
REMARK SMILES IDX 7 1 8 2 9 3 10 4 11 5 12 6 13 7 14 8 6 9 5 10 4 11 3 12 2 13
REMARK SMILES IDX 1 14
REMARK H PARENT
REMARK Flexibility Score: inf
ROOT
ATOM      1  C   UNL     1      45.107  -6.999  26.893  1.00  0.00     0.000 C 
ENDROOT
BRANCH   1   2
ATOM      2  C   UNL     1      45.880  -7.915  25.931  1.00  0.00     0.000 C 
BRANCH   2   3
ATOM      3  C   UNL     1      45.902  -7.372  24.491  1.00  0.00     0.000 C 
BRANCH   3   4
ATOM      4  C   UNL     1      47.331  -7.159  23.957  1.00  0.00     0.006 C 
BRANCH   4   5
ATOM      5  C   UNL     1      48.443  -7.548  24.946  1.00  0.00     0.053 C 
BRANCH   5   6
ATOM      6  C   UNL     1      49.365  -6.405  25.234  1.00  0.00     0.041 C 
ATOM      7  O   UNL     1      50.601  -6.516  25.017  1.00  0.00    -0.550 OA
ATOM      8  O   UNL     1      48.864  -5.225  25.772  1.00  0.00    -0.550 OA
ENDBRANCH   5   6
ENDBRANCH   4   5
ENDBRANCH   3   4
ENDBRANCH   2   3
ENDBRANCH   1   2
BRANCH   1   9
ATOM      9  C   UNL     1      45.211  -5.512  26.510  1.00  0.00     0.000 C 
BRANCH   9  10
ATOM     10  C   UNL     1      45.491  -4.606  27.720  1.00  0.00    -0.000 C 
BRANCH  10  11
ATOM     11  C   UNL     1      44.210  -3.983  28.300  1.00  0.00    -0.000 C 
BRANCH  11  12
ATOM     12  C   UNL     1      44.401  -2.514  28.709  1.00  0.00    -0.000 C 
BRANCH  12  13
ATOM     13  C   UNL     1      45.568  -1.840  27.972  1.00  0.00    -0.003 C 
ATOM     14  C   UNL     1      45.636  -0.350  28.298  1.00  0.00     0.004 C 
ENDBRANCH  12  13
ENDBRANCH  11  12
ENDBRANCH  10  11
ENDBRANCH   9  10
ENDBRANCH   1   9
TORSDOF 10
ENDMDL
MODEL 2
REMARK VINA RESULT:    -5.113      3.504      5.360
REMARK INTER + INTRA:          -8.817
REMARK INTER:                  -7.501
REMARK INTRA:                  -1.316
REMARK UNBOUND:                -0.715
REMARK SMILES CCCCCCCCCCCC(=O)[O-]
REMARK SMILES IDX 7 1 8 2 9 3 10 4 11 5 12 6 13 7 14 8 6 9 5 10 4 11 3 12 2 13
REMARK SMILES IDX 1 14
REMARK H PARENT
REMARK Flexibility Score: inf
ROOT
ATOM      1  C   UNL     1      46.275  -7.768  23.443  1.00  0.00     0.000 C 
ENDROOT
BRANCH   1   2
ATOM      2  C   UNL     1      45.361  -7.116  24.493  1.00  0.00     0.000 C 
BRANCH   2   3
ATOM      3  C   UNL     1      45.592  -7.681  25.905  1.00  0.00     0.000 C 
BRANCH   3   4
ATOM      4  C   UNL     1      44.995  -6.787  27.009  1.00  0.00     0.006 C 
BRANCH   4   5
ATOM      5  C   UNL     1      44.129  -5.628  26.488  1.00  0.00     0.053 C 
BRANCH   5   6
ATOM      6  C   UNL     1      42.882  -5.449  27.297  1.00  0.00     0.041 C 
ATOM      7  O   UNL     1      41.870  -4.899  26.790  1.00  0.00    -0.550 OA
ATOM      8  O   UNL     1      42.850  -5.860  28.624  1.00  0.00    -0.550 OA
ENDBRANCH   5   6
ENDBRANCH   4   5
ENDBRANCH   3   4
ENDBRANCH   2   3
ENDBRANCH   1   2
BRANCH   1   9
ATOM      9  C   UNL     1      47.616  -7.028  23.281  1.00  0.00     0.000 C 
BRANCH   9  10
ATOM     10  C   UNL     1      48.750  -7.671  24.096  1.00  0.00    -0.000 C 
BRANCH  10  11
ATOM     11  C   UNL     1      49.215  -6.783  25.263  1.00  0.00    -0.000 C 
BRANCH  11  12
ATOM     12  C   UNL     1      48.747  -5.327  25.117  1.00  0.00    -0.000 C 
BRANCH  12  13
ATOM     13  C   UNL     1      48.069  -4.791  26.388  1.00  0.00    -0.003 C 
ATOM     14  C   UNL     1      46.976  -3.783  26.044  1.00  0.00     0.004 C 
ENDBRANCH  12  13
ENDBRANCH  11  12
ENDBRANCH  10  11
ENDBRANCH   9  10
ENDBRANCH   1   9
TORSDOF 10
ENDMDL
MODEL 3
REMARK VINA RESULT:    -5.040      2.440      5.424
REMARK INTER + INTRA:          -8.702
REMARK INTER:                  -7.552
REMARK INTRA:                  -1.150
REMARK UNBOUND:                -0.715
REMARK SMILES CCCCCCCCCCCC(=O)[O-]
REMARK SMILES IDX 7 1 8 2 9 3 10 4 11 5 12 6 13 7 14 8 6 9 5 10 4 11 3 12 2 13
REMARK SMILES IDX 1 14
REMARK H PARENT
REMARK Flexibility Score: inf
ROOT
ATOM      1  C   UNL     1      45.637  -8.064  23.894  1.00  0.00     0.000 C 
ENDROOT
BRANCH   1   2
ATOM      2  C   UNL     1      45.045  -7.095  24.930  1.00  0.00     0.000 C 
BRANCH   2   3
ATOM      3  C   UNL     1      45.396  -7.491  26.375  1.00  0.00     0.000 C 
BRANCH   3   4
ATOM      4  C   UNL     1      46.113  -6.365  27.144  1.00  0.00     0.006 C 
BRANCH   4   5
ATOM      5  C   UNL     1      46.305  -5.068  26.339  1.00  0.00     0.053 C 
BRANCH   5   6
ATOM      6  C   UNL     1      46.045  -3.849  27.168  1.00  0.00     0.041 C 
ATOM      7  O   UNL     1      45.122  -3.848  28.023  1.00  0.00    -0.550 OA
ATOM      8  O   UNL     1      46.803  -2.701  26.972  1.00  0.00    -0.550 OA
ENDBRANCH   5   6
ENDBRANCH   4   5
ENDBRANCH   3   4
ENDBRANCH   2   3
ENDBRANCH   1   2
BRANCH   1   9
ATOM      9  C   UNL     1      46.223  -7.339  22.669  1.00  0.00     0.000 C 
BRANCH   9  10
ATOM     10  C   UNL     1      47.677  -7.747  22.377  1.00  0.00    -0.000 C 
BRANCH  10  11
ATOM     11  C   UNL     1      48.691  -6.961  23.226  1.00  0.00    -0.000 C 
BRANCH  11  12
ATOM     12  C   UNL     1      49.166  -7.749  24.456  1.00  0.00    -0.000 C 
BRANCH  12  13
ATOM     13  C   UNL     1      49.462  -6.846  25.663  1.00  0.00    -0.003 C 
ATOM     14  C   UNL     1      50.373  -5.687  25.272  1.00  0.00     0.004 C 
ENDBRANCH  12  13
ENDBRANCH  11  12
ENDBRANCH  10  11
ENDBRANCH   9  10
ENDBRANCH   1   9
TORSDOF 10
ENDMDL
MODEL 4
REMARK VINA RESULT:    -4.938      1.902      5.117
REMARK INTER + INTRA:          -8.540
REMARK INTER:                  -7.697
REMARK INTRA:                  -0.843
REMARK UNBOUND:                -0.715
REMARK SMILES CCCCCCCCCCCC(=O)[O-]
REMARK SMILES IDX 7 1 8 2 9 3 10 4 11 5 12 6 13 7 14 8 6 9 5 10 4 11 3 12 2 13
REMARK SMILES IDX 1 14
REMARK H PARENT
REMARK Flexibility Score: inf
ROOT
ATOM      1  C   UNL     1      45.001  -6.578  26.610  1.00  0.00     0.000 C 
ENDROOT
BRANCH   1   2
ATOM      2  C   UNL     1      45.806  -5.623  27.506  1.00  0.00     0.000 C 
BRANCH   2   3
ATOM      3  C   UNL     1      45.907  -4.207  26.915  1.00  0.00     0.000 C 
BRANCH   3   4
ATOM      4  C   UNL     1      47.156  -4.018  26.032  1.00  0.00     0.006 C 
BRANCH   4   5
ATOM      5  C   UNL     1      48.349  -4.908  26.421  1.00  0.00     0.053 C 
BRANCH   5   6
ATOM      6  C   UNL     1      49.227  -5.216  25.248  1.00  0.00     0.041 C 
ATOM      7  O   UNL     1      50.419  -5.576  25.426  1.00  0.00    -0.550 OA
ATOM      8  O   UNL     1      48.736  -5.073  23.956  1.00  0.00    -0.550 OA
ENDBRANCH   5   6
ENDBRANCH   4   5
ENDBRANCH   3   4
ENDBRANCH   2   3
ENDBRANCH   1   2
BRANCH   1   9
ATOM      9  C   UNL     1      45.750  -7.891  26.317  1.00  0.00     0.000 C 
BRANCH   9  10
ATOM     10  C   UNL     1      46.642  -7.800  25.068  1.00  0.00    -0.000 C 
BRANCH  10  11
ATOM     11  C   UNL     1      45.842  -7.474  23.795  1.00  0.00    -0.000 C 
BRANCH  11  12
ATOM     12  C   UNL     1      46.684  -7.612  22.518  1.00  0.00    -0.000 C 
BRANCH  12  13
ATOM     13  C   UNL     1      48.174  -7.844  22.811  1.00  0.00    -0.003 C 
ATOM     14  C   UNL     1      48.980  -7.942  21.519  1.00  0.00     0.004 C 
ENDBRANCH  12  13
ENDBRANCH  11  12
ENDBRANCH  10  11
ENDBRANCH   9  10
ENDBRANCH   1   9
TORSDOF 10
ENDMDL
MODEL 5
REMARK VINA RESULT:    -4.888      3.449      6.835
REMARK INTER + INTRA:          -8.460
REMARK INTER:                  -7.893
REMARK INTRA:                  -0.567
REMARK UNBOUND:                -0.715
REMARK SMILES CCCCCCCCCCCC(=O)[O-]
REMARK SMILES IDX 7 1 8 2 9 3 10 4 11 5 12 6 13 7 14 8 6 9 5 10 4 11 3 12 2 13
REMARK SMILES IDX 1 14
REMARK H PARENT
REMARK Flexibility Score: inf
ROOT
ATOM      1  C   UNL     1      45.898  -7.562  26.414  1.00  0.00     0.000 C 
ENDROOT
BRANCH   1   2
ATOM      2  C   UNL     1      45.161  -6.488  27.231  1.00  0.00     0.000 C 
BRANCH   2   3
ATOM      3  C   UNL     1      44.045  -5.799  26.427  1.00  0.00     0.000 C 
BRANCH   3   4
ATOM      4  C   UNL     1      43.097  -4.970  27.314  1.00  0.00     0.006 C 
BRANCH   4   5
ATOM      5  C   UNL     1      43.724  -4.481  28.630  1.00  0.00     0.053 C 
BRANCH   5   6
ATOM      6  C   UNL     1      43.184  -3.149  29.049  1.00  0.00     0.041 C 
ATOM      7  O   UNL     1      41.956  -2.899  28.936  1.00  0.00    -0.550 OA
ATOM      8  O   UNL     1      44.044  -2.172  29.535  1.00  0.00    -0.550 OA
ENDBRANCH   5   6
ENDBRANCH   4   5
ENDBRANCH   3   4
ENDBRANCH   2   3
ENDBRANCH   1   2
BRANCH   1   9
ATOM      9  C   UNL     1      45.314  -7.738  25.001  1.00  0.00     0.000 C 
BRANCH   9  10
ATOM     10  C   UNL     1      46.341  -7.443  23.894  1.00  0.00    -0.000 C 
BRANCH  10  11
ATOM     11  C   UNL     1      47.784  -7.398  24.426  1.00  0.00    -0.000 C 
BRANCH  11  12
ATOM     12  C   UNL     1      48.819  -7.212  23.305  1.00  0.00    -0.000 C 
BRANCH  12  13
ATOM     13  C   UNL     1      48.295  -7.660  21.932  1.00  0.00    -0.003 C 
ATOM     14  C   UNL     1      49.434  -8.144  21.040  1.00  0.00     0.004 C 
ENDBRANCH  12  13
ENDBRANCH  11  12
ENDBRANCH  10  11
ENDBRANCH   9  10
ENDBRANCH   1   9
TORSDOF 10
ENDMDL
MODEL 6
REMARK VINA RESULT:    -4.857      2.300      5.831
REMARK INTER + INTRA:          -8.411
REMARK INTER:                  -7.773
REMARK INTRA:                  -0.638
REMARK UNBOUND:                -0.715
REMARK SMILES CCCCCCCCCCCC(=O)[O-]
REMARK SMILES IDX 7 1 8 2 9 3 10 4 11 5 12 6 13 7 14 8 6 9 5 10 4 11 3 12 2 13
REMARK SMILES IDX 1 14
REMARK H PARENT
REMARK Flexibility Score: inf
ROOT
ATOM      1  C   UNL     1      47.494  -4.369  25.916  1.00  0.00     0.000 C 
ENDROOT
BRANCH   1   2
ATOM      2  C   UNL     1      46.780  -3.316  26.779  1.00  0.00     0.000 C 
BRANCH   2   3
ATOM      3  C   UNL     1      45.585  -3.901  27.552  1.00  0.00     0.000 C 
BRANCH   3   4
ATOM      4  C   UNL     1      45.732  -5.410  27.823  1.00  0.00     0.006 C 
BRANCH   4   5
ATOM      5  C   UNL     1      44.681  -6.288  27.122  1.00  0.00     0.053 C 
BRANCH   5   6
ATOM      6  C   UNL     1      45.300  -7.224  26.131  1.00  0.00     0.041 C 
ATOM      7  O   UNL     1      46.192  -8.034  26.496  1.00  0.00    -0.550 OA
ATOM      8  O   UNL     1      44.915  -7.178  24.797  1.00  0.00    -0.550 OA
ENDBRANCH   5   6
ENDBRANCH   4   5
ENDBRANCH   3   4
ENDBRANCH   2   3
ENDBRANCH   1   2
BRANCH   1   9
ATOM      9  C   UNL     1      48.893  -4.726  26.450  1.00  0.00     0.000 C 
BRANCH   9  10
ATOM     10  C   UNL     1      49.575  -5.835  25.632  1.00  0.00    -0.000 C 
BRANCH  10  11
ATOM     11  C   UNL     1      48.913  -6.047  24.260  1.00  0.00    -0.000 C 
BRANCH  11  12
ATOM     12  C   UNL     1      48.825  -7.531  23.871  1.00  0.00    -0.000 C 
BRANCH  12  13
ATOM     13  C   UNL     1      48.465  -7.737  22.392  1.00  0.00    -0.003 C 
ATOM     14  C   UNL     1      46.954  -7.687  22.182  1.00  0.00     0.004 C 
ENDBRANCH  12  13
ENDBRANCH  11  12
ENDBRANCH  10  11
ENDBRANCH   9  10
ENDBRANCH   1   9
TORSDOF 10
ENDMDL
MODEL 7
REMARK VINA RESULT:    -4.846      5.049      7.864
REMARK INTER + INTRA:          -8.394
REMARK INTER:                  -8.038
REMARK INTRA:                  -0.355
REMARK UNBOUND:                -0.715
REMARK SMILES CCCCCCCCCCCC(=O)[O-]
REMARK SMILES IDX 7 1 8 2 9 3 10 4 11 5 12 6 13 7 14 8 6 9 5 10 4 11 3 12 2 13
REMARK SMILES IDX 1 14
REMARK H PARENT
REMARK Flexibility Score: inf
ROOT
ATOM      1  C   UNL     1      44.114  -5.775  26.450  1.00  0.00     0.000 C 
ENDROOT
BRANCH   1   2
ATOM      2  C   UNL     1      42.997  -5.383  27.432  1.00  0.00     0.000 C 
BRANCH   2   3
ATOM      3  C   UNL     1      41.752  -4.831  26.716  1.00  0.00     0.000 C 
BRANCH   3   4
ATOM      4  C   UNL     1      40.452  -5.526  27.164  1.00  0.00     0.006 C 
BRANCH   4   5
ATOM      5  C   UNL     1      39.174  -4.951  26.530  1.00  0.00     0.053 C 
BRANCH   5   6
ATOM      6  C   UNL     1      38.321  -6.018  25.917  1.00  0.00     0.041 C 
ATOM      7  O   UNL     1      37.144  -6.201  26.324  1.00  0.00    -0.550 OA
ATOM      8  O   UNL     1      38.839  -6.833  24.917  1.00  0.00    -0.550 OA
ENDBRANCH   5   6
ENDBRANCH   4   5
ENDBRANCH   3   4
ENDBRANCH   2   3
ENDBRANCH   1   2
BRANCH   1   9
ATOM      9  C   UNL     1      45.242  -6.577  27.124  1.00  0.00     0.000 C 
BRANCH   9  10
ATOM     10  C   UNL     1      45.672  -7.803  26.301  1.00  0.00    -0.000 C 
BRANCH  10  11
ATOM     11  C   UNL     1      45.507  -7.584  24.788  1.00  0.00    -0.000 C 
BRANCH  11  12
ATOM     12  C   UNL     1      46.830  -7.219  24.097  1.00  0.00    -0.000 C 
BRANCH  12  13
ATOM     13  C   UNL     1      46.838  -7.575  22.602  1.00  0.00    -0.003 C 
ATOM     14  C   UNL     1      48.264  -7.682  22.071  1.00  0.00     0.004 C 
ENDBRANCH  12  13
ENDBRANCH  11  12
ENDBRANCH  10  11
ENDBRANCH   9  10
ENDBRANCH   1   9
TORSDOF 10
ENDMDL
MODEL 8
REMARK VINA RESULT:    -4.799      1.606      2.614
REMARK INTER + INTRA:          -8.319
REMARK INTER:                  -7.422
REMARK INTRA:                  -0.897
REMARK UNBOUND:                -0.715
REMARK SMILES CCCCCCCCCCCC(=O)[O-]
REMARK SMILES IDX 7 1 8 2 9 3 10 4 11 5 12 6 13 7 14 8 6 9 5 10 4 11 3 12 2 13
REMARK SMILES IDX 1 14
REMARK H PARENT
REMARK Flexibility Score: inf
ROOT
ATOM      1  C   UNL     1      45.006  -6.853  27.149  1.00  0.00     0.000 C 
ENDROOT
BRANCH   1   2
ATOM      2  C   UNL     1      45.637  -7.797  26.113  1.00  0.00     0.000 C 
BRANCH   2   3
ATOM      3  C   UNL     1      45.702  -7.171  24.709  1.00  0.00     0.000 C 
BRANCH   3   4
ATOM      4  C   UNL     1      47.019  -7.489  23.976  1.00  0.00     0.006 C 
BRANCH   4   5
ATOM      5  C   UNL     1      48.283  -7.298  24.830  1.00  0.00     0.053 C 
BRANCH   5   6
ATOM      6  C   UNL     1      48.738  -5.872  24.852  1.00  0.00     0.041 C 
ATOM      7  O   UNL     1      49.288  -5.398  25.880  1.00  0.00    -0.550 OA
ATOM      8  O   UNL     1      48.523  -5.057  23.747  1.00  0.00    -0.550 OA
ENDBRANCH   5   6
ENDBRANCH   4   5
ENDBRANCH   3   4
ENDBRANCH   2   3
ENDBRANCH   1   2
BRANCH   1   9
ATOM      9  C   UNL     1      45.858  -5.597  27.405  1.00  0.00     0.000 C 
BRANCH   9  10
ATOM     10  C   UNL     1      45.010  -4.375  27.797  1.00  0.00    -0.000 C 
BRANCH  10  11
ATOM     11  C   UNL     1      43.753  -4.761  28.596  1.00  0.00    -0.000 C 
BRANCH  11  12
ATOM     12  C   UNL     1      42.492  -4.041  28.094  1.00  0.00    -0.000 C 
BRANCH  12  13
ATOM     13  C   UNL     1      41.819  -4.769  26.920  1.00  0.00    -0.003 C 
ATOM     14  C   UNL     1      40.764  -5.754  27.417  1.00  0.00     0.004 C 
ENDBRANCH  12  13
ENDBRANCH  11  12
ENDBRANCH  10  11
ENDBRANCH   9  10
ENDBRANCH   1   9
TORSDOF 10
ENDMDL
MODEL 9
REMARK VINA RESULT:    -4.690      3.002      6.509
REMARK INTER + INTRA:          -8.147
REMARK INTER:                  -7.449
REMARK INTRA:                  -0.698
REMARK UNBOUND:                -0.715
REMARK SMILES CCCCCCCCCCCC(=O)[O-]
REMARK SMILES IDX 7 1 8 2 9 3 10 4 11 5 12 6 13 7 14 8 6 9 5 10 4 11 3 12 2 13
REMARK SMILES IDX 1 14
REMARK H PARENT
REMARK Flexibility Score: inf
ROOT
ATOM      1  C   UNL     1      44.867  -5.209  26.472  1.00  0.00     0.000 C 
ENDROOT
BRANCH   1   2
ATOM      2  C   UNL     1      43.383  -5.321  26.857  1.00  0.00     0.000 C 
BRANCH   2   3
ATOM      3  C   UNL     1      43.186  -5.772  28.314  1.00  0.00     0.000 C 
BRANCH   3   4
ATOM      4  C   UNL     1      42.649  -4.645  29.218  1.00  0.00     0.006 C 
BRANCH   4   5
ATOM      5  C   UNL     1      42.691  -3.246  28.581  1.00  0.00     0.053 C 
BRANCH   5   6
ATOM      6  C   UNL     1      43.734  -2.374  29.207  1.00  0.00     0.041 C 
ATOM      7  O   UNL     1      44.811  -2.137  28.599  1.00  0.00    -0.550 OA
ATOM      8  O   UNL     1      43.531  -1.849  30.477  1.00  0.00    -0.550 OA
ENDBRANCH   5   6
ENDBRANCH   4   5
ENDBRANCH   3   4
ENDBRANCH   2   3
ENDBRANCH   1   2
BRANCH   1   9
ATOM      9  C   UNL     1      45.739  -6.286  27.142  1.00  0.00     0.000 C 
BRANCH   9  10
ATOM     10  C   UNL     1      45.734  -7.617  26.371  1.00  0.00    -0.000 C 
BRANCH  10  11
ATOM     11  C   UNL     1      46.218  -7.458  24.919  1.00  0.00    -0.000 C 
BRANCH  11  12
ATOM     12  C   UNL     1      47.749  -7.397  24.811  1.00  0.00    -0.000 C 
BRANCH  12  13
ATOM     13  C   UNL     1      48.244  -7.417  23.357  1.00  0.00    -0.003 C 
ATOM     14  C   UNL     1      47.083  -7.606  22.385  1.00  0.00     0.004 C 
ENDBRANCH  12  13
ENDBRANCH  11  12
ENDBRANCH  10  11
ENDBRANCH   9  10
ENDBRANCH   1   9
TORSDOF 10
ENDMDL
