MODEL 1
REMARK VINA RESULT:    -3.428      0.000      0.000
REMARK INTER + INTRA:          -6.432
REMARK INTER:                  -5.432
REMARK INTRA:                  -1.000
REMARK UNBOUND:                -1.000
REMARK SMILES CCCCCCCCCCCC(=O)[O-]
REMARK SMILES IDX 7 1 8 2 9 3 10 4 11 5 12 6 13 7 14 8 6 9 5 10 4 11 3 12 2 13
REMARK SMILES IDX 1 14
REMARK H PARENT
REMARK Flexibility Score: inf
ROOT
ATOM      1  C   UNL     1     -44.693 -38.228  16.065  1.00  0.00     0.000 C 
ENDROOT
BRANCH   1   2
ATOM      2  C   UNL     1     -45.586 -37.006  16.347  1.00  0.00     0.000 C 
BRANCH   2   3
ATOM      3  C   UNL     1     -44.780 -35.732  16.637  1.00  0.00     0.000 C 
BRANCH   3   4
ATOM      4  C   UNL     1     -45.205 -35.106  17.975  1.00  0.00     0.006 C 
BRANCH   4   5
ATOM      5  C   UNL     1     -45.470 -36.165  19.052  1.00  0.00     0.053 C 
BRANCH   5   6
ATOM      6  C   UNL     1     -44.274 -36.380  19.928  1.00  0.00     0.041 C 
ATOM      7  O   UNL     1     -43.393 -37.219  19.603  1.00  0.00    -0.550 OA
ATOM      8  O   UNL     1     -44.149 -35.678  21.120  1.00  0.00    -0.550 OA
ENDBRANCH   5   6
ENDBRANCH   4   5
ENDBRANCH   3   4
ENDBRANCH   2   3
ENDBRANCH   1   2
BRANCH   1   9
ATOM      9  C   UNL     1     -43.865 -38.141  14.767  1.00  0.00     0.000 C 
BRANCH   9  10
ATOM     10  C   UNL     1     -44.691 -38.004  13.473  1.00  0.00    -0.000 C 
BRANCH  10  11
ATOM     11  C   UNL     1     -44.581 -36.636  12.771  1.00  0.00    -0.000 C 
BRANCH  11  12
ATOM     12  C   UNL     1     -45.921 -35.920  12.529  1.00  0.00    -0.000 C 
BRANCH  12  13
ATOM     13  C   UNL     1     -46.123 -34.707  13.448  1.00  0.00    -0.003 C 
ATOM     14  C   UNL     1     -45.476 -33.457  12.859  1.00  0.00     0.004 C 
ENDBRANCH  12  13
ENDBRANCH  11  12
ENDBRANCH  10  11
ENDBRANCH   9  10
ENDBRANCH   1   9
TORSDOF 10
ENDMDL
MODEL 2
REMARK VINA RESULT:    -3.322      2.973      5.167
REMARK INTER + INTRA:          -6.264
REMARK INTER:                  -5.369
REMARK INTRA:                  -0.895
REMARK UNBOUND:                -1.000
REMARK SMILES CCCCCCCCCCCC(=O)[O-]
REMARK SMILES IDX 7 1 8 2 9 3 10 4 11 5 12 6 13 7 14 8 6 9 5 10 4 11 3 12 2 13
REMARK SMILES IDX 1 14
REMARK H PARENT
REMARK Flexibility Score: inf
ROOT
ATOM      1  C   UNL     1     -44.611 -37.379  12.921  1.00  0.00     0.000 C 
ENDROOT
BRANCH   1   2
ATOM      2  C   UNL     1     -44.669 -35.986  12.266  1.00  0.00     0.000 C 
BRANCH   2   3
ATOM      3  C   UNL     1     -46.090 -35.402  12.233  1.00  0.00     0.000 C 
BRANCH   3   4
ATOM      4  C   UNL     1     -46.084 -33.923  12.649  1.00  0.00     0.006 C 
BRANCH   4   5
ATOM      5  C   UNL     1     -45.891 -33.746  14.161  1.00  0.00     0.053 C 
BRANCH   5   6
ATOM      6  C   UNL     1     -45.060 -32.540  14.478  1.00  0.00     0.041 C 
ATOM      7  O   UNL     1     -44.497 -31.899  13.553  1.00  0.00    -0.550 OA
ATOM      8  O   UNL     1     -44.880 -32.146  15.798  1.00  0.00    -0.550 OA
ENDBRANCH   5   6
ENDBRANCH   4   5
ENDBRANCH   3   4
ENDBRANCH   2   3
ENDBRANCH   1   2
BRANCH   1   9
ATOM      9  C   UNL     1     -45.956 -37.896  13.469  1.00  0.00     0.000 C 
BRANCH   9  10
ATOM     10  C   UNL     1     -46.093 -37.861  15.004  1.00  0.00    -0.000 C 
BRANCH  10  11
ATOM     11  C   UNL     1     -44.792 -37.543  15.767  1.00  0.00    -0.000 C 
BRANCH  11  12
ATOM     12  C   UNL     1     -44.665 -38.219  17.143  1.00  0.00    -0.000 C 
BRANCH  12  13
ATOM     13  C   UNL     1     -44.784 -37.226  18.309  1.00  0.00    -0.003 C 
ATOM     14  C   UNL     1     -44.931 -35.795  17.799  1.00  0.00     0.004 C 
ENDBRANCH  12  13
ENDBRANCH  11  12
ENDBRANCH  10  11
ENDBRANCH   9  10
ENDBRANCH   1   9
TORSDOF 10
ENDMDL
MODEL 3
REMARK VINA RESULT:    -3.302      2.081      4.928
REMARK INTER + INTRA:          -6.233
REMARK INTER:                  -5.082
REMARK INTRA:                  -1.150
REMARK UNBOUND:                -1.000
REMARK SMILES CCCCCCCCCCCC(=O)[O-]
REMARK SMILES IDX 7 1 8 2 9 3 10 4 11 5 12 6 13 7 14 8 6 9 5 10 4 11 3 12 2 13
REMARK SMILES IDX 1 14
REMARK H PARENT
REMARK Flexibility Score: inf
ROOT
ATOM      1  C   UNL     1     -45.756 -33.829  12.665  1.00  0.00     0.000 C 
ENDROOT
BRANCH   1   2
ATOM      2  C   UNL     1     -45.783 -35.176  13.410  1.00  0.00     0.000 C 
BRANCH   2   3
ATOM      3  C   UNL     1     -44.979 -36.271  12.693  1.00  0.00     0.000 C 
BRANCH   3   4
ATOM      4  C   UNL     1     -45.100 -37.613  13.431  1.00  0.00     0.006 C 
BRANCH   4   5
ATOM      5  C   UNL     1     -44.146 -37.706  14.628  1.00  0.00     0.053 C 
BRANCH   5   6
ATOM      6  C   UNL     1     -44.888 -37.867  15.920  1.00  0.00     0.041 C 
ATOM      7  O   UNL     1     -46.123 -37.626  15.974  1.00  0.00    -0.550 OA
ATOM      8  O   UNL     1     -44.210 -38.249  17.070  1.00  0.00    -0.550 OA
ENDBRANCH   5   6
ENDBRANCH   4   5
ENDBRANCH   3   4
ENDBRANCH   2   3
ENDBRANCH   1   2
BRANCH   1   9
ATOM      9  C   UNL     1     -45.142 -32.659  13.460  1.00  0.00     0.000 C 
BRANCH   9  10
ATOM     10  C   UNL     1     -46.094 -31.980  14.464  1.00  0.00    -0.000 C 
BRANCH  10  11
ATOM     11  C   UNL     1     -45.724 -32.176  15.948  1.00  0.00    -0.000 C 
BRANCH  11  12
ATOM     12  C   UNL     1     -44.327 -32.770  16.196  1.00  0.00    -0.000 C 
BRANCH  12  13
ATOM     13  C   UNL     1     -44.378 -34.200  16.754  1.00  0.00    -0.003 C 
ATOM     14  C   UNL     1     -45.668 -34.441  17.531  1.00  0.00     0.004 C 
ENDBRANCH  12  13
ENDBRANCH  11  12
ENDBRANCH  10  11
ENDBRANCH   9  10
ENDBRANCH   1   9
TORSDOF 10
ENDMDL
MODEL 4
REMARK VINA RESULT:    -3.215      8.617     12.493
REMARK INTER + INTRA:          -6.094
REMARK INTER:                  -5.080
REMARK INTRA:                  -1.014
REMARK UNBOUND:                -1.000
REMARK SMILES CCCCCCCCCCCC(=O)[O-]
REMARK SMILES IDX 7 1 8 2 9 3 10 4 11 5 12 6 13 7 14 8 6 9 5 10 4 11 3 12 2 13
REMARK SMILES IDX 1 14
REMARK H PARENT
REMARK Flexibility Score: inf
ROOT
ATOM      1  C   UNL     1     -41.208 -32.499  27.753  1.00  0.00     0.000 C 
ENDROOT
BRANCH   1   2
ATOM      2  C   UNL     1     -42.140 -33.665  27.376  1.00  0.00     0.000 C 
BRANCH   2   3
ATOM      3  C   UNL     1     -43.269 -33.242  26.424  1.00  0.00     0.000 C 
BRANCH   3   4
ATOM      4  C   UNL     1     -42.871 -31.993  25.623  1.00  0.00     0.006 C 
BRANCH   4   5
ATOM      5  C   UNL     1     -42.417 -32.338  24.198  1.00  0.00     0.053 C 
BRANCH   5   6
ATOM      6  C   UNL     1     -43.517 -32.969  23.401  1.00  0.00     0.041 C 
ATOM      7  O   UNL     1     -43.302 -34.027  22.754  1.00  0.00    -0.550 OA
ATOM      8  O   UNL     1     -44.770 -32.371  23.347  1.00  0.00    -0.550 OA
ENDBRANCH   5   6
ENDBRANCH   4   5
ENDBRANCH   3   4
ENDBRANCH   2   3
ENDBRANCH   1   2
BRANCH   1   9
ATOM      9  C   UNL     1     -40.216 -32.804  28.895  1.00  0.00     0.000 C 
BRANCH   9  10
ATOM     10  C   UNL     1     -38.926 -31.959  28.882  1.00  0.00    -0.000 C 
BRANCH  10  11
ATOM     11  C   UNL     1     -37.859 -32.414  27.867  1.00  0.00    -0.000 C 
BRANCH  11  12
ATOM     12  C   UNL     1     -37.804 -33.932  27.619  1.00  0.00    -0.000 C 
BRANCH  12  13
ATOM     13  C   UNL     1     -37.942 -34.299  26.134  1.00  0.00    -0.003 C 
ATOM     14  C   UNL     1     -38.467 -33.118  25.323  1.00  0.00     0.004 C 
ENDBRANCH  12  13
ENDBRANCH  11  12
ENDBRANCH  10  11
ENDBRANCH   9  10
ENDBRANCH   1   9
TORSDOF 10
ENDMDL
MODEL 5
REMARK VINA RESULT:    -3.155     11.230     13.214
REMARK INTER + INTRA:          -5.999
REMARK INTER:                  -5.036
REMARK INTRA:                  -0.963
REMARK UNBOUND:                -1.000
REMARK SMILES CCCCCCCCCCCC(=O)[O-]
REMARK SMILES IDX 7 1 8 2 9 3 10 4 11 5 12 6 13 7 14 8 6 9 5 10 4 11 3 12 2 13
REMARK SMILES IDX 1 14
REMARK H PARENT
REMARK Flexibility Score: inf
ROOT
ATOM      1  C   UNL     1     -39.630 -32.677  28.935  1.00  0.00     0.000 C 
ENDROOT
BRANCH   1   2
ATOM      2  C   UNL     1     -38.326 -32.628  28.119  1.00  0.00     0.000 C 
BRANCH   2   3
ATOM      3  C   UNL     1     -37.840 -34.020  27.686  1.00  0.00     0.000 C 
BRANCH   3   4
ATOM      4  C   UNL     1     -37.892 -34.168  26.158  1.00  0.00     0.006 C 
BRANCH   4   5
ATOM      5  C   UNL     1     -37.629 -32.839  25.437  1.00  0.00     0.053 C 
BRANCH   5   6
ATOM      6  C   UNL     1     -38.269 -32.805  24.083  1.00  0.00     0.041 C 
ATOM      7  O   UNL     1     -37.564 -32.928  23.047  1.00  0.00    -0.550 OA
ATOM      8  O   UNL     1     -39.638 -32.603  23.964  1.00  0.00    -0.550 OA
ENDBRANCH   5   6
ENDBRANCH   4   5
ENDBRANCH   3   4
ENDBRANCH   2   3
ENDBRANCH   1   2
BRANCH   1   9
ATOM      9  C   UNL     1     -40.860 -32.069  28.231  1.00  0.00     0.000 C 
BRANCH   9  10
ATOM     10  C   UNL     1     -41.339 -32.831  26.980  1.00  0.00    -0.000 C 
BRANCH  10  11
ATOM     11  C   UNL     1     -42.753 -33.436  27.085  1.00  0.00    -0.000 C 
BRANCH  11  12
ATOM     12  C   UNL     1     -42.984 -34.339  28.309  1.00  0.00    -0.000 C 
BRANCH  12  13
ATOM     13  C   UNL     1     -44.221 -33.933  29.125  1.00  0.00    -0.003 C 
ATOM     14  C   UNL     1     -44.553 -32.458  28.921  1.00  0.00     0.004 C 
ENDBRANCH  12  13
ENDBRANCH  11  12
ENDBRANCH  10  11
ENDBRANCH   9  10
ENDBRANCH   1   9
TORSDOF 10
ENDMDL
MODEL 6
REMARK VINA RESULT:    -3.147      3.010      6.283
REMARK INTER + INTRA:          -5.986
REMARK INTER:                  -5.531
REMARK INTRA:                  -0.455
REMARK UNBOUND:                -1.000
REMARK SMILES CCCCCCCCCCCC(=O)[O-]
REMARK SMILES IDX 7 1 8 2 9 3 10 4 11 5 12 6 13 7 14 8 6 9 5 10 4 11 3 12 2 13
REMARK SMILES IDX 1 14
REMARK H PARENT
REMARK Flexibility Score: inf
ROOT
ATOM      1  C   UNL     1     -45.001 -37.686  15.503  1.00  0.00     0.000 C 
ENDROOT
BRANCH   1   2
ATOM      2  C   UNL     1     -44.151 -38.235  14.343  1.00  0.00     0.000 C 
BRANCH   2   3
ATOM      3  C   UNL     1     -44.473 -37.565  12.998  1.00  0.00     0.000 C 
BRANCH   3   4
ATOM      4  C   UNL     1     -45.794 -36.784  13.077  1.00  0.00     0.006 C 
BRANCH   4   5
ATOM      5  C   UNL     1     -45.756 -35.494  12.249  1.00  0.00     0.053 C 
BRANCH   5   6
ATOM      6  C   UNL     1     -45.705 -34.276  13.119  1.00  0.00     0.041 C 
ATOM      7  O   UNL     1     -45.614 -33.131  12.601  1.00  0.00    -0.550 OA
ATOM      8  O   UNL     1     -45.725 -34.406  14.502  1.00  0.00    -0.550 OA
ENDBRANCH   5   6
ENDBRANCH   4   5
ENDBRANCH   3   4
ENDBRANCH   2   3
ENDBRANCH   1   2
BRANCH   1   9
ATOM      9  C   UNL     1     -44.636 -38.239  16.895  1.00  0.00     0.000 C 
BRANCH   9  10
ATOM     10  C   UNL     1     -45.384 -37.587  18.074  1.00  0.00    -0.000 C 
BRANCH  10  11
ATOM     11  C   UNL     1     -44.674 -36.373  18.705  1.00  0.00    -0.000 C 
BRANCH  11  12
ATOM     12  C   UNL     1     -44.034 -36.636  20.079  1.00  0.00    -0.000 C 
BRANCH  12  13
ATOM     13  C   UNL     1     -44.992 -36.358  21.247  1.00  0.00    -0.003 C 
ATOM     14  C   UNL     1     -45.776 -37.612  21.624  1.00  0.00     0.004 C 
ENDBRANCH  12  13
ENDBRANCH  11  12
ENDBRANCH  10  11
ENDBRANCH   9  10
ENDBRANCH   1   9
TORSDOF 10
ENDMDL
MODEL 7
REMARK VINA RESULT:    -3.125      9.597     12.325
REMARK INTER + INTRA:          -5.951
REMARK INTER:                  -4.978
REMARK INTRA:                  -0.973
REMARK UNBOUND:                -1.000
REMARK SMILES CCCCCCCCCCCC(=O)[O-]
REMARK SMILES IDX 7 1 8 2 9 3 10 4 11 5 12 6 13 7 14 8 6 9 5 10 4 11 3 12 2 13
REMARK SMILES IDX 1 14
REMARK H PARENT
REMARK Flexibility Score: inf
ROOT
ATOM      1  C   UNL     1     -39.407 -32.562  29.063  1.00  0.00     0.000 C 
ENDROOT
BRANCH   1   2
ATOM      2  C   UNL     1     -40.630 -32.002  28.312  1.00  0.00     0.000 C 
BRANCH   2   3
ATOM      3  C   UNL     1     -41.307 -33.047  27.413  1.00  0.00     0.000 C 
BRANCH   3   4
ATOM      4  C   UNL     1     -41.827 -32.402  26.119  1.00  0.00     0.006 C 
BRANCH   4   5
ATOM      5  C   UNL     1     -43.323 -32.662  25.900  1.00  0.00     0.053 C 
BRANCH   5   6
ATOM      6  C   UNL     1     -43.677 -32.685  24.445  1.00  0.00     0.041 C 
ATOM      7  O   UNL     1     -44.829 -32.346  24.069  1.00  0.00    -0.550 OA
ATOM      8  O   UNL     1     -42.745 -33.114  23.508  1.00  0.00    -0.550 OA
ENDBRANCH   5   6
ENDBRANCH   4   5
ENDBRANCH   3   4
ENDBRANCH   2   3
ENDBRANCH   1   2
BRANCH   1   9
ATOM      9  C   UNL     1     -38.454 -33.418  28.205  1.00  0.00     0.000 C 
BRANCH   9  10
ATOM     10  C   UNL     1     -37.269 -32.652  27.583  1.00  0.00    -0.000 C 
BRANCH  10  11
ATOM     11  C   UNL     1     -37.328 -32.492  26.051  1.00  0.00    -0.000 C 
BRANCH  11  12
ATOM     12  C   UNL     1     -38.234 -33.503  25.327  1.00  0.00    -0.000 C 
BRANCH  12  13
ATOM     13  C   UNL     1     -38.697 -33.008  23.949  1.00  0.00    -0.003 C 
ATOM     14  C   UNL     1     -37.505 -32.687  23.051  1.00  0.00     0.004 C 
ENDBRANCH  12  13
ENDBRANCH  11  12
ENDBRANCH  10  11
ENDBRANCH   9  10
ENDBRANCH   1   9
TORSDOF 10
ENDMDL
MODEL 8
REMARK VINA RESULT:    -3.121      3.228      4.957
REMARK INTER + INTRA:          -5.945
REMARK INTER:                  -5.169
REMARK INTRA:                  -0.776
REMARK UNBOUND:                -1.000
REMARK SMILES CCCCCCCCCCCC(=O)[O-]
REMARK SMILES IDX 7 1 8 2 9 3 10 4 11 5 12 6 13 7 14 8 6 9 5 10 4 11 3 12 2 13
REMARK SMILES IDX 1 14
REMARK H PARENT
REMARK Flexibility Score: inf
ROOT
ATOM      1  C   UNL     1     -44.788 -36.190  18.482  1.00  0.00     0.000 C 
ENDROOT
BRANCH   1   2
ATOM      2  C   UNL     1     -45.595 -37.495  18.355  1.00  0.00     0.000 C 
BRANCH   2   3
ATOM      3  C   UNL     1     -45.224 -38.306  17.104  1.00  0.00     0.000 C 
BRANCH   3   4
ATOM      4  C   UNL     1     -45.195 -37.409  15.857  1.00  0.00     0.006 C 
BRANCH   4   5
ATOM      5  C   UNL     1     -44.133 -37.856  14.845  1.00  0.00     0.053 C 
BRANCH   5   6
ATOM      6  C   UNL     1     -44.627 -37.748  13.435  1.00  0.00     0.041 C 
ATOM      7  O   UNL     1     -44.317 -36.751  12.731  1.00  0.00    -0.550 OA
ATOM      8  O   UNL     1     -45.457 -38.730  12.910  1.00  0.00    -0.550 OA
ENDBRANCH   5   6
ENDBRANCH   4   5
ENDBRANCH   3   4
ENDBRANCH   2   3
ENDBRANCH   1   2
BRANCH   1   9
ATOM      9  C   UNL     1     -45.605 -34.960  18.927  1.00  0.00     0.000 C 
BRANCH   9  10
ATOM     10  C   UNL     1     -45.899 -33.934  17.814  1.00  0.00    -0.000 C 
BRANCH  10  11
ATOM     11  C   UNL     1     -44.797 -33.799  16.745  1.00  0.00    -0.000 C 
BRANCH  11  12
ATOM     12  C   UNL     1     -45.297 -33.401  15.345  1.00  0.00    -0.000 C 
BRANCH  12  13
ATOM     13  C   UNL     1     -44.678 -32.088  14.842  1.00  0.00    -0.003 C 
ATOM     14  C   UNL     1     -44.910 -31.909  13.345  1.00  0.00     0.004 C 
ENDBRANCH  12  13
ENDBRANCH  11  12
ENDBRANCH  10  11
ENDBRANCH   9  10
ENDBRANCH   1   9
TORSDOF 10
ENDMDL
MODEL 9
REMARK VINA RESULT:    -3.092      1.473      3.080
REMARK INTER + INTRA:          -5.900
REMARK INTER:                  -4.950
REMARK INTRA:                  -0.949
REMARK UNBOUND:                -1.000
REMARK SMILES CCCCCCCCCCCC(=O)[O-]
REMARK SMILES IDX 7 1 8 2 9 3 10 4 11 5 12 6 13 7 14 8 6 9 5 10 4 11 3 12 2 13
REMARK SMILES IDX 1 14
REMARK H PARENT
REMARK Flexibility Score: inf
ROOT
ATOM      1  C   UNL     1     -44.574 -34.463  16.705  1.00  0.00     0.000 C 
ENDROOT
BRANCH   1   2
ATOM      2  C   UNL     1     -45.562 -35.639  16.605  1.00  0.00     0.000 C 
BRANCH   2   3
ATOM      3  C   UNL     1     -44.860 -37.001  16.498  1.00  0.00     0.000 C 
BRANCH   3   4
ATOM      4  C   UNL     1     -45.280 -37.925  17.651  1.00  0.00     0.006 C 
BRANCH   4   5
ATOM      5  C   UNL     1     -45.847 -37.145  18.844  1.00  0.00     0.053 C 
BRANCH   5   6
ATOM      6  C   UNL     1     -44.896 -37.130  20.002  1.00  0.00     0.041 C 
ATOM      7  O   UNL     1     -43.717 -36.714  19.847  1.00  0.00    -0.550 OA
ATOM      8  O   UNL     1     -45.301 -37.605  21.242  1.00  0.00    -0.550 OA
ENDBRANCH   5   6
ENDBRANCH   4   5
ENDBRANCH   3   4
ENDBRANCH   2   3
ENDBRANCH   1   2
BRANCH   1   9
ATOM      9  C   UNL     1     -45.224 -33.064  16.692  1.00  0.00     0.000 C 
BRANCH   9  10
ATOM     10  C   UNL     1     -45.203 -32.346  15.328  1.00  0.00    -0.000 C 
BRANCH  10  11
ATOM     11  C   UNL     1     -46.125 -32.959  14.255  1.00  0.00    -0.000 C 
BRANCH  11  12
ATOM     12  C   UNL     1     -45.399 -33.532  13.026  1.00  0.00    -0.000 C 
BRANCH  12  13
ATOM     13  C   UNL     1     -46.002 -34.860  12.543  1.00  0.00    -0.003 C 
ATOM     14  C   UNL     1     -45.014 -36.010  12.724  1.00  0.00     0.004 C 
ENDBRANCH  12  13
ENDBRANCH  11  12
ENDBRANCH  10  11
ENDBRANCH   9  10
ENDBRANCH   1   9
TORSDOF 10
ENDMDL
