MODEL 1
REMARK VINA RESULT:    -4.487      0.000      0.000
REMARK INTER + INTRA:         -10.450
REMARK INTER:                  -8.159
REMARK INTRA:                  -2.291
REMARK UNBOUND:                -2.291
REMARK SMILES CCCCCCCCCCCCCCCC(=O)[O-]
REMARK SMILES IDX 9 1 10 2 11 3 12 4 13 5 14 6 15 7 16 8 17 9 18 10 8 11 7 12
REMARK SMILES IDX 6 13 5 14 4 15 3 16 2 17 1 18
REMARK H PARENT
REMARK Flexibility Score: inf
ROOT
ATOM      1  C   UNL     1      16.671 -35.173  19.476  1.00  0.00     0.000 C 
ENDROOT
BRANCH   1   2
ATOM      2  C   UNL     1      15.722 -34.791  20.622  1.00  0.00     0.000 C 
BRANCH   2   3
ATOM      3  C   UNL     1      14.795 -33.642  20.208  1.00  0.00     0.000 C 
BRANCH   3   4
ATOM      4  C   UNL     1      14.251 -32.903  21.439  1.00  0.00     0.000 C 
BRANCH   4   5
ATOM      5  C   UNL     1      13.769 -31.476  21.119  1.00  0.00     0.000 C 
BRANCH   5   6
ATOM      6  C   UNL     1      14.183 -30.401  22.143  1.00  0.00     0.006 C 
BRANCH   6   7
ATOM      7  C   UNL     1      13.302 -30.344  23.400  1.00  0.00     0.053 C 
BRANCH   7   8
ATOM      8  C   UNL     1      12.754 -28.971  23.639  1.00  0.00     0.041 C 
ATOM      9  O   UNL     1      13.533 -27.986  23.741  1.00  0.00    -0.550 OA
ATOM     10  O   UNL     1      11.385 -28.783  23.783  1.00  0.00    -0.550 OA
ENDBRANCH   7   8
ENDBRANCH   6   7
ENDBRANCH   5   6
ENDBRANCH   4   5
ENDBRANCH   3   4
ENDBRANCH   2   3
ENDBRANCH   1   2
BRANCH   1  11
ATOM     11  C   UNL     1      17.770 -34.125  19.240  1.00  0.00     0.000 C 
BRANCH  11  12
ATOM     12  C   UNL     1      18.286 -33.505  20.551  1.00  0.00    -0.000 C 
BRANCH  12  13
ATOM     13  C   UNL     1      18.015 -31.994  20.636  1.00  0.00    -0.000 C 
BRANCH  13  14
ATOM     14  C   UNL     1      17.812 -31.508  22.080  1.00  0.00    -0.000 C 
BRANCH  14  15
ATOM     15  C   UNL     1      17.873 -32.650  23.109  1.00  0.00    -0.000 C 
BRANCH  15  16
ATOM     16  C   UNL     1      16.651 -32.699  24.050  1.00  0.00    -0.000 C 
BRANCH  16  17
ATOM     17  C   UNL     1      16.186 -34.137  24.325  1.00  0.00    -0.003 C 
ATOM     18  C   UNL     1      17.266 -35.147  23.949  1.00  0.00     0.004 C 
ENDBRANCH  16  17
ENDBRANCH  15  16
ENDBRANCH  14  15
ENDBRANCH  13  14
ENDBRANCH  12  13
ENDBRANCH  11  12
ENDBRANCH   1  11
TORSDOF 14
ENDMDL
MODEL 2
REMARK VINA RESULT:    -4.353      1.164      3.293
REMARK INTER + INTRA:         -10.207
REMARK INTER:                  -7.760
REMARK INTRA:                  -2.447
REMARK UNBOUND:                -2.291
REMARK SMILES CCCCCCCCCCCCCCCC(=O)[O-]
REMARK SMILES IDX 9 1 10 2 11 3 12 4 13 5 14 6 15 7 16 8 17 9 18 10 8 11 7 12
REMARK SMILES IDX 6 13 5 14 4 15 3 16 2 17 1 18
REMARK H PARENT
REMARK Flexibility Score: inf
ROOT
ATOM      1  C   UNL     1      16.584 -34.708  23.827  1.00  0.00     0.000 C 
ENDROOT
BRANCH   1   2
ATOM      2  C   UNL     1      16.873 -33.248  24.203  1.00  0.00     0.000 C 
BRANCH   2   3
ATOM      3  C   UNL     1      15.964 -32.290  23.423  1.00  0.00     0.000 C 
BRANCH   3   4
ATOM      4  C   UNL     1      14.682 -32.998  22.963  1.00  0.00     0.000 C 
BRANCH   4   5
ATOM      5  C   UNL     1      14.299 -32.664  21.510  1.00  0.00     0.000 C 
BRANCH   5   6
ATOM      6  C   UNL     1      13.655 -31.277  21.307  1.00  0.00     0.006 C 
BRANCH   6   7
ATOM      7  C   UNL     1      12.625 -30.890  22.378  1.00  0.00     0.053 C 
BRANCH   7   8
ATOM      8  C   UNL     1      13.039 -29.667  23.137  1.00  0.00     0.041 C 
ATOM      9  O   UNL     1      14.188 -29.178  22.974  1.00  0.00    -0.550 OA
ATOM     10  O   UNL     1      12.168 -29.087  24.051  1.00  0.00    -0.550 OA
ENDBRANCH   7   8
ENDBRANCH   6   7
ENDBRANCH   5   6
ENDBRANCH   4   5
ENDBRANCH   3   4
ENDBRANCH   2   3
ENDBRANCH   1   2
BRANCH   1  11
ATOM     11  C   UNL     1      17.865 -35.536  23.633  1.00  0.00     0.000 C 
BRANCH  11  12
ATOM     12  C   UNL     1      18.025 -36.048  22.190  1.00  0.00    -0.000 C 
BRANCH  12  13
ATOM     13  C   UNL     1      16.959 -35.476  21.241  1.00  0.00    -0.000 C 
BRANCH  13  14
ATOM     14  C   UNL     1      17.452 -35.371  19.789  1.00  0.00    -0.000 C 
BRANCH  14  15
ATOM     15  C   UNL     1      18.233 -34.073  19.516  1.00  0.00    -0.000 C 
BRANCH  15  16
ATOM     16  C   UNL     1      17.682 -32.851  20.280  1.00  0.00    -0.000 C 
BRANCH  16  17
ATOM     17  C   UNL     1      18.801 -31.998  20.896  1.00  0.00    -0.003 C 
ATOM     18  C   UNL     1      19.723 -32.845  21.768  1.00  0.00     0.004 C 
ENDBRANCH  16  17
ENDBRANCH  15  16
ENDBRANCH  14  15
ENDBRANCH  13  14
ENDBRANCH  12  13
ENDBRANCH  11  12
ENDBRANCH   1  11
TORSDOF 14
ENDMDL
MODEL 3
REMARK VINA RESULT:    -4.342      1.462      2.850
REMARK INTER + INTRA:         -10.187
REMARK INTER:                  -7.977
REMARK INTRA:                  -2.210
REMARK UNBOUND:                -2.291
REMARK SMILES CCCCCCCCCCCCCCCC(=O)[O-]
REMARK SMILES IDX 9 1 10 2 11 3 12 4 13 5 14 6 15 7 16 8 17 9 18 10 8 11 7 12
REMARK SMILES IDX 6 13 5 14 4 15 3 16 2 17 1 18
REMARK H PARENT
REMARK Flexibility Score: inf
ROOT
ATOM      1  C   UNL     1      16.685 -34.482  19.416  1.00  0.00     0.000 C 
ENDROOT
BRANCH   1   2
ATOM      2  C   UNL     1      15.444 -34.749  20.281  1.00  0.00     0.000 C 
BRANCH   2   3
ATOM      3  C   UNL     1      15.111 -33.533  21.154  1.00  0.00     0.000 C 
BRANCH   3   4
ATOM      4  C   UNL     1      15.144 -33.899  22.644  1.00  0.00     0.000 C 
BRANCH   4   5
ATOM      5  C   UNL     1      15.812 -32.818  23.514  1.00  0.00     0.000 C 
BRANCH   5   6
ATOM      6  C   UNL     1      15.314 -31.380  23.264  1.00  0.00     0.006 C 
BRANCH   6   7
ATOM      7  C   UNL     1      13.867 -31.120  23.708  1.00  0.00     0.053 C 
BRANCH   7   8
ATOM      8  C   UNL     1      13.376 -29.777  23.261  1.00  0.00     0.041 C 
ATOM      9  O   UNL     1      14.182 -28.817  23.134  1.00  0.00    -0.550 OA
ATOM     10  O   UNL     1      12.023 -29.577  23.017  1.00  0.00    -0.550 OA
ENDBRANCH   7   8
ENDBRANCH   6   7
ENDBRANCH   5   6
ENDBRANCH   4   5
ENDBRANCH   3   4
ENDBRANCH   2   3
ENDBRANCH   1   2
BRANCH   1  11
ATOM     11  C   UNL     1      17.795 -35.523  19.631  1.00  0.00     0.000 C 
BRANCH  11  12
ATOM     12  C   UNL     1      17.583 -36.358  20.907  1.00  0.00    -0.000 C 
BRANCH  12  13
ATOM     13  C   UNL     1      18.332 -35.782  22.119  1.00  0.00    -0.000 C 
BRANCH  13  14
ATOM     14  C   UNL     1      19.453 -34.809  21.717  1.00  0.00    -0.000 C 
BRANCH  14  15
ATOM     15  C   UNL     1      19.184 -33.366  22.177  1.00  0.00    -0.000 C 
BRANCH  15  16
ATOM     16  C   UNL     1      19.379 -32.317  21.062  1.00  0.00    -0.000 C 
BRANCH  16  17
ATOM     17  C   UNL     1      18.143 -31.422  20.883  1.00  0.00    -0.003 C 
ATOM     18  C   UNL     1      18.498 -29.949  21.063  1.00  0.00     0.004 C 
ENDBRANCH  16  17
ENDBRANCH  15  16
ENDBRANCH  14  15
ENDBRANCH  13  14
ENDBRANCH  12  13
ENDBRANCH  11  12
ENDBRANCH   1  11
TORSDOF 14
ENDMDL
MODEL 4
REMARK VINA RESULT:    -4.292      3.294      5.758
REMARK INTER + INTRA:         -10.096
REMARK INTER:                  -7.593
REMARK INTRA:                  -2.503
REMARK UNBOUND:                -2.291
REMARK SMILES CCCCCCCCCCCCCCCC(=O)[O-]
REMARK SMILES IDX 9 1 10 2 11 3 12 4 13 5 14 6 15 7 16 8 17 9 18 10 8 11 7 12
REMARK SMILES IDX 6 13 5 14 4 15 3 16 2 17 1 18
REMARK H PARENT
REMARK Flexibility Score: inf
ROOT
ATOM      1  C   UNL     1      18.593 -31.588  24.033  1.00  0.00     0.000 C 
ENDROOT
BRANCH   1   2
ATOM      2  C   UNL     1      17.436 -30.746  23.475  1.00  0.00     0.000 C 
BRANCH   2   3
ATOM      3  C   UNL     1      17.346 -30.881  21.950  1.00  0.00     0.000 C 
BRANCH   3   4
ATOM      4  C   UNL     1      18.724 -31.175  21.340  1.00  0.00     0.000 C 
BRANCH   4   5
ATOM      5  C   UNL     1      18.755 -32.484  20.530  1.00  0.00     0.000 C 
BRANCH   5   6
ATOM      6  C   UNL     1      17.389 -33.176  20.354  1.00  0.00     0.006 C 
BRANCH   6   7
ATOM      7  C   UNL     1      17.386 -34.334  19.345  1.00  0.00     0.053 C 
BRANCH   7   8
ATOM      8  C   UNL     1      16.443 -35.425  19.747  1.00  0.00     0.041 C 
ATOM      9  O   UNL     1      15.343 -35.144  20.292  1.00  0.00    -0.550 OA
ATOM     10  O   UNL     1      16.793 -36.755  19.551  1.00  0.00    -0.550 OA
ENDBRANCH   7   8
ENDBRANCH   6   7
ENDBRANCH   5   6
ENDBRANCH   4   5
ENDBRANCH   3   4
ENDBRANCH   2   3
ENDBRANCH   1   2
BRANCH   1  11
ATOM     11  C   UNL     1      18.107 -32.788  24.863  1.00  0.00     0.000 C 
BRANCH  11  12
ATOM     12  C   UNL     1      18.230 -34.120  24.101  1.00  0.00    -0.000 C 
BRANCH  12  13
ATOM     13  C   UNL     1      16.873 -34.638  23.598  1.00  0.00    -0.000 C 
BRANCH  13  14
ATOM     14  C   UNL     1      15.683 -33.960  24.297  1.00  0.00    -0.000 C 
BRANCH  14  15
ATOM     15  C   UNL     1      14.692 -33.324  23.306  1.00  0.00    -0.000 C 
BRANCH  15  16
ATOM     16  C   UNL     1      14.082 -31.999  23.809  1.00  0.00    -0.000 C 
BRANCH  16  17
ATOM     17  C   UNL     1      13.221 -31.312  22.738  1.00  0.00    -0.003 C 
ATOM     18  C   UNL     1      13.750 -31.599  21.337  1.00  0.00     0.004 C 
ENDBRANCH  16  17
ENDBRANCH  15  16
ENDBRANCH  14  15
ENDBRANCH  13  14
ENDBRANCH  12  13
ENDBRANCH  11  12
ENDBRANCH   1  11
TORSDOF 14
ENDMDL
MODEL 5
REMARK VINA RESULT:    -4.290      1.401      2.998
REMARK INTER + INTRA:         -10.092
REMARK INTER:                  -7.560
REMARK INTRA:                  -2.532
REMARK UNBOUND:                -2.291
REMARK SMILES CCCCCCCCCCCCCCCC(=O)[O-]
REMARK SMILES IDX 9 1 10 2 11 3 12 4 13 5 14 6 15 7 16 8 17 9 18 10 8 11 7 12
REMARK SMILES IDX 6 13 5 14 4 15 3 16 2 17 1 18
REMARK H PARENT
REMARK Flexibility Score: inf
ROOT
ATOM      1  C   UNL     1      18.915 -33.146  21.765  1.00  0.00     0.000 C 
ENDROOT
BRANCH   1   2
ATOM      2  C   UNL     1      18.562 -32.229  20.585  1.00  0.00     0.000 C 
BRANCH   2   3
ATOM      3  C   UNL     1      17.670 -31.067  21.040  1.00  0.00     0.000 C 
BRANCH   3   4
ATOM      4  C   UNL     1      17.953 -30.696  22.502  1.00  0.00     0.000 C 
BRANCH   4   5
ATOM      5  C   UNL     1      16.710 -30.163  23.238  1.00  0.00     0.000 C 
BRANCH   5   6
ATOM      6  C   UNL     1      15.462 -29.967  22.354  1.00  0.00     0.006 C 
BRANCH   6   7
ATOM      7  C   UNL     1      14.367 -29.092  22.983  1.00  0.00     0.053 C 
BRANCH   7   8
ATOM      8  C   UNL     1      13.057 -29.812  23.072  1.00  0.00     0.041 C 
ATOM      9  O   UNL     1      12.046 -29.232  23.549  1.00  0.00    -0.550 OA
ATOM     10  O   UNL     1      12.961 -31.135  22.661  1.00  0.00    -0.550 OA
ENDBRANCH   7   8
ENDBRANCH   6   7
ENDBRANCH   5   6
ENDBRANCH   4   5
ENDBRANCH   3   4
ENDBRANCH   2   3
ENDBRANCH   1   2
BRANCH   1  11
ATOM     11  C   UNL     1      18.772 -34.638  21.422  1.00  0.00     0.000 C 
BRANCH  11  12
ATOM     12  C   UNL     1      18.039 -34.870  20.089  1.00  0.00    -0.000 C 
BRANCH  12  13
ATOM     13  C   UNL     1      16.603 -35.381  20.287  1.00  0.00    -0.000 C 
BRANCH  13  14
ATOM     14  C   UNL     1      15.543 -34.318  19.955  1.00  0.00    -0.000 C 
BRANCH  14  15
ATOM     15  C   UNL     1      14.936 -33.668  21.211  1.00  0.00    -0.000 C 
BRANCH  15  16
ATOM     16  C   UNL     1      15.365 -34.351  22.527  1.00  0.00    -0.000 C 
BRANCH  16  17
ATOM     17  C   UNL     1      15.490 -33.352  23.687  1.00  0.00    -0.003 C 
ATOM     18  C   UNL     1      16.478 -33.848  24.738  1.00  0.00     0.004 C 
ENDBRANCH  16  17
ENDBRANCH  15  16
ENDBRANCH  14  15
ENDBRANCH  13  14
ENDBRANCH  12  13
ENDBRANCH  11  12
ENDBRANCH   1  11
TORSDOF 14
ENDMDL
MODEL 6
REMARK VINA RESULT:    -4.280      2.957      5.886
REMARK INTER + INTRA:         -10.073
REMARK INTER:                  -8.145
REMARK INTRA:                  -1.928
REMARK UNBOUND:                -2.291
REMARK SMILES CCCCCCCCCCCCCCCC(=O)[O-]
REMARK SMILES IDX 9 1 10 2 11 3 12 4 13 5 14 6 15 7 16 8 17 9 18 10 8 11 7 12
REMARK SMILES IDX 6 13 5 14 4 15 3 16 2 17 1 18
REMARK H PARENT
REMARK Flexibility Score: inf
ROOT
ATOM      1  C   UNL     1      17.854 -31.867  23.614  1.00  0.00     0.000 C 
ENDROOT
BRANCH   1   2
ATOM      2  C   UNL     1      17.217 -33.096  24.278  1.00  0.00     0.000 C 
BRANCH   2   3
ATOM      3  C   UNL     1      15.707 -33.144  24.012  1.00  0.00     0.000 C 
BRANCH   3   4
ATOM      4  C   UNL     1      15.360 -34.258  23.014  1.00  0.00     0.000 C 
BRANCH   4   5
ATOM      5  C   UNL     1      15.258 -33.754  21.563  1.00  0.00     0.000 C 
BRANCH   5   6
ATOM      6  C   UNL     1      15.626 -34.792  20.483  1.00  0.00     0.006 C 
BRANCH   6   7
ATOM      7  C   UNL     1      16.794 -34.380  19.575  1.00  0.00     0.053 C 
BRANCH   7   8
ATOM      8  C   UNL     1      17.953 -33.847  20.361  1.00  0.00     0.041 C 
ATOM      9  O   UNL     1      18.296 -32.641  20.247  1.00  0.00    -0.550 OA
ATOM     10  O   UNL     1      18.676 -34.693  21.193  1.00  0.00    -0.550 OA
ENDBRANCH   7   8
ENDBRANCH   6   7
ENDBRANCH   5   6
ENDBRANCH   4   5
ENDBRANCH   3   4
ENDBRANCH   2   3
ENDBRANCH   1   2
BRANCH   1  11
ATOM     11  C   UNL     1      16.924 -30.643  23.611  1.00  0.00     0.000 C 
BRANCH  11  12
ATOM     12  C   UNL     1      16.524 -30.208  22.190  1.00  0.00    -0.000 C 
BRANCH  12  13
ATOM     13  C   UNL     1      15.153 -29.514  22.151  1.00  0.00    -0.000 C 
BRANCH  13  14
ATOM     14  C   UNL     1      14.013 -30.474  21.773  1.00  0.00    -0.000 C 
BRANCH  14  15
ATOM     15  C   UNL     1      12.887 -30.505  22.822  1.00  0.00    -0.000 C 
BRANCH  15  16
ATOM     16  C   UNL     1      13.074 -29.477  23.958  1.00  0.00    -0.000 C 
BRANCH  16  17
ATOM     17  C   UNL     1      11.920 -28.466  24.023  1.00  0.00    -0.003 C 
ATOM     18  C   UNL     1      10.875 -28.751  22.949  1.00  0.00     0.004 C 
ENDBRANCH  16  17
ENDBRANCH  15  16
ENDBRANCH  14  15
ENDBRANCH  13  14
ENDBRANCH  12  13
ENDBRANCH  11  12
ENDBRANCH   1  11
TORSDOF 14
ENDMDL
MODEL 7
REMARK VINA RESULT:    -4.270      2.005      2.891
REMARK INTER + INTRA:         -10.055
REMARK INTER:                  -8.179
REMARK INTRA:                  -1.876
REMARK UNBOUND:                -2.291
REMARK SMILES CCCCCCCCCCCCCCCC(=O)[O-]
REMARK SMILES IDX 9 1 10 2 11 3 12 4 13 5 14 6 15 7 16 8 17 9 18 10 8 11 7 12
REMARK SMILES IDX 6 13 5 14 4 15 3 16 2 17 1 18
REMARK H PARENT
REMARK Flexibility Score: inf
ROOT
ATOM      1  C   UNL     1      17.208 -35.980  19.857  1.00  0.00     0.000 C 
ENDROOT
BRANCH   1   2
ATOM      2  C   UNL     1      16.468 -34.637  19.764  1.00  0.00     0.000 C 
BRANCH   2   3
ATOM      3  C   UNL     1      15.144 -34.686  20.535  1.00  0.00     0.000 C 
BRANCH   3   4
ATOM      4  C   UNL     1      14.662 -33.273  20.893  1.00  0.00     0.000 C 
BRANCH   4   5
ATOM      5  C   UNL     1      15.780 -32.386  21.471  1.00  0.00     0.000 C 
BRANCH   5   6
ATOM      6  C   UNL     1      15.506 -31.825  22.881  1.00  0.00     0.006 C 
BRANCH   6   7
ATOM      7  C   UNL     1      14.116 -32.163  23.442  1.00  0.00     0.053 C 
BRANCH   7   8
ATOM      8  C   UNL     1      13.154 -31.027  23.276  1.00  0.00     0.041 C 
ATOM      9  O   UNL     1      12.364 -31.004  22.295  1.00  0.00    -0.550 OA
ATOM     10  O   UNL     1      13.154 -29.977  24.185  1.00  0.00    -0.550 OA
ENDBRANCH   7   8
ENDBRANCH   6   7
ENDBRANCH   5   6
ENDBRANCH   4   5
ENDBRANCH   3   4
ENDBRANCH   2   3
ENDBRANCH   1   2
BRANCH   1  11
ATOM     11  C   UNL     1      17.771 -36.253  21.262  1.00  0.00     0.000 C 
BRANCH  11  12
ATOM     12  C   UNL     1      18.655 -35.103  21.777  1.00  0.00    -0.000 C 
BRANCH  12  13
ATOM     13  C   UNL     1      18.422 -34.803  23.267  1.00  0.00    -0.000 C 
BRANCH  13  14
ATOM     14  C   UNL     1      16.984 -35.111  23.716  1.00  0.00    -0.000 C 
BRANCH  14  15
ATOM     15  C   UNL     1      16.906 -35.599  25.174  1.00  0.00    -0.000 C 
BRANCH  15  16
ATOM     16  C   UNL     1      18.249 -36.127  25.720  1.00  0.00    -0.000 C 
BRANCH  16  17
ATOM     17  C   UNL     1      18.175 -37.611  26.111  1.00  0.00    -0.003 C 
ATOM     18  C   UNL     1      16.939 -37.896  26.959  1.00  0.00     0.004 C 
ENDBRANCH  16  17
ENDBRANCH  15  16
ENDBRANCH  14  15
ENDBRANCH  13  14
ENDBRANCH  12  13
ENDBRANCH  11  12
ENDBRANCH   1  11
TORSDOF 14
ENDMDL
MODEL 8
REMARK VINA RESULT:    -4.259      3.509      5.729
REMARK INTER + INTRA:         -10.035
REMARK INTER:                  -7.577
REMARK INTRA:                  -2.458
REMARK UNBOUND:                -2.291
REMARK SMILES CCCCCCCCCCCCCCCC(=O)[O-]
REMARK SMILES IDX 9 1 10 2 11 3 12 4 13 5 14 6 15 7 16 8 17 9 18 10 8 11 7 12
REMARK SMILES IDX 6 13 5 14 4 15 3 16 2 17 1 18
REMARK H PARENT
REMARK Flexibility Score: inf
ROOT
ATOM      1  C   UNL     1      14.600 -32.871  23.510  1.00  0.00     0.000 C 
ENDROOT
BRANCH   1   2
ATOM      2  C   UNL     1      15.399 -33.804  22.588  1.00  0.00     0.000 C 
BRANCH   2   3
ATOM      3  C   UNL     1      14.995 -33.605  21.122  1.00  0.00     0.000 C 
BRANCH   3   4
ATOM      4  C   UNL     1      15.382 -34.826  20.274  1.00  0.00     0.000 C 
BRANCH   4   5
ATOM      5  C   UNL     1      16.695 -34.625  19.496  1.00  0.00     0.000 C 
BRANCH   5   6
ATOM      6  C   UNL     1      17.753 -35.727  19.704  1.00  0.00     0.006 C 
BRANCH   6   7
ATOM      7  C   UNL     1      17.582 -36.539  20.997  1.00  0.00     0.053 C 
BRANCH   7   8
ATOM      8  C   UNL     1      18.457 -36.027  22.099  1.00  0.00     0.041 C 
ATOM      9  O   UNL     1      19.633 -35.649  21.853  1.00  0.00    -0.550 OA
ATOM     10  O   UNL     1      17.985 -35.998  23.406  1.00  0.00    -0.550 OA
ENDBRANCH   7   8
ENDBRANCH   6   7
ENDBRANCH   5   6
ENDBRANCH   4   5
ENDBRANCH   3   4
ENDBRANCH   2   3
ENDBRANCH   1   2
BRANCH   1  11
ATOM     11  C   UNL     1      13.837 -31.783  22.737  1.00  0.00     0.000 C 
BRANCH  11  12
ATOM     12  C   UNL     1      14.177 -30.363  23.224  1.00  0.00    -0.000 C 
BRANCH  12  13
ATOM     13  C   UNL     1      15.690 -30.092  23.239  1.00  0.00    -0.000 C 
BRANCH  13  14
ATOM     14  C   UNL     1      16.235 -29.691  21.859  1.00  0.00    -0.000 C 
BRANCH  14  15
ATOM     15  C   UNL     1      17.718 -30.060  21.672  1.00  0.00    -0.000 C 
BRANCH  15  16
ATOM     16  C   UNL     1      17.940 -31.264  20.733  1.00  0.00    -0.000 C 
BRANCH  16  17
ATOM     17  C   UNL     1      18.771 -32.373  21.396  1.00  0.00    -0.003 C 
ATOM     18  C   UNL     1      18.740 -32.250  22.917  1.00  0.00     0.004 C 
ENDBRANCH  16  17
ENDBRANCH  15  16
ENDBRANCH  14  15
ENDBRANCH  13  14
ENDBRANCH  12  13
ENDBRANCH  11  12
ENDBRANCH   1  11
TORSDOF 14
ENDMDL
MODEL 9
REMARK VINA RESULT:    -4.256      3.449      5.342
REMARK INTER + INTRA:         -10.030
REMARK INTER:                  -7.712
REMARK INTRA:                  -2.318
REMARK UNBOUND:                -2.291
REMARK SMILES CCCCCCCCCCCCCCCC(=O)[O-]
REMARK SMILES IDX 9 1 10 2 11 3 12 4 13 5 14 6 15 7 16 8 17 9 18 10 8 11 7 12
REMARK SMILES IDX 6 13 5 14 4 15 3 16 2 17 1 18
REMARK H PARENT
REMARK Flexibility Score: inf
ROOT
ATOM      1  C   UNL     1      19.578 -32.213  22.397  1.00  0.00     0.000 C 
ENDROOT
BRANCH   1   2
ATOM      2  C   UNL     1      19.059 -33.579  22.871  1.00  0.00     0.000 C 
BRANCH   2   3
ATOM      3  C   UNL     1      18.024 -33.414  23.991  1.00  0.00     0.000 C 
BRANCH   3   4
ATOM      4  C   UNL     1      16.747 -34.209  23.682  1.00  0.00     0.000 C 
BRANCH   4   5
ATOM      5  C   UNL     1      16.711 -34.750  22.242  1.00  0.00     0.000 C 
BRANCH   5   6
ATOM      6  C   UNL     1      15.441 -34.395  21.442  1.00  0.00     0.006 C 
BRANCH   6   7
ATOM      7  C   UNL     1      15.626 -34.401  19.917  1.00  0.00     0.053 C 
BRANCH   7   8
ATOM      8  C   UNL     1      16.816 -35.208  19.500  1.00  0.00     0.041 C 
ATOM      9  O   UNL     1      17.879 -34.635  19.145  1.00  0.00    -0.550 OA
ATOM     10  O   UNL     1      16.740 -36.596  19.472  1.00  0.00    -0.550 OA
ENDBRANCH   7   8
ENDBRANCH   6   7
ENDBRANCH   5   6
ENDBRANCH   4   5
ENDBRANCH   3   4
ENDBRANCH   2   3
ENDBRANCH   1   2
BRANCH   1  11
ATOM     11  C   UNL     1      19.155 -31.885  20.956  1.00  0.00     0.000 C 
BRANCH  11  12
ATOM     12  C   UNL     1      17.712 -31.355  20.870  1.00  0.00    -0.000 C 
BRANCH  12  13
ATOM     13  C   UNL     1      17.469 -30.156  21.801  1.00  0.00    -0.000 C 
BRANCH  13  14
ATOM     14  C   UNL     1      16.062 -30.163  22.422  1.00  0.00    -0.000 C 
BRANCH  14  15
ATOM     15  C   UNL     1      15.005 -30.794  21.499  1.00  0.00    -0.000 C 
BRANCH  15  16
ATOM     16  C   UNL     1      13.582 -30.787  22.095  1.00  0.00    -0.000 C 
BRANCH  16  17
ATOM     17  C   UNL     1      13.595 -30.845  23.630  1.00  0.00    -0.003 C 
ATOM     18  C   UNL     1      13.738 -32.280  24.126  1.00  0.00     0.004 C 
ENDBRANCH  16  17
ENDBRANCH  15  16
ENDBRANCH  14  15
ENDBRANCH  13  14
ENDBRANCH  12  13
ENDBRANCH  11  12
ENDBRANCH   1  11
TORSDOF 14
ENDMDL
