MODEL 1
REMARK VINA RESULT:    17.216      0.000      0.000
REMARK INTER + INTRA:          38.222
REMARK INTER:                  39.359
REMARK INTRA:                  -1.137
REMARK UNBOUND:                -1.137
REMARK SMILES CCCCCCCCCCCCCCCCCCCCCCCC(=O)[O-]
REMARK SMILES IDX 13 1 14 2 15 3 16 4 17 5 18 6 19 7 20 8 21 9 22 10 23 11
REMARK SMILES IDX 24 12 25 13 26 14 12 15 11 16 10 17 9 18 8 19 7 20 6 21 5 22
REMARK SMILES IDX 4 23 3 24 2 25 1 26
REMARK H PARENT
REMARK Flexibility Score: inf
ROOT
ATOM      1  C   UNL     1       0.767   0.435  10.061  1.00  0.00     0.000 C 
ENDROOT
BRANCH   1   2
ATOM      2  C   UNL     1       0.280   1.525   9.088  1.00  0.00     0.000 C 
BRANCH   2   3
ATOM      3  C   UNL     1       1.182   2.778   9.054  1.00  0.00     0.000 C 
BRANCH   3   4
ATOM      4  C   UNL     1       2.299   2.730  10.110  1.00  0.00     0.000 C 
BRANCH   4   5
ATOM      5  C   UNL     1       3.326   3.868   9.923  1.00  0.00     0.000 C 
BRANCH   5   6
ATOM      6  C   UNL     1       4.540   3.767  10.864  1.00  0.00     0.000 C 
BRANCH   6   7
ATOM      7  C   UNL     1       4.462   4.747  12.045  1.00  0.00     0.000 C 
BRANCH   7   8
ATOM      8  C   UNL     1       3.540   5.944  11.759  1.00  0.00     0.000 C 
BRANCH   8   9
ATOM      9  C   UNL     1       3.021   6.612  13.045  1.00  0.00     0.000 C 
BRANCH   9  10
ATOM     10  C   UNL     1       2.997   5.645  14.247  1.00  0.00     0.006 C 
BRANCH  10  11
ATOM     11  C   UNL     1       3.248   6.334  15.599  1.00  0.00     0.053 C 
BRANCH  11  12
ATOM     12  C   UNL     1       4.560   7.055  15.636  1.00  0.00     0.041 C 
ATOM     13  O   UNL     1       5.632   6.411  15.778  1.00  0.00    -0.550 OA
ATOM     14  O   UNL     1       4.599   8.435  15.497  1.00  0.00    -0.550 OA
ENDBRANCH  11  12
ENDBRANCH  10  11
ENDBRANCH   9  10
ENDBRANCH   8   9
ENDBRANCH   7   8
ENDBRANCH   6   7
ENDBRANCH   5   6
ENDBRANCH   4   5
ENDBRANCH   3   4
ENDBRANCH   2   3
ENDBRANCH   1   2
BRANCH   1  15
ATOM     15  C   UNL     1       1.828  -0.522   9.485  1.00  0.00     0.000 C 
BRANCH  15  16
ATOM     16  C   UNL     1       2.060  -1.806  10.306  1.00  0.00     0.000 C 
BRANCH  16  17
ATOM     17  C   UNL     1       2.654  -2.992   9.518  1.00  0.00     0.000 C 
BRANCH  17  18
ATOM     18  C   UNL     1       3.000  -4.229  10.366  1.00  0.00    -0.000 C 
BRANCH  18  19
ATOM     19  C   UNL     1       1.922  -5.320  10.296  1.00  0.00    -0.000 C 
BRANCH  19  20
ATOM     20  C   UNL     1       1.856  -6.113  11.611  1.00  0.00    -0.000 C 
BRANCH  20  21
ATOM     21  C   UNL     1       1.383  -7.562  11.405  1.00  0.00    -0.000 C 
BRANCH  21  22
ATOM     22  C   UNL     1       2.453  -8.440  10.735  1.00  0.00    -0.000 C 
BRANCH  22  23
ATOM     23  C   UNL     1       3.882  -8.042  11.140  1.00  0.00    -0.000 C 
BRANCH  23  24
ATOM     24  C   UNL     1       4.216  -8.424  12.593  1.00  0.00    -0.000 C 
BRANCH  24  25
ATOM     25  C   UNL     1       5.390  -7.611  13.160  1.00  0.00    -0.003 C 
ATOM     26  C   UNL     1       6.184  -6.886  12.073  1.00  0.00     0.004 C 
ENDBRANCH  24  25
ENDBRANCH  23  24
ENDBRANCH  22  23
ENDBRANCH  21  22
ENDBRANCH  20  21
ENDBRANCH  19  20
ENDBRANCH  18  19
ENDBRANCH  17  18
ENDBRANCH  16  17
ENDBRANCH  15  16
ENDBRANCH   1  15
TORSDOF 22
ENDMDL
MODEL 2
REMARK VINA RESULT:    17.956      0.893      2.065
REMARK INTER + INTRA:          39.913
REMARK INTER:                  41.190
REMARK INTRA:                  -1.277
REMARK UNBOUND:                -1.137
REMARK SMILES CCCCCCCCCCCCCCCCCCCCCCCC(=O)[O-]
REMARK SMILES IDX 13 1 14 2 15 3 16 4 17 5 18 6 19 7 20 8 21 9 22 10 23 11
REMARK SMILES IDX 24 12 25 13 26 14 12 15 11 16 10 17 9 18 8 19 7 20 6 21 5 22
REMARK SMILES IDX 4 23 3 24 2 25 1 26
REMARK H PARENT
REMARK Flexibility Score: inf
ROOT
ATOM      1  C   UNL     1       2.119  -1.597  10.380  1.00  0.00     0.000 C 
ENDROOT
BRANCH   1   2
ATOM      2  C   UNL     1       1.975  -0.421   9.395  1.00  0.00     0.000 C 
BRANCH   2   3
ATOM      3  C   UNL     1       0.734   0.461   9.657  1.00  0.00     0.000 C 
BRANCH   3   4
ATOM      4  C   UNL     1       1.102   1.920   9.976  1.00  0.00     0.000 C 
BRANCH   4   5
ATOM      5  C   UNL     1       2.376   2.023  10.842  1.00  0.00     0.000 C 
BRANCH   5   6
ATOM      6  C   UNL     1       3.391   3.061  10.331  1.00  0.00     0.000 C 
BRANCH   6   7
ATOM      7  C   UNL     1       4.079   3.831  11.468  1.00  0.00     0.000 C 
BRANCH   7   8
ATOM      8  C   UNL     1       3.582   5.282  11.585  1.00  0.00     0.000 C 
BRANCH   8   9
ATOM      9  C   UNL     1       4.081   5.978  12.864  1.00  0.00     0.000 C 
BRANCH   9  10
ATOM     10  C   UNL     1       2.944   6.261  13.866  1.00  0.00     0.006 C 
BRANCH  10  11
ATOM     11  C   UNL     1       3.376   6.151  15.338  1.00  0.00     0.053 C 
BRANCH  11  12
ATOM     12  C   UNL     1       4.586   6.978  15.640  1.00  0.00     0.041 C 
ATOM     13  O   UNL     1       5.683   6.422  15.910  1.00  0.00    -0.550 OA
ATOM     14  O   UNL     1       4.508   8.364  15.606  1.00  0.00    -0.550 OA
ENDBRANCH  11  12
ENDBRANCH  10  11
ENDBRANCH   9  10
ENDBRANCH   8   9
ENDBRANCH   7   8
ENDBRANCH   6   7
ENDBRANCH   5   6
ENDBRANCH   4   5
ENDBRANCH   3   4
ENDBRANCH   2   3
ENDBRANCH   1   2
BRANCH   1  15
ATOM     15  C   UNL     1       2.859  -2.826   9.817  1.00  0.00     0.000 C 
BRANCH  15  16
ATOM     16  C   UNL     1       1.987  -4.087   9.647  1.00  0.00     0.000 C 
BRANCH  16  17
ATOM     17  C   UNL     1       2.354  -5.268  10.569  1.00  0.00     0.000 C 
BRANCH  17  18
ATOM     18  C   UNL     1       1.221  -6.283  10.808  1.00  0.00    -0.000 C 
BRANCH  18  19
ATOM     19  C   UNL     1       1.700  -7.553  11.526  1.00  0.00    -0.000 C 
BRANCH  19  20
ATOM     20  C   UNL     1       2.567  -8.416  10.595  1.00  0.00    -0.000 C 
BRANCH  20  21
ATOM     21  C   UNL     1       4.050  -8.417  11.003  1.00  0.00    -0.000 C 
BRANCH  21  22
ATOM     22  C   UNL     1       4.243  -8.251  12.520  1.00  0.00    -0.000 C 
BRANCH  22  23
ATOM     23  C   UNL     1       4.946  -6.933  12.883  1.00  0.00    -0.000 C 
BRANCH  23  24
ATOM     24  C   UNL     1       6.243  -6.710  12.085  1.00  0.00    -0.000 C 
BRANCH  24  25
ATOM     25  C   UNL     1       7.499  -6.804  12.966  1.00  0.00    -0.003 C 
ATOM     26  C   UNL     1       7.433  -5.885  14.186  1.00  0.00     0.004 C 
ENDBRANCH  24  25
ENDBRANCH  23  24
ENDBRANCH  22  23
ENDBRANCH  21  22
ENDBRANCH  20  21
ENDBRANCH  19  20
ENDBRANCH  18  19
ENDBRANCH  17  18
ENDBRANCH  16  17
ENDBRANCH  15  16
ENDBRANCH   1  15
TORSDOF 22
ENDMDL
MODEL 3
REMARK VINA RESULT:    18.405      3.116      4.109
REMARK INTER + INTRA:          40.938
REMARK INTER:                  41.832
REMARK INTRA:                  -0.894
REMARK UNBOUND:                -1.137
REMARK SMILES CCCCCCCCCCCCCCCCCCCCCCCC(=O)[O-]
REMARK SMILES IDX 13 1 14 2 15 3 16 4 17 5 18 6 19 7 20 8 21 9 22 10 23 11
REMARK SMILES IDX 24 12 25 13 26 14 12 15 11 16 10 17 9 18 8 19 7 20 6 21 5 22
REMARK SMILES IDX 4 23 3 24 2 25 1 26
REMARK H PARENT
REMARK Flexibility Score: inf
ROOT
ATOM      1  C   UNL     1       1.440  -1.549  10.132  1.00  0.00     0.000 C 
ENDROOT
BRANCH   1   2
ATOM      2  C   UNL     1       1.519  -0.104   9.603  1.00  0.00     0.000 C 
BRANCH   2   3
ATOM      3  C   UNL     1       0.324   0.778  10.024  1.00  0.00     0.000 C 
BRANCH   3   4
ATOM      4  C   UNL     1      -0.031   1.837   8.966  1.00  0.00     0.000 C 
BRANCH   4   5
ATOM      5  C   UNL     1       0.941   3.036   8.994  1.00  0.00     0.000 C 
BRANCH   5   6
ATOM      6  C   UNL     1       2.265   2.743   9.723  1.00  0.00     0.000 C 
BRANCH   6   7
ATOM      7  C   UNL     1       3.270   3.900   9.619  1.00  0.00     0.000 C 
BRANCH   7   8
ATOM      8  C   UNL     1       3.998   4.172  10.946  1.00  0.00     0.000 C 
BRANCH   8   9
ATOM      9  C   UNL     1       5.482   3.767  10.901  1.00  0.00     0.000 C 
BRANCH   9  10
ATOM     10  C   UNL     1       5.723   2.340  11.437  1.00  0.00     0.006 C 
BRANCH  10  11
ATOM     11  C   UNL     1       7.067   1.735  10.999  1.00  0.00     0.053 C 
BRANCH  11  12
ATOM     12  C   UNL     1       7.090   0.244  11.130  1.00  0.00     0.041 C 
ATOM     13  O   UNL     1       8.063  -0.416  10.678  1.00  0.00    -0.550 OA
ATOM     14  O   UNL     1       6.047  -0.415  11.765  1.00  0.00    -0.550 OA
ENDBRANCH  11  12
ENDBRANCH  10  11
ENDBRANCH   9  10
ENDBRANCH   8   9
ENDBRANCH   7   8
ENDBRANCH   6   7
ENDBRANCH   5   6
ENDBRANCH   4   5
ENDBRANCH   3   4
ENDBRANCH   2   3
ENDBRANCH   1   2
BRANCH   1  15
ATOM     15  C   UNL     1       2.729  -2.375   9.957  1.00  0.00     0.000 C 
BRANCH  15  16
ATOM     16  C   UNL     1       2.513  -3.819   9.461  1.00  0.00     0.000 C 
BRANCH  16  17
ATOM     17  C   UNL     1       2.513  -4.899  10.562  1.00  0.00     0.000 C 
BRANCH  17  18
ATOM     18  C   UNL     1       1.466  -6.013  10.380  1.00  0.00    -0.000 C 
BRANCH  18  19
ATOM     19  C   UNL     1       1.032  -6.646  11.710  1.00  0.00    -0.000 C 
BRANCH  19  20
ATOM     20  C   UNL     1       1.450  -8.123  11.779  1.00  0.00    -0.000 C 
BRANCH  20  21
ATOM     21  C   UNL     1       2.339  -8.541  10.596  1.00  0.00    -0.000 C 
BRANCH  21  22
ATOM     22  C   UNL     1       3.838  -8.378  10.902  1.00  0.00    -0.000 C 
BRANCH  22  23
ATOM     23  C   UNL     1       4.125  -8.275  12.409  1.00  0.00    -0.000 C 
BRANCH  23  24
ATOM     24  C   UNL     1       4.854  -6.973  12.788  1.00  0.00    -0.000 C 
BRANCH  24  25
ATOM     25  C   UNL     1       6.224  -6.846  12.101  1.00  0.00    -0.003 C 
ATOM     26  C   UNL     1       7.383  -6.825  13.098  1.00  0.00     0.004 C 
ENDBRANCH  24  25
ENDBRANCH  23  24
ENDBRANCH  22  23
ENDBRANCH  21  22
ENDBRANCH  20  21
ENDBRANCH  19  20
ENDBRANCH  18  19
ENDBRANCH  17  18
ENDBRANCH  16  17
ENDBRANCH  15  16
ENDBRANCH   1  15
TORSDOF 22
ENDMDL
MODEL 4
REMARK VINA RESULT:    18.707      3.977     11.595
REMARK INTER + INTRA:          41.629
REMARK INTER:                  42.398
REMARK INTRA:                  -0.768
REMARK UNBOUND:                -1.137
REMARK SMILES CCCCCCCCCCCCCCCCCCCCCCCC(=O)[O-]
REMARK SMILES IDX 13 1 14 2 15 3 16 4 17 5 18 6 19 7 20 8 21 9 22 10 23 11
REMARK SMILES IDX 24 12 25 13 26 14 12 15 11 16 10 17 9 18 8 19 7 20 6 21 5 22
REMARK SMILES IDX 4 23 3 24 2 25 1 26
REMARK H PARENT
REMARK Flexibility Score: inf
ROOT
ATOM      1  C   UNL     1       1.549  -0.302  10.185  1.00  0.00     0.000 C 
ENDROOT
BRANCH   1   2
ATOM      2  C   UNL     1       2.128  -1.434   9.315  1.00  0.00     0.000 C 
BRANCH   2   3
ATOM      3  C   UNL     1       2.651  -2.638  10.129  1.00  0.00     0.000 C 
BRANCH   3   4
ATOM      4  C   UNL     1       1.945  -3.954   9.758  1.00  0.00     0.000 C 
BRANCH   4   5
ATOM      5  C   UNL     1       2.681  -5.188  10.324  1.00  0.00     0.000 C 
BRANCH   5   6
ATOM      6  C   UNL     1       2.043  -5.755  11.605  1.00  0.00     0.000 C 
BRANCH   6   7
ATOM      7  C   UNL     1       1.654  -7.235  11.472  1.00  0.00     0.000 C 
BRANCH   7   8
ATOM      8  C   UNL     1       2.548  -7.994  10.477  1.00  0.00     0.000 C 
BRANCH   8   9
ATOM      9  C   UNL     1       3.882  -8.441  11.102  1.00  0.00     0.000 C 
BRANCH   9  10
ATOM     10  C   UNL     1       3.900  -8.280  12.637  1.00  0.00     0.006 C 
BRANCH  10  11
ATOM     11  C   UNL     1       5.304  -8.029  13.214  1.00  0.00     0.053 C 
BRANCH  11  12
ATOM     12  C   UNL     1       6.071  -7.014  12.426  1.00  0.00     0.041 C 
ATOM     13  O   UNL     1       5.462  -6.160  11.731  1.00  0.00    -0.550 OA
ATOM     14  O   UNL     1       7.459  -7.002  12.474  1.00  0.00    -0.550 OA
ENDBRANCH  11  12
ENDBRANCH  10  11
ENDBRANCH   9  10
ENDBRANCH   8   9
ENDBRANCH   7   8
ENDBRANCH   6   7
ENDBRANCH   5   6
ENDBRANCH   4   5
ENDBRANCH   3   4
ENDBRANCH   2   3
ENDBRANCH   1   2
BRANCH   1  15
ATOM     15  C   UNL     1       0.689   0.725   9.424  1.00  0.00     0.000 C 
BRANCH  15  16
ATOM     16  C   UNL     1       1.259   2.157   9.396  1.00  0.00     0.000 C 
BRANCH  16  17
ATOM     17  C   UNL     1       2.438   2.413  10.357  1.00  0.00     0.000 C 
BRANCH  17  18
ATOM     18  C   UNL     1       3.363   3.577   9.956  1.00  0.00    -0.000 C 
BRANCH  18  19
ATOM     19  C   UNL     1       4.590   3.705  10.870  1.00  0.00    -0.000 C 
BRANCH  19  20
ATOM     20  C   UNL     1       4.319   4.689  12.020  1.00  0.00    -0.000 C 
BRANCH  20  21
ATOM     21  C   UNL     1       3.657   5.991  11.539  1.00  0.00    -0.000 C 
BRANCH  21  22
ATOM     22  C   UNL     1       2.827   6.671  12.642  1.00  0.00    -0.000 C 
BRANCH  22  23
ATOM     23  C   UNL     1       2.763   5.835  13.931  1.00  0.00    -0.000 C 
BRANCH  23  24
ATOM     24  C   UNL     1       2.738   6.703  15.202  1.00  0.00    -0.000 C 
BRANCH  24  25
ATOM     25  C   UNL     1       3.910   6.393  16.147  1.00  0.00    -0.003 C 
ATOM     26  C   UNL     1       5.263   6.793  15.560  1.00  0.00     0.004 C 
ENDBRANCH  24  25
ENDBRANCH  23  24
ENDBRANCH  22  23
ENDBRANCH  21  22
ENDBRANCH  20  21
ENDBRANCH  19  20
ENDBRANCH  18  19
ENDBRANCH  17  18
ENDBRANCH  16  17
ENDBRANCH  15  16
ENDBRANCH   1  15
TORSDOF 22
ENDMDL
MODEL 5
REMARK VINA RESULT:    18.814      3.795     11.548
REMARK INTER + INTRA:          41.873
REMARK INTER:                  43.059
REMARK INTRA:                  -1.185
REMARK UNBOUND:                -1.137
REMARK SMILES CCCCCCCCCCCCCCCCCCCCCCCC(=O)[O-]
REMARK SMILES IDX 13 1 14 2 15 3 16 4 17 5 18 6 19 7 20 8 21 9 22 10 23 11
REMARK SMILES IDX 24 12 25 13 26 14 12 15 11 16 10 17 9 18 8 19 7 20 6 21 5 22
REMARK SMILES IDX 4 23 3 24 2 25 1 26
REMARK H PARENT
REMARK Flexibility Score: inf
ROOT
ATOM      1  C   UNL     1       2.762  -3.000  10.023  1.00  0.00     0.000 C 
ENDROOT
BRANCH   1   2
ATOM      2  C   UNL     1       2.384  -4.408   9.525  1.00  0.00     0.000 C 
BRANCH   2   3
ATOM      3  C   UNL     1       2.039  -5.396  10.660  1.00  0.00     0.000 C 
BRANCH   3   4
ATOM      4  C   UNL     1       0.859  -6.317  10.305  1.00  0.00     0.000 C 
BRANCH   4   5
ATOM      5  C   UNL     1       0.509  -7.285  11.456  1.00  0.00     0.000 C 
BRANCH   5   6
ATOM      6  C   UNL     1       1.676  -8.196  11.875  1.00  0.00     0.000 C 
BRANCH   6   7
ATOM      7  C   UNL     1       2.557  -8.619  10.690  1.00  0.00     0.000 C 
BRANCH   7   8
ATOM      8  C   UNL     1       4.053  -8.372  10.947  1.00  0.00     0.000 C 
BRANCH   8   9
ATOM      9  C   UNL     1       4.345  -7.973  12.405  1.00  0.00     0.000 C 
BRANCH   9  10
ATOM     10  C   UNL     1       5.155  -6.664  12.510  1.00  0.00     0.006 C 
BRANCH  10  11
ATOM     11  C   UNL     1       6.662  -6.851  12.268  1.00  0.00     0.053 C 
BRANCH  11  12
ATOM     12  C   UNL     1       7.476  -6.564  13.491  1.00  0.00     0.041 C 
ATOM     13  O   UNL     1       7.061  -5.741  14.349  1.00  0.00    -0.550 OA
ATOM     14  O   UNL     1       8.683  -7.219  13.692  1.00  0.00    -0.550 OA
ENDBRANCH  11  12
ENDBRANCH  10  11
ENDBRANCH   9  10
ENDBRANCH   8   9
ENDBRANCH   7   8
ENDBRANCH   6   7
ENDBRANCH   5   6
ENDBRANCH   4   5
ENDBRANCH   3   4
ENDBRANCH   2   3
ENDBRANCH   1   2
BRANCH   1  15
ATOM     15  C   UNL     1       1.680  -1.925   9.809  1.00  0.00     0.000 C 
BRANCH  15  16
ATOM     16  C   UNL     1       2.086  -0.500  10.237  1.00  0.00     0.000 C 
BRANCH  16  17
ATOM     17  C   UNL     1       1.040   0.596   9.945  1.00  0.00     0.000 C 
BRANCH  17  18
ATOM     18  C   UNL     1       1.612   2.018   9.797  1.00  0.00    -0.000 C 
BRANCH  18  19
ATOM     19  C   UNL     1       2.636   2.366  10.887  1.00  0.00    -0.000 C 
BRANCH  19  20
ATOM     20  C   UNL     1       3.514   3.553  10.459  1.00  0.00    -0.000 C 
BRANCH  20  21
ATOM     21  C   UNL     1       4.214   4.230  11.649  1.00  0.00    -0.000 C 
BRANCH  21  22
ATOM     22  C   UNL     1       4.014   5.755  11.658  1.00  0.00    -0.000 C 
BRANCH  22  23
ATOM     23  C   UNL     1       3.071   6.219  12.781  1.00  0.00    -0.000 C 
BRANCH  23  24
ATOM     24  C   UNL     1       3.442   5.627  14.152  1.00  0.00    -0.000 C 
BRANCH  24  25
ATOM     25  C   UNL     1       3.526   6.698  15.251  1.00  0.00    -0.003 C 
ATOM     26  C   UNL     1       4.943   6.872  15.797  1.00  0.00     0.004 C 
ENDBRANCH  24  25
ENDBRANCH  23  24
ENDBRANCH  22  23
ENDBRANCH  21  22
ENDBRANCH  20  21
ENDBRANCH  19  20
ENDBRANCH  18  19
ENDBRANCH  17  18
ENDBRANCH  16  17
ENDBRANCH  15  16
ENDBRANCH   1  15
TORSDOF 22
ENDMDL
MODEL 6
REMARK VINA RESULT:    18.899      4.122     11.661
REMARK INTER + INTRA:          42.070
REMARK INTER:                  42.759
REMARK INTRA:                  -0.689
REMARK UNBOUND:                -1.137
REMARK SMILES CCCCCCCCCCCCCCCCCCCCCCCC(=O)[O-]
REMARK SMILES IDX 13 1 14 2 15 3 16 4 17 5 18 6 19 7 20 8 21 9 22 10 23 11
REMARK SMILES IDX 24 12 25 13 26 14 12 15 11 16 10 17 9 18 8 19 7 20 6 21 5 22
REMARK SMILES IDX 4 23 3 24 2 25 1 26
REMARK H PARENT
REMARK Flexibility Score: inf
ROOT
ATOM      1  C   UNL     1       1.544  -2.059  10.116  1.00  0.00     0.000 C 
ENDROOT
BRANCH   1   2
ATOM      2  C   UNL     1       2.688  -3.016   9.732  1.00  0.00     0.000 C 
BRANCH   2   3
ATOM      3  C   UNL     1       2.460  -4.473  10.191  1.00  0.00     0.000 C 
BRANCH   3   4
ATOM      4  C   UNL     1       1.520  -5.248   9.252  1.00  0.00     0.000 C 
BRANCH   4   5
ATOM      5  C   UNL     1       0.182  -5.606   9.935  1.00  0.00     0.000 C 
BRANCH   5   6
ATOM      6  C   UNL     1      -0.363  -6.991   9.542  1.00  0.00     0.000 C 
BRANCH   6   7
ATOM      7  C   UNL     1      -0.112  -8.056  10.621  1.00  0.00     0.000 C 
BRANCH   7   8
ATOM      8  C   UNL     1       0.417  -7.455  11.934  1.00  0.00     0.000 C 
BRANCH   8   9
ATOM      9  C   UNL     1       1.951  -7.518  12.037  1.00  0.00     0.000 C 
BRANCH   9  10
ATOM     10  C   UNL     1       2.594  -8.274  10.856  1.00  0.00     0.006 C 
BRANCH  10  11
ATOM     11  C   UNL     1       4.127  -8.366  10.944  1.00  0.00     0.053 C 
BRANCH  11  12
ATOM     12  C   UNL     1       4.649  -7.927  12.276  1.00  0.00     0.041 C 
ATOM     13  O   UNL     1       4.392  -8.598  13.310  1.00  0.00    -0.550 OA
ATOM     14  O   UNL     1       5.433  -6.786  12.374  1.00  0.00    -0.550 OA
ENDBRANCH  11  12
ENDBRANCH  10  11
ENDBRANCH   9  10
ENDBRANCH   8   9
ENDBRANCH   7   8
ENDBRANCH   6   7
ENDBRANCH   5   6
ENDBRANCH   4   5
ENDBRANCH   3   4
ENDBRANCH   2   3
ENDBRANCH   1   2
BRANCH   1  15
ATOM     15  C   UNL     1       1.767  -0.588   9.716  1.00  0.00     0.000 C 
BRANCH  15  16
ATOM     16  C   UNL     1       0.641   0.378  10.137  1.00  0.00     0.000 C 
BRANCH  16  17
ATOM     17  C   UNL     1       0.216   1.399   9.062  1.00  0.00     0.000 C 
BRANCH  17  18
ATOM     18  C   UNL     1       1.112   2.646   8.958  1.00  0.00    -0.000 C 
BRANCH  18  19
ATOM     19  C   UNL     1       2.193   2.697  10.047  1.00  0.00    -0.000 C 
BRANCH  19  20
ATOM     20  C   UNL     1       3.185   3.841   9.785  1.00  0.00    -0.000 C 
BRANCH  20  21
ATOM     21  C   UNL     1       4.191   4.025  10.933  1.00  0.00    -0.000 C 
BRANCH  21  22
ATOM     22  C   UNL     1       3.979   5.345  11.694  1.00  0.00    -0.000 C 
BRANCH  22  23
ATOM     23  C   UNL     1       3.842   5.135  13.211  1.00  0.00    -0.000 C 
BRANCH  23  24
ATOM     24  C   UNL     1       3.241   6.357  13.929  1.00  0.00    -0.000 C 
BRANCH  24  25
ATOM     25  C   UNL     1       3.541   6.360  15.436  1.00  0.00    -0.003 C 
ATOM     26  C   UNL     1       4.748   7.228  15.795  1.00  0.00     0.004 C 
ENDBRANCH  24  25
ENDBRANCH  23  24
ENDBRANCH  22  23
ENDBRANCH  21  22
ENDBRANCH  20  21
ENDBRANCH  19  20
ENDBRANCH  18  19
ENDBRANCH  17  18
ENDBRANCH  16  17
ENDBRANCH  15  16
ENDBRANCH   1  15
TORSDOF 22
ENDMDL
MODEL 7
REMARK VINA RESULT:    18.961      3.979     11.508
REMARK INTER + INTRA:          42.210
REMARK INTER:                  42.930
REMARK INTRA:                  -0.720
REMARK UNBOUND:                -1.137
REMARK SMILES CCCCCCCCCCCCCCCCCCCCCCCC(=O)[O-]
REMARK SMILES IDX 13 1 14 2 15 3 16 4 17 5 18 6 19 7 20 8 21 9 22 10 23 11
REMARK SMILES IDX 24 12 25 13 26 14 12 15 11 16 10 17 9 18 8 19 7 20 6 21 5 22
REMARK SMILES IDX 4 23 3 24 2 25 1 26
REMARK H PARENT
REMARK Flexibility Score: inf
ROOT
ATOM      1  C   UNL     1       0.107   1.325   9.325  1.00  0.00     0.000 C 
ENDROOT
BRANCH   1   2
ATOM      2  C   UNL     1       1.032   0.485  10.227  1.00  0.00     0.000 C 
BRANCH   2   3
ATOM      3  C   UNL     1       1.741  -0.670   9.486  1.00  0.00     0.000 C 
BRANCH   3   4
ATOM      4  C   UNL     1       2.002  -1.884  10.395  1.00  0.00     0.000 C 
BRANCH   4   5
ATOM      5  C   UNL     1       2.771  -3.004   9.662  1.00  0.00     0.000 C 
BRANCH   5   6
ATOM      6  C   UNL     1       2.010  -4.341   9.605  1.00  0.00     0.000 C 
BRANCH   6   7
ATOM      7  C   UNL     1       2.415  -5.305  10.731  1.00  0.00     0.000 C 
BRANCH   7   8
ATOM      8  C   UNL     1       1.511  -6.547  10.799  1.00  0.00     0.000 C 
BRANCH   8   9
ATOM      9  C   UNL     1       2.073  -7.638  11.729  1.00  0.00     0.000 C 
BRANCH   9  10
ATOM     10  C   UNL     1       3.527  -8.020  11.383  1.00  0.00     0.006 C 
BRANCH  10  11
ATOM     11  C   UNL     1       4.480  -7.977  12.589  1.00  0.00     0.053 C 
BRANCH  11  12
ATOM     12  C   UNL     1       5.631  -7.046  12.373  1.00  0.00     0.041 C 
ATOM     13  O   UNL     1       5.506  -6.049  11.614  1.00  0.00    -0.550 OA
ATOM     14  O   UNL     1       6.837  -7.268  13.024  1.00  0.00    -0.550 OA
ENDBRANCH  11  12
ENDBRANCH  10  11
ENDBRANCH   9  10
ENDBRANCH   8   9
ENDBRANCH   7   8
ENDBRANCH   6   7
ENDBRANCH   5   6
ENDBRANCH   4   5
ENDBRANCH   3   4
ENDBRANCH   2   3
ENDBRANCH   1   2
BRANCH   1  15
ATOM     15  C   UNL     1       0.702   2.667   8.859  1.00  0.00     0.000 C 
BRANCH  15  16
ATOM     16  C   UNL     1       2.240   2.753   8.921  1.00  0.00     0.000 C 
BRANCH  16  17
ATOM     17  C   UNL     1       2.799   3.909   9.776  1.00  0.00     0.000 C 
BRANCH  17  18
ATOM     18  C   UNL     1       4.189   3.653  10.387  1.00  0.00    -0.000 C 
BRANCH  18  19
ATOM     19  C   UNL     1       4.543   4.647  11.502  1.00  0.00    -0.000 C 
BRANCH  19  20
ATOM     20  C   UNL     1       3.359   5.579  11.804  1.00  0.00    -0.000 C 
BRANCH  20  21
ATOM     21  C   UNL     1       2.809   5.394  13.228  1.00  0.00    -0.000 C 
BRANCH  21  22
ATOM     22  C   UNL     1       2.959   6.663  14.085  1.00  0.00    -0.000 C 
BRANCH  22  23
ATOM     23  C   UNL     1       3.345   6.349  15.540  1.00  0.00    -0.000 C 
BRANCH  23  24
ATOM     24  C   UNL     1       4.867   6.245  15.743  1.00  0.00    -0.000 C 
BRANCH  24  25
ATOM     25  C   UNL     1       5.511   7.602  16.067  1.00  0.00    -0.003 C 
ATOM     26  C   UNL     1       4.627   8.784  15.667  1.00  0.00     0.004 C 
ENDBRANCH  24  25
ENDBRANCH  23  24
ENDBRANCH  22  23
ENDBRANCH  21  22
ENDBRANCH  20  21
ENDBRANCH  19  20
ENDBRANCH  18  19
ENDBRANCH  17  18
ENDBRANCH  16  17
ENDBRANCH  15  16
ENDBRANCH   1  15
TORSDOF 22
ENDMDL
