MODEL 1
REMARK VINA RESULT:    -5.140      0.000      0.000
REMARK INTER + INTRA:         -14.143
REMARK INTER:                 -11.149
REMARK INTRA:                  -2.994
REMARK UNBOUND:                -2.994
REMARK SMILES CCCCCCCCCCCCCCCCCCCCCC(=O)[O-]
REMARK SMILES IDX 12 1 11 2 10 3 9 4 8 5 7 6 6 7 5 8 4 9 3 10 2 11 1 12 13 13
REMARK SMILES IDX 14 14 15 15 16 16 17 17 18 18 19 19 20 20 21 21 22 22 23 23
REMARK SMILES IDX 24 24
REMARK H PARENT
REMARK Flexibility Score: inf
ROOT
ATOM      1  C   UNL     1      49.415  53.262  25.284  1.00  0.00     0.000 C 
ENDROOT
BRANCH   1   2
ATOM      2  C   UNL     1      49.714  52.210  24.200  1.00  0.00     0.000 C 
BRANCH   2   3
ATOM      3  C   UNL     1      49.662  52.730  22.748  1.00  0.00     0.000 C 
BRANCH   3   4
ATOM      4  C   UNL     1      49.375  51.660  21.677  1.00  0.00    -0.000 C 
BRANCH   4   5
ATOM      5  C   UNL     1      50.551  51.454  20.709  1.00  0.00    -0.000 C 
BRANCH   5   6
ATOM      6  C   UNL     1      51.907  51.817  21.337  1.00  0.00    -0.000 C 
BRANCH   6   7
ATOM      7  C   UNL     1      52.561  53.040  20.676  1.00  0.00    -0.000 C 
BRANCH   7   8
ATOM      8  C   UNL     1      52.051  54.346  21.308  1.00  0.00    -0.000 C 
BRANCH   8   9
ATOM      9  C   UNL     1      52.977  54.854  22.434  1.00  0.00    -0.000 C 
BRANCH   9  10
ATOM     10  C   UNL     1      52.529  54.427  23.846  1.00  0.00    -0.000 C 
BRANCH  10  11
ATOM     11  C   UNL     1      53.372  53.309  24.480  1.00  0.00    -0.003 C 
ATOM     12  C   UNL     1      54.534  52.864  23.591  1.00  0.00     0.004 C 
ENDBRANCH  10  11
ENDBRANCH   9  10
ENDBRANCH   8   9
ENDBRANCH   7   8
ENDBRANCH   6   7
ENDBRANCH   5   6
ENDBRANCH   4   5
ENDBRANCH   3   4
ENDBRANCH   2   3
ENDBRANCH   1   2
BRANCH   1  13
ATOM     13  C   UNL     1      48.303  52.875  26.278  1.00  0.00     0.000 C 
BRANCH  13  14
ATOM     14  C   UNL     1      46.984  53.653  26.075  1.00  0.00     0.000 C 
BRANCH  14  15
ATOM     15  C   UNL     1      45.875  52.787  25.450  1.00  0.00     0.000 C 
BRANCH  15  16
ATOM     16  C   UNL     1      46.075  52.561  23.944  1.00  0.00     0.000 C 
BRANCH  16  17
ATOM     17  C   UNL     1      46.400  51.097  23.600  1.00  0.00     0.000 C 
BRANCH  17  18
ATOM     18  C   UNL     1      46.240  50.165  24.813  1.00  0.00     0.000 C 
BRANCH  18  19
ATOM     19  C   UNL     1      47.567  49.490  25.205  1.00  0.00     0.000 C 
BRANCH  19  20
ATOM     20  C   UNL     1      48.338  48.941  23.991  1.00  0.00     0.006 C 
BRANCH  20  21
ATOM     21  C   UNL     1      49.231  47.727  24.301  1.00  0.00     0.053 C 
BRANCH  21  22
ATOM     22  C   UNL     1      50.580  47.843  23.660  1.00  0.00     0.041 C 
ATOM     23  O   UNL     1      51.513  47.070  24.006  1.00  0.00    -0.550 OA
ATOM     24  O   UNL     1      50.794  48.766  22.647  1.00  0.00    -0.550 OA
ENDBRANCH  21  22
ENDBRANCH  20  21
ENDBRANCH  19  20
ENDBRANCH  18  19
ENDBRANCH  17  18
ENDBRANCH  16  17
ENDBRANCH  15  16
ENDBRANCH  14  15
ENDBRANCH  13  14
ENDBRANCH   1  13
TORSDOF 20
ENDMDL
MODEL 2
REMARK VINA RESULT:    -5.137      1.258      2.852
REMARK INTER + INTRA:         -14.138
REMARK INTER:                 -11.536
REMARK INTRA:                  -2.602
REMARK UNBOUND:                -2.994
REMARK SMILES CCCCCCCCCCCCCCCCCCCCCC(=O)[O-]
REMARK SMILES IDX 12 1 11 2 10 3 9 4 8 5 7 6 6 7 5 8 4 9 3 10 2 11 1 12 13 13
REMARK SMILES IDX 14 14 15 15 16 16 17 17 18 18 19 19 20 20 21 21 22 22 23 23
REMARK SMILES IDX 24 24
REMARK H PARENT
REMARK Flexibility Score: inf
ROOT
ATOM      1  C   UNL     1      48.863  53.247  26.602  1.00  0.00     0.000 C 
ENDROOT
BRANCH   1   2
ATOM      2  C   UNL     1      49.449  52.645  25.312  1.00  0.00     0.000 C 
BRANCH   2   3
ATOM      3  C   UNL     1      50.258  53.627  24.438  1.00  0.00     0.000 C 
BRANCH   3   4
ATOM      4  C   UNL     1      51.431  54.327  25.150  1.00  0.00    -0.000 C 
BRANCH   4   5
ATOM      5  C   UNL     1      52.675  54.466  24.258  1.00  0.00    -0.000 C 
BRANCH   5   6
ATOM      6  C   UNL     1      53.440  53.142  24.096  1.00  0.00    -0.000 C 
BRANCH   6   7
ATOM      7  C   UNL     1      53.929  52.908  22.659  1.00  0.00    -0.000 C 
BRANCH   7   8
ATOM      8  C   UNL     1      52.837  52.244  21.805  1.00  0.00    -0.000 C 
BRANCH   8   9
ATOM      9  C   UNL     1      52.327  53.170  20.680  1.00  0.00    -0.000 C 
BRANCH   9  10
ATOM     10  C   UNL     1      51.834  54.542  21.180  1.00  0.00    -0.000 C 
BRANCH  10  11
ATOM     11  C   UNL     1      52.449  55.751  20.460  1.00  0.00    -0.003 C 
ATOM     12  C   UNL     1      52.930  56.836  21.425  1.00  0.00     0.004 C 
ENDBRANCH  10  11
ENDBRANCH   9  10
ENDBRANCH   8   9
ENDBRANCH   7   8
ENDBRANCH   6   7
ENDBRANCH   5   6
ENDBRANCH   4   5
ENDBRANCH   3   4
ENDBRANCH   2   3
ENDBRANCH   1   2
BRANCH   1  13
ATOM     13  C   UNL     1      47.324  53.223  26.690  1.00  0.00     0.000 C 
BRANCH  13  14
ATOM     14  C   UNL     1      46.621  53.126  25.319  1.00  0.00     0.000 C 
BRANCH  14  15
ATOM     15  C   UNL     1      45.960  51.755  25.088  1.00  0.00     0.000 C 
BRANCH  15  16
ATOM     16  C   UNL     1      46.019  51.307  23.620  1.00  0.00     0.000 C 
BRANCH  16  17
ATOM     17  C   UNL     1      47.387  50.723  23.230  1.00  0.00     0.000 C 
BRANCH  17  18
ATOM     18  C   UNL     1      48.175  51.660  22.299  1.00  0.00     0.000 C 
BRANCH  18  19
ATOM     19  C   UNL     1      49.479  51.015  21.793  1.00  0.00     0.000 C 
BRANCH  19  20
ATOM     20  C   UNL     1      50.228  50.242  22.895  1.00  0.00     0.006 C 
BRANCH  20  21
ATOM     21  C   UNL     1      50.552  48.781  22.539  1.00  0.00     0.053 C 
BRANCH  21  22
ATOM     22  C   UNL     1      50.495  47.884  23.736  1.00  0.00     0.041 C 
ATOM     23  O   UNL     1      51.534  47.295  24.136  1.00  0.00    -0.550 OA
ATOM     24  O   UNL     1      49.309  47.738  24.442  1.00  0.00    -0.550 OA
ENDBRANCH  21  22
ENDBRANCH  20  21
ENDBRANCH  19  20
ENDBRANCH  18  19
ENDBRANCH  17  18
ENDBRANCH  16  17
ENDBRANCH  15  16
ENDBRANCH  14  15
ENDBRANCH  13  14
ENDBRANCH   1  13
TORSDOF 20
ENDMDL
MODEL 3
REMARK VINA RESULT:    -4.909      1.907      4.321
REMARK INTER + INTRA:         -13.642
REMARK INTER:                 -11.240
REMARK INTRA:                  -2.402
REMARK UNBOUND:                -2.994
REMARK SMILES CCCCCCCCCCCCCCCCCCCCCC(=O)[O-]
REMARK SMILES IDX 12 1 11 2 10 3 9 4 8 5 7 6 6 7 5 8 4 9 3 10 2 11 1 12 13 13
REMARK SMILES IDX 14 14 15 15 16 16 17 17 18 18 19 19 20 20 21 21 22 22 23 23
REMARK SMILES IDX 24 24
REMARK H PARENT
REMARK Flexibility Score: inf
ROOT
ATOM      1  C   UNL     1      47.541  49.998  24.365  1.00  0.00     0.000 C 
ENDROOT
BRANCH   1   2
ATOM      2  C   UNL     1      47.822  48.494  24.539  1.00  0.00     0.000 C 
BRANCH   2   3
ATOM      3  C   UNL     1      49.253  48.046  24.174  1.00  0.00     0.000 C 
BRANCH   3   4
ATOM      4  C   UNL     1      50.189  49.169  23.691  1.00  0.00    -0.000 C 
BRANCH   4   5
ATOM      5  C   UNL     1      50.244  49.283  22.158  1.00  0.00    -0.000 C 
BRANCH   5   6
ATOM      6  C   UNL     1      49.932  50.704  21.658  1.00  0.00    -0.000 C 
BRANCH   6   7
ATOM      7  C   UNL     1      50.896  51.172  20.557  1.00  0.00    -0.000 C 
BRANCH   7   8
ATOM      8  C   UNL     1      52.223  51.661  21.158  1.00  0.00    -0.000 C 
BRANCH   8   9
ATOM      9  C   UNL     1      52.710  52.977  20.515  1.00  0.00    -0.000 C 
BRANCH   9  10
ATOM     10  C   UNL     1      51.887  54.213  20.929  1.00  0.00    -0.000 C 
BRANCH  10  11
ATOM     11  C   UNL     1      52.292  55.522  20.236  1.00  0.00    -0.003 C 
ATOM     12  C   UNL     1      52.776  56.591  21.217  1.00  0.00     0.004 C 
ENDBRANCH  10  11
ENDBRANCH   9  10
ENDBRANCH   8   9
ENDBRANCH   7   8
ENDBRANCH   6   7
ENDBRANCH   5   6
ENDBRANCH   4   5
ENDBRANCH   3   4
ENDBRANCH   2   3
ENDBRANCH   1   2
BRANCH   1  13
ATOM     13  C   UNL     1      46.097  50.431  24.681  1.00  0.00     0.000 C 
BRANCH  13  14
ATOM     14  C   UNL     1      45.978  51.368  25.903  1.00  0.00     0.000 C 
BRANCH  14  15
ATOM     15  C   UNL     1      46.588  52.758  25.645  1.00  0.00     0.000 C 
BRANCH  15  16
ATOM     16  C   UNL     1      47.655  53.140  26.681  1.00  0.00     0.000 C 
BRANCH  16  17
ATOM     17  C   UNL     1      49.060  53.269  26.068  1.00  0.00     0.000 C 
BRANCH  17  18
ATOM     18  C   UNL     1      49.075  52.925  24.569  1.00  0.00     0.000 C 
BRANCH  18  19
ATOM     19  C   UNL     1      50.441  53.216  23.920  1.00  0.00     0.000 C 
BRANCH  19  20
ATOM     20  C   UNL     1      51.379  54.018  24.841  1.00  0.00     0.006 C 
BRANCH  20  21
ATOM     21  C   UNL     1      52.742  54.361  24.216  1.00  0.00     0.053 C 
BRANCH  21  22
ATOM     22  C   UNL     1      53.685  53.196  24.246  1.00  0.00     0.041 C 
ATOM     23  O   UNL     1      54.517  53.031  23.315  1.00  0.00    -0.550 OA
ATOM     24  O   UNL     1      53.681  52.325  25.326  1.00  0.00    -0.550 OA
ENDBRANCH  21  22
ENDBRANCH  20  21
ENDBRANCH  19  20
ENDBRANCH  18  19
ENDBRANCH  17  18
ENDBRANCH  16  17
ENDBRANCH  15  16
ENDBRANCH  14  15
ENDBRANCH  13  14
ENDBRANCH   1  13
TORSDOF 20
ENDMDL
MODEL 4
REMARK VINA RESULT:    -4.897      2.358      4.523
REMARK INTER + INTRA:         -13.616
REMARK INTER:                 -10.418
REMARK INTRA:                  -3.197
REMARK UNBOUND:                -2.994
REMARK SMILES CCCCCCCCCCCCCCCCCCCCCC(=O)[O-]
REMARK SMILES IDX 12 1 11 2 10 3 9 4 8 5 7 6 6 7 5 8 4 9 3 10 2 11 1 12 13 13
REMARK SMILES IDX 14 14 15 15 16 16 17 17 18 18 19 19 20 20 21 21 22 22 23 23
REMARK SMILES IDX 24 24
REMARK H PARENT
REMARK Flexibility Score: inf
ROOT
ATOM      1  C   UNL     1      49.171  52.671  22.461  1.00  0.00     0.000 C 
ENDROOT
BRANCH   1   2
ATOM      2  C   UNL     1      49.905  52.471  23.800  1.00  0.00     0.000 C 
BRANCH   2   3
ATOM      3  C   UNL     1      50.234  53.769  24.569  1.00  0.00     0.000 C 
BRANCH   3   4
ATOM      4  C   UNL     1      51.732  54.113  24.664  1.00  0.00    -0.000 C 
BRANCH   4   5
ATOM      5  C   UNL     1      52.642  52.916  24.343  1.00  0.00    -0.000 C 
BRANCH   5   6
ATOM      6  C   UNL     1      53.934  53.331  23.620  1.00  0.00    -0.000 C 
BRANCH   6   7
ATOM      7  C   UNL     1      54.157  52.560  22.309  1.00  0.00    -0.000 C 
BRANCH   7   8
ATOM      8  C   UNL     1      52.822  52.280  21.601  1.00  0.00    -0.000 C 
BRANCH   8   9
ATOM      9  C   UNL     1      52.484  53.349  20.539  1.00  0.00    -0.000 C 
BRANCH   9  10
ATOM     10  C   UNL     1      51.843  54.624  21.124  1.00  0.00    -0.000 C 
BRANCH  10  11
ATOM     11  C   UNL     1      52.318  55.937  20.484  1.00  0.00    -0.003 C 
ATOM     12  C   UNL     1      53.045  56.851  21.472  1.00  0.00     0.004 C 
ENDBRANCH  10  11
ENDBRANCH   9  10
ENDBRANCH   8   9
ENDBRANCH   7   8
ENDBRANCH   6   7
ENDBRANCH   5   6
ENDBRANCH   4   5
ENDBRANCH   3   4
ENDBRANCH   2   3
ENDBRANCH   1   2
BRANCH   1  13
ATOM     13  C   UNL     1      49.170  51.442  21.531  1.00  0.00     0.000 C 
BRANCH  13  14
ATOM     14  C   UNL     1      50.385  50.510  21.724  1.00  0.00     0.000 C 
BRANCH  14  15
ATOM     15  C   UNL     1      49.981  49.100  22.193  1.00  0.00     0.000 C 
BRANCH  15  16
ATOM     16  C   UNL     1      50.647  48.700  23.518  1.00  0.00     0.000 C 
BRANCH  16  17
ATOM     17  C   UNL     1      49.836  47.654  24.300  1.00  0.00     0.000 C 
BRANCH  17  18
ATOM     18  C   UNL     1      48.320  47.885  24.181  1.00  0.00     0.000 C 
BRANCH  18  19
ATOM     19  C   UNL     1      47.824  48.987  25.136  1.00  0.00     0.000 C 
BRANCH  19  20
ATOM     20  C   UNL     1      47.129  50.146  24.399  1.00  0.00     0.006 C 
BRANCH  20  21
ATOM     21  C   UNL     1      46.302  51.072  25.307  1.00  0.00     0.053 C 
BRANCH  21  22
ATOM     22  C   UNL     1      46.298  52.487  24.815  1.00  0.00     0.041 C 
ATOM     23  O   UNL     1      45.876  52.753  23.658  1.00  0.00    -0.550 OA
ATOM     24  O   UNL     1      46.711  53.517  25.649  1.00  0.00    -0.550 OA
ENDBRANCH  21  22
ENDBRANCH  20  21
ENDBRANCH  19  20
ENDBRANCH  18  19
ENDBRANCH  17  18
ENDBRANCH  16  17
ENDBRANCH  15  16
ENDBRANCH  14  15
ENDBRANCH  13  14
ENDBRANCH   1  13
TORSDOF 20
ENDMDL
MODEL 5
REMARK VINA RESULT:    -4.822      2.728      6.785
REMARK INTER + INTRA:         -13.454
REMARK INTER:                 -10.764
REMARK INTRA:                  -2.690
REMARK UNBOUND:                -2.994
REMARK SMILES CCCCCCCCCCCCCCCCCCCCCC(=O)[O-]
REMARK SMILES IDX 12 1 11 2 10 3 9 4 8 5 7 6 6 7 5 8 4 9 3 10 2 11 1 12 13 13
REMARK SMILES IDX 14 14 15 15 16 16 17 17 18 18 19 19 20 20 21 21 22 22 23 23
REMARK SMILES IDX 24 24
REMARK H PARENT
REMARK Flexibility Score: inf
ROOT
ATOM      1  C   UNL     1      49.763  52.473  24.275  1.00  0.00     0.000 C 
ENDROOT
BRANCH   1   2
ATOM      2  C   UNL     1      49.098  53.516  25.191  1.00  0.00     0.000 C 
BRANCH   2   3
ATOM      3  C   UNL     1      48.337  52.937  26.402  1.00  0.00     0.000 C 
BRANCH   3   4
ATOM      4  C   UNL     1      46.811  52.828  26.227  1.00  0.00    -0.000 C 
BRANCH   4   5
ATOM      5  C   UNL     1      46.388  52.660  24.758  1.00  0.00    -0.000 C 
BRANCH   5   6
ATOM      6  C   UNL     1      45.938  51.226  24.431  1.00  0.00    -0.000 C 
BRANCH   6   7
ATOM      7  C   UNL     1      46.640  50.169  25.297  1.00  0.00    -0.000 C 
BRANCH   7   8
ATOM      8  C   UNL     1      47.682  49.389  24.479  1.00  0.00    -0.000 C 
BRANCH   8   9
ATOM      9  C   UNL     1      47.705  47.887  24.837  1.00  0.00    -0.000 C 
BRANCH   9  10
ATOM     10  C   UNL     1      49.111  47.257  24.777  1.00  0.00    -0.000 C 
BRANCH  10  11
ATOM     11  C   UNL     1      50.154  48.075  24.002  1.00  0.00    -0.003 C 
ATOM     12  C   UNL     1      51.378  47.251  23.600  1.00  0.00     0.004 C 
ENDBRANCH  10  11
ENDBRANCH   9  10
ENDBRANCH   8   9
ENDBRANCH   7   8
ENDBRANCH   6   7
ENDBRANCH   5   6
ENDBRANCH   4   5
ENDBRANCH   3   4
ENDBRANCH   2   3
ENDBRANCH   1   2
BRANCH   1  13
ATOM     13  C   UNL     1      49.460  52.639  22.773  1.00  0.00     0.000 C 
BRANCH  13  14
ATOM     14  C   UNL     1      48.869  51.375  22.111  1.00  0.00     0.000 C 
BRANCH  14  15
ATOM     15  C   UNL     1      49.942  50.504  21.433  1.00  0.00     0.000 C 
BRANCH  15  16
ATOM     16  C   UNL     1      51.368  50.871  21.869  1.00  0.00     0.000 C 
BRANCH  16  17
ATOM     17  C   UNL     1      52.254  51.318  20.694  1.00  0.00     0.000 C 
BRANCH  17  18
ATOM     18  C   UNL     1      53.266  52.400  21.106  1.00  0.00     0.000 C 
BRANCH  18  19
ATOM     19  C   UNL     1      53.122  52.796  22.587  1.00  0.00     0.000 C 
BRANCH  19  20
ATOM     20  C   UNL     1      52.894  54.307  22.781  1.00  0.00     0.006 C 
BRANCH  20  21
ATOM     21  C   UNL     1      51.843  54.917  21.838  1.00  0.00     0.053 C 
BRANCH  21  22
ATOM     22  C   UNL     1      52.429  55.970  20.948  1.00  0.00     0.041 C 
ATOM     23  O   UNL     1      53.021  56.963  21.449  1.00  0.00    -0.550 OA
ATOM     24  O   UNL     1      52.368  55.831  19.569  1.00  0.00    -0.550 OA
ENDBRANCH  21  22
ENDBRANCH  20  21
ENDBRANCH  19  20
ENDBRANCH  18  19
ENDBRANCH  17  18
ENDBRANCH  16  17
ENDBRANCH  15  16
ENDBRANCH  14  15
ENDBRANCH  13  14
ENDBRANCH   1  13
TORSDOF 20
ENDMDL
MODEL 6
REMARK VINA RESULT:    -4.781      0.852      1.294
REMARK INTER + INTRA:         -13.365
REMARK INTER:                  -9.862
REMARK INTRA:                  -3.502
REMARK UNBOUND:                -2.994
REMARK SMILES CCCCCCCCCCCCCCCCCCCCCC(=O)[O-]
REMARK SMILES IDX 12 1 11 2 10 3 9 4 8 5 7 6 6 7 5 8 4 9 3 10 2 11 1 12 13 13
REMARK SMILES IDX 14 14 15 15 16 16 17 17 18 18 19 19 20 20 21 21 22 22 23 23
REMARK SMILES IDX 24 24
REMARK H PARENT
REMARK Flexibility Score: inf
ROOT
ATOM      1  C   UNL     1      49.469  53.593  24.593  1.00  0.00     0.000 C 
ENDROOT
BRANCH   1   2
ATOM      2  C   UNL     1      49.564  52.837  23.254  1.00  0.00     0.000 C 
BRANCH   2   3
ATOM      3  C   UNL     1      50.458  51.579  23.272  1.00  0.00     0.000 C 
BRANCH   3   4
ATOM      4  C   UNL     1      50.896  51.066  21.888  1.00  0.00    -0.000 C 
BRANCH   4   5
ATOM      5  C   UNL     1      52.258  51.628  21.446  1.00  0.00    -0.000 C 
BRANCH   5   6
ATOM      6  C   UNL     1      52.190  52.349  20.090  1.00  0.00    -0.000 C 
BRANCH   6   7
ATOM      7  C   UNL     1      52.620  53.822  20.177  1.00  0.00    -0.000 C 
BRANCH   7   8
ATOM      8  C   UNL     1      51.867  54.551  21.302  1.00  0.00    -0.000 C 
BRANCH   8   9
ATOM      9  C   UNL     1      52.824  55.223  22.310  1.00  0.00    -0.000 C 
BRANCH   9  10
ATOM     10  C   UNL     1      52.906  54.497  23.668  1.00  0.00    -0.000 C 
BRANCH  10  11
ATOM     11  C   UNL     1      54.023  53.448  23.773  1.00  0.00    -0.003 C 
ATOM     12  C   UNL     1      53.754  52.399  24.853  1.00  0.00     0.004 C 
ENDBRANCH  10  11
ENDBRANCH   9  10
ENDBRANCH   8   9
ENDBRANCH   7   8
ENDBRANCH   6   7
ENDBRANCH   5   6
ENDBRANCH   4   5
ENDBRANCH   3   4
ENDBRANCH   2   3
ENDBRANCH   1   2
BRANCH   1  13
ATOM     13  C   UNL     1      49.207  52.704  25.824  1.00  0.00     0.000 C 
BRANCH  13  14
ATOM     14  C   UNL     1      48.051  53.201  26.719  1.00  0.00     0.000 C 
BRANCH  14  15
ATOM     15  C   UNL     1      46.874  53.771  25.906  1.00  0.00     0.000 C 
BRANCH  15  16
ATOM     16  C   UNL     1      45.877  52.689  25.465  1.00  0.00     0.000 C 
BRANCH  16  17
ATOM     17  C   UNL     1      45.995  52.344  23.971  1.00  0.00     0.000 C 
BRANCH  17  18
ATOM     18  C   UNL     1      46.535  50.922  23.743  1.00  0.00     0.000 C 
BRANCH  18  19
ATOM     19  C   UNL     1      46.765  50.169  25.066  1.00  0.00     0.000 C 
BRANCH  19  20
ATOM     20  C   UNL     1      47.508  48.834  24.871  1.00  0.00     0.006 C 
BRANCH  20  21
ATOM     21  C   UNL     1      48.697  48.905  23.897  1.00  0.00     0.053 C 
BRANCH  21  22
ATOM     22  C   UNL     1      49.712  47.838  24.170  1.00  0.00     0.041 C 
ATOM     23  O   UNL     1      49.440  46.891  24.955  1.00  0.00    -0.550 OA
ATOM     24  O   UNL     1      50.938  47.860  23.520  1.00  0.00    -0.550 OA
ENDBRANCH  21  22
ENDBRANCH  20  21
ENDBRANCH  19  20
ENDBRANCH  18  19
ENDBRANCH  17  18
ENDBRANCH  16  17
ENDBRANCH  15  16
ENDBRANCH  14  15
ENDBRANCH  13  14
ENDBRANCH   1  13
TORSDOF 20
ENDMDL
MODEL 7
REMARK VINA RESULT:    -4.772      1.834      6.352
REMARK INTER + INTRA:         -13.345
REMARK INTER:                 -10.744
REMARK INTRA:                  -2.601
REMARK UNBOUND:                -2.994
REMARK SMILES CCCCCCCCCCCCCCCCCCCCCC(=O)[O-]
REMARK SMILES IDX 12 1 11 2 10 3 9 4 8 5 7 6 6 7 5 8 4 9 3 10 2 11 1 12 13 13
REMARK SMILES IDX 14 14 15 15 16 16 17 17 18 18 19 19 20 20 21 21 22 22 23 23
REMARK SMILES IDX 24 24
REMARK H PARENT
REMARK Flexibility Score: inf
ROOT
ATOM      1  C   UNL     1      49.753  53.380  25.072  1.00  0.00     0.000 C 
ENDROOT
BRANCH   1   2
ATOM      2  C   UNL     1      48.746  52.943  26.152  1.00  0.00     0.000 C 
BRANCH   2   3
ATOM      3  C   UNL     1      47.320  53.510  25.987  1.00  0.00     0.000 C 
BRANCH   3   4
ATOM      4  C   UNL     1      46.203  52.677  26.644  1.00  0.00    -0.000 C 
BRANCH   4   5
ATOM      5  C   UNL     1      46.014  51.303  25.980  1.00  0.00    -0.000 C 
BRANCH   5   6
ATOM      6  C   UNL     1      45.915  51.393  24.448  1.00  0.00    -0.000 C 
BRANCH   6   7
ATOM      7  C   UNL     1      46.823  50.381  23.733  1.00  0.00    -0.000 C 
BRANCH   7   8
ATOM      8  C   UNL     1      47.866  49.797  24.699  1.00  0.00    -0.000 C 
BRANCH   8   9
ATOM      9  C   UNL     1      47.651  48.289  24.953  1.00  0.00    -0.000 C 
BRANCH   9  10
ATOM     10  C   UNL     1      48.763  47.396  24.367  1.00  0.00    -0.000 C 
BRANCH  10  11
ATOM     11  C   UNL     1      50.039  48.143  23.950  1.00  0.00    -0.003 C 
ATOM     12  C   UNL     1      51.266  47.233  23.882  1.00  0.00     0.004 C 
ENDBRANCH  10  11
ENDBRANCH   9  10
ENDBRANCH   8   9
ENDBRANCH   7   8
ENDBRANCH   6   7
ENDBRANCH   5   6
ENDBRANCH   4   5
ENDBRANCH   3   4
ENDBRANCH   2   3
ENDBRANCH   1   2
BRANCH   1  13
ATOM     13  C   UNL     1      49.436  52.884  23.647  1.00  0.00     0.000 C 
BRANCH  13  14
ATOM     14  C   UNL     1      50.314  51.700  23.187  1.00  0.00     0.000 C 
BRANCH  14  15
ATOM     15  C   UNL     1      49.839  51.093  21.854  1.00  0.00     0.000 C 
BRANCH  15  16
ATOM     16  C   UNL     1      50.948  51.052  20.791  1.00  0.00     0.000 C 
BRANCH  16  17
ATOM     17  C   UNL     1      52.227  51.780  21.237  1.00  0.00     0.000 C 
BRANCH  17  18
ATOM     18  C   UNL     1      52.618  52.914  20.274  1.00  0.00     0.000 C 
BRANCH  18  19
ATOM     19  C   UNL     1      52.258  54.302  20.834  1.00  0.00     0.000 C 
BRANCH  19  20
ATOM     20  C   UNL     1      52.098  54.304  22.365  1.00  0.00     0.006 C 
BRANCH  20  21
ATOM     21  C   UNL     1      53.405  54.543  23.140  1.00  0.00     0.053 C 
BRANCH  21  22
ATOM     22  C   UNL     1      53.897  53.298  23.813  1.00  0.00     0.041 C 
ATOM     23  O   UNL     1      54.904  52.690  23.361  1.00  0.00    -0.550 OA
ATOM     24  O   UNL     1      53.278  52.837  24.966  1.00  0.00    -0.550 OA
ENDBRANCH  21  22
ENDBRANCH  20  21
ENDBRANCH  19  20
ENDBRANCH  18  19
ENDBRANCH  17  18
ENDBRANCH  16  17
ENDBRANCH  15  16
ENDBRANCH  14  15
ENDBRANCH  13  14
ENDBRANCH   1  13
TORSDOF 20
ENDMDL
MODEL 8
REMARK VINA RESULT:    -4.725      1.581      3.124
REMARK INTER + INTRA:         -13.242
REMARK INTER:                 -10.815
REMARK INTRA:                  -2.427
REMARK UNBOUND:                -2.994
REMARK SMILES CCCCCCCCCCCCCCCCCCCCCC(=O)[O-]
REMARK SMILES IDX 12 1 11 2 10 3 9 4 8 5 7 6 6 7 5 8 4 9 3 10 2 11 1 12 13 13
REMARK SMILES IDX 14 14 15 15 16 16 17 17 18 18 19 19 20 20 21 21 22 22 23 23
REMARK SMILES IDX 24 24
REMARK H PARENT
REMARK Flexibility Score: inf
ROOT
ATOM      1  C   UNL     1      48.666  52.968  26.256  1.00  0.00     0.000 C 
ENDROOT
BRANCH   1   2
ATOM      2  C   UNL     1      49.138  53.524  24.899  1.00  0.00     0.000 C 
BRANCH   2   3
ATOM      3  C   UNL     1      50.637  53.323  24.593  1.00  0.00     0.000 C 
BRANCH   3   4
ATOM      4  C   UNL     1      51.536  54.539  24.887  1.00  0.00    -0.000 C 
BRANCH   4   5
ATOM      5  C   UNL     1      52.961  54.376  24.333  1.00  0.00    -0.000 C 
BRANCH   5   6
ATOM      6  C   UNL     1      53.257  52.939  23.872  1.00  0.00    -0.000 C 
BRANCH   6   7
ATOM      7  C   UNL     1      53.977  52.885  22.516  1.00  0.00    -0.000 C 
BRANCH   7   8
ATOM      8  C   UNL     1      53.099  52.204  21.453  1.00  0.00    -0.000 C 
BRANCH   8   9
ATOM      9  C   UNL     1      52.484  53.217  20.462  1.00  0.00    -0.000 C 
BRANCH   9  10
ATOM     10  C   UNL     1      51.881  54.463  21.142  1.00  0.00    -0.000 C 
BRANCH  10  11
ATOM     11  C   UNL     1      52.273  55.802  20.501  1.00  0.00    -0.003 C 
ATOM     12  C   UNL     1      52.994  56.738  21.473  1.00  0.00     0.004 C 
ENDBRANCH  10  11
ENDBRANCH   9  10
ENDBRANCH   8   9
ENDBRANCH   7   8
ENDBRANCH   6   7
ENDBRANCH   5   6
ENDBRANCH   4   5
ENDBRANCH   3   4
ENDBRANCH   2   3
ENDBRANCH   1   2
BRANCH   1  13
ATOM     13  C   UNL     1      47.183  53.228  26.584  1.00  0.00     0.000 C 
BRANCH  13  14
ATOM     14  C   UNL     1      46.268  53.288  25.342  1.00  0.00     0.000 C 
BRANCH  14  15
ATOM     15  C   UNL     1      46.160  51.932  24.620  1.00  0.00     0.000 C 
BRANCH  15  16
ATOM     16  C   UNL     1      45.893  50.765  25.584  1.00  0.00     0.000 C 
BRANCH  16  17
ATOM     17  C   UNL     1      46.744  49.524  25.265  1.00  0.00     0.000 C 
BRANCH  17  18
ATOM     18  C   UNL     1      47.945  49.857  24.364  1.00  0.00     0.000 C 
BRANCH  18  19
ATOM     19  C   UNL     1      48.807  48.617  24.063  1.00  0.00     0.000 C 
BRANCH  19  20
ATOM     20  C   UNL     1      49.984  48.925  23.119  1.00  0.00     0.006 C 
BRANCH  20  21
ATOM     21  C   UNL     1      50.304  50.422  22.969  1.00  0.00     0.053 C 
BRANCH  21  22
ATOM     22  C   UNL     1      49.698  51.005  21.729  1.00  0.00     0.041 C 
ATOM     23  O   UNL     1      48.811  51.895  21.817  1.00  0.00    -0.550 OA
ATOM     24  O   UNL     1      50.148  50.605  20.478  1.00  0.00    -0.550 OA
ENDBRANCH  21  22
ENDBRANCH  20  21
ENDBRANCH  19  20
ENDBRANCH  18  19
ENDBRANCH  17  18
ENDBRANCH  16  17
ENDBRANCH  15  16
ENDBRANCH  14  15
ENDBRANCH  13  14
ENDBRANCH   1  13
TORSDOF 20
ENDMDL
MODEL 9
REMARK VINA RESULT:    -4.697      1.946      6.584
REMARK INTER + INTRA:         -13.184
REMARK INTER:                 -10.831
REMARK INTRA:                  -2.352
REMARK UNBOUND:                -2.994
REMARK SMILES CCCCCCCCCCCCCCCCCCCCCC(=O)[O-]
REMARK SMILES IDX 12 1 11 2 10 3 9 4 8 5 7 6 6 7 5 8 4 9 3 10 2 11 1 12 13 13
REMARK SMILES IDX 14 14 15 15 16 16 17 17 18 18 19 19 20 20 21 21 22 22 23 23
REMARK SMILES IDX 24 24
REMARK H PARENT
REMARK Flexibility Score: inf
ROOT
ATOM      1  C   UNL     1      50.062  48.735  22.939  1.00  0.00     0.000 C 
ENDROOT
BRANCH   1   2
ATOM      2  C   UNL     1      50.727  47.789  23.957  1.00  0.00     0.000 C 
BRANCH   2   3
ATOM      3  C   UNL     1      49.751  46.946  24.805  1.00  0.00     0.000 C 
BRANCH   3   4
ATOM      4  C   UNL     1      48.257  47.207  24.540  1.00  0.00    -0.000 C 
BRANCH   4   5
ATOM      5  C   UNL     1      47.381  46.981  25.783  1.00  0.00    -0.000 C 
BRANCH   5   6
ATOM      6  C   UNL     1      46.641  48.254  26.226  1.00  0.00    -0.000 C 
BRANCH   6   7
ATOM      7  C   UNL     1      46.879  49.441  25.280  1.00  0.00    -0.000 C 
BRANCH   7   8
ATOM      8  C   UNL     1      45.967  50.625  25.640  1.00  0.00    -0.000 C 
BRANCH   8   9
ATOM      9  C   UNL     1      46.211  51.851  24.734  1.00  0.00    -0.000 C 
BRANCH   9  10
ATOM     10  C   UNL     1      46.468  53.157  25.513  1.00  0.00    -0.000 C 
BRANCH  10  11
ATOM     11  C   UNL     1      47.722  53.144  26.399  1.00  0.00    -0.003 C 
ATOM     12  C   UNL     1      49.021  53.147  25.592  1.00  0.00     0.004 C 
ENDBRANCH  10  11
ENDBRANCH   9  10
ENDBRANCH   8   9
ENDBRANCH   7   8
ENDBRANCH   6   7
ENDBRANCH   5   6
ENDBRANCH   4   5
ENDBRANCH   3   4
ENDBRANCH   2   3
ENDBRANCH   1   2
BRANCH   1  13
ATOM     13  C   UNL     1      50.136  50.232  23.297  1.00  0.00     0.000 C 
BRANCH  13  14
ATOM     14  C   UNL     1      49.384  51.149  22.309  1.00  0.00     0.000 C 
BRANCH  14  15
ATOM     15  C   UNL     1      50.156  51.364  20.994  1.00  0.00     0.000 C 
BRANCH  15  16
ATOM     16  C   UNL     1      51.609  50.872  21.071  1.00  0.00     0.000 C 
BRANCH  16  17
ATOM     17  C   UNL     1      52.623  52.024  21.171  1.00  0.00     0.000 C 
BRANCH  17  18
ATOM     18  C   UNL     1      52.063  53.342  20.611  1.00  0.00     0.000 C 
BRANCH  18  19
ATOM     19  C   UNL     1      52.060  54.466  21.664  1.00  0.00     0.000 C 
BRANCH  19  20
ATOM     20  C   UNL     1      51.616  53.977  23.056  1.00  0.00     0.006 C 
BRANCH  20  21
ATOM     21  C   UNL     1      52.611  54.290  24.187  1.00  0.00     0.053 C 
BRANCH  21  22
ATOM     22  C   UNL     1      53.684  53.251  24.296  1.00  0.00     0.041 C 
ATOM     23  O   UNL     1      54.662  53.264  23.501  1.00  0.00    -0.550 OA
ATOM     24  O   UNL     1      53.634  52.300  25.306  1.00  0.00    -0.550 OA
ENDBRANCH  21  22
ENDBRANCH  20  21
ENDBRANCH  19  20
ENDBRANCH  18  19
ENDBRANCH  17  18
ENDBRANCH  16  17
ENDBRANCH  15  16
ENDBRANCH  14  15
ENDBRANCH  13  14
ENDBRANCH   1  13
TORSDOF 20
ENDMDL
