MODEL 1
REMARK VINA RESULT:    -4.400      0.000      0.000
REMARK INTER + INTRA:          -8.639
REMARK INTER:                  -6.972
REMARK INTRA:                  -1.667
REMARK UNBOUND:                -1.667
REMARK SMILES CCCCCCCCCCCC(=O)[O-]
REMARK SMILES IDX 7 1 8 2 9 3 10 4 11 5 12 6 13 7 14 8 6 9 5 10 4 11 3 12 2 13
REMARK SMILES IDX 1 14
REMARK H PARENT
REMARK Flexibility Score: inf
ROOT
ATOM      1  C   UNL     1       8.503  -5.530  49.416  1.00  0.00     0.000 C 
ENDROOT
BRANCH   1   2
ATOM      2  C   UNL     1       8.989  -4.568  48.319  1.00  0.00     0.000 C 
BRANCH   2   3
ATOM      3  C   UNL     1       9.531  -3.246  48.892  1.00  0.00     0.000 C 
BRANCH   3   4
ATOM      4  C   UNL     1       8.813  -2.016  48.313  1.00  0.00     0.006 C 
BRANCH   4   5
ATOM      5  C   UNL     1       8.151  -2.298  46.957  1.00  0.00     0.053 C 
BRANCH   5   6
ATOM      6  C   UNL     1       7.078  -1.294  46.681  1.00  0.00     0.041 C 
ATOM      7  O   UNL     1       7.227  -0.094  47.031  1.00  0.00    -0.550 OA
ATOM      8  O   UNL     1       5.932  -1.672  45.992  1.00  0.00    -0.550 OA
ENDBRANCH   5   6
ENDBRANCH   4   5
ENDBRANCH   3   4
ENDBRANCH   2   3
ENDBRANCH   1   2
BRANCH   1   9
ATOM      9  C   UNL     1       7.006  -5.364  49.727  1.00  0.00     0.000 C 
BRANCH   9  10
ATOM     10  C   UNL     1       6.178  -5.014  48.479  1.00  0.00    -0.000 C 
BRANCH  10  11
ATOM     11  C   UNL     1       5.182  -3.871  48.728  1.00  0.00    -0.000 C 
BRANCH  11  12
ATOM     12  C   UNL     1       5.246  -3.396  50.184  1.00  0.00    -0.000 C 
BRANCH  12  13
ATOM     13  C   UNL     1       5.702  -1.934  50.266  1.00  0.00    -0.003 C 
ATOM     14  C   UNL     1       6.622  -1.710  51.464  1.00  0.00     0.004 C 
ENDBRANCH  12  13
ENDBRANCH  11  12
ENDBRANCH  10  11
ENDBRANCH   9  10
ENDBRANCH   1   9
TORSDOF 10
ENDMDL
MODEL 2
REMARK VINA RESULT:    -4.264      1.229      1.894
REMARK INTER + INTRA:          -8.424
REMARK INTER:                  -7.169
REMARK INTRA:                  -1.255
REMARK UNBOUND:                -1.667
REMARK SMILES CCCCCCCCCCCC(=O)[O-]
REMARK SMILES IDX 7 1 8 2 9 3 10 4 11 5 12 6 13 7 14 8 6 9 5 10 4 11 3 12 2 13
REMARK SMILES IDX 1 14
REMARK H PARENT
REMARK Flexibility Score: inf
ROOT
ATOM      1  C   UNL     1       9.450  -3.855  48.980  1.00  0.00     0.000 C 
ENDROOT
BRANCH   1   2
ATOM      2  C   UNL     1       9.453  -2.386  48.523  1.00  0.00     0.000 C 
BRANCH   2   3
ATOM      3  C   UNL     1       8.425  -2.113  47.411  1.00  0.00     0.000 C 
BRANCH   3   4
ATOM      4  C   UNL     1       7.372  -1.073  47.826  1.00  0.00     0.006 C 
BRANCH   4   5
ATOM      5  C   UNL     1       6.574  -0.527  46.634  1.00  0.00     0.053 C 
BRANCH   5   6
ATOM      6  C   UNL     1       5.465  -1.465  46.275  1.00  0.00     0.041 C 
ATOM      7  O   UNL     1       5.043  -1.523  45.090  1.00  0.00    -0.550 OA
ATOM      8  O   UNL     1       4.931  -2.312  47.238  1.00  0.00    -0.550 OA
ENDBRANCH   5   6
ENDBRANCH   4   5
ENDBRANCH   3   4
ENDBRANCH   2   3
ENDBRANCH   1   2
BRANCH   1   9
ATOM      9  C   UNL     1       8.294  -4.662  48.368  1.00  0.00     0.000 C 
BRANCH   9  10
ATOM     10  C   UNL     1       7.489  -5.437  49.424  1.00  0.00    -0.000 C 
BRANCH  10  11
ATOM     11  C   UNL     1       6.048  -4.924  49.568  1.00  0.00    -0.000 C 
BRANCH  11  12
ATOM     12  C   UNL     1       5.876  -4.133  50.870  1.00  0.00    -0.000 C 
BRANCH  12  13
ATOM     13  C   UNL     1       5.665  -2.641  50.583  1.00  0.00    -0.003 C 
ATOM     14  C   UNL     1       6.590  -1.779  51.437  1.00  0.00     0.004 C 
ENDBRANCH  12  13
ENDBRANCH  11  12
ENDBRANCH  10  11
ENDBRANCH   9  10
ENDBRANCH   1   9
TORSDOF 10
ENDMDL
MODEL 3
REMARK VINA RESULT:    -4.190      1.146      3.294
REMARK INTER + INTRA:          -8.307
REMARK INTER:                  -7.108
REMARK INTRA:                  -1.198
REMARK UNBOUND:                -1.667
REMARK SMILES CCCCCCCCCCCC(=O)[O-]
REMARK SMILES IDX 7 1 8 2 9 3 10 4 11 5 12 6 13 7 14 8 6 9 5 10 4 11 3 12 2 13
REMARK SMILES IDX 1 14
REMARK H PARENT
REMARK Flexibility Score: inf
ROOT
ATOM      1  C   UNL     1       5.293  -4.238  50.803  1.00  0.00     0.000 C 
ENDROOT
BRANCH   1   2
ATOM      2  C   UNL     1       6.063  -2.975  51.224  1.00  0.00     0.000 C 
BRANCH   2   3
ATOM      3  C   UNL     1       5.617  -1.725  50.445  1.00  0.00     0.000 C 
BRANCH   3   4
ATOM      4  C   UNL     1       6.350  -1.574  49.103  1.00  0.00     0.006 C 
BRANCH   4   5
ATOM      5  C   UNL     1       5.465  -1.929  47.900  1.00  0.00     0.053 C 
BRANCH   5   6
ATOM      6  C   UNL     1       5.837  -1.096  46.715  1.00  0.00     0.041 C 
ATOM      7  O   UNL     1       5.466  -1.436  45.560  1.00  0.00    -0.550 OA
ATOM      8  O   UNL     1       6.551   0.083  46.889  1.00  0.00    -0.550 OA
ENDBRANCH   5   6
ENDBRANCH   4   5
ENDBRANCH   3   4
ENDBRANCH   2   3
ENDBRANCH   1   2
BRANCH   1   9
ATOM      9  C   UNL     1       6.178  -5.496  50.802  1.00  0.00     0.000 C 
BRANCH   9  10
ATOM     10  C   UNL     1       6.884  -5.720  49.455  1.00  0.00    -0.000 C 
BRANCH  10  11
ATOM     11  C   UNL     1       8.192  -4.924  49.329  1.00  0.00    -0.000 C 
BRANCH  11  12
ATOM     12  C   UNL     1       8.526  -4.646  47.859  1.00  0.00    -0.000 C 
BRANCH  12  13
ATOM     13  C   UNL     1       9.231  -3.294  47.702  1.00  0.00    -0.003 C 
ATOM     14  C   UNL     1       9.822  -2.823  49.028  1.00  0.00     0.004 C 
ENDBRANCH  12  13
ENDBRANCH  11  12
ENDBRANCH  10  11
ENDBRANCH   9  10
ENDBRANCH   1   9
TORSDOF 10
ENDMDL
MODEL 4
REMARK VINA RESULT:    -4.085      1.445      2.821
REMARK INTER + INTRA:          -8.140
REMARK INTER:                  -6.677
REMARK INTRA:                  -1.463
REMARK UNBOUND:                -1.667
REMARK SMILES CCCCCCCCCCCC(=O)[O-]
REMARK SMILES IDX 7 1 8 2 9 3 10 4 11 5 12 6 13 7 14 8 6 9 5 10 4 11 3 12 2 13
REMARK SMILES IDX 1 14
REMARK H PARENT
REMARK Flexibility Score: inf
ROOT
ATOM      1  C   UNL     1       7.169  -1.947  50.451  1.00  0.00     0.000 C 
ENDROOT
BRANCH   1   2
ATOM      2  C   UNL     1       8.019  -2.928  49.626  1.00  0.00     0.000 C 
BRANCH   2   3
ATOM      3  C   UNL     1       8.836  -2.224  48.529  1.00  0.00     0.000 C 
BRANCH   3   4
ATOM      4  C   UNL     1       8.268  -2.468  47.122  1.00  0.00     0.006 C 
BRANCH   4   5
ATOM      5  C   UNL     1       7.594  -1.223  46.529  1.00  0.00     0.053 C 
BRANCH   5   6
ATOM      6  C   UNL     1       6.106  -1.365  46.570  1.00  0.00     0.041 C 
ATOM      7  O   UNL     1       5.513  -2.067  45.710  1.00  0.00    -0.550 OA
ATOM      8  O   UNL     1       5.378  -0.763  47.589  1.00  0.00    -0.550 OA
ENDBRANCH   5   6
ENDBRANCH   4   5
ENDBRANCH   3   4
ENDBRANCH   2   3
ENDBRANCH   1   2
BRANCH   1   9
ATOM      9  C   UNL     1       5.701  -2.391  50.569  1.00  0.00     0.000 C 
BRANCH   9  10
ATOM     10  C   UNL     1       5.561  -3.872  50.955  1.00  0.00    -0.000 C 
BRANCH  10  11
ATOM     11  C   UNL     1       4.527  -4.616  50.095  1.00  0.00    -0.000 C 
BRANCH  11  12
ATOM     12  C   UNL     1       4.391  -3.962  48.715  1.00  0.00    -0.000 C 
BRANCH  12  13
ATOM     13  C   UNL     1       4.634  -4.984  47.597  1.00  0.00    -0.003 C 
ATOM     14  C   UNL     1       6.116  -5.333  47.482  1.00  0.00     0.004 C 
ENDBRANCH  12  13
ENDBRANCH  11  12
ENDBRANCH  10  11
ENDBRANCH   9  10
ENDBRANCH   1   9
TORSDOF 10
ENDMDL
MODEL 5
REMARK VINA RESULT:    -4.048      1.719      3.172
REMARK INTER + INTRA:          -8.081
REMARK INTER:                  -6.641
REMARK INTRA:                  -1.440
REMARK UNBOUND:                -1.667
REMARK SMILES CCCCCCCCCCCC(=O)[O-]
REMARK SMILES IDX 7 1 8 2 9 3 10 4 11 5 12 6 13 7 14 8 6 9 5 10 4 11 3 12 2 13
REMARK SMILES IDX 1 14
REMARK H PARENT
REMARK Flexibility Score: inf
ROOT
ATOM      1  C   UNL     1       8.416  -1.996  48.645  1.00  0.00     0.000 C 
ENDROOT
BRANCH   1   2
ATOM      2  C   UNL     1       7.734  -1.708  47.297  1.00  0.00     0.000 C 
BRANCH   2   3
ATOM      3  C   UNL     1       6.479  -0.830  47.446  1.00  0.00     0.000 C 
BRANCH   3   4
ATOM      4  C   UNL     1       5.219  -1.502  46.876  1.00  0.00     0.006 C 
BRANCH   4   5
ATOM      5  C   UNL     1       5.542  -2.589  45.842  1.00  0.00     0.053 C 
BRANCH   5   6
ATOM      6  C   UNL     1       4.742  -2.379  44.596  1.00  0.00     0.041 C 
ATOM      7  O   UNL     1       4.289  -3.366  43.960  1.00  0.00    -0.550 OA
ATOM      8  O   UNL     1       4.453  -1.090  44.164  1.00  0.00    -0.550 OA
ENDBRANCH   5   6
ENDBRANCH   4   5
ENDBRANCH   3   4
ENDBRANCH   2   3
ENDBRANCH   1   2
BRANCH   1   9
ATOM      9  C   UNL     1       8.685  -3.494  48.863  1.00  0.00     0.000 C 
BRANCH   9  10
ATOM     10  C   UNL     1       7.868  -4.386  47.913  1.00  0.00    -0.000 C 
BRANCH  10  11
ATOM     11  C   UNL     1       6.612  -4.970  48.580  1.00  0.00    -0.000 C 
BRANCH  11  12
ATOM     12  C   UNL     1       6.777  -5.029  50.103  1.00  0.00    -0.000 C 
BRANCH  12  13
ATOM     13  C   UNL     1       5.544  -4.456  50.812  1.00  0.00    -0.003 C 
ATOM     14  C   UNL     1       5.219  -3.053  50.304  1.00  0.00     0.004 C 
ENDBRANCH  12  13
ENDBRANCH  11  12
ENDBRANCH  10  11
ENDBRANCH   9  10
ENDBRANCH   1   9
TORSDOF 10
ENDMDL
MODEL 6
REMARK VINA RESULT:    -4.036      2.377      4.299
REMARK INTER + INTRA:          -8.062
REMARK INTER:                  -6.925
REMARK INTRA:                  -1.138
REMARK UNBOUND:                -1.667
REMARK SMILES CCCCCCCCCCCC(=O)[O-]
REMARK SMILES IDX 7 1 8 2 9 3 10 4 11 5 12 6 13 7 14 8 6 9 5 10 4 11 3 12 2 13
REMARK SMILES IDX 1 14
REMARK H PARENT
REMARK Flexibility Score: inf
ROOT
ATOM      1  C   UNL     1       7.934  -2.342  49.641  1.00  0.00     0.000 C 
ENDROOT
BRANCH   1   2
ATOM      2  C   UNL     1       9.240  -2.365  48.830  1.00  0.00     0.000 C 
BRANCH   2   3
ATOM      3  C   UNL     1       9.664  -3.790  48.433  1.00  0.00     0.000 C 
BRANCH   3   4
ATOM      4  C   UNL     1       8.615  -4.846  48.820  1.00  0.00     0.006 C 
BRANCH   4   5
ATOM      5  C   UNL     1       7.913  -5.459  47.601  1.00  0.00     0.053 C 
BRANCH   5   6
ATOM      6  C   UNL     1       6.428  -5.373  47.756  1.00  0.00     0.041 C 
ATOM      7  O   UNL     1       5.675  -5.561  46.764  1.00  0.00    -0.550 OA
ATOM      8  O   UNL     1       5.872  -5.133  49.006  1.00  0.00    -0.550 OA
ENDBRANCH   5   6
ENDBRANCH   4   5
ENDBRANCH   3   4
ENDBRANCH   2   3
ENDBRANCH   1   2
BRANCH   1   9
ATOM      9  C   UNL     1       6.784  -1.651  48.889  1.00  0.00     0.000 C 
BRANCH   9  10
ATOM     10  C   UNL     1       7.213  -1.119  47.512  1.00  0.00    -0.000 C 
BRANCH  10  11
ATOM     11  C   UNL     1       6.745  -2.018  46.356  1.00  0.00    -0.000 C 
BRANCH  11  12
ATOM     12  C   UNL     1       5.216  -2.016  46.245  1.00  0.00    -0.000 C 
BRANCH  12  13
ATOM     13  C   UNL     1       4.771  -1.825  44.790  1.00  0.00    -0.003 C 
ATOM     14  C   UNL     1       4.447  -3.164  44.133  1.00  0.00     0.004 C 
ENDBRANCH  12  13
ENDBRANCH  11  12
ENDBRANCH  10  11
ENDBRANCH   9  10
ENDBRANCH   1   9
TORSDOF 10
ENDMDL
MODEL 7
REMARK VINA RESULT:    -3.998      2.281      3.885
REMARK INTER + INTRA:          -8.002
REMARK INTER:                  -6.666
REMARK INTRA:                  -1.335
REMARK UNBOUND:                -1.667
REMARK SMILES CCCCCCCCCCCC(=O)[O-]
REMARK SMILES IDX 7 1 8 2 9 3 10 4 11 5 12 6 13 7 14 8 6 9 5 10 4 11 3 12 2 13
REMARK SMILES IDX 1 14
REMARK H PARENT
REMARK Flexibility Score: inf
ROOT
ATOM      1  C   UNL     1       4.417  -3.508  48.904  1.00  0.00     0.000 C 
ENDROOT
BRANCH   1   2
ATOM      2  C   UNL     1       5.078  -3.207  50.260  1.00  0.00     0.000 C 
BRANCH   2   3
ATOM      3  C   UNL     1       5.967  -1.952  50.218  1.00  0.00     0.000 C 
BRANCH   3   4
ATOM      4  C   UNL     1       7.434  -2.257  50.565  1.00  0.00     0.006 C 
BRANCH   4   5
ATOM      5  C   UNL     1       8.355  -2.212  49.338  1.00  0.00     0.053 C 
BRANCH   5   6
ATOM      6  C   UNL     1       8.931  -3.566  49.068  1.00  0.00     0.041 C 
ATOM      7  O   UNL     1      10.021  -3.679  48.448  1.00  0.00    -0.550 OA
ATOM      8  O   UNL     1       8.290  -4.702  49.545  1.00  0.00    -0.550 OA
ENDBRANCH   5   6
ENDBRANCH   4   5
ENDBRANCH   3   4
ENDBRANCH   2   3
ENDBRANCH   1   2
BRANCH   1   9
ATOM      9  C   UNL     1       5.155  -4.606  48.119  1.00  0.00     0.000 C 
BRANCH   9  10
ATOM     10  C   UNL     1       5.383  -4.227  46.646  1.00  0.00    -0.000 C 
BRANCH  10  11
ATOM     11  C   UNL     1       6.306  -3.009  46.482  1.00  0.00    -0.000 C 
BRANCH  11  12
ATOM     12  C   UNL     1       5.522  -1.791  45.980  1.00  0.00    -0.000 C 
BRANCH  12  13
ATOM     13  C   UNL     1       5.832  -0.551  46.828  1.00  0.00    -0.003 C 
ATOM     14  C   UNL     1       7.330  -0.262  46.853  1.00  0.00     0.004 C 
ENDBRANCH  12  13
ENDBRANCH  11  12
ENDBRANCH  10  11
ENDBRANCH   9  10
ENDBRANCH   1   9
TORSDOF 10
ENDMDL
MODEL 8
REMARK VINA RESULT:    -3.983      1.781      3.294
REMARK INTER + INTRA:          -7.978
REMARK INTER:                  -6.635
REMARK INTRA:                  -1.343
REMARK UNBOUND:                -1.667
REMARK SMILES CCCCCCCCCCCC(=O)[O-]
REMARK SMILES IDX 7 1 8 2 9 3 10 4 11 5 12 6 13 7 14 8 6 9 5 10 4 11 3 12 2 13
REMARK SMILES IDX 1 14
REMARK H PARENT
REMARK Flexibility Score: inf
ROOT
ATOM      1  C   UNL     1       5.798  -2.405  50.267  1.00  0.00     0.000 C 
ENDROOT
BRANCH   1   2
ATOM      2  C   UNL     1       7.223  -2.078  49.790  1.00  0.00     0.000 C 
BRANCH   2   3
ATOM      3  C   UNL     1       7.241  -1.386  48.416  1.00  0.00     0.000 C 
BRANCH   3   4
ATOM      4  C   UNL     1       5.895  -1.498  47.682  1.00  0.00     0.006 C 
BRANCH   4   5
ATOM      5  C   UNL     1       6.022  -1.262  46.170  1.00  0.00     0.053 C 
BRANCH   5   6
ATOM      6  C   UNL     1       5.134  -2.202  45.419  1.00  0.00     0.041 C 
ATOM      7  O   UNL     1       4.460  -1.790  44.439  1.00  0.00    -0.550 OA
ATOM      8  O   UNL     1       5.089  -3.546  45.769  1.00  0.00    -0.550 OA
ENDBRANCH   5   6
ENDBRANCH   4   5
ENDBRANCH   3   4
ENDBRANCH   2   3
ENDBRANCH   1   2
BRANCH   1   9
ATOM      9  C   UNL     1       5.722  -3.738  51.032  1.00  0.00     0.000 C 
BRANCH   9  10
ATOM     10  C   UNL     1       4.783  -4.753  50.359  1.00  0.00    -0.000 C 
BRANCH  10  11
ATOM     11  C   UNL     1       5.209  -5.097  48.924  1.00  0.00    -0.000 C 
BRANCH  11  12
ATOM     12  C   UNL     1       6.630  -5.671  48.897  1.00  0.00    -0.000 C 
BRANCH  12  13
ATOM     13  C   UNL     1       7.446  -5.069  47.747  1.00  0.00    -0.003 C 
ATOM     14  C   UNL     1       8.944  -5.195  48.009  1.00  0.00     0.004 C 
ENDBRANCH  12  13
ENDBRANCH  11  12
ENDBRANCH  10  11
ENDBRANCH   9  10
ENDBRANCH   1   9
TORSDOF 10
ENDMDL
MODEL 9
REMARK VINA RESULT:    -3.899      2.112      3.318
REMARK INTER + INTRA:          -7.845
REMARK INTER:                  -6.595
REMARK INTRA:                  -1.251
REMARK UNBOUND:                -1.667
REMARK SMILES CCCCCCCCCCCC(=O)[O-]
REMARK SMILES IDX 7 1 8 2 9 3 10 4 11 5 12 6 13 7 14 8 6 9 5 10 4 11 3 12 2 13
REMARK SMILES IDX 1 14
REMARK H PARENT
REMARK Flexibility Score: inf
ROOT
ATOM      1  C   UNL     1       5.650  -4.592  50.349  1.00  0.00     0.000 C 
ENDROOT
BRANCH   1   2
ATOM      2  C   UNL     1       6.459  -5.670  49.607  1.00  0.00     0.000 C 
BRANCH   2   3
ATOM      3  C   UNL     1       7.922  -5.738  50.077  1.00  0.00     0.000 C 
BRANCH   3   4
ATOM      4  C   UNL     1       8.911  -5.273  48.996  1.00  0.00     0.006 C 
BRANCH   4   5
ATOM      5  C   UNL     1       8.456  -3.989  48.289  1.00  0.00     0.053 C 
BRANCH   5   6
ATOM      6  C   UNL     1       8.920  -2.785  49.045  1.00  0.00     0.041 C 
ATOM      7  O   UNL     1      10.064  -2.304  48.830  1.00  0.00    -0.550 OA
ATOM      8  O   UNL     1       8.071  -2.163  49.952  1.00  0.00    -0.550 OA
ENDBRANCH   5   6
ENDBRANCH   4   5
ENDBRANCH   3   4
ENDBRANCH   2   3
ENDBRANCH   1   2
BRANCH   1   9
ATOM      9  C   UNL     1       4.721  -3.802  49.411  1.00  0.00     0.000 C 
BRANCH   9  10
ATOM     10  C   UNL     1       4.662  -4.400  47.996  1.00  0.00    -0.000 C 
BRANCH  10  11
ATOM     11  C   UNL     1       5.203  -3.442  46.923  1.00  0.00    -0.000 C 
BRANCH  11  12
ATOM     12  C   UNL     1       5.350  -2.021  47.481  1.00  0.00    -0.000 C 
BRANCH  12  13
ATOM     13  C   UNL     1       5.936  -1.075  46.426  1.00  0.00    -0.003 C 
ATOM     14  C   UNL     1       7.024  -0.188  47.026  1.00  0.00     0.004 C 
ENDBRANCH  12  13
ENDBRANCH  11  12
ENDBRANCH  10  11
ENDBRANCH   9  10
ENDBRANCH   1   9
TORSDOF 10
ENDMDL
