MODEL 1
REMARK VINA RESULT:    -2.404      0.000      0.000
REMARK INTER + INTRA:          -3.134
REMARK INTER:                  -2.826
REMARK INTRA:                  -0.308
REMARK UNBOUND:                -0.308
REMARK SMILES O=c1cc(-c2ccc(O)c(O)c2)oc2cc(O)cc(O)c12
REMARK SMILES IDX 4 1 3 2 2 3 1 4 21 5 19 6 18 7 16 8 15 9 14 10 13 11 5 12
REMARK SMILES IDX 6 13 7 14 8 15 12 16 10 17 9 18 11 20 20 22 17 24
REMARK H PARENT 9 19 11 21 20 23 17 25
REMARK Flexibility Score: inf
ROOT
ATOM      1  C   UNL     1       7.661 -34.073  16.008  1.00  0.00     0.138 A 
ATOM      2  C   UNL     1       6.634 -34.950  15.620  1.00  0.00     0.100 A 
ATOM      3  C   UNL     1       6.920 -35.992  14.739  1.00  0.00     0.197 A 
ATOM      4  O   UNL     1       5.991 -36.774  14.396  1.00  0.00    -0.289 OA
ATOM      5  C   UNL     1       8.231 -36.150  14.248  1.00  0.00     0.107 A 
ATOM      6  C   UNL     1       8.605 -37.182  13.354  1.00  0.00     0.134 A 
ATOM      7  C   UNL     1       9.932 -37.266  12.906  1.00  0.00     0.093 A 
ATOM      8  C   UNL     1      10.889 -36.342  13.335  1.00  0.00     0.123 A 
ATOM      9  C   UNL     1      10.525 -35.321  14.219  1.00  0.00     0.094 A 
ATOM     10  C   UNL     1       9.208 -35.220  14.677  1.00  0.00     0.146 A 
ATOM     11  O   UNL     1       8.887 -34.242  15.518  1.00  0.00    -0.456 OA
ENDROOT
BRANCH   1  12
ATOM     12  C   UNL     1       7.416 -32.943  16.941  1.00  0.00     0.021 A 
ATOM     13  C   UNL     1       6.135 -32.370  17.012  1.00  0.00     0.016 A 
ATOM     14  C   UNL     1       5.881 -31.301  17.875  1.00  0.00     0.051 A 
ATOM     15  C   UNL     1       6.905 -30.781  18.676  1.00  0.00     0.157 A 
ATOM     16  C   UNL     1       8.446 -32.406  17.739  1.00  0.00     0.062 A 
ATOM     17  C   UNL     1       8.194 -31.335  18.603  1.00  0.00     0.158 A 
BRANCH  15  18
ATOM     18  O   UNL     1       6.649 -29.716  19.537  1.00  0.00    -0.504 OA
ATOM     19  H   UNL     1       5.948 -29.017  19.323  1.00  0.00     0.293 HD
ENDBRANCH  15  18
BRANCH  17  20
ATOM     20  O   UNL     1       9.238 -30.832  19.379  1.00  0.00    -0.504 OA
ATOM     21  H   UNL     1       9.772 -31.418  20.010  1.00  0.00     0.293 HD
ENDBRANCH  17  20
ENDBRANCH   1  12
BRANCH   6  22
ATOM     22  O   UNL     1       7.672 -38.118  12.907  1.00  0.00    -0.507 OA
ATOM     23  H   UNL     1       7.224 -38.768  13.541  1.00  0.00     0.293 HD
ENDBRANCH   6  22
BRANCH   8  24
ATOM     24  O   UNL     1      12.200 -36.449  12.875  1.00  0.00    -0.508 OA
ATOM     25  H   UNL     1      12.869 -37.066  13.321  1.00  0.00     0.293 HD
ENDBRANCH   8  24
TORSDOF 5
ENDMDL
MODEL 2
REMARK VINA RESULT:     0.035      2.369      6.835
REMARK INTER + INTRA:          -0.267
REMARK INTER:                   0.049
REMARK INTRA:                  -0.316
REMARK UNBOUND:                -0.308
REMARK SMILES O=c1cc(-c2ccc(O)c(O)c2)oc2cc(O)cc(O)c12
REMARK SMILES IDX 4 1 3 2 2 3 1 4 21 5 19 6 18 7 16 8 15 9 14 10 13 11 5 12
REMARK SMILES IDX 6 13 7 14 8 15 12 16 10 17 9 18 11 20 20 22 17 24
REMARK H PARENT 9 19 11 21 20 23 17 25
REMARK Flexibility Score: inf
ROOT
ATOM      1  C   UNL     1       8.749 -33.786  15.430  1.00  0.00     0.138 A 
ATOM      2  C   UNL     1       9.642 -33.017  14.667  1.00  0.00     0.100 A 
ATOM      3  C   UNL     1      10.316 -31.953  15.267  1.00  0.00     0.197 A 
ATOM      4  O   UNL     1      11.116 -31.268  14.573  1.00  0.00    -0.289 OA
ATOM      5  C   UNL     1      10.089 -31.663  16.627  1.00  0.00     0.107 A 
ATOM      6  C   UNL     1      10.733 -30.604  17.311  1.00  0.00     0.134 A 
ATOM      7  C   UNL     1      10.447 -30.377  18.665  1.00  0.00     0.093 A 
ATOM      8  C   UNL     1       9.534 -31.186  19.347  1.00  0.00     0.123 A 
ATOM      9  C   UNL     1       8.895 -32.234  18.676  1.00  0.00     0.094 A 
ATOM     10  C   UNL     1       9.166 -32.477  17.326  1.00  0.00     0.146 A 
ATOM     11  O   UNL     1       8.548 -33.480  16.710  1.00  0.00    -0.456 OA
ENDROOT
BRANCH   1  12
ATOM     12  C   UNL     1       8.001 -34.929  14.846  1.00  0.00     0.021 A 
ATOM     13  C   UNL     1       7.955 -35.084  13.450  1.00  0.00     0.016 A 
ATOM     14  C   UNL     1       7.253 -36.146  12.875  1.00  0.00     0.051 A 
ATOM     15  C   UNL     1       6.575 -37.066  13.685  1.00  0.00     0.157 A 
ATOM     16  C   UNL     1       7.306 -35.850  15.655  1.00  0.00     0.062 A 
ATOM     17  C   UNL     1       6.600 -36.913  15.081  1.00  0.00     0.158 A 
BRANCH  15  18
ATOM     18  O   UNL     1       5.876 -38.125  13.109  1.00  0.00    -0.504 OA
ATOM     19  H   UNL     1       6.326 -38.778  12.479  1.00  0.00     0.293 HD
ENDBRANCH  15  18
BRANCH  17  20
ATOM     20  O   UNL     1       5.925 -37.806  15.914  1.00  0.00    -0.504 OA
ATOM     21  H   UNL     1       5.254 -37.494  16.607  1.00  0.00     0.293 HD
ENDBRANCH  17  20
ENDBRANCH   1  12
BRANCH   6  22
ATOM     22  O   UNL     1      11.649 -29.779  16.658  1.00  0.00    -0.507 OA
ATOM     23  H   UNL     1      12.586 -29.635  17.015  1.00  0.00     0.293 HD
ENDBRANCH   6  22
BRANCH   8  24
ATOM     24  O   UNL     1       9.268 -30.938  20.692  1.00  0.00    -0.508 OA
ATOM     25  H   UNL     1       9.929 -30.446  21.280  1.00  0.00     0.293 HD
ENDBRANCH   8  24
TORSDOF 5
ENDMDL
MODEL 3
REMARK VINA RESULT:     0.315      2.758      3.832
REMARK INTER + INTRA:           0.061
REMARK INTER:                   0.361
REMARK INTRA:                  -0.300
REMARK UNBOUND:                -0.308
REMARK SMILES O=c1cc(-c2ccc(O)c(O)c2)oc2cc(O)cc(O)c12
REMARK SMILES IDX 4 1 3 2 2 3 1 4 21 5 19 6 18 7 16 8 15 9 14 10 13 11 5 12
REMARK SMILES IDX 6 13 7 14 8 15 12 16 10 17 9 18 11 20 20 22 17 24
REMARK H PARENT 9 19 11 21 20 23 17 25
REMARK Flexibility Score: inf
ROOT
ATOM      1  C   UNL     1       8.401 -33.720  17.071  1.00  0.00     0.138 A 
ATOM      2  C   UNL     1       8.083 -34.475  18.212  1.00  0.00     0.100 A 
ATOM      3  C   UNL     1       7.372 -35.666  18.070  1.00  0.00     0.197 A 
ATOM      4  O   UNL     1       7.091 -36.337  19.101  1.00  0.00    -0.289 OA
ATOM      5  C   UNL     1       6.978 -36.094  16.786  1.00  0.00     0.107 A 
ATOM      6  C   UNL     1       6.257 -37.289  16.555  1.00  0.00     0.134 A 
ATOM      7  C   UNL     1       5.897 -37.640  15.245  1.00  0.00     0.093 A 
ATOM      8  C   UNL     1       6.245 -36.824  14.166  1.00  0.00     0.123 A 
ATOM      9  C   UNL     1       6.958 -35.641  14.389  1.00  0.00     0.094 A 
ATOM     10  C   UNL     1       7.327 -35.272  15.687  1.00  0.00     0.146 A 
ATOM     11  O   UNL     1       8.006 -34.145  15.873  1.00  0.00    -0.456 OA
ENDROOT
BRANCH   1  12
ATOM     12  C   UNL     1       9.154 -32.443  17.160  1.00  0.00     0.021 A 
ATOM     13  C   UNL     1       8.904 -31.566  18.229  1.00  0.00     0.016 A 
ATOM     14  C   UNL     1       9.593 -30.355  18.332  1.00  0.00     0.051 A 
ATOM     15  C   UNL     1      10.538 -29.995  17.362  1.00  0.00     0.157 A 
ATOM     16  C   UNL     1      10.096 -32.069  16.181  1.00  0.00     0.062 A 
ATOM     17  C   UNL     1      10.787 -30.856  16.281  1.00  0.00     0.158 A 
BRANCH  15  18
ATOM     18  O   UNL     1      11.225 -28.787  17.468  1.00  0.00    -0.504 OA
ATOM     19  H   UNL     1      12.180 -28.748  17.804  1.00  0.00     0.293 HD
ENDBRANCH  15  18
BRANCH  17  20
ATOM     20  O   UNL     1      11.713 -30.521  15.293  1.00  0.00    -0.504 OA
ATOM     21  H   UNL     1      11.566 -30.751  14.317  1.00  0.00     0.293 HD
ENDBRANCH  17  20
ENDBRANCH   1  12
BRANCH   6  22
ATOM     22  O   UNL     1       5.895 -38.125  17.611  1.00  0.00    -0.507 OA
ATOM     23  H   UNL     1       6.555 -38.765  18.035  1.00  0.00     0.293 HD
ENDBRANCH   6  22
BRANCH   8  24
ATOM     24  O   UNL     1       5.875 -37.196  12.876  1.00  0.00    -0.508 OA
ATOM     25  H   UNL     1       6.204 -36.688  12.064  1.00  0.00     0.293 HD
ENDBRANCH   8  24
TORSDOF 5
ENDMDL
