MODEL 1
REMARK VINA RESULT:    -5.524      0.000      0.000
REMARK INTER + INTRA:         -12.427
REMARK INTER:                 -10.045
REMARK INTRA:                  -2.382
REMARK UNBOUND:                -2.382
REMARK SMILES CCCCCCCCCCCCCCCC(=O)[O-]
REMARK SMILES IDX 9 1 10 2 11 3 12 4 13 5 14 6 15 7 16 8 17 9 18 10 8 11 7 12
REMARK SMILES IDX 6 13 5 14 4 15 3 16 2 17 1 18
REMARK H PARENT
REMARK Flexibility Score: inf
ROOT
ATOM      1  C   UNL     1      18.035  -6.927  35.874  1.00  0.00     0.000 C 
ENDROOT
BRANCH   1   2
ATOM      2  C   UNL     1      17.768  -5.491  36.356  1.00  0.00     0.000 C 
BRANCH   2   3
ATOM      3  C   UNL     1      16.574  -4.840  35.640  1.00  0.00     0.000 C 
BRANCH   3   4
ATOM      4  C   UNL     1      15.885  -5.789  34.648  1.00  0.00     0.000 C 
BRANCH   4   5
ATOM      5  C   UNL     1      16.107  -5.329  33.202  1.00  0.00     0.000 C 
BRANCH   5   6
ATOM      6  C   UNL     1      16.114  -6.520  32.238  1.00  0.00     0.006 C 
BRANCH   6   7
ATOM      7  C   UNL     1      15.836  -7.830  32.982  1.00  0.00     0.053 C 
BRANCH   7   8
ATOM      8  C   UNL     1      15.943  -8.995  32.049  1.00  0.00     0.041 C 
ATOM      9  O   UNL     1      14.947  -9.735  31.842  1.00  0.00    -0.550 OA
ATOM     10  O   UNL     1      17.160  -9.293  31.447  1.00  0.00    -0.550 OA
ENDBRANCH   7   8
ENDBRANCH   6   7
ENDBRANCH   5   6
ENDBRANCH   4   5
ENDBRANCH   3   4
ENDBRANCH   2   3
ENDBRANCH   1   2
BRANCH   1  11
ATOM     11  C   UNL     1      19.395  -7.072  35.173  1.00  0.00     0.000 C 
BRANCH  11  12
ATOM     12  C   UNL     1      19.253  -7.302  33.657  1.00  0.00    -0.000 C 
BRANCH  12  13
ATOM     13  C   UNL     1      19.996  -6.242  32.827  1.00  0.00    -0.000 C 
BRANCH  13  14
ATOM     14  C   UNL     1      19.437  -4.825  33.034  1.00  0.00    -0.000 C 
BRANCH  14  15
ATOM     15  C   UNL     1      20.544  -3.861  33.487  1.00  0.00    -0.000 C 
BRANCH  15  16
ATOM     16  C   UNL     1      20.187  -3.104  34.779  1.00  0.00    -0.000 C 
BRANCH  16  17
ATOM     17  C   UNL     1      18.940  -2.207  34.682  1.00  0.00    -0.003 C 
ATOM     18  C   UNL     1      18.898  -1.120  35.755  1.00  0.00     0.004 C 
ENDBRANCH  16  17
ENDBRANCH  15  16
ENDBRANCH  14  15
ENDBRANCH  13  14
ENDBRANCH  12  13
ENDBRANCH  11  12
ENDBRANCH   1  11
TORSDOF 14
ENDMDL
MODEL 2
REMARK VINA RESULT:    -5.521      3.442      6.140
REMARK INTER + INTRA:         -12.423
REMARK INTER:                  -9.936
REMARK INTRA:                  -2.487
REMARK UNBOUND:                -2.382
REMARK SMILES CCCCCCCCCCCCCCCC(=O)[O-]
REMARK SMILES IDX 9 1 10 2 11 3 12 4 13 5 14 6 15 7 16 8 17 9 18 10 8 11 7 12
REMARK SMILES IDX 6 13 5 14 4 15 3 16 2 17 1 18
REMARK H PARENT
REMARK Flexibility Score: inf
ROOT
ATOM      1  C   UNL     1      19.568  -7.008  35.043  1.00  0.00     0.000 C 
ENDROOT
BRANCH   1   2
ATOM      2  C   UNL     1      19.241  -7.100  33.543  1.00  0.00     0.000 C 
BRANCH   2   3
ATOM      3  C   UNL     1      19.991  -6.050  32.708  1.00  0.00     0.000 C 
BRANCH   3   4
ATOM      4  C   UNL     1      19.513  -4.617  32.987  1.00  0.00     0.000 C 
BRANCH   4   5
ATOM      5  C   UNL     1      20.661  -3.745  33.508  1.00  0.00     0.000 C 
BRANCH   5   6
ATOM      6  C   UNL     1      20.323  -3.149  34.879  1.00  0.00     0.006 C 
BRANCH   6   7
ATOM      7  C   UNL     1      19.112  -2.215  34.788  1.00  0.00     0.053 C 
BRANCH   7   8
ATOM      8  C   UNL     1      19.193  -1.150  35.837  1.00  0.00     0.041 C 
ATOM      9  O   UNL     1      18.227  -0.958  36.620  1.00  0.00    -0.550 OA
ATOM     10  O   UNL     1      20.317  -0.337  35.916  1.00  0.00    -0.550 OA
ENDBRANCH   7   8
ENDBRANCH   6   7
ENDBRANCH   5   6
ENDBRANCH   4   5
ENDBRANCH   3   4
ENDBRANCH   2   3
ENDBRANCH   1   2
BRANCH   1  11
ATOM     11  C   UNL     1      18.326  -7.195  35.930  1.00  0.00     0.000 C 
BRANCH  11  12
ATOM     12  C   UNL     1      18.119  -6.024  36.907  1.00  0.00    -0.000 C 
BRANCH  12  13
ATOM     13  C   UNL     1      17.405  -4.829  36.256  1.00  0.00    -0.000 C 
BRANCH  13  14
ATOM     14  C   UNL     1      16.132  -5.237  35.497  1.00  0.00    -0.000 C 
BRANCH  14  15
ATOM     15  C   UNL     1      16.184  -4.753  34.040  1.00  0.00    -0.000 C 
BRANCH  15  16
ATOM     16  C   UNL     1      15.908  -5.877  33.025  1.00  0.00    -0.000 C 
BRANCH  16  17
ATOM     17  C   UNL     1      15.505  -7.226  33.646  1.00  0.00    -0.003 C 
ATOM     18  C   UNL     1      15.832  -8.420  32.750  1.00  0.00     0.004 C 
ENDBRANCH  16  17
ENDBRANCH  15  16
ENDBRANCH  14  15
ENDBRANCH  13  14
ENDBRANCH  12  13
ENDBRANCH  11  12
ENDBRANCH   1  11
TORSDOF 14
ENDMDL
MODEL 3
REMARK VINA RESULT:    -5.237      1.036      2.483
REMARK INTER + INTRA:         -11.906
REMARK INTER:                  -9.724
REMARK INTRA:                  -2.182
REMARK UNBOUND:                -2.382
REMARK SMILES CCCCCCCCCCCCCCCC(=O)[O-]
REMARK SMILES IDX 9 1 10 2 11 3 12 4 13 5 14 6 15 7 16 8 17 9 18 10 8 11 7 12
REMARK SMILES IDX 6 13 5 14 4 15 3 16 2 17 1 18
REMARK H PARENT
REMARK Flexibility Score: inf
ROOT
ATOM      1  C   UNL     1      17.403  -4.908  36.400  1.00  0.00     0.000 C 
ENDROOT
BRANCH   1   2
ATOM      2  C   UNL     1      18.216  -6.109  36.911  1.00  0.00     0.000 C 
BRANCH   2   3
ATOM      3  C   UNL     1      19.452  -6.399  36.044  1.00  0.00     0.000 C 
BRANCH   3   4
ATOM      4  C   UNL     1      19.217  -7.531  35.032  1.00  0.00     0.000 C 
BRANCH   4   5
ATOM      5  C   UNL     1      19.212  -6.993  33.597  1.00  0.00     0.000 C 
BRANCH   5   6
ATOM      6  C   UNL     1      18.418  -7.915  32.665  1.00  0.00     0.006 C 
BRANCH   6   7
ATOM      7  C   UNL     1      16.914  -7.800  32.928  1.00  0.00     0.053 C 
BRANCH   7   8
ATOM      8  C   UNL     1      16.156  -8.758  32.063  1.00  0.00     0.041 C 
ATOM      9  O   UNL     1      15.022  -9.170  32.419  1.00  0.00    -0.550 OA
ATOM     10  O   UNL     1      16.725  -9.233  30.888  1.00  0.00    -0.550 OA
ENDBRANCH   7   8
ENDBRANCH   6   7
ENDBRANCH   5   6
ENDBRANCH   4   5
ENDBRANCH   3   4
ENDBRANCH   2   3
ENDBRANCH   1   2
BRANCH   1  11
ATOM     11  C   UNL     1      16.255  -5.327  35.467  1.00  0.00     0.000 C 
BRANCH  11  12
ATOM     12  C   UNL     1      15.955  -4.268  34.391  1.00  0.00    -0.000 C 
BRANCH  12  13
ATOM     13  C   UNL     1      17.052  -4.191  33.316  1.00  0.00    -0.000 C 
BRANCH  13  14
ATOM     14  C   UNL     1      17.953  -2.955  33.474  1.00  0.00    -0.000 C 
BRANCH  14  15
ATOM     15  C   UNL     1      19.400  -3.369  33.781  1.00  0.00    -0.000 C 
BRANCH  15  16
ATOM     16  C   UNL     1      19.990  -2.631  34.996  1.00  0.00    -0.000 C 
BRANCH  16  17
ATOM     17  C   UNL     1      19.125  -1.478  35.536  1.00  0.00    -0.003 C 
ATOM     18  C   UNL     1      19.951  -0.293  36.035  1.00  0.00     0.004 C 
ENDBRANCH  16  17
ENDBRANCH  15  16
ENDBRANCH  14  15
ENDBRANCH  13  14
ENDBRANCH  12  13
ENDBRANCH  11  12
ENDBRANCH   1  11
TORSDOF 14
ENDMDL
MODEL 4
REMARK VINA RESULT:    -5.046     18.678     20.062
REMARK INTER + INTRA:         -11.558
REMARK INTER:                  -8.963
REMARK INTRA:                  -2.595
REMARK UNBOUND:                -2.382
REMARK SMILES CCCCCCCCCCCCCCCC(=O)[O-]
REMARK SMILES IDX 9 1 10 2 11 3 12 4 13 5 14 6 15 7 16 8 17 9 18 10 8 11 7 12
REMARK SMILES IDX 6 13 5 14 4 15 3 16 2 17 1 18
REMARK H PARENT
REMARK Flexibility Score: inf
ROOT
ATOM      1  C   UNL     1      10.181   6.489  21.651  1.00  0.00     0.000 C 
ENDROOT
BRANCH   1   2
ATOM      2  C   UNL     1       8.837   5.914  21.174  1.00  0.00     0.000 C 
BRANCH   2   3
ATOM      3  C   UNL     1       9.009   4.750  20.185  1.00  0.00     0.000 C 
BRANCH   3   4
ATOM      4  C   UNL     1      10.265   3.912  20.467  1.00  0.00     0.000 C 
BRANCH   4   5
ATOM      5  C   UNL     1      10.857   3.355  19.167  1.00  0.00     0.000 C 
BRANCH   5   6
ATOM      6  C   UNL     1       9.806   3.321  18.052  1.00  0.00     0.006 C 
BRANCH   6   7
ATOM      7  C   UNL     1       9.575   1.890  17.558  1.00  0.00     0.053 C 
BRANCH   7   8
ATOM      8  C   UNL     1       8.478   1.237  18.340  1.00  0.00     0.041 C 
ATOM      9  O   UNL     1       8.585   0.035  18.698  1.00  0.00    -0.550 OA
ATOM     10  O   UNL     1       7.317   1.942  18.631  1.00  0.00    -0.550 OA
ENDBRANCH   7   8
ENDBRANCH   6   7
ENDBRANCH   5   6
ENDBRANCH   4   5
ENDBRANCH   3   4
ENDBRANCH   2   3
ENDBRANCH   1   2
BRANCH   1  11
ATOM     11  C   UNL     1      10.187   8.026  21.686  1.00  0.00     0.000 C 
BRANCH  11  12
ATOM     12  C   UNL     1      11.586   8.615  21.432  1.00  0.00    -0.000 C 
BRANCH  12  13
ATOM     13  C   UNL     1      12.536   7.612  20.757  1.00  0.00    -0.000 C 
BRANCH  13  14
ATOM     14  C   UNL     1      12.661   7.838  19.241  1.00  0.00    -0.000 C 
BRANCH  14  15
ATOM     15  C   UNL     1      12.279   6.569  18.465  1.00  0.00    -0.000 C 
BRANCH  15  16
ATOM     16  C   UNL     1      11.093   6.786  17.507  1.00  0.00    -0.000 C 
BRANCH  16  17
ATOM     17  C   UNL     1       9.946   7.638  18.080  1.00  0.00    -0.003 C 
ATOM     18  C   UNL     1       8.584   7.288  17.483  1.00  0.00     0.004 C 
ENDBRANCH  16  17
ENDBRANCH  15  16
ENDBRANCH  14  15
ENDBRANCH  13  14
ENDBRANCH  12  13
ENDBRANCH  11  12
ENDBRANCH   1  11
TORSDOF 14
ENDMDL
MODEL 5
REMARK VINA RESULT:    -5.045      3.621      6.423
REMARK INTER + INTRA:         -11.557
REMARK INTER:                  -9.527
REMARK INTRA:                  -2.030
REMARK UNBOUND:                -2.382
REMARK SMILES CCCCCCCCCCCCCCCC(=O)[O-]
REMARK SMILES IDX 9 1 10 2 11 3 12 4 13 5 14 6 15 7 16 8 17 9 18 10 8 11 7 12
REMARK SMILES IDX 6 13 5 14 4 15 3 16 2 17 1 18
REMARK H PARENT
REMARK Flexibility Score: inf
ROOT
ATOM      1  C   UNL     1      16.055  -5.287  35.056  1.00  0.00     0.000 C 
ENDROOT
BRANCH   1   2
ATOM      2  C   UNL     1      16.279  -4.478  33.767  1.00  0.00     0.000 C 
BRANCH   2   3
ATOM      3  C   UNL     1      17.542  -3.605  33.829  1.00  0.00     0.000 C 
BRANCH   3   4
ATOM      4  C   UNL     1      18.735  -4.231  33.091  1.00  0.00     0.000 C 
BRANCH   4   5
ATOM      5  C   UNL     1      20.059  -3.855  33.767  1.00  0.00     0.000 C 
BRANCH   5   6
ATOM      6  C   UNL     1      19.814  -3.112  35.085  1.00  0.00     0.006 C 
BRANCH   6   7
ATOM      7  C   UNL     1      20.406  -1.700  35.037  1.00  0.00     0.053 C 
BRANCH   7   8
ATOM      8  C   UNL     1      19.722  -0.812  36.028  1.00  0.00     0.041 C 
ATOM      9  O   UNL     1      20.370   0.083  36.631  1.00  0.00    -0.550 OA
ATOM     10  O   UNL     1      18.377  -1.005  36.322  1.00  0.00    -0.550 OA
ENDBRANCH   7   8
ENDBRANCH   6   7
ENDBRANCH   5   6
ENDBRANCH   4   5
ENDBRANCH   3   4
ENDBRANCH   2   3
ENDBRANCH   1   2
BRANCH   1  11
ATOM     11  C   UNL     1      17.106  -4.980  36.135  1.00  0.00     0.000 C 
BRANCH  11  12
ATOM     12  C   UNL     1      18.056  -6.166  36.383  1.00  0.00    -0.000 C 
BRANCH  12  13
ATOM     13  C   UNL     1      17.870  -7.297  35.359  1.00  0.00    -0.000 C 
BRANCH  13  14
ATOM     14  C   UNL     1      19.103  -7.498  34.463  1.00  0.00    -0.000 C 
BRANCH  14  15
ATOM     15  C   UNL     1      18.685  -7.863  33.031  1.00  0.00    -0.000 C 
BRANCH  15  16
ATOM     16  C   UNL     1      17.158  -7.920  32.848  1.00  0.00    -0.000 C 
BRANCH  16  17
ATOM     17  C   UNL     1      16.683  -8.687  31.601  1.00  0.00    -0.003 C 
ATOM     18  C   UNL     1      15.471  -9.578  31.871  1.00  0.00     0.004 C 
ENDBRANCH  16  17
ENDBRANCH  15  16
ENDBRANCH  14  15
ENDBRANCH  13  14
ENDBRANCH  12  13
ENDBRANCH  11  12
ENDBRANCH   1  11
TORSDOF 14
ENDMDL
MODEL 6
REMARK VINA RESULT:    -5.032     19.062     20.925
REMARK INTER + INTRA:         -11.533
REMARK INTER:                  -9.453
REMARK INTRA:                  -2.080
REMARK UNBOUND:                -2.382
REMARK SMILES CCCCCCCCCCCCCCCC(=O)[O-]
REMARK SMILES IDX 9 1 10 2 11 3 12 4 13 5 14 6 15 7 16 8 17 9 18 10 8 11 7 12
REMARK SMILES IDX 6 13 5 14 4 15 3 16 2 17 1 18
REMARK H PARENT
REMARK Flexibility Score: inf
ROOT
ATOM      1  C   UNL     1       7.997   5.136  18.907  1.00  0.00     0.000 C 
ENDROOT
BRANCH   1   2
ATOM      2  C   UNL     1       8.334   5.717  17.523  1.00  0.00     0.000 C 
BRANCH   2   3
ATOM      3  C   UNL     1       9.144   7.021  17.609  1.00  0.00     0.000 C 
BRANCH   3   4
ATOM      4  C   UNL     1      10.623   6.828  17.243  1.00  0.00     0.000 C 
BRANCH   4   5
ATOM      5  C   UNL     1      11.518   7.769  18.057  1.00  0.00     0.000 C 
BRANCH   5   6
ATOM      6  C   UNL     1      12.250   7.010  19.170  1.00  0.00     0.006 C 
BRANCH   6   7
ATOM      7  C   UNL     1      12.085   7.718  20.518  1.00  0.00     0.053 C 
BRANCH   7   8
ATOM      8  C   UNL     1      13.322   8.488  20.859  1.00  0.00     0.041 C 
ATOM      9  O   UNL     1      14.034   8.981  19.946  1.00  0.00    -0.550 OA
ATOM     10  O   UNL     1      13.715   8.619  22.185  1.00  0.00    -0.550 OA
ENDBRANCH   7   8
ENDBRANCH   6   7
ENDBRANCH   5   6
ENDBRANCH   4   5
ENDBRANCH   3   4
ENDBRANCH   2   3
ENDBRANCH   1   2
BRANCH   1  11
ATOM     11  C   UNL     1       8.751   5.846  20.043  1.00  0.00     0.000 C 
BRANCH  11  12
ATOM     12  C   UNL     1       9.367   4.856  21.048  1.00  0.00    -0.000 C 
BRANCH  12  13
ATOM     13  C   UNL     1      10.711   4.285  20.568  1.00  0.00    -0.000 C 
BRANCH  13  14
ATOM     14  C   UNL     1      10.560   2.943  19.835  1.00  0.00    -0.000 C 
BRANCH  14  15
ATOM     15  C   UNL     1      10.936   3.084  18.352  1.00  0.00    -0.000 C 
BRANCH  15  16
ATOM     16  C   UNL     1       9.967   2.340  17.415  1.00  0.00    -0.000 C 
BRANCH  16  17
ATOM     17  C   UNL     1       8.824   1.593  18.125  1.00  0.00    -0.003 C 
ATOM     18  C   UNL     1       8.467   0.267  17.455  1.00  0.00     0.004 C 
ENDBRANCH  16  17
ENDBRANCH  15  16
ENDBRANCH  14  15
ENDBRANCH  13  14
ENDBRANCH  12  13
ENDBRANCH  11  12
ENDBRANCH   1  11
TORSDOF 14
ENDMDL
MODEL 7
REMARK VINA RESULT:    -4.881      0.917      3.084
REMARK INTER + INTRA:         -11.258
REMARK INTER:                  -8.976
REMARK INTRA:                  -2.282
REMARK UNBOUND:                -2.382
REMARK SMILES CCCCCCCCCCCCCCCC(=O)[O-]
REMARK SMILES IDX 9 1 10 2 11 3 12 4 13 5 14 6 15 7 16 8 17 9 18 10 8 11 7 12
REMARK SMILES IDX 6 13 5 14 4 15 3 16 2 17 1 18
REMARK H PARENT
REMARK Flexibility Score: inf
ROOT
ATOM      1  C   UNL     1      18.070  -4.096  36.172  1.00  0.00     0.000 C 
ENDROOT
BRANCH   1   2
ATOM      2  C   UNL     1      16.733  -4.785  35.848  1.00  0.00     0.000 C 
BRANCH   2   3
ATOM      3  C   UNL     1      16.172  -4.371  34.478  1.00  0.00     0.000 C 
BRANCH   3   4
ATOM      4  C   UNL     1      15.972  -5.564  33.532  1.00  0.00     0.000 C 
BRANCH   4   5
ATOM      5  C   UNL     1      15.364  -6.759  34.275  1.00  0.00     0.000 C 
BRANCH   5   6
ATOM      6  C   UNL     1      15.525  -8.052  33.466  1.00  0.00     0.006 C 
BRANCH   6   7
ATOM      7  C   UNL     1      16.061  -7.758  32.062  1.00  0.00     0.053 C 
BRANCH   7   8
ATOM      8  C   UNL     1      16.351  -9.034  31.335  1.00  0.00     0.041 C 
ATOM      9  O   UNL     1      15.423  -9.659  30.759  1.00  0.00    -0.550 OA
ATOM     10  O   UNL     1      17.638  -9.556  31.335  1.00  0.00    -0.550 OA
ENDBRANCH   7   8
ENDBRANCH   6   7
ENDBRANCH   5   6
ENDBRANCH   4   5
ENDBRANCH   3   4
ENDBRANCH   2   3
ENDBRANCH   1   2
BRANCH   1  11
ATOM     11  C   UNL     1      18.229  -2.748  35.450  1.00  0.00     0.000 C 
BRANCH  11  12
ATOM     12  C   UNL     1      19.321  -2.788  34.365  1.00  0.00    -0.000 C 
BRANCH  12  13
ATOM     13  C   UNL     1      19.951  -4.182  34.211  1.00  0.00    -0.000 C 
BRANCH  13  14
ATOM     14  C   UNL     1      19.504  -4.899  32.927  1.00  0.00    -0.000 C 
BRANCH  14  15
ATOM     15  C   UNL     1      19.922  -6.377  32.952  1.00  0.00    -0.000 C 
BRANCH  15  16
ATOM     16  C   UNL     1      19.043  -7.233  33.882  1.00  0.00    -0.000 C 
BRANCH  16  17
ATOM     17  C   UNL     1      19.534  -7.320  35.338  1.00  0.00    -0.003 C 
ATOM     18  C   UNL     1      18.495  -7.919  36.285  1.00  0.00     0.004 C 
ENDBRANCH  16  17
ENDBRANCH  15  16
ENDBRANCH  14  15
ENDBRANCH  13  14
ENDBRANCH  12  13
ENDBRANCH  11  12
ENDBRANCH   1  11
TORSDOF 14
ENDMDL
MODEL 8
REMARK VINA RESULT:    -4.838     19.335     21.052
REMARK INTER + INTRA:         -11.179
REMARK INTER:                  -9.036
REMARK INTRA:                  -2.143
REMARK UNBOUND:                -2.382
REMARK SMILES CCCCCCCCCCCCCCCC(=O)[O-]
REMARK SMILES IDX 9 1 10 2 11 3 12 4 13 5 14 6 15 7 16 8 17 9 18 10 8 11 7 12
REMARK SMILES IDX 6 13 5 14 4 15 3 16 2 17 1 18
REMARK H PARENT
REMARK Flexibility Score: inf
ROOT
ATOM      1  C   UNL     1      10.644   6.955  21.702  1.00  0.00     0.000 C 
ENDROOT
BRANCH   1   2
ATOM      2  C   UNL     1      11.370   8.194  21.149  1.00  0.00     0.000 C 
BRANCH   2   3
ATOM      3  C   UNL     1      12.706   7.844  20.475  1.00  0.00     0.000 C 
BRANCH   3   4
ATOM      4  C   UNL     1      12.605   7.792  18.943  1.00  0.00     0.000 C 
BRANCH   4   5
ATOM      5  C   UNL     1      12.176   6.400  18.467  1.00  0.00     0.000 C 
BRANCH   5   6
ATOM      6  C   UNL     1      10.983   6.487  17.509  1.00  0.00     0.006 C 
BRANCH   6   7
ATOM      7  C   UNL     1      10.267   7.834  17.645  1.00  0.00     0.053 C 
BRANCH   7   8
ATOM      8  C   UNL     1       8.814   7.691  17.313  1.00  0.00     0.041 C 
ATOM      9  O   UNL     1       8.107   8.712  17.112  1.00  0.00    -0.550 OA
ATOM     10  O   UNL     1       8.232   6.430  17.274  1.00  0.00    -0.550 OA
ENDBRANCH   7   8
ENDBRANCH   6   7
ENDBRANCH   5   6
ENDBRANCH   4   5
ENDBRANCH   3   4
ENDBRANCH   2   3
ENDBRANCH   1   2
BRANCH   1  11
ATOM     11  C   UNL     1       9.289   6.711  21.018  1.00  0.00     0.000 C 
BRANCH  11  12
ATOM     12  C   UNL     1       9.075   5.232  20.650  1.00  0.00    -0.000 C 
BRANCH  12  13
ATOM     13  C   UNL     1      10.287   4.354  21.000  1.00  0.00    -0.000 C 
BRANCH  13  14
ATOM     14  C   UNL     1      10.643   3.358  19.884  1.00  0.00    -0.000 C 
BRANCH  14  15
ATOM     15  C   UNL     1       9.671   3.491  18.702  1.00  0.00    -0.000 C 
BRANCH  15  16
ATOM     16  C   UNL     1       9.593   2.215  17.844  1.00  0.00    -0.000 C 
BRANCH  16  17
ATOM     17  C   UNL     1       8.598   1.155  18.349  1.00  0.00    -0.003 C 
ATOM     18  C   UNL     1       8.113   0.215  17.246  1.00  0.00     0.004 C 
ENDBRANCH  16  17
ENDBRANCH  15  16
ENDBRANCH  14  15
ENDBRANCH  13  14
ENDBRANCH  12  13
ENDBRANCH  11  12
ENDBRANCH   1  11
TORSDOF 14
ENDMDL
MODEL 9
REMARK VINA RESULT:    -4.827      0.879      1.492
REMARK INTER + INTRA:         -11.161
REMARK INTER:                  -9.164
REMARK INTRA:                  -1.996
REMARK UNBOUND:                -2.382
REMARK SMILES CCCCCCCCCCCCCCCC(=O)[O-]
REMARK SMILES IDX 9 1 10 2 11 3 12 4 13 5 14 6 15 7 16 8 17 9 18 10 8 11 7 12
REMARK SMILES IDX 6 13 5 14 4 15 3 16 2 17 1 18
REMARK H PARENT
REMARK Flexibility Score: inf
ROOT
ATOM      1  C   UNL     1      19.586  -7.331  34.924  1.00  0.00     0.000 C 
ENDROOT
BRANCH   1   2
ATOM      2  C   UNL     1      18.665  -6.607  35.921  1.00  0.00     0.000 C 
BRANCH   2   3
ATOM      3  C   UNL     1      17.180  -6.939  35.702  1.00  0.00     0.000 C 
BRANCH   3   4
ATOM      4  C   UNL     1      16.331  -5.695  35.398  1.00  0.00     0.000 C 
BRANCH   4   5
ATOM      5  C   UNL     1      15.568  -5.860  34.079  1.00  0.00     0.000 C 
BRANCH   5   6
ATOM      6  C   UNL     1      15.567  -7.323  33.620  1.00  0.00     0.006 C 
BRANCH   6   7
ATOM      7  C   UNL     1      16.056  -7.446  32.174  1.00  0.00     0.053 C 
BRANCH   7   8
ATOM      8  C   UNL     1      16.194  -8.885  31.788  1.00  0.00     0.041 C 
ATOM      9  O   UNL     1      15.200  -9.654  31.842  1.00  0.00    -0.550 OA
ATOM     10  O   UNL     1      17.435  -9.388  31.416  1.00  0.00    -0.550 OA
ENDBRANCH   7   8
ENDBRANCH   6   7
ENDBRANCH   5   6
ENDBRANCH   4   5
ENDBRANCH   3   4
ENDBRANCH   2   3
ENDBRANCH   1   2
BRANCH   1  11
ATOM     11  C   UNL     1      19.270  -6.973  33.463  1.00  0.00     0.000 C 
BRANCH  11  12
ATOM     12  C   UNL     1      19.784  -5.575  33.075  1.00  0.00    -0.000 C 
BRANCH  12  13
ATOM     13  C   UNL     1      18.651  -4.620  32.668  1.00  0.00    -0.000 C 
BRANCH  13  14
ATOM     14  C   UNL     1      18.418  -3.500  33.695  1.00  0.00    -0.000 C 
BRANCH  14  15
ATOM     15  C   UNL     1      19.529  -3.490  34.755  1.00  0.00    -0.000 C 
BRANCH  15  16
ATOM     16  C   UNL     1      20.172  -2.103  34.937  1.00  0.00    -0.000 C 
BRANCH  16  17
ATOM     17  C   UNL     1      19.280  -1.063  35.640  1.00  0.00    -0.003 C 
ATOM     18  C   UNL     1      20.079  -0.008  36.403  1.00  0.00     0.004 C 
ENDBRANCH  16  17
ENDBRANCH  15  16
ENDBRANCH  14  15
ENDBRANCH  13  14
ENDBRANCH  12  13
ENDBRANCH  11  12
ENDBRANCH   1  11
TORSDOF 14
ENDMDL
