MODEL 1
REMARK VINA RESULT:    -3.388      0.000      0.000
REMARK INTER + INTRA:          -9.933
REMARK INTER:                  -7.349
REMARK INTRA:                  -2.584
REMARK UNBOUND:                -2.584
REMARK SMILES CCCCCCCCCCCCCCCCCCCCCC(=O)[O-]
REMARK SMILES IDX 12 1 11 2 10 3 9 4 8 5 7 6 6 7 5 8 4 9 3 10 2 11 1 12 13 13
REMARK SMILES IDX 14 14 15 15 16 16 17 17 18 18 19 19 20 20 21 21 22 22 23 23
REMARK SMILES IDX 24 24
REMARK H PARENT
REMARK Flexibility Score: inf
ROOT
ATOM      1  C   UNL     1       5.395   0.118  -6.744  1.00  0.00     0.000 C 
ENDROOT
BRANCH   1   2
ATOM      2  C   UNL     1       5.904   1.051  -5.631  1.00  0.00     0.000 C 
BRANCH   2   3
ATOM      3  C   UNL     1       6.086   0.326  -4.289  1.00  0.00     0.000 C 
BRANCH   3   4
ATOM      4  C   UNL     1       6.080  -1.203  -4.438  1.00  0.00    -0.000 C 
BRANCH   4   5
ATOM      5  C   UNL     1       5.321  -1.864  -3.280  1.00  0.00    -0.000 C 
BRANCH   5   6
ATOM      6  C   UNL     1       3.820  -1.543  -3.353  1.00  0.00    -0.000 C 
BRANCH   6   7
ATOM      7  C   UNL     1       3.024  -2.600  -4.133  1.00  0.00    -0.000 C 
BRANCH   7   8
ATOM      8  C   UNL     1       2.647  -2.135  -5.551  1.00  0.00    -0.000 C 
BRANCH   8   9
ATOM      9  C   UNL     1       3.103  -3.136  -6.633  1.00  0.00    -0.000 C 
BRANCH   9  10
ATOM     10  C   UNL     1       4.393  -3.895  -6.268  1.00  0.00    -0.000 C 
BRANCH  10  11
ATOM     11  C   UNL     1       4.266  -5.427  -6.301  1.00  0.00    -0.003 C 
ATOM     12  C   UNL     1       3.951  -6.025  -4.930  1.00  0.00     0.004 C 
ENDBRANCH  10  11
ENDBRANCH   9  10
ENDBRANCH   8   9
ENDBRANCH   7   8
ENDBRANCH   6   7
ENDBRANCH   5   6
ENDBRANCH   4   5
ENDBRANCH   3   4
ENDBRANCH   2   3
ENDBRANCH   1   2
BRANCH   1  13
ATOM     13  C   UNL     1       5.014   0.879  -8.023  1.00  0.00     0.000 C 
BRANCH  13  14
ATOM     14  C   UNL     1       5.982   2.031  -8.336  1.00  0.00     0.000 C 
BRANCH  14  15
ATOM     15  C   UNL     1       5.241   3.211  -8.976  1.00  0.00     0.000 C 
BRANCH  15  16
ATOM     16  C   UNL     1       3.831   2.797  -9.424  1.00  0.00     0.000 C 
BRANCH  16  17
ATOM     17  C   UNL     1       2.844   3.976  -9.443  1.00  0.00     0.000 C 
BRANCH  17  18
ATOM     18  C   UNL     1       1.376   3.515  -9.462  1.00  0.00     0.000 C 
BRANCH  18  19
ATOM     19  C   UNL     1       1.228   1.992  -9.632  1.00  0.00     0.000 C 
BRANCH  19  20
ATOM     20  C   UNL     1      -0.002   1.370  -8.938  1.00  0.00     0.006 C 
BRANCH  20  21
ATOM     21  C   UNL     1       0.253  -0.002  -8.296  1.00  0.00     0.053 C 
BRANCH  21  22
ATOM     22  C   UNL     1      -0.912  -0.460  -7.474  1.00  0.00     0.041 C 
ATOM     23  O   UNL     1      -2.052  -0.574  -7.996  1.00  0.00    -0.550 OA
ATOM     24  O   UNL     1      -0.731  -0.792  -6.137  1.00  0.00    -0.550 OA
ENDBRANCH  21  22
ENDBRANCH  20  21
ENDBRANCH  19  20
ENDBRANCH  18  19
ENDBRANCH  17  18
ENDBRANCH  16  17
ENDBRANCH  15  16
ENDBRANCH  14  15
ENDBRANCH  13  14
ENDBRANCH   1  13
TORSDOF 20
ENDMDL
MODEL 2
REMARK VINA RESULT:    -3.356      1.368      2.947
REMARK INTER + INTRA:          -9.864
REMARK INTER:                  -7.002
REMARK INTRA:                  -2.862
REMARK UNBOUND:                -2.584
REMARK SMILES CCCCCCCCCCCCCCCCCCCCCC(=O)[O-]
REMARK SMILES IDX 12 1 11 2 10 3 9 4 8 5 7 6 6 7 5 8 4 9 3 10 2 11 1 12 13 13
REMARK SMILES IDX 14 14 15 15 16 16 17 17 18 18 19 19 20 20 21 21 22 22 23 23
REMARK SMILES IDX 24 24
REMARK H PARENT
REMARK Flexibility Score: inf
ROOT
ATOM      1  C   UNL     1       3.898  -0.520  -8.433  1.00  0.00     0.000 C 
ENDROOT
BRANCH   1   2
ATOM      2  C   UNL     1       4.036  -2.031  -8.175  1.00  0.00     0.000 C 
BRANCH   2   3
ATOM      3  C   UNL     1       2.707  -2.783  -8.346  1.00  0.00     0.000 C 
BRANCH   3   4
ATOM      4  C   UNL     1       2.413  -3.738  -7.180  1.00  0.00    -0.000 C 
BRANCH   4   5
ATOM      5  C   UNL     1       2.071  -2.959  -5.904  1.00  0.00    -0.000 C 
BRANCH   5   6
ATOM      6  C   UNL     1       3.083  -3.261  -4.787  1.00  0.00    -0.000 C 
BRANCH   6   7
ATOM      7  C   UNL     1       3.107  -2.176  -3.700  1.00  0.00    -0.000 C 
BRANCH   7   8
ATOM      8  C   UNL     1       4.472  -2.065  -3.000  1.00  0.00    -0.000 C 
BRANCH   8   9
ATOM      9  C   UNL     1       5.397  -1.037  -3.685  1.00  0.00    -0.000 C 
BRANCH   9  10
ATOM     10  C   UNL     1       6.734  -1.633  -4.167  1.00  0.00    -0.000 C 
BRANCH  10  11
ATOM     11  C   UNL     1       6.745  -2.071  -5.641  1.00  0.00    -0.003 C 
ATOM     12  C   UNL     1       6.581  -3.581  -5.812  1.00  0.00     0.004 C 
ENDBRANCH  10  11
ENDBRANCH   9  10
ENDBRANCH   8   9
ENDBRANCH   7   8
ENDBRANCH   6   7
ENDBRANCH   5   6
ENDBRANCH   4   5
ENDBRANCH   3   4
ENDBRANCH   2   3
ENDBRANCH   1   2
BRANCH   1  13
ATOM     13  C   UNL     1       4.937   0.307  -7.660  1.00  0.00     0.000 C 
BRANCH  13  14
ATOM     14  C   UNL     1       5.153   1.701  -8.270  1.00  0.00     0.000 C 
BRANCH  14  15
ATOM     15  C   UNL     1       4.144   1.971  -9.393  1.00  0.00     0.000 C 
BRANCH  15  16
ATOM     16  C   UNL     1       3.722   3.448  -9.409  1.00  0.00     0.000 C 
BRANCH  16  17
ATOM     17  C   UNL     1       2.195   3.628  -9.447  1.00  0.00     0.000 C 
BRANCH  17  18
ATOM     18  C   UNL     1       1.446   2.287  -9.538  1.00  0.00     0.000 C 
BRANCH  18  19
ATOM     19  C   UNL     1      -0.056   2.417  -9.228  1.00  0.00     0.000 C 
BRANCH  19  20
ATOM     20  C   UNL     1      -0.770   1.096  -8.873  1.00  0.00     0.006 C 
BRANCH  20  21
ATOM     21  C   UNL     1       0.162  -0.021  -8.380  1.00  0.00     0.053 C 
BRANCH  21  22
ATOM     22  C   UNL     1      -0.518  -0.925  -7.398  1.00  0.00     0.041 C 
ATOM     23  O   UNL     1      -0.762  -0.524  -6.229  1.00  0.00    -0.550 OA
ATOM     24  O   UNL     1      -0.911  -2.200  -7.784  1.00  0.00    -0.550 OA
ENDBRANCH  21  22
ENDBRANCH  20  21
ENDBRANCH  19  20
ENDBRANCH  18  19
ENDBRANCH  17  18
ENDBRANCH  16  17
ENDBRANCH  15  16
ENDBRANCH  14  15
ENDBRANCH  13  14
ENDBRANCH   1  13
TORSDOF 20
ENDMDL
MODEL 3
REMARK VINA RESULT:    -3.310      1.812      4.465
REMARK INTER + INTRA:          -9.763
REMARK INTER:                  -7.353
REMARK INTRA:                  -2.410
REMARK UNBOUND:                -2.584
REMARK SMILES CCCCCCCCCCCCCCCCCCCCCC(=O)[O-]
REMARK SMILES IDX 12 1 11 2 10 3 9 4 8 5 7 6 6 7 5 8 4 9 3 10 2 11 1 12 13 13
REMARK SMILES IDX 14 14 15 15 16 16 17 17 18 18 19 19 20 20 21 21 22 22 23 23
REMARK SMILES IDX 24 24
REMARK H PARENT
REMARK Flexibility Score: inf
ROOT
ATOM      1  C   UNL     1       4.045  -0.979  -7.790  1.00  0.00     0.000 C 
ENDROOT
BRANCH   1   2
ATOM      2  C   UNL     1       4.019  -2.396  -7.191  1.00  0.00     0.000 C 
BRANCH   2   3
ATOM      3  C   UNL     1       3.724  -2.395  -5.684  1.00  0.00     0.000 C 
BRANCH   3   4
ATOM      4  C   UNL     1       4.820  -3.095  -4.866  1.00  0.00    -0.000 C 
BRANCH   4   5
ATOM      5  C   UNL     1       5.256  -2.228  -3.678  1.00  0.00    -0.000 C 
BRANCH   5   6
ATOM      6  C   UNL     1       5.038  -0.737  -3.976  1.00  0.00    -0.000 C 
BRANCH   6   7
ATOM      7  C   UNL     1       6.353   0.018  -4.222  1.00  0.00    -0.000 C 
BRANCH   7   8
ATOM      8  C   UNL     1       6.163   1.544  -4.273  1.00  0.00    -0.000 C 
BRANCH   8   9
ATOM      9  C   UNL     1       7.044   2.205  -5.355  1.00  0.00    -0.000 C 
BRANCH   9  10
ATOM     10  C   UNL     1       7.374   3.682  -5.064  1.00  0.00    -0.000 C 
BRANCH  10  11
ATOM     11  C   UNL     1       6.710   4.250  -3.799  1.00  0.00    -0.003 C 
ATOM     12  C   UNL     1       7.688   5.017  -2.909  1.00  0.00     0.004 C 
ENDBRANCH  10  11
ENDBRANCH   9  10
ENDBRANCH   8   9
ENDBRANCH   7   8
ENDBRANCH   6   7
ENDBRANCH   5   6
ENDBRANCH   4   5
ENDBRANCH   3   4
ENDBRANCH   2   3
ENDBRANCH   1   2
BRANCH   1  13
ATOM     13  C   UNL     1       5.422  -0.309  -7.661  1.00  0.00     0.000 C 
BRANCH  13  14
ATOM     14  C   UNL     1       5.514   1.007  -8.449  1.00  0.00     0.000 C 
BRANCH  14  15
ATOM     15  C   UNL     1       4.240   1.246  -9.269  1.00  0.00     0.000 C 
BRANCH  15  16
ATOM     16  C   UNL     1       3.862   2.736  -9.276  1.00  0.00     0.000 C 
BRANCH  16  17
ATOM     17  C   UNL     1       2.354   2.965  -9.467  1.00  0.00     0.000 C 
BRANCH  17  18
ATOM     18  C   UNL     1       1.548   1.654  -9.419  1.00  0.00     0.000 C 
BRANCH  18  19
ATOM     19  C   UNL     1       0.097   1.860  -8.947  1.00  0.00     0.000 C 
BRANCH  19  20
ATOM     20  C   UNL     1      -0.698   0.564  -8.687  1.00  0.00     0.006 C 
BRANCH  20  21
ATOM     21  C   UNL     1       0.169  -0.670  -8.397  1.00  0.00     0.053 C 
BRANCH  21  22
ATOM     22  C   UNL     1      -0.146  -1.275  -7.063  1.00  0.00     0.041 C 
ATOM     23  O   UNL     1       0.445  -2.321  -6.685  1.00  0.00    -0.550 OA
ATOM     24  O   UNL     1      -1.069  -0.664  -6.223  1.00  0.00    -0.550 OA
ENDBRANCH  21  22
ENDBRANCH  20  21
ENDBRANCH  19  20
ENDBRANCH  18  19
ENDBRANCH  17  18
ENDBRANCH  16  17
ENDBRANCH  15  16
ENDBRANCH  14  15
ENDBRANCH  13  14
ENDBRANCH   1  13
TORSDOF 20
ENDMDL
MODEL 4
REMARK VINA RESULT:    -3.270      1.915      6.916
REMARK INTER + INTRA:          -9.677
REMARK INTER:                  -6.876
REMARK INTRA:                  -2.800
REMARK UNBOUND:                -2.584
REMARK SMILES CCCCCCCCCCCCCCCCCCCCCC(=O)[O-]
REMARK SMILES IDX 12 1 11 2 10 3 9 4 8 5 7 6 6 7 5 8 4 9 3 10 2 11 1 12 13 13
REMARK SMILES IDX 14 14 15 15 16 16 17 17 18 18 19 19 20 20 21 21 22 22 23 23
REMARK SMILES IDX 24 24
REMARK H PARENT
REMARK Flexibility Score: inf
ROOT
ATOM      1  C   UNL     1      -0.234  -0.080  -8.759  1.00  0.00     0.000 C 
ENDROOT
BRANCH   1   2
ATOM      2  C   UNL     1       0.107   1.421  -8.746  1.00  0.00     0.000 C 
BRANCH   2   3
ATOM      3  C   UNL     1       1.153   1.798  -9.807  1.00  0.00     0.000 C 
BRANCH   3   4
ATOM      4  C   UNL     1       1.790   3.171  -9.547  1.00  0.00    -0.000 C 
BRANCH   4   5
ATOM      5  C   UNL     1       3.308   3.047  -9.370  1.00  0.00    -0.000 C 
BRANCH   5   6
ATOM      6  C   UNL     1       3.700   1.614  -8.975  1.00  0.00    -0.000 C 
BRANCH   6   7
ATOM      7  C   UNL     1       5.116   1.528  -8.385  1.00  0.00    -0.000 C 
BRANCH   7   8
ATOM      8  C   UNL     1       5.232   0.479  -7.265  1.00  0.00    -0.000 C 
BRANCH   8   9
ATOM      9  C   UNL     1       6.694   0.056  -7.012  1.00  0.00    -0.000 C 
BRANCH   9  10
ATOM     10  C   UNL     1       7.285   0.627  -5.708  1.00  0.00    -0.000 C 
BRANCH  10  11
ATOM     11  C   UNL     1       6.296   1.443  -4.860  1.00  0.00    -0.003 C 
ATOM     12  C   UNL     1       6.822   2.836  -4.512  1.00  0.00     0.004 C 
ENDBRANCH  10  11
ENDBRANCH   9  10
ENDBRANCH   8   9
ENDBRANCH   7   8
ENDBRANCH   6   7
ENDBRANCH   5   6
ENDBRANCH   4   5
ENDBRANCH   3   4
ENDBRANCH   2   3
ENDBRANCH   1   2
BRANCH   1  13
ATOM     13  C   UNL     1       0.564  -0.875  -7.715  1.00  0.00     0.000 C 
BRANCH  13  14
ATOM     14  C   UNL     1       1.633  -1.778  -8.351  1.00  0.00     0.000 C 
BRANCH  14  15
ATOM     15  C   UNL     1       2.489  -2.457  -7.274  1.00  0.00     0.000 C 
BRANCH  15  16
ATOM     16  C   UNL     1       3.856  -2.872  -7.840  1.00  0.00     0.000 C 
BRANCH  16  17
ATOM     17  C   UNL     1       4.559  -3.931  -6.976  1.00  0.00     0.000 C 
BRANCH  17  18
ATOM     18  C   UNL     1       5.861  -3.406  -6.344  1.00  0.00     0.000 C 
BRANCH  18  19
ATOM     19  C   UNL     1       5.956  -3.698  -4.836  1.00  0.00     0.000 C 
BRANCH  19  20
ATOM     20  C   UNL     1       5.764  -2.475  -3.916  1.00  0.00     0.006 C 
BRANCH  20  21
ATOM     21  C   UNL     1       4.539  -1.610  -4.251  1.00  0.00     0.053 C 
BRANCH  21  22
ATOM     22  C   UNL     1       3.398  -1.868  -3.316  1.00  0.00     0.041 C 
ATOM     23  O   UNL     1       3.529  -1.659  -2.081  1.00  0.00    -0.550 OA
ATOM     24  O   UNL     1       2.179  -2.311  -3.813  1.00  0.00    -0.550 OA
ENDBRANCH  21  22
ENDBRANCH  20  21
ENDBRANCH  19  20
ENDBRANCH  18  19
ENDBRANCH  17  18
ENDBRANCH  16  17
ENDBRANCH  15  16
ENDBRANCH  14  15
ENDBRANCH  13  14
ENDBRANCH   1  13
TORSDOF 20
ENDMDL
MODEL 5
REMARK VINA RESULT:    -3.259      2.068      6.546
REMARK INTER + INTRA:          -9.654
REMARK INTER:                  -6.906
REMARK INTRA:                  -2.748
REMARK UNBOUND:                -2.584
REMARK SMILES CCCCCCCCCCCCCCCCCCCCCC(=O)[O-]
REMARK SMILES IDX 12 1 11 2 10 3 9 4 8 5 7 6 6 7 5 8 4 9 3 10 2 11 1 12 13 13
REMARK SMILES IDX 14 14 15 15 16 16 17 17 18 18 19 19 20 20 21 21 22 22 23 23
REMARK SMILES IDX 24 24
REMARK H PARENT
REMARK Flexibility Score: inf
ROOT
ATOM      1  C   UNL     1      -0.015   2.188  -8.983  1.00  0.00     0.000 C 
ENDROOT
BRANCH   1   2
ATOM      2  C   UNL     1       1.141   2.369  -9.982  1.00  0.00     0.000 C 
BRANCH   2   3
ATOM      3  C   UNL     1       2.188   3.383  -9.496  1.00  0.00     0.000 C 
BRANCH   3   4
ATOM      4  C   UNL     1       3.595   2.776  -9.391  1.00  0.00    -0.000 C 
BRANCH   4   5
ATOM      5  C   UNL     1       3.558   1.261  -9.622  1.00  0.00    -0.000 C 
BRANCH   5   6
ATOM      6  C   UNL     1       4.813   0.586  -9.046  1.00  0.00    -0.000 C 
BRANCH   6   7
ATOM      7  C   UNL     1       5.301   1.250  -7.750  1.00  0.00    -0.000 C 
BRANCH   7   8
ATOM      8  C   UNL     1       6.810   1.552  -7.767  1.00  0.00    -0.000 C 
BRANCH   8   9
ATOM      9  C   UNL     1       7.509   1.107  -6.465  1.00  0.00    -0.000 C 
BRANCH   9  10
ATOM     10  C   UNL     1       6.589   1.135  -5.230  1.00  0.00    -0.000 C 
BRANCH  10  11
ATOM     11  C   UNL     1       7.080   2.039  -4.087  1.00  0.00    -0.003 C 
ATOM     12  C   UNL     1       6.797   3.520  -4.339  1.00  0.00     0.004 C 
ENDBRANCH  10  11
ENDBRANCH   9  10
ENDBRANCH   8   9
ENDBRANCH   7   8
ENDBRANCH   6   7
ENDBRANCH   5   6
ENDBRANCH   4   5
ENDBRANCH   3   4
ENDBRANCH   2   3
ENDBRANCH   1   2
BRANCH   1  13
ATOM     13  C   UNL     1      -1.019   1.114  -9.431  1.00  0.00     0.000 C 
BRANCH  13  14
ATOM     14  C   UNL     1      -0.430  -0.304  -9.376  1.00  0.00     0.000 C 
BRANCH  14  15
ATOM     15  C   UNL     1      -0.883  -1.038  -8.108  1.00  0.00     0.000 C 
BRANCH  15  16
ATOM     16  C   UNL     1       0.285  -1.207  -7.124  1.00  0.00     0.000 C 
BRANCH  16  17
ATOM     17  C   UNL     1       1.653  -1.238  -7.826  1.00  0.00     0.000 C 
BRANCH  17  18
ATOM     18  C   UNL     1       2.283  -2.642  -7.828  1.00  0.00     0.000 C 
BRANCH  18  19
ATOM     19  C   UNL     1       3.658  -2.684  -7.139  1.00  0.00     0.000 C 
BRANCH  19  20
ATOM     20  C   UNL     1       3.904  -1.573  -6.097  1.00  0.00     0.006 C 
BRANCH  20  21
ATOM     21  C   UNL     1       4.362  -2.079  -4.721  1.00  0.00     0.053 C 
BRANCH  21  22
ATOM     22  C   UNL     1       3.257  -2.031  -3.711  1.00  0.00     0.041 C 
ATOM     23  O   UNL     1       2.075  -2.309  -4.048  1.00  0.00    -0.550 OA
ATOM     24  O   UNL     1       3.537  -1.709  -2.388  1.00  0.00    -0.550 OA
ENDBRANCH  21  22
ENDBRANCH  20  21
ENDBRANCH  19  20
ENDBRANCH  18  19
ENDBRANCH  17  18
ENDBRANCH  16  17
ENDBRANCH  15  16
ENDBRANCH  14  15
ENDBRANCH  13  14
ENDBRANCH   1  13
TORSDOF 20
ENDMDL
MODEL 6
REMARK VINA RESULT:    -3.217      6.204     10.033
REMARK INTER + INTRA:          -9.562
REMARK INTER:                  -5.500
REMARK INTRA:                  -4.062
REMARK UNBOUND:                -2.584
REMARK SMILES CCCCCCCCCCCCCCCCCCCCCC(=O)[O-]
REMARK SMILES IDX 12 1 11 2 10 3 9 4 8 5 7 6 6 7 5 8 4 9 3 10 2 11 1 12 13 13
REMARK SMILES IDX 14 14 15 15 16 16 17 17 18 18 19 19 20 20 21 21 22 22 23 23
REMARK SMILES IDX 24 24
REMARK H PARENT
REMARK Flexibility Score: inf
ROOT
ATOM      1  C   UNL     1      -8.028  -3.957  -3.841  1.00  0.00     0.000 C 
ENDROOT
BRANCH   1   2
ATOM      2  C   UNL     1      -8.195  -2.450  -3.577  1.00  0.00     0.000 C 
BRANCH   2   3
ATOM      3  C   UNL     1      -6.978  -1.836  -2.869  1.00  0.00     0.000 C 
BRANCH   3   4
ATOM      4  C   UNL     1      -5.808  -1.568  -3.828  1.00  0.00    -0.000 C 
BRANCH   4   5
ATOM      5  C   UNL     1      -4.618  -2.481  -3.511  1.00  0.00    -0.000 C 
BRANCH   5   6
ATOM      6  C   UNL     1      -3.925  -2.951  -4.800  1.00  0.00    -0.000 C 
BRANCH   6   7
ATOM      7  C   UNL     1      -4.827  -3.840  -5.668  1.00  0.00    -0.000 C 
BRANCH   7   8
ATOM      8  C   UNL     1      -4.317  -5.289  -5.768  1.00  0.00    -0.000 C 
BRANCH   8   9
ATOM      9  C   UNL     1      -5.208  -6.277  -4.986  1.00  0.00    -0.000 C 
BRANCH   9  10
ATOM     10  C   UNL     1      -5.018  -6.204  -3.458  1.00  0.00    -0.000 C 
BRANCH  10  11
ATOM     11  C   UNL     1      -3.630  -6.645  -2.965  1.00  0.00    -0.003 C 
ATOM     12  C   UNL     1      -2.884  -5.534  -2.226  1.00  0.00     0.004 C 
ENDBRANCH  10  11
ENDBRANCH   9  10
ENDBRANCH   8   9
ENDBRANCH   7   8
ENDBRANCH   6   7
ENDBRANCH   5   6
ENDBRANCH   4   5
ENDBRANCH   3   4
ENDBRANCH   2   3
ENDBRANCH   1   2
BRANCH   1  13
ATOM     13  C   UNL     1      -8.419  -4.352  -5.273  1.00  0.00     0.000 C 
BRANCH  13  14
ATOM     14  C   UNL     1      -8.954  -3.164  -6.088  1.00  0.00     0.000 C 
BRANCH  14  15
ATOM     15  C   UNL     1      -8.011  -2.827  -7.250  1.00  0.00     0.000 C 
BRANCH  15  16
ATOM     16  C   UNL     1      -7.473  -1.394  -7.123  1.00  0.00     0.000 C 
BRANCH  16  17
ATOM     17  C   UNL     1      -6.164  -1.180  -7.899  1.00  0.00     0.000 C 
BRANCH  17  18
ATOM     18  C   UNL     1      -5.153  -0.317  -7.123  1.00  0.00     0.000 C 
BRANCH  18  19
ATOM     19  C   UNL     1      -3.752  -0.314  -7.762  1.00  0.00     0.000 C 
BRANCH  19  20
ATOM     20  C   UNL     1      -3.269  -1.681  -8.290  1.00  0.00     0.006 C 
BRANCH  20  21
ATOM     21  C   UNL     1      -1.929  -2.153  -7.706  1.00  0.00     0.053 C 
BRANCH  21  22
ATOM     22  C   UNL     1      -0.984  -1.014  -7.479  1.00  0.00     0.041 C 
ATOM     23  O   UNL     1      -0.416  -0.456  -8.456  1.00  0.00    -0.550 OA
ATOM     24  O   UNL     1      -0.754  -0.546  -6.191  1.00  0.00    -0.550 OA
ENDBRANCH  21  22
ENDBRANCH  20  21
ENDBRANCH  19  20
ENDBRANCH  18  19
ENDBRANCH  17  18
ENDBRANCH  16  17
ENDBRANCH  15  16
ENDBRANCH  14  15
ENDBRANCH  13  14
ENDBRANCH   1  13
TORSDOF 20
ENDMDL
MODEL 7
REMARK VINA RESULT:    -3.208      5.717      8.675
REMARK INTER + INTRA:          -9.543
REMARK INTER:                  -7.266
REMARK INTRA:                  -2.277
REMARK UNBOUND:                -2.584
REMARK SMILES CCCCCCCCCCCCCCCCCCCCCC(=O)[O-]
REMARK SMILES IDX 12 1 11 2 10 3 9 4 8 5 7 6 6 7 5 8 4 9 3 10 2 11 1 12 13 13
REMARK SMILES IDX 14 14 15 15 16 16 17 17 18 18 19 19 20 20 21 21 22 22 23 23
REMARK SMILES IDX 24 24
REMARK H PARENT
REMARK Flexibility Score: inf
ROOT
ATOM      1  C   UNL     1       6.736   5.824  -4.157  1.00  0.00     0.000 C 
ENDROOT
BRANCH   1   2
ATOM      2  C   UNL     1       7.091   7.023  -3.260  1.00  0.00     0.000 C 
BRANCH   2   3
ATOM      3  C   UNL     1       5.994   8.098  -3.251  1.00  0.00     0.000 C 
BRANCH   3   4
ATOM      4  C   UNL     1       4.583   7.505  -3.386  1.00  0.00    -0.000 C 
BRANCH   4   5
ATOM      5  C   UNL     1       4.120   6.883  -2.063  1.00  0.00    -0.000 C 
BRANCH   5   6
ATOM      6  C   UNL     1       3.791   7.971  -1.029  1.00  0.00    -0.000 C 
BRANCH   6   7
ATOM      7  C   UNL     1       4.452   7.713   0.334  1.00  0.00    -0.000 C 
BRANCH   7   8
ATOM      8  C   UNL     1       5.952   8.058   0.343  1.00  0.00    -0.000 C 
BRANCH   8   9
ATOM      9  C   UNL     1       6.791   6.990   1.077  1.00  0.00    -0.000 C 
BRANCH   9  10
ATOM     10  C   UNL     1       7.212   5.811   0.180  1.00  0.00    -0.000 C 
BRANCH  10  11
ATOM     11  C   UNL     1       8.711   5.766  -0.158  1.00  0.00    -0.003 C 
ATOM     12  C   UNL     1       9.358   4.425   0.190  1.00  0.00     0.004 C 
ENDBRANCH  10  11
ENDBRANCH   9  10
ENDBRANCH   8   9
ENDBRANCH   7   8
ENDBRANCH   6   7
ENDBRANCH   5   6
ENDBRANCH   4   5
ENDBRANCH   3   4
ENDBRANCH   2   3
ENDBRANCH   1   2
BRANCH   1  13
ATOM     13  C   UNL     1       6.762   4.489  -3.396  1.00  0.00     0.000 C 
BRANCH  13  14
ATOM     14  C   UNL     1       8.164   3.862  -3.351  1.00  0.00     0.000 C 
BRANCH  14  15
ATOM     15  C   UNL     1       8.130   2.407  -3.833  1.00  0.00     0.000 C 
BRANCH  15  16
ATOM     16  C   UNL     1       6.784   2.079  -4.498  1.00  0.00     0.000 C 
BRANCH  16  17
ATOM     17  C   UNL     1       6.887   0.927  -5.510  1.00  0.00     0.000 C 
BRANCH  17  18
ATOM     18  C   UNL     1       5.550   0.644  -6.220  1.00  0.00     0.000 C 
BRANCH  18  19
ATOM     19  C   UNL     1       4.981  -0.748  -5.894  1.00  0.00     0.000 C 
BRANCH  19  20
ATOM     20  C   UNL     1       5.455  -1.355  -4.557  1.00  0.00     0.006 C 
BRANCH  20  21
ATOM     21  C   UNL     1       4.628  -2.555  -4.071  1.00  0.00     0.053 C 
BRANCH  21  22
ATOM     22  C   UNL     1       3.367  -2.125  -3.386  1.00  0.00     0.041 C 
ATOM     23  O   UNL     1       2.252  -2.281  -3.951  1.00  0.00    -0.550 OA
ATOM     24  O   UNL     1       3.421  -1.582  -2.108  1.00  0.00    -0.550 OA
ENDBRANCH  21  22
ENDBRANCH  20  21
ENDBRANCH  19  20
ENDBRANCH  18  19
ENDBRANCH  17  18
ENDBRANCH  16  17
ENDBRANCH  15  16
ENDBRANCH  14  15
ENDBRANCH  13  14
ENDBRANCH   1  13
TORSDOF 20
ENDMDL
MODEL 8
REMARK VINA RESULT:    -3.184      6.089     10.581
REMARK INTER + INTRA:          -9.492
REMARK INTER:                  -5.494
REMARK INTRA:                  -3.998
REMARK UNBOUND:                -2.584
REMARK SMILES CCCCCCCCCCCCCCCCCCCCCC(=O)[O-]
REMARK SMILES IDX 12 1 11 2 10 3 9 4 8 5 7 6 6 7 5 8 4 9 3 10 2 11 1 12 13 13
REMARK SMILES IDX 14 14 15 15 16 16 17 17 18 18 19 19 20 20 21 21 22 22 23 23
REMARK SMILES IDX 24 24
REMARK H PARENT
REMARK Flexibility Score: inf
ROOT
ATOM      1  C   UNL     1      -5.599  -3.514  -2.636  1.00  0.00     0.000 C 
ENDROOT
BRANCH   1   2
ATOM      2  C   UNL     1      -5.896  -2.061  -3.046  1.00  0.00     0.000 C 
BRANCH   2   3
ATOM      3  C   UNL     1      -4.952  -1.553  -4.146  1.00  0.00     0.000 C 
BRANCH   3   4
ATOM      4  C   UNL     1      -5.695  -1.169  -5.434  1.00  0.00    -0.000 C 
BRANCH   4   5
ATOM      5  C   UNL     1      -7.036  -1.907  -5.535  1.00  0.00    -0.000 C 
BRANCH   5   6
ATOM      6  C   UNL     1      -7.732  -1.602  -6.870  1.00  0.00    -0.000 C 
BRANCH   6   7
ATOM      7  C   UNL     1      -7.117  -2.372  -8.049  1.00  0.00    -0.000 C 
BRANCH   7   8
ATOM      8  C   UNL     1      -6.883  -1.483  -9.283  1.00  0.00    -0.000 C 
BRANCH   8   9
ATOM      9  C   UNL     1      -6.931   0.020  -8.937  1.00  0.00    -0.000 C 
BRANCH   9  10
ATOM     10  C   UNL     1      -5.541   0.659  -8.761  1.00  0.00    -0.000 C 
BRANCH  10  11
ATOM     11  C   UNL     1      -5.511   1.881  -7.828  1.00  0.00    -0.003 C 
ATOM     12  C   UNL     1      -6.818   2.674  -7.848  1.00  0.00     0.004 C 
ENDBRANCH  10  11
ENDBRANCH   9  10
ENDBRANCH   8   9
ENDBRANCH   7   8
ENDBRANCH   6   7
ENDBRANCH   5   6
ENDBRANCH   4   5
ENDBRANCH   3   4
ENDBRANCH   2   3
ENDBRANCH   1   2
BRANCH   1  13
ATOM     13  C   UNL     1      -4.158  -3.937  -2.963  1.00  0.00     0.000 C 
BRANCH  13  14
ATOM     14  C   UNL     1      -4.097  -5.109  -3.954  1.00  0.00     0.000 C 
BRANCH  14  15
ATOM     15  C   UNL     1      -5.482  -5.398  -4.547  1.00  0.00     0.000 C 
BRANCH  15  16
ATOM     16  C   UNL     1      -5.493  -5.152  -6.064  1.00  0.00     0.000 C 
BRANCH  16  17
ATOM     17  C   UNL     1      -4.243  -4.403  -6.552  1.00  0.00     0.000 C 
BRANCH  17  18
ATOM     18  C   UNL     1      -3.945  -4.660  -8.041  1.00  0.00     0.000 C 
BRANCH  18  19
ATOM     19  C   UNL     1      -3.561  -3.380  -8.805  1.00  0.00     0.000 C 
BRANCH  19  20
ATOM     20  C   UNL     1      -3.440  -2.109  -7.939  1.00  0.00     0.006 C 
BRANCH  20  21
ATOM     21  C   UNL     1      -2.124  -1.338  -8.116  1.00  0.00     0.053 C 
BRANCH  21  22
ATOM     22  C   UNL     1      -1.181  -1.569  -6.975  1.00  0.00     0.041 C 
ATOM     23  O   UNL     1      -0.797  -2.735  -6.695  1.00  0.00    -0.550 OA
ATOM     24  O   UNL     1      -0.702  -0.492  -6.241  1.00  0.00    -0.550 OA
ENDBRANCH  21  22
ENDBRANCH  20  21
ENDBRANCH  19  20
ENDBRANCH  18  19
ENDBRANCH  17  18
ENDBRANCH  16  17
ENDBRANCH  15  16
ENDBRANCH  14  15
ENDBRANCH  13  14
ENDBRANCH   1  13
TORSDOF 20
ENDMDL
MODEL 9
REMARK VINA RESULT:    -3.148      1.845      4.022
REMARK INTER + INTRA:          -9.413
REMARK INTER:                  -6.295
REMARK INTRA:                  -3.119
REMARK UNBOUND:                -2.584
REMARK SMILES CCCCCCCCCCCCCCCCCCCCCC(=O)[O-]
REMARK SMILES IDX 12 1 11 2 10 3 9 4 8 5 7 6 6 7 5 8 4 9 3 10 2 11 1 12 13 13
REMARK SMILES IDX 14 14 15 15 16 16 17 17 18 18 19 19 20 20 21 21 22 22 23 23
REMARK SMILES IDX 24 24
REMARK H PARENT
REMARK Flexibility Score: inf
ROOT
ATOM      1  C   UNL     1       4.419   2.449  -9.055  1.00  0.00     0.000 C 
ENDROOT
BRANCH   1   2
ATOM      2  C   UNL     1       3.895   1.025  -8.799  1.00  0.00     0.000 C 
BRANCH   2   3
ATOM      3  C   UNL     1       4.864   0.182  -7.957  1.00  0.00     0.000 C 
BRANCH   3   4
ATOM      4  C   UNL     1       6.321   0.650  -8.085  1.00  0.00    -0.000 C 
BRANCH   4   5
ATOM      5  C   UNL     1       7.025   0.635  -6.722  1.00  0.00    -0.000 C 
BRANCH   5   6
ATOM      6  C   UNL     1       6.254   1.480  -5.696  1.00  0.00    -0.000 C 
BRANCH   6   7
ATOM      7  C   UNL     1       6.134   0.788  -4.329  1.00  0.00    -0.000 C 
BRANCH   7   8
ATOM      8  C   UNL     1       6.938  -0.521  -4.252  1.00  0.00    -0.000 C 
BRANCH   8   9
ATOM      9  C   UNL     1       6.077  -1.707  -3.766  1.00  0.00    -0.000 C 
BRANCH   9  10
ATOM     10  C   UNL     1       4.569  -1.397  -3.721  1.00  0.00    -0.000 C 
BRANCH  10  11
ATOM     11  C   UNL     1       3.758  -1.994  -4.883  1.00  0.00    -0.003 C 
ATOM     12  C   UNL     1       4.614  -2.829  -5.836  1.00  0.00     0.004 C 
ENDBRANCH  10  11
ENDBRANCH   9  10
ENDBRANCH   8   9
ENDBRANCH   7   8
ENDBRANCH   6   7
ENDBRANCH   5   6
ENDBRANCH   4   5
ENDBRANCH   3   4
ENDBRANCH   2   3
ENDBRANCH   1   2
BRANCH   1  13
ATOM     13  C   UNL     1       3.298   3.433  -9.424  1.00  0.00     0.000 C 
BRANCH  13  14
ATOM     14  C   UNL     1       2.053   2.727  -9.984  1.00  0.00     0.000 C 
BRANCH  14  15
ATOM     15  C   UNL     1       0.769   3.404  -9.489  1.00  0.00     0.000 C 
BRANCH  15  16
ATOM     16  C   UNL     1      -0.378   2.389  -9.373  1.00  0.00     0.000 C 
BRANCH  16  17
ATOM     17  C   UNL     1       0.036   1.107  -8.632  1.00  0.00     0.000 C 
BRANCH  17  18
ATOM     18  C   UNL     1      -0.287  -0.167  -9.433  1.00  0.00     0.000 C 
BRANCH  18  19
ATOM     19  C   UNL     1       0.821  -1.232  -9.338  1.00  0.00     0.000 C 
BRANCH  19  20
ATOM     20  C   UNL     1       1.456  -1.396  -7.942  1.00  0.00     0.006 C 
BRANCH  20  21
ATOM     21  C   UNL     1       0.556  -2.090  -6.909  1.00  0.00     0.053 C 
BRANCH  21  22
ATOM     22  C   UNL     1       0.978  -3.505  -6.659  1.00  0.00     0.041 C 
ATOM     23  O   UNL     1       0.644  -4.089  -5.594  1.00  0.00    -0.550 OA
ATOM     24  O   UNL     1       1.714  -4.191  -7.618  1.00  0.00    -0.550 OA
ENDBRANCH  21  22
ENDBRANCH  20  21
ENDBRANCH  19  20
ENDBRANCH  18  19
ENDBRANCH  17  18
ENDBRANCH  16  17
ENDBRANCH  15  16
ENDBRANCH  14  15
ENDBRANCH  13  14
ENDBRANCH   1  13
TORSDOF 20
ENDMDL
