MODEL 1
REMARK VINA RESULT:    -7.995      0.000      0.000
REMARK INTER + INTRA:          -9.917
REMARK INTER:                  -9.631
REMARK INTRA:                  -0.286
REMARK UNBOUND:                -0.286
REMARK SMILES O=c1c(O)c(-c2ccc(O)c(O)c2)oc2cc(O)cc(O)c12
REMARK SMILES IDX 5 1 3 2 2 3 1 4 22 5 20 6 19 7 17 8 16 9 15 10 14 11 6 12
REMARK SMILES IDX 7 13 8 14 9 15 13 16 11 17 10 18 12 20 4 22 21 24 18 26
REMARK H PARENT 10 19 12 21 4 23 21 25 18 27
REMARK Flexibility Score: inf
ROOT
ATOM      1  C   UNL     1      13.311  45.108   7.536  1.00  0.00     0.180 A 
ATOM      2  C   UNL     1      12.601  44.574   8.626  1.00  0.00     0.208 A 
ATOM      3  C   UNL     1      11.286  45.005   8.859  1.00  0.00     0.238 A 
ATOM      4  O   UNL     1      10.676  44.564   9.867  1.00  0.00    -0.285 OA
ATOM      5  C   UNL     1      10.690  45.950   7.990  1.00  0.00     0.111 A 
ATOM      6  C   UNL     1       9.349  46.427   8.108  1.00  0.00     0.134 A 
ATOM      7  C   UNL     1       8.908  47.458   7.271  1.00  0.00     0.093 A 
ATOM      8  C   UNL     1       9.737  47.986   6.278  1.00  0.00     0.123 A 
ATOM      9  C   UNL     1      11.027  47.486   6.117  1.00  0.00     0.094 A 
ATOM     10  C   UNL     1      11.509  46.482   6.960  1.00  0.00     0.146 A 
ATOM     11  O   UNL     1      12.748  46.041   6.779  1.00  0.00    -0.452 OA
ENDROOT
BRANCH   1  12
ATOM     12  C   UNL     1      14.692  44.684   7.212  1.00  0.00     0.025 A 
ATOM     13  C   UNL     1      15.768  45.229   7.931  1.00  0.00     0.016 A 
ATOM     14  C   UNL     1      17.081  44.861   7.629  1.00  0.00     0.051 A 
ATOM     15  C   UNL     1      17.341  43.956   6.595  1.00  0.00     0.157 A 
ATOM     16  C   UNL     1      14.958  43.791   6.159  1.00  0.00     0.062 A 
ATOM     17  C   UNL     1      16.276  43.421   5.852  1.00  0.00     0.158 A 
BRANCH  15  18
ATOM     18  O   UNL     1      18.662  43.605   6.318  1.00  0.00    -0.504 OA
ATOM     19  H   UNL     1      19.193  42.991   6.923  1.00  0.00     0.293 HD
ENDBRANCH  15  18
BRANCH  17  20
ATOM     20  O   UNL     1      16.529  42.530   4.810  1.00  0.00    -0.504 OA
ATOM     21  H   UNL     1      15.781  42.157   4.237  1.00  0.00     0.293 HD
ENDBRANCH  17  20
ENDBRANCH   1  12
BRANCH   2  22
ATOM     22  O   UNL     1      13.217  43.658   9.484  1.00  0.00    -0.502 OA
ATOM     23  H   UNL     1      13.688  43.942  10.335  1.00  0.00     0.293 HD
ENDBRANCH   2  22
BRANCH   6  24
ATOM     24  O   UNL     1       8.412  45.905   9.004  1.00  0.00    -0.507 OA
ATOM     25  H   UNL     1       8.000  44.987   8.935  1.00  0.00     0.293 HD
ENDBRANCH   6  24
BRANCH   8  26
ATOM     26  O   UNL     1       9.285  49.002   5.439  1.00  0.00    -0.508 OA
ATOM     27  H   UNL     1       9.892  49.759   5.148  1.00  0.00     0.293 HD
ENDBRANCH   8  26
TORSDOF 6
ENDMDL
MODEL 2
REMARK VINA RESULT:    -7.923      1.783      7.237
REMARK INTER + INTRA:          -9.830
REMARK INTER:                  -9.519
REMARK INTRA:                  -0.311
REMARK UNBOUND:                -0.286
REMARK SMILES O=c1c(O)c(-c2ccc(O)c(O)c2)oc2cc(O)cc(O)c12
REMARK SMILES IDX 5 1 3 2 2 3 1 4 22 5 20 6 19 7 17 8 16 9 15 10 14 11 6 12
REMARK SMILES IDX 7 13 8 14 9 15 13 16 11 17 10 18 12 20 4 22 21 24 18 26
REMARK H PARENT 10 19 12 21 4 23 21 25 18 27
REMARK Flexibility Score: inf
ROOT
ATOM      1  C   UNL     1      12.980  44.902   6.163  1.00  0.00     0.180 A 
ATOM      2  C   UNL     1      13.354  44.759   4.815  1.00  0.00     0.208 A 
ATOM      3  C   UNL     1      14.672  44.383   4.511  1.00  0.00     0.238 A 
ATOM      4  O   UNL     1      15.015  44.310   3.303  1.00  0.00    -0.285 OA
ATOM      5  C   UNL     1      15.594  44.138   5.557  1.00  0.00     0.111 A 
ATOM      6  C   UNL     1      16.944  43.712   5.364  1.00  0.00     0.134 A 
ATOM      7  C   UNL     1      17.803  43.626   6.465  1.00  0.00     0.093 A 
ATOM      8  C   UNL     1      17.346  43.888   7.759  1.00  0.00     0.123 A 
ATOM      9  C   UNL     1      16.016  44.246   7.964  1.00  0.00     0.094 A 
ATOM     10  C   UNL     1      15.143  44.375   6.880  1.00  0.00     0.146 A 
ATOM     11  O   UNL     1      13.885  44.729   7.118  1.00  0.00    -0.452 OA
ENDROOT
BRANCH   1  12
ATOM     12  C   UNL     1      11.604  45.272   6.563  1.00  0.00     0.025 A 
ATOM     13  C   UNL     1      11.240  46.627   6.616  1.00  0.00     0.016 A 
ATOM     14  C   UNL     1       9.953  47.000   7.012  1.00  0.00     0.051 A 
ATOM     15  C   UNL     1       9.016  46.028   7.374  1.00  0.00     0.157 A 
ATOM     16  C   UNL     1      10.665  44.298   6.949  1.00  0.00     0.062 A 
ATOM     17  C   UNL     1       9.373  44.670   7.348  1.00  0.00     0.158 A 
BRANCH  15  18
ATOM     18  O   UNL     1       7.738  46.431   7.762  1.00  0.00    -0.504 OA
ATOM     19  H   UNL     1       7.001  45.765   7.959  1.00  0.00     0.293 HD
ENDBRANCH  15  18
BRANCH  17  20
ATOM     20  O   UNL     1       8.448  43.697   7.723  1.00  0.00    -0.504 OA
ATOM     21  H   UNL     1       7.647  43.475   7.143  1.00  0.00     0.293 HD
ENDBRANCH  17  20
ENDBRANCH   1  12
BRANCH   2  22
ATOM     22  O   UNL     1      12.434  45.028   3.798  1.00  0.00    -0.502 OA
ATOM     23  H   UNL     1      12.533  45.817   3.170  1.00  0.00     0.293 HD
ENDBRANCH   2  22
BRANCH   6  24
ATOM     24  O   UNL     1      17.474  43.338   4.126  1.00  0.00    -0.507 OA
ATOM     25  H   UNL     1      17.848  43.979   3.444  1.00  0.00     0.293 HD
ENDBRANCH   6  24
BRANCH   8  26
ATOM     26  O   UNL     1      18.205  43.784   8.851  1.00  0.00    -0.508 OA
ATOM     27  H   UNL     1      18.648  42.907   9.096  1.00  0.00     0.293 HD
ENDBRANCH   8  26
TORSDOF 6
ENDMDL
MODEL 3
REMARK VINA RESULT:    -7.877      1.697      3.051
REMARK INTER + INTRA:          -9.774
REMARK INTER:                  -9.482
REMARK INTRA:                  -0.292
REMARK UNBOUND:                -0.286
REMARK SMILES O=c1c(O)c(-c2ccc(O)c(O)c2)oc2cc(O)cc(O)c12
REMARK SMILES IDX 5 1 3 2 2 3 1 4 22 5 20 6 19 7 17 8 16 9 15 10 14 11 6 12
REMARK SMILES IDX 7 13 8 14 9 15 13 16 11 17 10 18 12 20 4 22 21 24 18 26
REMARK H PARENT 10 19 12 21 4 23 21 25 18 27
REMARK Flexibility Score: inf
ROOT
ATOM      1  C   UNL     1      13.621  45.281   6.621  1.00  0.00     0.180 A 
ATOM      2  C   UNL     1      13.525  45.737   5.294  1.00  0.00     0.208 A 
ATOM      3  C   UNL     1      12.355  46.395   4.884  1.00  0.00     0.238 A 
ATOM      4  O   UNL     1      12.253  46.752   3.681  1.00  0.00    -0.285 OA
ATOM      5  C   UNL     1      11.303  46.605   5.808  1.00  0.00     0.111 A 
ATOM      6  C   UNL     1      10.089  47.296   5.511  1.00  0.00     0.134 A 
ATOM      7  C   UNL     1       9.064  47.330   6.464  1.00  0.00     0.093 A 
ATOM      8  C   UNL     1       9.233  46.753   7.726  1.00  0.00     0.123 A 
ATOM      9  C   UNL     1      10.437  46.129   8.045  1.00  0.00     0.094 A 
ATOM     10  C   UNL     1      11.465  46.048   7.102  1.00  0.00     0.146 A 
ATOM     11  O   UNL     1      12.592  45.434   7.444  1.00  0.00    -0.452 OA
ENDROOT
BRANCH   1  12
ATOM     12  C   UNL     1      14.831  44.600   7.133  1.00  0.00     0.025 A 
ATOM     13  C   UNL     1      15.957  45.362   7.484  1.00  0.00     0.016 A 
ATOM     14  C   UNL     1      17.118  44.740   7.948  1.00  0.00     0.051 A 
ATOM     15  C   UNL     1      17.178  43.347   8.056  1.00  0.00     0.157 A 
ATOM     16  C   UNL     1      14.902  43.198   7.222  1.00  0.00     0.062 A 
ATOM     17  C   UNL     1      16.067  42.571   7.687  1.00  0.00     0.158 A 
BRANCH  15  18
ATOM     18  O   UNL     1      18.349  42.754   8.527  1.00  0.00    -0.504 OA
ATOM     19  H   UNL     1      18.377  41.789   8.834  1.00  0.00     0.293 HD
ENDBRANCH  15  18
BRANCH  17  20
ATOM     20  O   UNL     1      16.125  41.181   7.778  1.00  0.00    -0.504 OA
ATOM     21  H   UNL     1      15.440  40.654   8.308  1.00  0.00     0.293 HD
ENDBRANCH  17  20
ENDBRANCH   1  12
BRANCH   2  22
ATOM     22  O   UNL     1      14.566  45.500   4.392  1.00  0.00    -0.502 OA
ATOM     23  H   UNL     1      15.471  45.948   4.477  1.00  0.00     0.293 HD
ENDBRANCH   2  22
BRANCH   6  24
ATOM     24  O   UNL     1       9.855  47.983   4.317  1.00  0.00    -0.507 OA
ATOM     25  H   UNL     1      10.287  48.857   4.062  1.00  0.00     0.293 HD
ENDBRANCH   6  24
BRANCH   8  26
ATOM     26  O   UNL     1       8.214  46.806   8.674  1.00  0.00    -0.508 OA
ATOM     27  H   UNL     1       7.322  46.351   8.518  1.00  0.00     0.293 HD
ENDBRANCH   8  26
TORSDOF 6
ENDMDL
MODEL 4
REMARK VINA RESULT:    -7.865      1.711      7.265
REMARK INTER + INTRA:          -9.760
REMARK INTER:                  -9.503
REMARK INTRA:                  -0.257
REMARK UNBOUND:                -0.286
REMARK SMILES O=c1c(O)c(-c2ccc(O)c(O)c2)oc2cc(O)cc(O)c12
REMARK SMILES IDX 5 1 3 2 2 3 1 4 22 5 20 6 19 7 17 8 16 9 15 10 14 11 6 12
REMARK SMILES IDX 7 13 8 14 9 15 13 16 11 17 10 18 12 20 4 22 21 24 18 26
REMARK H PARENT 10 19 12 21 4 23 21 25 18 27
REMARK Flexibility Score: inf
ROOT
ATOM      1  C   UNL     1      12.845  45.391   5.961  1.00  0.00     0.180 A 
ATOM      2  C   UNL     1      13.158  44.880   4.689  1.00  0.00     0.208 A 
ATOM      3  C   UNL     1      14.423  44.308   4.478  1.00  0.00     0.238 A 
ATOM      4  O   UNL     1      14.716  43.901   3.325  1.00  0.00    -0.285 OA
ATOM      5  C   UNL     1      15.352  44.239   5.544  1.00  0.00     0.111 A 
ATOM      6  C   UNL     1      16.647  43.644   5.454  1.00  0.00     0.134 A 
ATOM      7  C   UNL     1      17.531  43.749   6.534  1.00  0.00     0.093 A 
ATOM      8  C   UNL     1      17.145  44.371   7.724  1.00  0.00     0.123 A 
ATOM      9  C   UNL     1      15.863  44.901   7.843  1.00  0.00     0.094 A 
ATOM     10  C   UNL     1      14.970  44.844   6.770  1.00  0.00     0.146 A 
ATOM     11  O   UNL     1      13.761  45.371   6.921  1.00  0.00    -0.452 OA
ENDROOT
BRANCH   1  12
ATOM     12  C   UNL     1      11.525  45.987   6.267  1.00  0.00     0.025 A 
ATOM     13  C   UNL     1      10.582  45.243   6.993  1.00  0.00     0.016 A 
ATOM     14  C   UNL     1       9.322  45.777   7.274  1.00  0.00     0.051 A 
ATOM     15  C   UNL     1       8.979  47.054   6.821  1.00  0.00     0.157 A 
ATOM     16  C   UNL     1      11.169  47.263   5.794  1.00  0.00     0.062 A 
ATOM     17  C   UNL     1       9.904  47.800   6.073  1.00  0.00     0.158 A 
BRANCH  15  18
ATOM     18  O   UNL     1       7.714  47.561   7.119  1.00  0.00    -0.504 OA
ATOM     19  H   UNL     1       7.138  48.013   6.420  1.00  0.00     0.293 HD
ENDBRANCH  15  18
BRANCH  17  20
ATOM     20  O   UNL     1       9.563  49.069   5.606  1.00  0.00    -0.504 OA
ATOM     21  H   UNL     1       8.658  49.256   5.190  1.00  0.00     0.293 HD
ENDBRANCH  17  20
ENDBRANCH   1  12
BRANCH   2  22
ATOM     22  O   UNL     1      12.234  44.978   3.646  1.00  0.00    -0.502 OA
ATOM     23  H   UNL     1      11.409  45.564   3.703  1.00  0.00     0.293 HD
ENDBRANCH   2  22
BRANCH   6  24
ATOM     24  O   UNL     1      17.097  42.921   4.345  1.00  0.00    -0.507 OA
ATOM     25  H   UNL     1      17.549  43.326   3.540  1.00  0.00     0.293 HD
ENDBRANCH   6  24
BRANCH   8  26
ATOM     26  O   UNL     1      18.026  44.456   8.800  1.00  0.00    -0.508 OA
ATOM     27  H   UNL     1      18.276  43.641   9.347  1.00  0.00     0.293 HD
ENDBRANCH   8  26
TORSDOF 6
ENDMDL
MODEL 5
REMARK VINA RESULT:    -7.617      2.716      6.587
REMARK INTER + INTRA:          -9.461
REMARK INTER:                  -9.224
REMARK INTRA:                  -0.238
REMARK UNBOUND:                -0.286
REMARK SMILES O=c1c(O)c(-c2ccc(O)c(O)c2)oc2cc(O)cc(O)c12
REMARK SMILES IDX 5 1 3 2 2 3 1 4 22 5 20 6 19 7 17 8 16 9 15 10 14 11 6 12
REMARK SMILES IDX 7 13 8 14 9 15 13 16 11 17 10 18 12 20 4 22 21 24 18 26
REMARK H PARENT 10 19 12 21 4 23 21 25 18 27
REMARK Flexibility Score: inf
ROOT
ATOM      1  C   UNL     1      11.884  44.689   7.553  1.00  0.00     0.180 A 
ATOM      2  C   UNL     1      13.081  45.425   7.610  1.00  0.00     0.208 A 
ATOM      3  C   UNL     1      13.972  45.359   6.528  1.00  0.00     0.238 A 
ATOM      4  O   UNL     1      15.066  45.975   6.608  1.00  0.00    -0.285 OA
ATOM      5  C   UNL     1      13.648  44.573   5.395  1.00  0.00     0.111 A 
ATOM      6  C   UNL     1      14.459  44.465   4.225  1.00  0.00     0.134 A 
ATOM      7  C   UNL     1      14.104  43.557   3.221  1.00  0.00     0.093 A 
ATOM      8  C   UNL     1      12.933  42.800   3.315  1.00  0.00     0.123 A 
ATOM      9  C   UNL     1      12.105  42.942   4.425  1.00  0.00     0.094 A 
ATOM     10  C   UNL     1      12.452  43.813   5.461  1.00  0.00     0.146 A 
ATOM     11  O   UNL     1      11.640  43.911   6.507  1.00  0.00    -0.452 OA
ENDROOT
BRANCH   1  12
ATOM     12  C   UNL     1      10.884  44.728   8.645  1.00  0.00     0.025 A 
ATOM     13  C   UNL     1       9.701  45.463   8.473  1.00  0.00     0.016 A 
ATOM     14  C   UNL     1       8.754  45.531   9.498  1.00  0.00     0.051 A 
ATOM     15  C   UNL     1       8.980  44.880  10.713  1.00  0.00     0.157 A 
ATOM     16  C   UNL     1      11.119  44.092   9.877  1.00  0.00     0.062 A 
ATOM     17  C   UNL     1      10.171  44.160  10.908  1.00  0.00     0.158 A 
BRANCH  15  18
ATOM     18  O   UNL     1       8.015  44.963  11.717  1.00  0.00    -0.504 OA
ATOM     19  H   UNL     1       8.260  45.131  12.685  1.00  0.00     0.293 HD
ENDBRANCH  15  18
BRANCH  17  20
ATOM     20  O   UNL     1      10.410  43.520  12.123  1.00  0.00    -0.504 OA
ATOM     21  H   UNL     1      10.727  44.031  12.939  1.00  0.00     0.293 HD
ENDBRANCH  17  20
ENDBRANCH   1  12
BRANCH   2  22
ATOM     22  O   UNL     1      13.391  46.177   8.747  1.00  0.00    -0.502 OA
ATOM     23  H   UNL     1      13.611  45.748   9.638  1.00  0.00     0.293 HD
ENDBRANCH   2  22
BRANCH   6  24
ATOM     24  O   UNL     1      15.597  45.243   3.990  1.00  0.00    -0.507 OA
ATOM     25  H   UNL     1      15.607  46.250   3.951  1.00  0.00     0.293 HD
ENDBRANCH   6  24
BRANCH   8  26
ATOM     26  O   UNL     1      12.579  41.910   2.303  1.00  0.00    -0.508 OA
ATOM     27  H   UNL     1      11.610  41.745   2.058  1.00  0.00     0.293 HD
ENDBRANCH   8  26
TORSDOF 6
ENDMDL
MODEL 6
REMARK VINA RESULT:    -7.445      1.576      6.770
REMARK INTER + INTRA:          -9.255
REMARK INTER:                  -8.970
REMARK INTRA:                  -0.285
REMARK UNBOUND:                -0.286
REMARK SMILES O=c1c(O)c(-c2ccc(O)c(O)c2)oc2cc(O)cc(O)c12
REMARK SMILES IDX 5 1 3 2 2 3 1 4 22 5 20 6 19 7 17 8 16 9 15 10 14 11 6 12
REMARK SMILES IDX 7 13 8 14 9 15 13 16 11 17 10 18 12 20 4 22 21 24 18 26
REMARK H PARENT 10 19 12 21 4 23 21 25 18 27
REMARK Flexibility Score: inf
ROOT
ATOM      1  C   UNL     1      12.926  44.606   7.256  1.00  0.00     0.180 A 
ATOM      2  C   UNL     1      13.506  44.243   8.484  1.00  0.00     0.208 A 
ATOM      3  C   UNL     1      14.836  43.795   8.503  1.00  0.00     0.238 A 
ATOM      4  O   UNL     1      15.332  43.419   9.597  1.00  0.00    -0.285 OA
ATOM      5  C   UNL     1      15.575  43.732   7.297  1.00  0.00     0.111 A 
ATOM      6  C   UNL     1      16.943  43.332   7.205  1.00  0.00     0.134 A 
ATOM      7  C   UNL     1      17.534  43.182   5.945  1.00  0.00     0.093 A 
ATOM      8  C   UNL     1      16.828  43.480   4.777  1.00  0.00     0.123 A 
ATOM      9  C   UNL     1      15.512  43.929   4.860  1.00  0.00     0.094 A 
ATOM     10  C   UNL     1      14.883  44.053   6.101  1.00  0.00     0.146 A 
ATOM     11  O   UNL     1      13.624  44.474   6.135  1.00  0.00    -0.452 OA
ENDROOT
BRANCH   1  12
ATOM     12  C   UNL     1      11.538  45.111   7.160  1.00  0.00     0.025 A 
ATOM     13  C   UNL     1      11.308  46.493   7.074  1.00  0.00     0.016 A 
ATOM     14  C   UNL     1      10.005  46.992   7.005  1.00  0.00     0.051 A 
ATOM     15  C   UNL     1       8.913  46.121   7.035  1.00  0.00     0.157 A 
ATOM     16  C   UNL     1      10.436  44.238   7.211  1.00  0.00     0.062 A 
ATOM     17  C   UNL     1       9.127  44.737   7.144  1.00  0.00     0.158 A 
BRANCH  15  18
ATOM     18  O   UNL     1       7.624  46.648   6.961  1.00  0.00    -0.504 OA
ATOM     19  H   UNL     1       6.813  46.065   6.788  1.00  0.00     0.293 HD
ENDBRANCH  15  18
BRANCH  17  20
ATOM     20  O   UNL     1       8.041  43.864   7.189  1.00  0.00    -0.504 OA
ATOM     21  H   UNL     1       7.462  43.693   6.375  1.00  0.00     0.293 HD
ENDBRANCH  17  20
ENDBRANCH   1  12
BRANCH   2  22
ATOM     22  O   UNL     1      12.751  44.292   9.660  1.00  0.00    -0.502 OA
ATOM     23  H   UNL     1      12.471  45.165  10.090  1.00  0.00     0.293 HD
ENDBRANCH   2  22
BRANCH   6  24
ATOM     24  O   UNL     1      17.764  43.099   8.312  1.00  0.00    -0.507 OA
ATOM     25  H   UNL     1      17.468  43.173   9.273  1.00  0.00     0.293 HD
ENDBRANCH   6  24
BRANCH   8  26
ATOM     26  O   UNL     1      17.430  43.343   3.528  1.00  0.00    -0.508 OA
ATOM     27  H   UNL     1      18.008  44.077   3.135  1.00  0.00     0.293 HD
ENDBRANCH   8  26
TORSDOF 6
ENDMDL
MODEL 7
REMARK VINA RESULT:    -7.344      2.984      6.970
REMARK INTER + INTRA:          -9.133
REMARK INTER:                  -8.818
REMARK INTRA:                  -0.315
REMARK UNBOUND:                -0.286
REMARK SMILES O=c1c(O)c(-c2ccc(O)c(O)c2)oc2cc(O)cc(O)c12
REMARK SMILES IDX 5 1 3 2 2 3 1 4 22 5 20 6 19 7 17 8 16 9 15 10 14 11 6 12
REMARK SMILES IDX 7 13 8 14 9 15 13 16 11 17 10 18 12 20 4 22 21 24 18 26
REMARK H PARENT 10 19 12 21 4 23 21 25 18 27
REMARK Flexibility Score: inf
ROOT
ATOM      1  C   UNL     1      14.446  44.156   6.785  1.00  0.00     0.180 A 
ATOM      2  C   UNL     1      15.716  44.616   7.173  1.00  0.00     0.208 A 
ATOM      3  C   UNL     1      16.517  43.799   7.985  1.00  0.00     0.238 A 
ATOM      4  O   UNL     1      17.630  44.239   8.374  1.00  0.00    -0.285 OA
ATOM      5  C   UNL     1      16.046  42.525   8.386  1.00  0.00     0.111 A 
ATOM      6  C   UNL     1      16.791  41.598   9.176  1.00  0.00     0.134 A 
ATOM      7  C   UNL     1      16.176  40.422   9.621  1.00  0.00     0.093 A 
ATOM      8  C   UNL     1      14.865  40.109   9.253  1.00  0.00     0.123 A 
ATOM      9  C   UNL     1      14.151  40.980   8.433  1.00  0.00     0.094 A 
ATOM     10  C   UNL     1      14.725  42.179   8.002  1.00  0.00     0.146 A 
ATOM     11  O   UNL     1      14.006  42.986   7.231  1.00  0.00    -0.452 OA
ENDROOT
BRANCH   1  12
ATOM     12  C   UNL     1      13.554  44.950   5.910  1.00  0.00     0.025 A 
ATOM     13  C   UNL     1      13.596  44.756   4.520  1.00  0.00     0.016 A 
ATOM     14  C   UNL     1      12.780  45.510   3.674  1.00  0.00     0.051 A 
ATOM     15  C   UNL     1      11.921  46.478   4.200  1.00  0.00     0.157 A 
ATOM     16  C   UNL     1      12.704  45.940   6.434  1.00  0.00     0.062 A 
ATOM     17  C   UNL     1      11.884  46.700   5.586  1.00  0.00     0.158 A 
BRANCH  15  18
ATOM     18  O   UNL     1      11.115  47.213   3.330  1.00  0.00    -0.504 OA
ATOM     19  H   UNL     1      11.392  48.122   2.979  1.00  0.00     0.293 HD
ENDBRANCH  15  18
BRANCH  17  20
ATOM     20  O   UNL     1      11.040  47.674   6.116  1.00  0.00    -0.504 OA
ATOM     21  H   UNL     1      11.342  48.635   6.227  1.00  0.00     0.293 HD
ENDBRANCH  17  20
ENDBRANCH   1  12
BRANCH   2  22
ATOM     22  O   UNL     1      16.152  45.886   6.784  1.00  0.00    -0.502 OA
ATOM     23  H   UNL     1      15.827  46.336   5.937  1.00  0.00     0.293 HD
ENDBRANCH   2  22
BRANCH   6  24
ATOM     24  O   UNL     1      18.134  41.770   9.522  1.00  0.00    -0.507 OA
ATOM     25  H   UNL     1      18.692  42.574   9.280  1.00  0.00     0.293 HD
ENDBRANCH   6  24
BRANCH   8  26
ATOM     26  O   UNL     1      14.266  38.929   9.687  1.00  0.00    -0.508 OA
ATOM     27  H   UNL     1      13.376  38.618   9.316  1.00  0.00     0.293 HD
ENDBRANCH   8  26
TORSDOF 6
ENDMDL
MODEL 8
REMARK VINA RESULT:    -7.251      1.212      2.891
REMARK INTER + INTRA:          -9.021
REMARK INTER:                  -8.730
REMARK INTRA:                  -0.291
REMARK UNBOUND:                -0.286
REMARK SMILES O=c1c(O)c(-c2ccc(O)c(O)c2)oc2cc(O)cc(O)c12
REMARK SMILES IDX 5 1 3 2 2 3 1 4 22 5 20 6 19 7 17 8 16 9 15 10 14 11 6 12
REMARK SMILES IDX 7 13 8 14 9 15 13 16 11 17 10 18 12 20 4 22 21 24 18 26
REMARK H PARENT 10 19 12 21 4 23 21 25 18 27
REMARK Flexibility Score: inf
ROOT
ATOM      1  C   UNL     1      13.283  45.298   7.210  1.00  0.00     0.180 A 
ATOM      2  C   UNL     1      12.742  46.340   6.437  1.00  0.00     0.208 A 
ATOM      3  C   UNL     1      11.432  46.772   6.699  1.00  0.00     0.238 A 
ATOM      4  O   UNL     1      10.935  47.667   5.969  1.00  0.00    -0.285 OA
ATOM      5  C   UNL     1      10.686  46.168   7.739  1.00  0.00     0.111 A 
ATOM      6  C   UNL     1       9.364  46.554   8.118  1.00  0.00     0.134 A 
ATOM      7  C   UNL     1       8.674  45.801   9.075  1.00  0.00     0.093 A 
ATOM      8  C   UNL     1       9.279  44.716   9.713  1.00  0.00     0.123 A 
ATOM      9  C   UNL     1      10.590  44.369   9.393  1.00  0.00     0.094 A 
ATOM     10  C   UNL     1      11.292  45.079   8.416  1.00  0.00     0.146 A 
ATOM     11  O   UNL     1      12.536  44.708   8.134  1.00  0.00    -0.452 OA
ENDROOT
BRANCH   1  12
ATOM     12  C   UNL     1      14.665  44.805   7.010  1.00  0.00     0.025 A 
ATOM     13  C   UNL     1      15.693  45.269   7.846  1.00  0.00     0.016 A 
ATOM     14  C   UNL     1      17.007  44.835   7.661  1.00  0.00     0.051 A 
ATOM     15  C   UNL     1      17.318  43.943   6.630  1.00  0.00     0.157 A 
ATOM     16  C   UNL     1      14.985  43.925   5.960  1.00  0.00     0.062 A 
ATOM     17  C   UNL     1      16.304  43.489   5.771  1.00  0.00     0.158 A 
BRANCH  15  18
ATOM     18  O   UNL     1      18.640  43.525   6.472  1.00  0.00    -0.504 OA
ATOM     19  H   UNL     1      19.424  44.107   6.742  1.00  0.00     0.293 HD
ENDBRANCH  15  18
BRANCH  17  20
ATOM     20  O   UNL     1      16.610  42.611   4.732  1.00  0.00    -0.504 OA
ATOM     21  H   UNL     1      16.037  41.799   4.536  1.00  0.00     0.293 HD
ENDBRANCH  17  20
ENDBRANCH   1  12
BRANCH   2  22
ATOM     22  O   UNL     1      13.489  46.907   5.400  1.00  0.00    -0.502 OA
ATOM     23  H   UNL     1      13.103  47.598   4.768  1.00  0.00     0.293 HD
ENDBRANCH   2  22
BRANCH   6  24
ATOM     24  O   UNL     1       8.703  47.675   7.609  1.00  0.00    -0.507 OA
ATOM     25  H   UNL     1       8.555  48.534   8.116  1.00  0.00     0.293 HD
ENDBRANCH   6  24
BRANCH   8  26
ATOM     26  O   UNL     1       8.590  43.982  10.676  1.00  0.00    -0.508 OA
ATOM     27  H   UNL     1       7.577  43.954  10.697  1.00  0.00     0.293 HD
ENDBRANCH   8  26
TORSDOF 6
ENDMDL
MODEL 9
REMARK VINA RESULT:    -7.162      2.124      7.390
REMARK INTER + INTRA:          -8.913
REMARK INTER:                  -8.598
REMARK INTRA:                  -0.315
REMARK UNBOUND:                -0.286
REMARK SMILES O=c1c(O)c(-c2ccc(O)c(O)c2)oc2cc(O)cc(O)c12
REMARK SMILES IDX 5 1 3 2 2 3 1 4 22 5 20 6 19 7 17 8 16 9 15 10 14 11 6 12
REMARK SMILES IDX 7 13 8 14 9 15 13 16 11 17 10 18 12 20 4 22 21 24 18 26
REMARK H PARENT 10 19 12 21 4 23 21 25 18 27
REMARK Flexibility Score: inf
ROOT
ATOM      1  C   UNL     1      10.349  45.503   7.614  1.00  0.00     0.180 A 
ATOM      2  C   UNL     1      10.862  46.401   6.661  1.00  0.00     0.208 A 
ATOM      3  C   UNL     1      12.245  46.420   6.419  1.00  0.00     0.238 A 
ATOM      4  O   UNL     1      12.704  47.263   5.606  1.00  0.00    -0.285 OA
ATOM      5  C   UNL     1      13.095  45.531   7.120  1.00  0.00     0.111 A 
ATOM      6  C   UNL     1      14.506  45.436   6.924  1.00  0.00     0.134 A 
ATOM      7  C   UNL     1      15.265  44.613   7.764  1.00  0.00     0.093 A 
ATOM      8  C   UNL     1      14.657  43.833   8.751  1.00  0.00     0.123 A 
ATOM      9  C   UNL     1      13.274  43.873   8.909  1.00  0.00     0.094 A 
ATOM     10  C   UNL     1      12.493  44.712   8.110  1.00  0.00     0.146 A 
ATOM     11  O   UNL     1      11.179  44.729   8.301  1.00  0.00    -0.452 OA
ENDROOT
BRANCH   1  12
ATOM     12  C   UNL     1       8.901  45.408   7.906  1.00  0.00     0.025 A 
ATOM     13  C   UNL     1       8.388  46.017   9.062  1.00  0.00     0.016 A 
ATOM     14  C   UNL     1       7.028  45.921   9.369  1.00  0.00     0.051 A 
ATOM     15  C   UNL     1       6.164  45.205   8.536  1.00  0.00     0.157 A 
ATOM     16  C   UNL     1       8.034  44.670   7.081  1.00  0.00     0.062 A 
ATOM     17  C   UNL     1       6.669  44.571   7.388  1.00  0.00     0.158 A 
BRANCH  15  18
ATOM     18  O   UNL     1       4.811  45.130   8.866  1.00  0.00    -0.504 OA
ATOM     19  H   UNL     1       4.285  45.942   9.164  1.00  0.00     0.293 HD
ENDBRANCH  15  18
BRANCH  17  20
ATOM     20  O   UNL     1       5.815  43.843   6.560  1.00  0.00    -0.504 OA
ATOM     21  H   UNL     1       5.329  43.018   6.892  1.00  0.00     0.293 HD
ENDBRANCH  17  20
ENDBRANCH   1  12
BRANCH   2  22
ATOM     22  O   UNL     1      10.007  47.286   5.997  1.00  0.00    -0.502 OA
ATOM     23  H   UNL     1       8.999  47.192   6.027  1.00  0.00     0.293 HD
ENDBRANCH   2  22
BRANCH   6  24
ATOM     24  O   UNL     1      15.200  46.102   5.909  1.00  0.00    -0.507 OA
ATOM     25  H   UNL     1      15.983  45.720   5.402  1.00  0.00     0.293 HD
ENDBRANCH   6  24
BRANCH   8  26
ATOM     26  O   UNL     1      15.418  43.004   9.572  1.00  0.00    -0.508 OA
ATOM     27  H   UNL     1      15.586  42.033   9.336  1.00  0.00     0.293 HD
ENDBRANCH   8  26
TORSDOF 6
ENDMDL
