MODEL 1
REMARK VINA RESULT:    -3.755      0.000      0.000
REMARK INTER + INTRA:          -8.314
REMARK INTER:                  -6.389
REMARK INTRA:                  -1.926
REMARK UNBOUND:                -1.926
REMARK SMILES CCCCCCCCCCCCCC(=O)[O-]
REMARK SMILES IDX 8 1 9 2 10 3 11 4 12 5 13 6 14 7 15 8 16 9 7 10 6 11 5 12
REMARK SMILES IDX 4 13 3 14 2 15 1 16
REMARK H PARENT
REMARK Flexibility Score: inf
ROOT
ATOM      1  C   UNL     1      -4.881  -3.233   6.001  1.00  0.00     0.000 C 
ENDROOT
BRANCH   1   2
ATOM      2  C   UNL     1      -5.848  -3.237   7.198  1.00  0.00     0.000 C 
BRANCH   2   3
ATOM      3  C   UNL     1      -5.271  -2.510   8.423  1.00  0.00     0.000 C 
BRANCH   3   4
ATOM      4  C   UNL     1      -3.888  -1.898   8.155  1.00  0.00     0.000 C 
BRANCH   4   5
ATOM      5  C   UNL     1      -3.885  -0.394   8.457  1.00  0.00     0.006 C 
BRANCH   5   6
ATOM      6  C   UNL     1      -3.101   0.379   7.393  1.00  0.00     0.053 C 
BRANCH   6   7
ATOM      7  C   UNL     1      -3.330   1.851   7.540  1.00  0.00     0.041 C 
ATOM      8  O   UNL     1      -4.015   2.475   6.688  1.00  0.00    -0.550 OA
ATOM      9  O   UNL     1      -2.827   2.524   8.646  1.00  0.00    -0.550 OA
ENDBRANCH   6   7
ENDBRANCH   5   6
ENDBRANCH   4   5
ENDBRANCH   3   4
ENDBRANCH   2   3
ENDBRANCH   1   2
BRANCH   1  10
ATOM     10  C   UNL     1      -5.465  -3.952   4.774  1.00  0.00     0.000 C 
BRANCH  10  11
ATOM     11  C   UNL     1      -7.002  -4.023   4.805  1.00  0.00    -0.000 C 
BRANCH  11  12
ATOM     12  C   UNL     1      -7.656  -3.029   3.822  1.00  0.00    -0.000 C 
BRANCH  12  13
ATOM     13  C   UNL     1      -7.942  -1.645   4.438  1.00  0.00    -0.000 C 
BRANCH  13  14
ATOM     14  C   UNL     1      -6.876  -0.571   4.149  1.00  0.00    -0.000 C 
BRANCH  14  15
ATOM     15  C   UNL     1      -6.304   0.122   5.399  1.00  0.00    -0.003 C 
ATOM     16  C   UNL     1      -7.273   0.115   6.581  1.00  0.00     0.004 C 
ENDBRANCH  14  15
ENDBRANCH  13  14
ENDBRANCH  12  13
ENDBRANCH  11  12
ENDBRANCH  10  11
ENDBRANCH   1  10
TORSDOF 12
ENDMDL
MODEL 2
REMARK VINA RESULT:    -3.730      1.127      3.399
REMARK INTER + INTRA:          -8.273
REMARK INTER:                  -6.831
REMARK INTRA:                  -1.442
REMARK UNBOUND:                -1.926
REMARK SMILES CCCCCCCCCCCCCC(=O)[O-]
REMARK SMILES IDX 8 1 9 2 10 3 11 4 12 5 13 6 14 7 15 8 16 9 7 10 6 11 5 12
REMARK SMILES IDX 4 13 3 14 2 15 1 16
REMARK H PARENT
REMARK Flexibility Score: inf
ROOT
ATOM      1  C   UNL     1      -7.001  -0.916   3.633  1.00  0.00     0.000 C 
ENDROOT
BRANCH   1   2
ATOM      2  C   UNL     1      -6.916   0.521   4.176  1.00  0.00     0.000 C 
BRANCH   2   3
ATOM      3  C   UNL     1      -6.542   0.567   5.666  1.00  0.00     0.000 C 
BRANCH   3   4
ATOM      4  C   UNL     1      -5.211   1.290   5.924  1.00  0.00     0.000 C 
BRANCH   4   5
ATOM      5  C   UNL     1      -4.782   1.145   7.389  1.00  0.00     0.006 C 
BRANCH   5   6
ATOM      6  C   UNL     1      -3.258   1.058   7.510  1.00  0.00     0.053 C 
BRANCH   6   7
ATOM      7  C   UNL     1      -2.752   2.067   8.491  1.00  0.00     0.041 C 
ATOM      8  O   UNL     1      -3.234   3.230   8.511  1.00  0.00    -0.550 OA
ATOM      9  O   UNL     1      -1.781   1.709   9.418  1.00  0.00    -0.550 OA
ENDBRANCH   6   7
ENDBRANCH   5   6
ENDBRANCH   4   5
ENDBRANCH   3   4
ENDBRANCH   2   3
ENDBRANCH   1   2
BRANCH   1  10
ATOM     10  C   UNL     1      -7.163  -1.957   4.753  1.00  0.00     0.000 C 
BRANCH  10  11
ATOM     11  C   UNL     1      -6.423  -3.272   4.451  1.00  0.00    -0.000 C 
BRANCH  11  12
ATOM     12  C   UNL     1      -5.536  -3.730   5.628  1.00  0.00    -0.000 C 
BRANCH  12  13
ATOM     13  C   UNL     1      -5.267  -2.626   6.670  1.00  0.00    -0.000 C 
BRANCH  13  14
ATOM     14  C   UNL     1      -3.805  -2.519   7.141  1.00  0.00    -0.000 C 
BRANCH  14  15
ATOM     15  C   UNL     1      -3.616  -2.548   8.669  1.00  0.00    -0.003 C 
ATOM     16  C   UNL     1      -4.930  -2.398   9.435  1.00  0.00     0.004 C 
ENDBRANCH  14  15
ENDBRANCH  13  14
ENDBRANCH  12  13
ENDBRANCH  11  12
ENDBRANCH  10  11
ENDBRANCH   1  10
TORSDOF 12
ENDMDL
MODEL 3
REMARK VINA RESULT:    -3.730      2.166      5.070
REMARK INTER + INTRA:          -8.272
REMARK INTER:                  -7.129
REMARK INTRA:                  -1.143
REMARK UNBOUND:                -1.926
REMARK SMILES CCCCCCCCCCCCCC(=O)[O-]
REMARK SMILES IDX 8 1 9 2 10 3 11 4 12 5 13 6 14 7 15 8 16 9 7 10 6 11 5 12
REMARK SMILES IDX 4 13 3 14 2 15 1 16
REMARK H PARENT
REMARK Flexibility Score: inf
ROOT
ATOM      1  C   UNL     1      -5.657  -3.433   6.845  1.00  0.00     0.000 C 
ENDROOT
BRANCH   1   2
ATOM      2  C   UNL     1      -5.428  -3.520   5.326  1.00  0.00     0.000 C 
BRANCH   2   3
ATOM      3  C   UNL     1      -6.692  -3.952   4.564  1.00  0.00     0.000 C 
BRANCH   3   4
ATOM      4  C   UNL     1      -7.559  -2.761   4.127  1.00  0.00     0.000 C 
BRANCH   4   5
ATOM      5  C   UNL     1      -6.703  -1.506   3.917  1.00  0.00     0.006 C 
BRANCH   5   6
ATOM      6  C   UNL     1      -7.299  -0.610   2.828  1.00  0.00     0.053 C 
BRANCH   6   7
ATOM      7  C   UNL     1      -7.231   0.828   3.238  1.00  0.00     0.041 C 
ATOM      8  O   UNL     1      -7.260   1.142   4.456  1.00  0.00    -0.550 OA
ATOM      9  O   UNL     1      -7.085   1.818   2.275  1.00  0.00    -0.550 OA
ENDBRANCH   6   7
ENDBRANCH   5   6
ENDBRANCH   4   5
ENDBRANCH   3   4
ENDBRANCH   2   3
ENDBRANCH   1   2
BRANCH   1  10
ATOM     10  C   UNL     1      -4.896  -2.260   7.486  1.00  0.00     0.000 C 
BRANCH  10  11
ATOM     11  C   UNL     1      -5.629  -0.917   7.321  1.00  0.00    -0.000 C 
BRANCH  11  12
ATOM     12  C   UNL     1      -4.714   0.185   6.746  1.00  0.00    -0.000 C 
BRANCH  12  13
ATOM     13  C   UNL     1      -3.239   0.051   7.173  1.00  0.00    -0.000 C 
BRANCH  13  14
ATOM     14  C   UNL     1      -2.650   1.290   7.875  1.00  0.00    -0.000 C 
BRANCH  14  15
ATOM     15  C   UNL     1      -3.529   2.552   7.801  1.00  0.00    -0.003 C 
ATOM     16  C   UNL     1      -3.285   3.517   8.960  1.00  0.00     0.004 C 
ENDBRANCH  14  15
ENDBRANCH  13  14
ENDBRANCH  12  13
ENDBRANCH  11  12
ENDBRANCH  10  11
ENDBRANCH   1  10
TORSDOF 12
ENDMDL
MODEL 4
REMARK VINA RESULT:    -3.695      1.125      1.885
REMARK INTER + INTRA:          -8.213
REMARK INTER:                  -6.914
REMARK INTRA:                  -1.299
REMARK UNBOUND:                -1.926
REMARK SMILES CCCCCCCCCCCCCC(=O)[O-]
REMARK SMILES IDX 8 1 9 2 10 3 11 4 12 5 13 6 14 7 15 8 16 9 7 10 6 11 5 12
REMARK SMILES IDX 4 13 3 14 2 15 1 16
REMARK H PARENT
REMARK Flexibility Score: inf
ROOT
ATOM      1  C   UNL     1      -4.376  -2.386   6.714  1.00  0.00     0.000 C 
ENDROOT
BRANCH   1   2
ATOM      2  C   UNL     1      -4.206  -2.166   8.227  1.00  0.00     0.000 C 
BRANCH   2   3
ATOM      3  C   UNL     1      -3.625  -0.782   8.560  1.00  0.00     0.000 C 
BRANCH   3   4
ATOM      4  C   UNL     1      -3.440   0.100   7.315  1.00  0.00     0.000 C 
BRANCH   4   5
ATOM      5  C   UNL     1      -2.465   1.250   7.597  1.00  0.00     0.006 C 
BRANCH   5   6
ATOM      6  C   UNL     1      -2.490   1.642   9.077  1.00  0.00     0.053 C 
BRANCH   6   7
ATOM      7  C   UNL     1      -3.281   2.897   9.273  1.00  0.00     0.041 C 
ATOM      8  O   UNL     1      -2.739   3.917   9.773  1.00  0.00    -0.550 OA
ATOM      9  O   UNL     1      -4.605   2.956   8.856  1.00  0.00    -0.550 OA
ENDBRANCH   6   7
ENDBRANCH   5   6
ENDBRANCH   4   5
ENDBRANCH   3   4
ENDBRANCH   2   3
ENDBRANCH   1   2
BRANCH   1  10
ATOM     10  C   UNL     1      -5.481  -3.406   6.391  1.00  0.00     0.000 C 
BRANCH  10  11
ATOM     11  C   UNL     1      -5.491  -3.818   4.909  1.00  0.00    -0.000 C 
BRANCH  11  12
ATOM     12  C   UNL     1      -6.880  -3.641   4.260  1.00  0.00    -0.000 C 
BRANCH  12  13
ATOM     13  C   UNL     1      -7.512  -2.258   4.514  1.00  0.00    -0.000 C 
BRANCH  13  14
ATOM     14  C   UNL     1      -6.863  -1.094   3.741  1.00  0.00    -0.000 C 
BRANCH  14  15
ATOM     15  C   UNL     1      -6.793   0.234   4.515  1.00  0.00    -0.003 C 
ATOM     16  C   UNL     1      -6.981   0.058   6.022  1.00  0.00     0.004 C 
ENDBRANCH  14  15
ENDBRANCH  13  14
ENDBRANCH  12  13
ENDBRANCH  11  12
ENDBRANCH  10  11
ENDBRANCH   1  10
TORSDOF 12
ENDMDL
MODEL 5
REMARK VINA RESULT:    -3.628      2.294      5.256
REMARK INTER + INTRA:          -8.098
REMARK INTER:                  -6.776
REMARK INTRA:                  -1.322
REMARK UNBOUND:                -1.926
REMARK SMILES CCCCCCCCCCCCCC(=O)[O-]
REMARK SMILES IDX 8 1 9 2 10 3 11 4 12 5 13 6 14 7 15 8 16 9 7 10 6 11 5 12
REMARK SMILES IDX 4 13 3 14 2 15 1 16
REMARK H PARENT
REMARK Flexibility Score: inf
ROOT
ATOM      1  C   UNL     1      -3.915  -2.445   6.799  1.00  0.00     0.000 C 
ENDROOT
BRANCH   1   2
ATOM      2  C   UNL     1      -5.356  -2.871   6.470  1.00  0.00     0.000 C 
BRANCH   2   3
ATOM      3  C   UNL     1      -5.420  -3.905   5.335  1.00  0.00     0.000 C 
BRANCH   3   4
ATOM      4  C   UNL     1      -6.859  -4.227   4.903  1.00  0.00     0.000 C 
BRANCH   4   5
ATOM      5  C   UNL     1      -7.699  -2.948   4.795  1.00  0.00     0.006 C 
BRANCH   5   6
ATOM      6  C   UNL     1      -7.491  -2.267   3.439  1.00  0.00     0.053 C 
BRANCH   6   7
ATOM      7  C   UNL     1      -7.063  -0.845   3.627  1.00  0.00     0.041 C 
ATOM      8  O   UNL     1      -6.775  -0.133   2.630  1.00  0.00    -0.550 OA
ATOM      9  O   UNL     1      -7.032  -0.292   4.901  1.00  0.00    -0.550 OA
ENDBRANCH   6   7
ENDBRANCH   5   6
ENDBRANCH   4   5
ENDBRANCH   3   4
ENDBRANCH   2   3
ENDBRANCH   1   2
BRANCH   1  10
ATOM     10  C   UNL     1      -3.651  -2.392   8.314  1.00  0.00     0.000 C 
BRANCH  10  11
ATOM     11  C   UNL     1      -4.797  -1.721   9.091  1.00  0.00    -0.000 C 
BRANCH  11  12
ATOM     12  C   UNL     1      -4.284  -0.696  10.125  1.00  0.00    -0.000 C 
BRANCH  12  13
ATOM     13  C   UNL     1      -4.199   0.744   9.582  1.00  0.00    -0.000 C 
BRANCH  13  14
ATOM     14  C   UNL     1      -2.851   1.119   8.938  1.00  0.00    -0.000 C 
BRANCH  14  15
ATOM     15  C   UNL     1      -2.846   1.111   7.399  1.00  0.00    -0.003 C 
ATOM     16  C   UNL     1      -4.233   1.337   6.797  1.00  0.00     0.004 C 
ENDBRANCH  14  15
ENDBRANCH  13  14
ENDBRANCH  12  13
ENDBRANCH  11  12
ENDBRANCH  10  11
ENDBRANCH   1  10
TORSDOF 12
ENDMDL
MODEL 6
REMARK VINA RESULT:    -3.625      1.226      3.234
REMARK INTER + INTRA:          -8.093
REMARK INTER:                  -6.350
REMARK INTRA:                  -1.743
REMARK UNBOUND:                -1.926
REMARK SMILES CCCCCCCCCCCCCC(=O)[O-]
REMARK SMILES IDX 8 1 9 2 10 3 11 4 12 5 13 6 14 7 15 8 16 9 7 10 6 11 5 12
REMARK SMILES IDX 4 13 3 14 2 15 1 16
REMARK H PARENT
REMARK Flexibility Score: inf
ROOT
ATOM      1  C   UNL     1      -6.801  -0.261   4.477  1.00  0.00     0.000 C 
ENDROOT
BRANCH   1   2
ATOM      2  C   UNL     1      -5.946   0.608   5.416  1.00  0.00     0.000 C 
BRANCH   2   3
ATOM      3  C   UNL     1      -6.348   0.451   6.891  1.00  0.00     0.000 C 
BRANCH   3   4
ATOM      4  C   UNL     1      -5.357   1.125   7.853  1.00  0.00     0.000 C 
BRANCH   4   5
ATOM      5  C   UNL     1      -4.113   1.617   7.103  1.00  0.00     0.006 C 
BRANCH   5   6
ATOM      6  C   UNL     1      -2.833   1.253   7.862  1.00  0.00     0.053 C 
BRANCH   6   7
ATOM      7  C   UNL     1      -2.580   2.234   8.963  1.00  0.00     0.041 C 
ATOM      8  O   UNL     1      -1.888   1.902   9.961  1.00  0.00    -0.550 OA
ATOM      9  O   UNL     1      -3.066   3.531   8.863  1.00  0.00    -0.550 OA
ENDBRANCH   6   7
ENDBRANCH   5   6
ENDBRANCH   4   5
ENDBRANCH   3   4
ENDBRANCH   2   3
ENDBRANCH   1   2
BRANCH   1  10
ATOM     10  C   UNL     1      -7.948  -0.969   5.217  1.00  0.00     0.000 C 
BRANCH  10  11
ATOM     11  C   UNL     1      -7.757  -2.494   5.284  1.00  0.00    -0.000 C 
BRANCH  11  12
ATOM     12  C   UNL     1      -6.573  -2.976   4.419  1.00  0.00    -0.000 C 
BRANCH  12  13
ATOM     13  C   UNL     1      -5.458  -3.672   5.226  1.00  0.00    -0.000 C 
BRANCH  13  14
ATOM     14  C   UNL     1      -5.323  -3.203   6.687  1.00  0.00    -0.000 C 
BRANCH  14  15
ATOM     15  C   UNL     1      -4.017  -2.453   7.006  1.00  0.00    -0.003 C 
ATOM     16  C   UNL     1      -3.661  -2.480   8.492  1.00  0.00     0.004 C 
ENDBRANCH  14  15
ENDBRANCH  13  14
ENDBRANCH  12  13
ENDBRANCH  11  12
ENDBRANCH  10  11
ENDBRANCH   1  10
TORSDOF 12
ENDMDL
MODEL 7
REMARK VINA RESULT:    -3.564      1.618      2.700
REMARK INTER + INTRA:          -7.990
REMARK INTER:                  -6.856
REMARK INTRA:                  -1.134
REMARK UNBOUND:                -1.926
REMARK SMILES CCCCCCCCCCCCCC(=O)[O-]
REMARK SMILES IDX 8 1 9 2 10 3 11 4 12 5 13 6 14 7 15 8 16 9 7 10 6 11 5 12
REMARK SMILES IDX 4 13 3 14 2 15 1 16
REMARK H PARENT
REMARK Flexibility Score: inf
ROOT
ATOM      1  C   UNL     1      -3.978  -2.359   7.005  1.00  0.00     0.000 C 
ENDROOT
BRANCH   1   2
ATOM      2  C   UNL     1      -3.751  -1.897   8.455  1.00  0.00     0.000 C 
BRANCH   2   3
ATOM      3  C   UNL     1      -3.744  -0.366   8.592  1.00  0.00     0.000 C 
BRANCH   3   4
ATOM      4  C   UNL     1      -3.206   0.340   7.338  1.00  0.00     0.000 C 
BRANCH   4   5
ATOM      5  C   UNL     1      -3.990   1.627   7.054  1.00  0.00     0.006 C 
BRANCH   5   6
ATOM      6  C   UNL     1      -5.246   1.335   6.228  1.00  0.00     0.053 C 
BRANCH   6   7
ATOM      7  C   UNL     1      -6.465   1.848   6.929  1.00  0.00     0.041 C 
ATOM      8  O   UNL     1      -7.528   2.051   6.286  1.00  0.00    -0.550 OA
ATOM      9  O   UNL     1      -6.441   2.053   8.303  1.00  0.00    -0.550 OA
ENDBRANCH   6   7
ENDBRANCH   5   6
ENDBRANCH   4   5
ENDBRANCH   3   4
ENDBRANCH   2   3
ENDBRANCH   1   2
BRANCH   1  10
ATOM     10  C   UNL     1      -5.360  -3.002   6.804  1.00  0.00     0.000 C 
BRANCH  10  11
ATOM     11  C   UNL     1      -5.403  -3.946   5.590  1.00  0.00    -0.000 C 
BRANCH  11  12
ATOM     12  C   UNL     1      -6.313  -3.411   4.463  1.00  0.00    -0.000 C 
BRANCH  12  13
ATOM     13  C   UNL     1      -7.489  -2.554   4.970  1.00  0.00    -0.000 C 
BRANCH  13  14
ATOM     14  C   UNL     1      -7.483  -1.091   4.487  1.00  0.00    -0.000 C 
BRANCH  14  15
ATOM     15  C   UNL     1      -7.100  -0.902   3.008  1.00  0.00    -0.003 C 
ATOM     16  C   UNL     1      -8.120  -1.510   2.045  1.00  0.00     0.004 C 
ENDBRANCH  14  15
ENDBRANCH  13  14
ENDBRANCH  12  13
ENDBRANCH  11  12
ENDBRANCH  10  11
ENDBRANCH   1  10
TORSDOF 12
ENDMDL
MODEL 8
REMARK VINA RESULT:    -3.541      2.651      5.667
REMARK INTER + INTRA:          -7.951
REMARK INTER:                  -6.078
REMARK INTRA:                  -1.873
REMARK UNBOUND:                -1.926
REMARK SMILES CCCCCCCCCCCCCC(=O)[O-]
REMARK SMILES IDX 8 1 9 2 10 3 11 4 12 5 13 6 14 7 15 8 16 9 7 10 6 11 5 12
REMARK SMILES IDX 4 13 3 14 2 15 1 16
REMARK H PARENT
REMARK Flexibility Score: inf
ROOT
ATOM      1  C   UNL     1      -2.868   1.187   7.593  1.00  0.00     0.000 C 
ENDROOT
BRANCH   1   2
ATOM      2  C   UNL     1      -4.004   2.108   7.116  1.00  0.00     0.000 C 
BRANCH   2   3
ATOM      3  C   UNL     1      -5.003   1.385   6.199  1.00  0.00     0.000 C 
BRANCH   3   4
ATOM      4  C   UNL     1      -6.464   1.599   6.626  1.00  0.00     0.000 C 
BRANCH   4   5
ATOM      5  C   UNL     1      -7.430   1.143   5.525  1.00  0.00     0.006 C 
BRANCH   5   6
ATOM      6  C   UNL     1      -6.818   0.016   4.689  1.00  0.00     0.053 C 
BRANCH   6   7
ATOM      7  C   UNL     1      -6.991   0.294   3.229  1.00  0.00     0.041 C 
ATOM      8  O   UNL     1      -7.025   1.480   2.809  1.00  0.00    -0.550 OA
ATOM      9  O   UNL     1      -7.064  -0.758   2.325  1.00  0.00    -0.550 OA
ENDBRANCH   6   7
ENDBRANCH   5   6
ENDBRANCH   4   5
ENDBRANCH   3   4
ENDBRANCH   2   3
ENDBRANCH   1   2
BRANCH   1  10
ATOM     10  C   UNL     1      -2.569   1.353   9.092  1.00  0.00     0.000 C 
BRANCH  10  11
ATOM     11  C   UNL     1      -3.650   0.721   9.985  1.00  0.00    -0.000 C 
BRANCH  11  12
ATOM     12  C   UNL     1      -4.032  -0.703   9.527  1.00  0.00    -0.000 C 
BRANCH  12  13
ATOM     13  C   UNL     1      -5.537  -0.882   9.246  1.00  0.00    -0.000 C 
BRANCH  13  14
ATOM     14  C   UNL     1      -5.870  -1.727   8.002  1.00  0.00    -0.000 C 
BRANCH  14  15
ATOM     15  C   UNL     1      -4.646  -2.227   7.215  1.00  0.00    -0.003 C 
ATOM     16  C   UNL     1      -5.016  -3.177   6.076  1.00  0.00     0.004 C 
ENDBRANCH  14  15
ENDBRANCH  13  14
ENDBRANCH  12  13
ENDBRANCH  11  12
ENDBRANCH  10  11
ENDBRANCH   1  10
TORSDOF 12
ENDMDL
MODEL 9
REMARK VINA RESULT:    -3.502      2.021      4.468
REMARK INTER + INTRA:          -7.884
REMARK INTER:                  -6.568
REMARK INTRA:                  -1.316
REMARK UNBOUND:                -1.926
REMARK SMILES CCCCCCCCCCCCCC(=O)[O-]
REMARK SMILES IDX 8 1 9 2 10 3 11 4 12 5 13 6 14 7 15 8 16 9 7 10 6 11 5 12
REMARK SMILES IDX 4 13 3 14 2 15 1 16
REMARK H PARENT
REMARK Flexibility Score: inf
ROOT
ATOM      1  C   UNL     1      -6.698  -1.433   3.792  1.00  0.00     0.000 C 
ENDROOT
BRANCH   1   2
ATOM      2  C   UNL     1      -7.601  -2.669   3.645  1.00  0.00     0.000 C 
BRANCH   2   3
ATOM      3  C   UNL     1      -7.106  -3.863   4.478  1.00  0.00     0.000 C 
BRANCH   3   4
ATOM      4  C   UNL     1      -5.619  -3.752   4.849  1.00  0.00     0.000 C 
BRANCH   4   5
ATOM      5  C   UNL     1      -5.439  -3.641   6.368  1.00  0.00     0.006 C 
BRANCH   5   6
ATOM      6  C   UNL     1      -4.345  -2.627   6.719  1.00  0.00     0.053 C 
BRANCH   6   7
ATOM      7  C   UNL     1      -4.395  -2.286   8.175  1.00  0.00     0.041 C 
ATOM      8  O   UNL     1      -3.408  -2.529   8.917  1.00  0.00    -0.550 OA
ATOM      9  O   UNL     1      -5.514  -1.653   8.702  1.00  0.00    -0.550 OA
ENDBRANCH   6   7
ENDBRANCH   5   6
ENDBRANCH   4   5
ENDBRANCH   3   4
ENDBRANCH   2   3
ENDBRANCH   1   2
BRANCH   1  10
ATOM     10  C   UNL     1      -7.496  -0.118   3.768  1.00  0.00     0.000 C 
BRANCH  10  11
ATOM     11  C   UNL     1      -6.795   1.014   4.539  1.00  0.00    -0.000 C 
BRANCH  11  12
ATOM     12  C   UNL     1      -6.081   0.505   5.810  1.00  0.00    -0.000 C 
BRANCH  12  13
ATOM     13  C   UNL     1      -4.942   1.424   6.292  1.00  0.00    -0.000 C 
BRANCH  13  14
ATOM     14  C   UNL     1      -4.978   1.774   7.792  1.00  0.00    -0.000 C 
BRANCH  14  15
ATOM     15  C   UNL     1      -3.735   1.334   8.587  1.00  0.00    -0.003 C 
ATOM     16  C   UNL     1      -2.499   1.148   7.707  1.00  0.00     0.004 C 
ENDBRANCH  14  15
ENDBRANCH  13  14
ENDBRANCH  12  13
ENDBRANCH  11  12
ENDBRANCH  10  11
ENDBRANCH   1  10
TORSDOF 12
ENDMDL
