MODEL 1
REMARK VINA RESULT:    72.303      0.000      0.000
REMARK INTER + INTRA:          80.362
REMARK INTER:                  78.644
REMARK INTRA:                   1.718
REMARK UNBOUND:                 1.718
REMARK SMILES C[C@H]1[C@@H](C)CC[C@@]2(C(=O)[O-])CC[C@]3(C)C(=CC[C@@H]4[C@@]5(C)CC[C@@H](O)C(C)(C)[C@@H]5CC[C@]43C)[C@@H]12
REMARK SMILES IDX 7 1 6 2 11 3 33 4 5 5 12 6 15 7 2 8 3 9 13 10 16 11 1 12
REMARK SMILES IDX 4 13 14 14 31 15 17 16 18 17 30 18 32 19 19 20 29 21 28 22
REMARK SMILES IDX 21 23 20 24 25 25 22 26 23 27 26 28 27 29 8 30 9 31 10 32
REMARK SMILES IDX 24 33
REMARK H PARENT 24 34
REMARK Flexibility Score: inf
ROOT
ATOM      1  C   UNL     1     -12.643  36.094  -2.506  1.00  0.00     0.017 C 
ATOM      2  C   UNL     1     -13.652  35.628  -3.605  1.00  0.00     0.014 C 
ATOM      3  C   UNL     1     -12.122  34.833  -1.783  1.00  0.00     0.014 C 
ATOM      4  C   UNL     1     -11.413  36.875  -3.118  1.00  0.00     0.030 C 
ATOM      5  C   UNL     1     -13.775  36.637  -4.745  1.00  0.00     0.004 C 
ATOM      6  C   UNL     1     -11.225  35.149  -0.585  1.00  0.00     0.013 C 
ATOM      7  C   UNL     1     -10.127  36.821  -2.258  1.00  0.00    -0.063 C 
ATOM      8  C   UNL     1     -11.168  36.519  -4.632  1.00  0.00    -0.003 C 
ATOM      9  C   UNL     1     -12.436  36.850  -5.492  1.00  0.00    -0.011 C 
ATOM     10  C   UNL     1     -10.095  36.226  -0.831  1.00  0.00    -0.006 C 
ATOM     11  C   UNL     1      -9.055  37.539  -2.681  1.00  0.00    -0.027 C 
ATOM     12  C   UNL     1     -10.591  35.102  -4.853  1.00  0.00     0.008 C 
ATOM     13  C   UNL     1     -12.446  36.162  -6.869  1.00  0.00     0.008 C 
ATOM     14  C   UNL     1     -10.431  37.434   0.109  1.00  0.00     0.017 C 
ATOM     15  C   UNL     1      -8.629  35.612  -0.554  1.00  0.00    -0.020 C 
ATOM     16  C   UNL     1      -7.682  37.525  -2.052  1.00  0.00     0.032 C 
ATOM     17  C   UNL     1      -7.566  36.771  -0.699  1.00  0.00     0.006 C 
ATOM     18  C   UNL     1      -8.510  34.998   0.889  1.00  0.00     0.008 C 
ATOM     19  C   UNL     1      -8.357  34.476  -1.593  1.00  0.00     0.012 C 
ATOM     20  C   UNL     1      -6.075  36.427  -0.261  1.00  0.00    -0.025 C 
ATOM     21  C   UNL     1      -7.076  34.670   1.342  1.00  0.00     0.005 C 
ATOM     22  C   UNL     1      -6.148  35.903   1.224  1.00  0.00     0.003 C 
ATOM     23  C   UNL     1      -5.242  37.750  -0.266  1.00  0.00     0.010 C 
ATOM     24  C   UNL     1      -5.397  35.410  -1.242  1.00  0.00     0.012 C 
ATOM     25  C   UNL     1      -4.768  35.779   1.986  1.00  0.00    -0.006 C 
ATOM     26  C   UNL     1      -3.876  37.634   0.431  1.00  0.00     0.033 C 
ATOM     27  C   UNL     1      -4.002  37.138   1.879  1.00  0.00     0.120 C 
ATOM     28  C   UNL     1      -5.014  35.496   3.496  1.00  0.00     0.014 C 
ATOM     29  C   UNL     1      -3.876  34.624   1.465  1.00  0.00     0.014 C 
ENDROOT
BRANCH   1  30
ATOM     30  C   UNL     1     -13.442  36.965  -1.538  1.00  0.00     0.048 C 
ATOM     31  O   UNL     1     -12.978  37.275  -0.408  1.00  0.00    -0.550 OA
ATOM     32  O   UNL     1     -14.642  37.541  -1.941  1.00  0.00    -0.550 OA
ENDBRANCH   1  30
BRANCH  27  33
ATOM     33  O   UNL     1      -4.654  38.125   2.645  1.00  0.00    -0.393 OA
ATOM     34  H   UNL     1      -5.237  37.653   3.295  1.00  0.00     0.210 HD
ENDBRANCH  27  33
TORSDOF 2
ENDMDL
MODEL 2
REMARK VINA RESULT:    75.184      2.056      8.182
REMARK INTER + INTRA:          83.495
REMARK INTER:                  83.771
REMARK INTRA:                  -0.276
REMARK UNBOUND:                 1.718
REMARK SMILES C[C@H]1[C@@H](C)CC[C@@]2(C(=O)[O-])CC[C@]3(C)C(=CC[C@@H]4[C@@]5(C)CC[C@@H](O)C(C)(C)[C@@H]5CC[C@]43C)[C@@H]12
REMARK SMILES IDX 7 1 6 2 11 3 33 4 5 5 12 6 15 7 2 8 3 9 13 10 16 11 1 12
REMARK SMILES IDX 4 13 14 14 31 15 17 16 18 17 30 18 32 19 19 20 29 21 28 22
REMARK SMILES IDX 21 23 20 24 25 25 22 26 23 27 26 28 27 29 8 30 9 31 10 32
REMARK SMILES IDX 24 33
REMARK H PARENT 24 34
REMARK Flexibility Score: inf
ROOT
ATOM      1  C   UNL     1      -5.826  34.526   2.243  1.00  0.00     0.017 C 
ATOM      2  C   UNL     1      -5.038  34.740   3.575  1.00  0.00     0.014 C 
ATOM      3  C   UNL     1      -7.258  34.080   2.611  1.00  0.00     0.014 C 
ATOM      4  C   UNL     1      -5.910  35.847   1.379  1.00  0.00     0.030 C 
ATOM      5  C   UNL     1      -3.875  35.716   3.410  1.00  0.00     0.004 C 
ATOM      6  C   UNL     1      -8.106  33.700   1.396  1.00  0.00     0.013 C 
ATOM      7  C   UNL     1      -7.126  35.911   0.423  1.00  0.00    -0.063 C 
ATOM      8  C   UNL     1      -5.728  37.145   2.249  1.00  0.00    -0.003 C 
ATOM      9  C   UNL     1      -4.346  37.130   2.988  1.00  0.00    -0.011 C 
ATOM     10  C   UNL     1      -8.071  34.711   0.183  1.00  0.00    -0.006 C 
ATOM     11  C   UNL     1      -7.217  36.981  -0.409  1.00  0.00    -0.027 C 
ATOM     12  C   UNL     1      -6.939  37.463   3.155  1.00  0.00     0.008 C 
ATOM     13  C   UNL     1      -4.259  38.123   4.160  1.00  0.00     0.008 C 
ATOM     14  C   UNL     1      -7.427  33.935  -1.016  1.00  0.00     0.017 C 
ATOM     15  C   UNL     1      -9.547  35.269  -0.158  1.00  0.00    -0.020 C 
ATOM     16  C   UNL     1      -8.378  37.286  -1.326  1.00  0.00     0.032 C 
ATOM     17  C   UNL     1      -9.453  36.172  -1.450  1.00  0.00     0.006 C 
ATOM     18  C   UNL     1     -10.567  34.105  -0.431  1.00  0.00     0.008 C 
ATOM     19  C   UNL     1     -10.065  36.097   1.063  1.00  0.00     0.012 C 
ATOM     20  C   UNL     1     -10.832  36.654  -2.082  1.00  0.00    -0.025 C 
ATOM     21  C   UNL     1     -11.904  34.542  -1.056  1.00  0.00     0.005 C 
ATOM     22  C   UNL     1     -11.684  35.355  -2.355  1.00  0.00     0.003 C 
ATOM     23  C   UNL     1     -10.534  37.334  -3.458  1.00  0.00     0.010 C 
ATOM     24  C   UNL     1     -11.565  37.692  -1.164  1.00  0.00     0.012 C 
ATOM     25  C   UNL     1     -12.970  35.545  -3.255  1.00  0.00    -0.006 C 
ATOM     26  C   UNL     1     -11.781  37.568  -4.326  1.00  0.00     0.033 C 
ATOM     27  C   UNL     1     -12.565  36.271  -4.579  1.00  0.00     0.120 C 
ATOM     28  C   UNL     1     -13.561  34.158  -3.641  1.00  0.00     0.014 C 
ATOM     29  C   UNL     1     -14.109  36.323  -2.548  1.00  0.00     0.014 C 
ENDROOT
BRANCH   1  30
ATOM     30  C   UNL     1      -5.101  33.406   1.496  1.00  0.00     0.048 C 
ATOM     31  O   UNL     1      -4.319  33.662   0.542  1.00  0.00    -0.550 OA
ATOM     32  O   UNL     1      -5.193  32.093   1.943  1.00  0.00    -0.550 OA
ENDBRANCH   1  30
BRANCH  27  33
ATOM     33  O   UNL     1     -11.787  35.416  -5.383  1.00  0.00    -0.393 OA
ATOM     34  H   UNL     1     -11.509  34.651  -4.815  1.00  0.00     0.210 HD
ENDBRANCH  27  33
TORSDOF 2
ENDMDL
