MODEL 1
REMARK VINA RESULT:    -6.633      0.000      0.000
REMARK INTER + INTRA:         -11.342
REMARK INTER:                  -9.153
REMARK INTRA:                  -2.189
REMARK UNBOUND:                -2.189
REMARK SMILES CC[C@H](CC[C@H](C)[C@H]1CC[C@H]2[C@@H]3CC=C4C[C@@H](O)CC[C@@]4(C)[C@@H]3CC[C@]12C)C(C)C
REMARK SMILES IDX 5 1 4 2 3 3 2 4 1 5 28 6 29 7 30 8 6 9 7 10 8 11 9 12 26 13
REMARK SMILES IDX 10 14 11 15 25 16 27 17 12 18 24 19 23 20 13 21 21 22 14 23
REMARK SMILES IDX 15 24 20 25 22 26 16 27 19 28 17 29 18 30
REMARK H PARENT 18 31
REMARK Flexibility Score: inf
ROOT
ATOM      1  C   UNL     1       7.601  18.307  45.981  1.00  0.00     0.004 C 
ENDROOT
BRANCH   1   2
ATOM      2  C   UNL     1       6.927  19.475  45.224  1.00  0.00     0.004 C 
BRANCH   2   3
ATOM      3  C   UNL     1       7.109  19.419  43.679  1.00  0.00    -0.009 C 
BRANCH   3   4
ATOM      4  C   UNL     1       7.760  18.054  43.282  1.00  0.00     0.000 C 
ATOM      5  C   UNL     1       6.733  17.023  42.810  1.00  0.00     0.004 C 
ENDBRANCH   3   4
BRANCH   3   6
ATOM      6  C   UNL     1       5.757  19.657  42.919  1.00  0.00    -0.014 C 
ATOM      7  C   UNL     1       4.707  20.372  43.795  1.00  0.00     0.007 C 
ATOM      8  C   UNL     1       5.958  20.490  41.637  1.00  0.00     0.007 C 
ENDBRANCH   3   6
ENDBRANCH   2   3
ENDBRANCH   1   2
BRANCH   1   9
ATOM      9  C   UNL     1       6.594  17.338  46.679  1.00  0.00    -0.011 C 
ATOM     10  C   UNL     1       7.059  15.883  46.437  1.00  0.00     0.008 C 
BRANCH   9  11
ATOM     11  C   UNL     1       5.112  17.520  46.176  1.00  0.00    -0.002 C 
ATOM     12  C   UNL     1       4.567  16.247  45.472  1.00  0.00     0.005 C 
ATOM     13  C   UNL     1       3.995  17.857  47.221  1.00  0.00    -0.026 C 
ATOM     14  C   UNL     1       3.056  16.191  45.722  1.00  0.00     0.005 C 
ATOM     15  C   UNL     1       2.736  17.508  46.414  1.00  0.00    -0.001 C 
ATOM     16  C   UNL     1       3.887  19.360  47.618  1.00  0.00     0.007 C 
ATOM     17  C   UNL     1       4.158  16.957  48.486  1.00  0.00     0.012 C 
ATOM     18  C   UNL     1       1.411  17.576  47.228  1.00  0.00     0.000 C 
ATOM     19  C   UNL     1       2.433  19.887  47.777  1.00  0.00     0.005 C 
ATOM     20  C   UNL     1       1.397  18.804  48.223  1.00  0.00     0.003 C 
ATOM     21  C   UNL     1       0.204  17.539  46.254  1.00  0.00     0.031 C 
ATOM     22  C   UNL     1      -0.053  19.377  48.499  1.00  0.00    -0.008 C 
ATOM     23  C   UNL     1      -0.548  18.830  46.123  1.00  0.00    -0.027 C 
ATOM     24  C   UNL     1      -0.810  19.594  47.199  1.00  0.00    -0.065 C 
ATOM     25  C   UNL     1      -0.900  18.374  49.342  1.00  0.00     0.014 C 
ATOM     26  C   UNL     1       0.055  20.714  49.291  1.00  0.00     0.016 C 
ATOM     27  C   UNL     1      -2.206  20.160  47.321  1.00  0.00     0.063 C 
ATOM     28  C   UNL     1      -2.392  18.786  49.479  1.00  0.00     0.033 C 
ATOM     29  C   UNL     1      -3.060  19.162  48.134  1.00  0.00     0.118 C 
BRANCH  29  30
ATOM     30  O   UNL     1      -3.280  17.991  47.390  1.00  0.00    -0.393 OA
ATOM     31  H   UNL     1      -3.375  17.249  48.044  1.00  0.00     0.210 HD
ENDBRANCH  29  30
ENDBRANCH   9  11
ENDBRANCH   1   9
TORSDOF 7
ENDMDL
MODEL 2
REMARK VINA RESULT:    -6.594      4.049      7.588
REMARK INTER + INTRA:         -11.289
REMARK INTER:                  -9.775
REMARK INTRA:                  -1.514
REMARK UNBOUND:                -2.189
REMARK SMILES CC[C@H](CC[C@H](C)[C@H]1CC[C@H]2[C@@H]3CC=C4C[C@@H](O)CC[C@@]4(C)[C@@H]3CC[C@]12C)C(C)C
REMARK SMILES IDX 5 1 4 2 3 3 2 4 1 5 28 6 29 7 30 8 6 9 7 10 8 11 9 12 26 13
REMARK SMILES IDX 10 14 11 15 25 16 27 17 12 18 24 19 23 20 13 21 21 22 14 23
REMARK SMILES IDX 15 24 20 25 22 26 16 27 19 28 17 29 18 30
REMARK H PARENT 18 31
REMARK Flexibility Score: inf
ROOT
ATOM      1  C   UNL     1       0.927  18.389  47.280  1.00  0.00     0.004 C 
ENDROOT
BRANCH   1   2
ATOM      2  C   UNL     1      -0.398  18.563  46.500  1.00  0.00     0.004 C 
BRANCH   2   3
ATOM      3  C   UNL     1      -1.512  17.556  46.911  1.00  0.00    -0.009 C 
BRANCH   3   4
ATOM      4  C   UNL     1      -1.203  16.156  46.287  1.00  0.00     0.000 C 
ATOM      5  C   UNL     1      -0.823  16.237  44.807  1.00  0.00     0.004 C 
ENDBRANCH   3   4
BRANCH   3   6
ATOM      6  C   UNL     1      -1.680  17.469  48.469  1.00  0.00    -0.014 C 
ATOM      7  C   UNL     1      -3.116  17.803  48.926  1.00  0.00     0.007 C 
ATOM      8  C   UNL     1      -1.319  16.070  49.008  1.00  0.00     0.007 C 
ENDBRANCH   3   6
ENDBRANCH   2   3
ENDBRANCH   1   2
BRANCH   1   9
ATOM      9  C   UNL     1       1.830  19.664  47.287  1.00  0.00    -0.011 C 
ATOM     10  C   UNL     1       3.289  19.238  46.998  1.00  0.00     0.008 C 
BRANCH   9  11
ATOM     11  C   UNL     1       1.762  20.463  48.643  1.00  0.00    -0.002 C 
ATOM     12  C   UNL     1       3.066  21.258  48.927  1.00  0.00     0.005 C 
ATOM     13  C   UNL     1       0.639  21.538  48.832  1.00  0.00    -0.026 C 
ATOM     14  C   UNL     1       2.681  22.512  49.719  1.00  0.00     0.005 C 
ATOM     15  C   UNL     1       1.200  22.330  50.022  1.00  0.00    -0.001 C 
ATOM     16  C   UNL     1      -0.751  20.981  49.262  1.00  0.00     0.007 C 
ATOM     17  C   UNL     1       0.513  22.410  47.543  1.00  0.00     0.012 C 
ATOM     18  C   UNL     1       0.389  23.609  50.381  1.00  0.00     0.000 C 
ATOM     19  C   UNL     1      -1.499  21.844  50.316  1.00  0.00     0.005 C 
ATOM     20  C   UNL     1      -1.168  23.371  50.255  1.00  0.00     0.003 C 
ATOM     21  C   UNL     1       0.838  24.129  51.773  1.00  0.00     0.031 C 
ATOM     22  C   UNL     1      -2.026  24.255  51.249  1.00  0.00    -0.008 C 
ATOM     23  C   UNL     1      -0.166  23.947  52.873  1.00  0.00    -0.027 C 
ATOM     24  C   UNL     1      -1.476  24.173  52.664  1.00  0.00    -0.065 C 
ATOM     25  C   UNL     1      -1.978  25.761  50.843  1.00  0.00     0.014 C 
ATOM     26  C   UNL     1      -3.511  23.786  51.219  1.00  0.00     0.016 C 
ATOM     27  C   UNL     1      -2.219  24.959  53.720  1.00  0.00     0.063 C 
ATOM     28  C   UNL     1      -2.633  26.706  51.888  1.00  0.00     0.033 C 
ATOM     29  C   UNL     1      -2.156  26.454  53.340  1.00  0.00     0.118 C 
BRANCH  29  30
ATOM     30  O   UNL     1      -0.845  26.938  53.480  1.00  0.00    -0.393 OA
ATOM     31  H   UNL     1      -0.709  27.123  54.447  1.00  0.00     0.210 HD
ENDBRANCH  29  30
ENDBRANCH   9  11
ENDBRANCH   1   9
TORSDOF 7
ENDMDL
MODEL 3
REMARK VINA RESULT:    -6.565      0.668      1.510
REMARK INTER + INTRA:         -11.249
REMARK INTER:                  -9.528
REMARK INTRA:                  -1.721
REMARK UNBOUND:                -2.189
REMARK SMILES CC[C@H](CC[C@H](C)[C@H]1CC[C@H]2[C@@H]3CC=C4C[C@@H](O)CC[C@@]4(C)[C@@H]3CC[C@]12C)C(C)C
REMARK SMILES IDX 5 1 4 2 3 3 2 4 1 5 28 6 29 7 30 8 6 9 7 10 8 11 9 12 26 13
REMARK SMILES IDX 10 14 11 15 25 16 27 17 12 18 24 19 23 20 13 21 21 22 14 23
REMARK SMILES IDX 15 24 20 25 22 26 16 27 19 28 17 29 18 30
REMARK H PARENT 18 31
REMARK Flexibility Score: inf
ROOT
ATOM      1  C   UNL     1       7.315  18.370  45.880  1.00  0.00     0.004 C 
ENDROOT
BRANCH   1   2
ATOM      2  C   UNL     1       6.667  19.314  44.840  1.00  0.00     0.004 C 
BRANCH   2   3
ATOM      3  C   UNL     1       6.833  18.843  43.365  1.00  0.00    -0.009 C 
BRANCH   3   4
ATOM      4  C   UNL     1       5.951  19.736  42.432  1.00  0.00     0.000 C 
ATOM      5  C   UNL     1       4.925  20.567  43.204  1.00  0.00     0.004 C 
ENDBRANCH   3   4
BRANCH   3   6
ATOM      6  C   UNL     1       8.337  18.845  42.914  1.00  0.00    -0.014 C 
ATOM      7  C   UNL     1       8.872  17.424  42.641  1.00  0.00     0.007 C 
ATOM      8  C   UNL     1       8.553  19.692  41.643  1.00  0.00     0.007 C 
ENDBRANCH   3   6
ENDBRANCH   2   3
ENDBRANCH   1   2
BRANCH   1   9
ATOM      9  C   UNL     1       6.430  17.138  46.256  1.00  0.00    -0.011 C 
ATOM     10  C   UNL     1       7.028  15.877  45.589  1.00  0.00     0.008 C 
BRANCH   9  11
ATOM     11  C   UNL     1       4.922  17.307  45.832  1.00  0.00    -0.002 C 
ATOM     12  C   UNL     1       4.340  16.016  45.193  1.00  0.00     0.005 C 
ATOM     13  C   UNL     1       3.865  17.674  46.927  1.00  0.00    -0.026 C 
ATOM     14  C   UNL     1       2.845  15.968  45.529  1.00  0.00     0.005 C 
ATOM     15  C   UNL     1       2.563  17.304  46.201  1.00  0.00    -0.001 C 
ATOM     16  C   UNL     1       3.778  19.187  47.289  1.00  0.00     0.007 C 
ATOM     17  C   UNL     1       4.099  16.808  48.205  1.00  0.00     0.012 C 
ATOM     18  C   UNL     1       1.286  17.395  47.086  1.00  0.00     0.000 C 
ATOM     19  C   UNL     1       2.335  19.719  47.514  1.00  0.00     0.005 C 
ATOM     20  C   UNL     1       1.326  18.650  48.046  1.00  0.00     0.003 C 
ATOM     21  C   UNL     1       0.027  17.332  46.181  1.00  0.00     0.031 C 
ATOM     22  C   UNL     1      -0.107  19.231  48.387  1.00  0.00    -0.008 C 
ATOM     23  C   UNL     1      -0.733  18.620  46.058  1.00  0.00    -0.027 C 
ATOM     24  C   UNL     1      -0.935  19.413  47.126  1.00  0.00    -0.065 C 
ATOM     25  C   UNL     1      -0.905  18.252  49.303  1.00  0.00     0.014 C 
ATOM     26  C   UNL     1       0.044  20.589  49.135  1.00  0.00     0.016 C 
ATOM     27  C   UNL     1      -2.322  19.983  47.310  1.00  0.00     0.063 C 
ATOM     28  C   UNL     1      -2.387  18.668  49.511  1.00  0.00     0.033 C 
ATOM     29  C   UNL     1      -3.129  19.008  48.196  1.00  0.00     0.118 C 
BRANCH  29  30
ATOM     30  O   UNL     1      -3.390  17.817  47.497  1.00  0.00    -0.393 OA
ATOM     31  H   UNL     1      -2.524  17.336  47.417  1.00  0.00     0.210 HD
ENDBRANCH  29  30
ENDBRANCH   9  11
ENDBRANCH   1   9
TORSDOF 7
ENDMDL
MODEL 4
REMARK VINA RESULT:    -6.494      4.906      8.731
REMARK INTER + INTRA:         -11.150
REMARK INTER:                 -10.236
REMARK INTRA:                  -0.914
REMARK UNBOUND:                -2.189
REMARK SMILES CC[C@H](CC[C@H](C)[C@H]1CC[C@H]2[C@@H]3CC=C4C[C@@H](O)CC[C@@]4(C)[C@@H]3CC[C@]12C)C(C)C
REMARK SMILES IDX 5 1 4 2 3 3 2 4 1 5 28 6 29 7 30 8 6 9 7 10 8 11 9 12 26 13
REMARK SMILES IDX 10 14 11 15 25 16 27 17 12 18 24 19 23 20 13 21 21 22 14 23
REMARK SMILES IDX 15 24 20 25 22 26 16 27 19 28 17 29 18 30
REMARK H PARENT 18 31
REMARK Flexibility Score: inf
ROOT
ATOM      1  C   UNL     1       3.172  23.553  40.848  1.00  0.00     0.004 C 
ENDROOT
BRANCH   1   2
ATOM      2  C   UNL     1       1.741  23.662  40.271  1.00  0.00     0.004 C 
BRANCH   2   3
ATOM      3  C   UNL     1       0.911  24.845  40.852  1.00  0.00    -0.009 C 
BRANCH   3   4
ATOM      4  C   UNL     1       0.636  25.891  39.722  1.00  0.00     0.000 C 
ATOM      5  C   UNL     1       0.634  25.267  38.326  1.00  0.00     0.004 C 
ENDBRANCH   3   4
BRANCH   3   6
ATOM      6  C   UNL     1      -0.421  24.354  41.522  1.00  0.00    -0.014 C 
ATOM      7  C   UNL     1      -0.953  23.051  40.889  1.00  0.00     0.007 C 
ATOM      8  C   UNL     1      -0.249  24.116  43.036  1.00  0.00     0.007 C 
ENDBRANCH   3   6
ENDBRANCH   2   3
ENDBRANCH   1   2
BRANCH   1   9
ATOM      9  C   UNL     1       4.221  22.985  39.839  1.00  0.00    -0.011 C 
ATOM     10  C   UNL     1       3.567  22.904  38.440  1.00  0.00     0.008 C 
BRANCH   9  11
ATOM     11  C   UNL     1       4.778  21.571  40.256  1.00  0.00    -0.002 C 
ATOM     12  C   UNL     1       5.897  21.072  39.302  1.00  0.00     0.005 C 
ATOM     13  C   UNL     1       5.414  21.398  41.677  1.00  0.00    -0.026 C 
ATOM     14  C   UNL     1       6.855  20.205  40.126  1.00  0.00     0.005 C 
ATOM     15  C   UNL     1       6.183  20.083  41.486  1.00  0.00    -0.001 C 
ATOM     16  C   UNL     1       4.400  21.177  42.839  1.00  0.00     0.007 C 
ATOM     17  C   UNL     1       6.361  22.600  41.987  1.00  0.00     0.012 C 
ATOM     18  C   UNL     1       7.087  19.687  42.689  1.00  0.00     0.000 C 
ATOM     19  C   UNL     1       4.844  20.129  43.897  1.00  0.00     0.005 C 
ATOM     20  C   UNL     1       6.392  20.002  44.073  1.00  0.00     0.003 C 
ATOM     21  C   UNL     1       7.537  18.210  42.531  1.00  0.00     0.031 C 
ATOM     22  C   UNL     1       6.829  19.023  45.238  1.00  0.00    -0.008 C 
ATOM     23  C   UNL     1       6.911  17.247  43.497  1.00  0.00    -0.027 C 
ATOM     24  C   UNL     1       6.742  17.573  44.791  1.00  0.00    -0.065 C 
ATOM     25  C   UNL     1       8.313  19.270  45.651  1.00  0.00     0.014 C 
ATOM     26  C   UNL     1       5.927  19.258  46.486  1.00  0.00     0.016 C 
ATOM     27  C   UNL     1       7.114  16.530  45.820  1.00  0.00     0.063 C 
ATOM     28  C   UNL     1       8.864  18.212  46.647  1.00  0.00     0.033 C 
ATOM     29  C   UNL     1       8.589  16.750  46.217  1.00  0.00     0.118 C 
BRANCH  29  30
ATOM     30  O   UNL     1       9.437  16.423  45.146  1.00  0.00    -0.393 OA
ATOM     31  H   UNL     1       9.577  15.439  45.180  1.00  0.00     0.210 HD
ENDBRANCH  29  30
ENDBRANCH   9  11
ENDBRANCH   1   9
TORSDOF 7
ENDMDL
MODEL 5
REMARK VINA RESULT:    -6.492      2.980      8.543
REMARK INTER + INTRA:         -11.147
REMARK INTER:                  -9.805
REMARK INTRA:                  -1.343
REMARK UNBOUND:                -2.189
REMARK SMILES CC[C@H](CC[C@H](C)[C@H]1CC[C@H]2[C@@H]3CC=C4C[C@@H](O)CC[C@@]4(C)[C@@H]3CC[C@]12C)C(C)C
REMARK SMILES IDX 5 1 4 2 3 3 2 4 1 5 28 6 29 7 30 8 6 9 7 10 8 11 9 12 26 13
REMARK SMILES IDX 10 14 11 15 25 16 27 17 12 18 24 19 23 20 13 21 21 22 14 23
REMARK SMILES IDX 15 24 20 25 22 26 16 27 19 28 17 29 18 30
REMARK H PARENT 18 31
REMARK Flexibility Score: inf
ROOT
ATOM      1  C   UNL     1      -2.652  21.108  49.960  1.00  0.00     0.004 C 
ENDROOT
BRANCH   1   2
ATOM      2  C   UNL     1      -1.657  22.200  50.417  1.00  0.00     0.004 C 
BRANCH   2   3
ATOM      3  C   UNL     1      -1.898  22.711  51.868  1.00  0.00    -0.009 C 
BRANCH   3   4
ATOM      4  C   UNL     1      -0.527  22.824  52.613  1.00  0.00     0.000 C 
ATOM      5  C   UNL     1       0.648  22.327  51.770  1.00  0.00     0.004 C 
ENDBRANCH   3   4
BRANCH   3   6
ATOM      6  C   UNL     1      -2.679  24.072  51.889  1.00  0.00    -0.014 C 
ATOM      7  C   UNL     1      -2.281  24.962  53.085  1.00  0.00     0.007 C 
ATOM      8  C   UNL     1      -2.457  24.881  50.595  1.00  0.00     0.007 C 
ENDBRANCH   3   6
ENDBRANCH   2   3
ENDBRANCH   1   2
BRANCH   1   9
ATOM      9  C   UNL     1      -2.236  20.382  48.640  1.00  0.00    -0.011 C 
ATOM     10  C   UNL     1      -3.450  19.585  48.110  1.00  0.00     0.008 C 
BRANCH   9  11
ATOM     11  C   UNL     1      -1.001  19.422  48.825  1.00  0.00    -0.002 C 
ATOM     12  C   UNL     1      -1.363  17.936  48.557  1.00  0.00     0.005 C 
ATOM     13  C   UNL     1       0.271  19.647  47.939  1.00  0.00    -0.026 C 
ATOM     14  C   UNL     1      -0.112  17.248  48.000  1.00  0.00     0.005 C 
ATOM     15  C   UNL     1       0.983  18.298  48.117  1.00  0.00    -0.001 C 
ATOM     16  C   UNL     1       1.246  20.754  48.441  1.00  0.00     0.007 C 
ATOM     17  C   UNL     1      -0.149  19.905  46.458  1.00  0.00     0.012 C 
ATOM     18  C   UNL     1       2.241  18.112  47.219  1.00  0.00     0.000 C 
ATOM     19  C   UNL     1       2.754  20.406  48.297  1.00  0.00     0.005 C 
ATOM     20  C   UNL     1       3.085  19.444  47.111  1.00  0.00     0.003 C 
ATOM     21  C   UNL     1       3.054  16.888  47.718  1.00  0.00     0.031 C 
ATOM     22  C   UNL     1       4.635  19.194  46.899  1.00  0.00    -0.008 C 
ATOM     23  C   UNL     1       4.356  17.218  48.385  1.00  0.00    -0.027 C 
ATOM     24  C   UNL     1       5.164  18.177  47.897  1.00  0.00    -0.065 C 
ATOM     25  C   UNL     1       4.919  18.611  45.480  1.00  0.00     0.014 C 
ATOM     26  C   UNL     1       5.406  20.540  47.040  1.00  0.00     0.016 C 
ATOM     27  C   UNL     1       6.640  17.862  47.816  1.00  0.00     0.063 C 
ATOM     28  C   UNL     1       6.392  18.159  45.281  1.00  0.00     0.033 C 
ATOM     29  C   UNL     1       6.928  17.262  46.423  1.00  0.00     0.118 C 
BRANCH  29  30
ATOM     30  O   UNL     1       6.348  15.987  46.313  1.00  0.00    -0.393 OA
ATOM     31  H   UNL     1       5.847  15.825  47.156  1.00  0.00     0.210 HD
ENDBRANCH  29  30
ENDBRANCH   9  11
ENDBRANCH   1   9
TORSDOF 7
ENDMDL
MODEL 6
REMARK VINA RESULT:    -6.485      5.117      7.995
REMARK INTER + INTRA:         -11.138
REMARK INTER:                  -9.596
REMARK INTRA:                  -1.542
REMARK UNBOUND:                -2.189
REMARK SMILES CC[C@H](CC[C@H](C)[C@H]1CC[C@H]2[C@@H]3CC=C4C[C@@H](O)CC[C@@]4(C)[C@@H]3CC[C@]12C)C(C)C
REMARK SMILES IDX 5 1 4 2 3 3 2 4 1 5 28 6 29 7 30 8 6 9 7 10 8 11 9 12 26 13
REMARK SMILES IDX 10 14 11 15 25 16 27 17 12 18 24 19 23 20 13 21 21 22 14 23
REMARK SMILES IDX 15 24 20 25 22 26 16 27 19 28 17 29 18 30
REMARK H PARENT 18 31
REMARK Flexibility Score: inf
ROOT
ATOM      1  C   UNL     1       8.019  21.046  43.272  1.00  0.00     0.004 C 
ENDROOT
BRANCH   1   2
ATOM      2  C   UNL     1       7.373  20.388  44.514  1.00  0.00     0.004 C 
BRANCH   2   3
ATOM      3  C   UNL     1       7.783  18.901  44.730  1.00  0.00    -0.009 C 
BRANCH   3   4
ATOM      4  C   UNL     1       8.512  18.758  46.107  1.00  0.00     0.000 C 
ATOM      5  C   UNL     1       8.531  17.317  46.620  1.00  0.00     0.004 C 
ENDBRANCH   3   4
BRANCH   3   6
ATOM      6  C   UNL     1       6.554  17.931  44.624  1.00  0.00    -0.014 C 
ATOM      7  C   UNL     1       5.211  18.654  44.863  1.00  0.00     0.007 C 
ATOM      8  C   UNL     1       6.486  17.239  43.248  1.00  0.00     0.007 C 
ENDBRANCH   3   6
ENDBRANCH   2   3
ENDBRANCH   1   2
BRANCH   1   9
ATOM      9  C   UNL     1       7.686  20.324  41.927  1.00  0.00    -0.011 C 
ATOM     10  C   UNL     1       9.001  19.790  41.313  1.00  0.00     0.008 C 
BRANCH   9  11
ATOM     11  C   UNL     1       6.948  21.255  40.892  1.00  0.00    -0.002 C 
ATOM     12  C   UNL     1       6.683  20.540  39.538  1.00  0.00     0.005 C 
ATOM     13  C   UNL     1       5.545  21.841  41.268  1.00  0.00    -0.026 C 
ATOM     14  C   UNL     1       5.394  21.124  38.951  1.00  0.00     0.005 C 
ATOM     15  C   UNL     1       5.037  22.271  39.884  1.00  0.00    -0.001 C 
ATOM     16  C   UNL     1       5.574  23.113  42.167  1.00  0.00     0.007 C 
ATOM     17  C   UNL     1       4.656  20.728  41.908  1.00  0.00     0.012 C 
ATOM     18  C   UNL     1       3.560  22.764  39.868  1.00  0.00     0.000 C 
ATOM     19  C   UNL     1       4.524  24.196  41.793  1.00  0.00     0.005 C 
ATOM     20  C   UNL     1       3.218  23.634  41.142  1.00  0.00     0.003 C 
ATOM     21  C   UNL     1       3.270  23.476  38.520  1.00  0.00     0.031 C 
ATOM     22  C   UNL     1       2.107  24.731  40.878  1.00  0.00    -0.008 C 
ATOM     23  C   UNL     1       3.103  24.964  38.610  1.00  0.00    -0.027 C 
ATOM     24  C   UNL     1       2.415  25.527  39.620  1.00  0.00    -0.065 C 
ATOM     25  C   UNL     1       0.711  24.072  40.654  1.00  0.00     0.014 C 
ATOM     26  C   UNL     1       2.008  25.683  42.107  1.00  0.00     0.016 C 
ATOM     27  C   UNL     1       1.440  26.625  39.264  1.00  0.00     0.063 C 
ATOM     28  C   UNL     1      -0.382  25.077  40.194  1.00  0.00     0.033 C 
ATOM     29  C   UNL     1       0.059  25.980  39.016  1.00  0.00     0.118 C 
BRANCH  29  30
ATOM     30  O   UNL     1       0.083  25.214  37.838  1.00  0.00    -0.393 OA
ATOM     31  H   UNL     1       0.243  24.272  38.111  1.00  0.00     0.210 HD
ENDBRANCH  29  30
ENDBRANCH   9  11
ENDBRANCH   1   9
TORSDOF 7
ENDMDL
MODEL 7
REMARK VINA RESULT:    -6.379      3.590      6.531
REMARK INTER + INTRA:         -10.993
REMARK INTER:                  -9.636
REMARK INTRA:                  -1.357
REMARK UNBOUND:                -2.189
REMARK SMILES CC[C@H](CC[C@H](C)[C@H]1CC[C@H]2[C@@H]3CC=C4C[C@@H](O)CC[C@@]4(C)[C@@H]3CC[C@]12C)C(C)C
REMARK SMILES IDX 5 1 4 2 3 3 2 4 1 5 28 6 29 7 30 8 6 9 7 10 8 11 9 12 26 13
REMARK SMILES IDX 10 14 11 15 25 16 27 17 12 18 24 19 23 20 13 21 21 22 14 23
REMARK SMILES IDX 15 24 20 25 22 26 16 27 19 28 17 29 18 30
REMARK H PARENT 18 31
REMARK Flexibility Score: inf
ROOT
ATOM      1  C   UNL     1       0.845  17.362  47.623  1.00  0.00     0.004 C 
ENDROOT
BRANCH   1   2
ATOM      2  C   UNL     1       2.134  18.185  47.388  1.00  0.00     0.004 C 
BRANCH   2   3
ATOM      3  C   UNL     1       3.434  17.482  47.877  1.00  0.00    -0.009 C 
BRANCH   3   4
ATOM      4  C   UNL     1       3.830  16.359  46.863  1.00  0.00     0.000 C 
ATOM      5  C   UNL     1       4.116  16.900  45.461  1.00  0.00     0.004 C 
ENDBRANCH   3   4
BRANCH   3   6
ATOM      6  C   UNL     1       4.607  18.502  48.095  1.00  0.00    -0.014 C 
ATOM      7  C   UNL     1       4.100  19.908  48.480  1.00  0.00     0.007 C 
ATOM      8  C   UNL     1       5.583  18.028  49.191  1.00  0.00     0.007 C 
ENDBRANCH   3   6
ENDBRANCH   2   3
ENDBRANCH   1   2
BRANCH   1   9
ATOM      9  C   UNL     1      -0.466  18.107  47.214  1.00  0.00    -0.011 C 
ATOM     10  C   UNL     1      -0.828  17.710  45.764  1.00  0.00     0.008 C 
BRANCH   9  11
ATOM     11  C   UNL     1      -0.350  19.673  47.331  1.00  0.00    -0.002 C 
ATOM     12  C   UNL     1      -1.053  20.407  46.156  1.00  0.00     0.005 C 
ATOM     13  C   UNL     1      -0.936  20.383  48.598  1.00  0.00    -0.026 C 
ATOM     14  C   UNL     1      -1.569  21.748  46.690  1.00  0.00     0.005 C 
ATOM     15  C   UNL     1      -1.010  21.834  48.103  1.00  0.00    -0.001 C 
ATOM     16  C   UNL     1      -0.015  20.369  49.855  1.00  0.00     0.007 C 
ATOM     17  C   UNL     1      -2.344  19.797  48.935  1.00  0.00     0.012 C 
ATOM     18  C   UNL     1      -1.718  22.813  49.085  1.00  0.00     0.000 C 
ATOM     19  C   UNL     1      -0.008  21.693  50.669  1.00  0.00     0.005 C 
ATOM     20  C   UNL     1      -1.339  22.509  50.589  1.00  0.00     0.003 C 
ATOM     21  C   UNL     1      -1.439  24.275  48.646  1.00  0.00     0.031 C 
ATOM     22  C   UNL     1      -1.365  23.791  51.519  1.00  0.00    -0.008 C 
ATOM     23  C   UNL     1      -0.514  25.042  49.544  1.00  0.00    -0.027 C 
ATOM     24  C   UNL     1      -0.600  24.940  50.883  1.00  0.00    -0.065 C 
ATOM     25  C   UNL     1      -2.825  24.297  51.734  1.00  0.00     0.014 C 
ATOM     26  C   UNL     1      -0.757  23.442  52.909  1.00  0.00     0.016 C 
ATOM     27  C   UNL     1      -0.530  26.222  51.679  1.00  0.00     0.063 C 
ATOM     28  C   UNL     1      -2.904  25.663  52.470  1.00  0.00     0.033 C 
ATOM     29  C   UNL     1      -1.969  26.745  51.877  1.00  0.00     0.118 C 
BRANCH  29  30
ATOM     30  O   UNL     1      -2.500  27.187  50.654  1.00  0.00    -0.393 OA
ATOM     31  H   UNL     1      -3.252  26.578  50.431  1.00  0.00     0.210 HD
ENDBRANCH  29  30
ENDBRANCH   9  11
ENDBRANCH   1   9
TORSDOF 7
ENDMDL
MODEL 8
REMARK VINA RESULT:    -6.246      0.940      1.586
REMARK INTER + INTRA:         -10.809
REMARK INTER:                  -9.140
REMARK INTRA:                  -1.669
REMARK UNBOUND:                -2.189
REMARK SMILES CC[C@H](CC[C@H](C)[C@H]1CC[C@H]2[C@@H]3CC=C4C[C@@H](O)CC[C@@]4(C)[C@@H]3CC[C@]12C)C(C)C
REMARK SMILES IDX 5 1 4 2 3 3 2 4 1 5 28 6 29 7 30 8 6 9 7 10 8 11 9 12 26 13
REMARK SMILES IDX 10 14 11 15 25 16 27 17 12 18 24 19 23 20 13 21 21 22 14 23
REMARK SMILES IDX 15 24 20 25 22 26 16 27 19 28 17 29 18 30
REMARK H PARENT 18 31
REMARK Flexibility Score: inf
ROOT
ATOM      1  C   UNL     1       7.412  18.367  45.501  1.00  0.00     0.004 C 
ENDROOT
BRANCH   1   2
ATOM      2  C   UNL     1       7.836  18.021  44.054  1.00  0.00     0.004 C 
BRANCH   2   3
ATOM      3  C   UNL     1       7.152  18.901  42.965  1.00  0.00    -0.009 C 
BRANCH   3   4
ATOM      4  C   UNL     1       6.489  20.144  43.643  1.00  0.00     0.000 C 
ATOM      5  C   UNL     1       4.989  20.244  43.360  1.00  0.00     0.004 C 
ENDBRANCH   3   4
BRANCH   3   6
ATOM      6  C   UNL     1       8.157  19.325  41.837  1.00  0.00    -0.014 C 
ATOM      7  C   UNL     1       8.756  20.727  42.079  1.00  0.00     0.007 C 
ATOM      8  C   UNL     1       9.323  18.324  41.701  1.00  0.00     0.007 C 
ENDBRANCH   3   6
ENDBRANCH   2   3
ENDBRANCH   1   2
BRANCH   1   9
ATOM      9  C   UNL     1       6.556  17.258  46.193  1.00  0.00    -0.011 C 
ATOM     10  C   UNL     1       7.112  15.875  45.781  1.00  0.00     0.008 C 
BRANCH   9  11
ATOM     11  C   UNL     1       5.024  17.349  45.839  1.00  0.00    -0.002 C 
ATOM     12  C   UNL     1       4.395  15.954  45.573  1.00  0.00     0.005 C 
ATOM     13  C   UNL     1       4.044  17.991  46.879  1.00  0.00    -0.026 C 
ATOM     14  C   UNL     1       2.926  16.018  46.007  1.00  0.00     0.005 C 
ATOM     15  C   UNL     1       2.695  17.482  46.352  1.00  0.00    -0.001 C 
ATOM     16  C   UNL     1       3.987  19.548  46.868  1.00  0.00     0.007 C 
ATOM     17  C   UNL     1       4.362  17.457  48.312  1.00  0.00     0.012 C 
ATOM     18  C   UNL     1       1.481  17.810  47.269  1.00  0.00     0.000 C 
ATOM     19  C   UNL     1       2.565  20.148  47.050  1.00  0.00     0.005 C 
ATOM     20  C   UNL     1       1.591  19.259  47.891  1.00  0.00     0.003 C 
ATOM     21  C   UNL     1       0.163  17.555  46.491  1.00  0.00     0.031 C 
ATOM     22  C   UNL     1       0.187  19.934  48.173  1.00  0.00    -0.008 C 
ATOM     23  C   UNL     1      -0.598  18.789  46.108  1.00  0.00    -0.027 C 
ATOM     24  C   UNL     1      -0.725  19.821  46.962  1.00  0.00    -0.065 C 
ATOM     25  C   UNL     1      -0.550  19.221  49.349  1.00  0.00     0.014 C 
ATOM     26  C   UNL     1       0.392  21.429  48.557  1.00  0.00     0.016 C 
ATOM     27  C   UNL     1      -2.095  20.446  47.092  1.00  0.00     0.063 C 
ATOM     28  C   UNL     1      -2.014  19.705  49.547  1.00  0.00     0.033 C 
ATOM     29  C   UNL     1      -2.842  19.731  48.239  1.00  0.00     0.118 C 
BRANCH  29  30
ATOM     30  O   UNL     1      -3.154  18.412  47.869  1.00  0.00    -0.393 OA
ATOM     31  H   UNL     1      -3.099  18.371  46.878  1.00  0.00     0.210 HD
ENDBRANCH  29  30
ENDBRANCH   9  11
ENDBRANCH   1   9
TORSDOF 7
ENDMDL
