MODEL 1
REMARK VINA RESULT:    -5.416      0.000      0.000
REMARK INTER + INTRA:         -16.665
REMARK INTER:                 -14.281
REMARK INTRA:                  -2.385
REMARK UNBOUND:                -2.385
REMARK SMILES CCCCCCCCCCCCCCCCCCCCCCCCCCCCCC(=O)[O-]
REMARK SMILES IDX 16 1 17 2 18 3 19 4 20 5 21 6 22 7 23 8 24 9 25 10 26 11
REMARK SMILES IDX 27 12 28 13 29 14 30 15 31 16 32 17 15 18 14 19 13 20 12 21
REMARK SMILES IDX 11 22 10 23 9 24 8 25 7 26 6 27 5 28 4 29 3 30 2 31 1 32
REMARK H PARENT
REMARK Flexibility Score: inf
ROOT
ATOM      1  C   UNL     1      40.621  55.984  18.351  1.00  0.00     0.000 C 
ENDROOT
BRANCH   1   2
ATOM      2  C   UNL     1      39.392  56.916  18.329  1.00  0.00     0.000 C 
BRANCH   2   3
ATOM      3  C   UNL     1      38.342  56.608  17.243  1.00  0.00     0.000 C 
BRANCH   3   4
ATOM      4  C   UNL     1      37.104  57.516  17.318  1.00  0.00     0.000 C 
BRANCH   4   5
ATOM      5  C   UNL     1      35.981  56.985  16.416  1.00  0.00     0.000 C 
BRANCH   5   6
ATOM      6  C   UNL     1      35.726  57.888  15.199  1.00  0.00     0.000 C 
BRANCH   6   7
ATOM      7  C   UNL     1      34.930  57.175  14.091  1.00  0.00     0.000 C 
BRANCH   7   8
ATOM      8  C   UNL     1      34.108  55.992  14.627  1.00  0.00     0.000 C 
BRANCH   8   9
ATOM      9  C   UNL     1      32.642  56.365  14.892  1.00  0.00     0.000 C 
BRANCH   9  10
ATOM     10  C   UNL     1      32.398  56.598  16.391  1.00  0.00     0.000 C 
BRANCH  10  11
ATOM     11  C   UNL     1      30.919  56.458  16.786  1.00  0.00     0.000 C 
BRANCH  11  12
ATOM     12  C   UNL     1      30.717  55.606  18.051  1.00  0.00     0.000 C 
BRANCH  12  13
ATOM     13  C   UNL     1      30.028  54.264  17.747  1.00  0.00     0.006 C 
BRANCH  13  14
ATOM     14  C   UNL     1      30.371  53.738  16.348  1.00  0.00     0.053 C 
BRANCH  14  15
ATOM     15  C   UNL     1      31.440  52.696  16.426  1.00  0.00     0.041 C 
ATOM     16  O   UNL     1      31.132  51.475  16.465  1.00  0.00    -0.550 OA
ATOM     17  O   UNL     1      32.779  53.067  16.413  1.00  0.00    -0.550 OA
ENDBRANCH  14  15
ENDBRANCH  13  14
ENDBRANCH  12  13
ENDBRANCH  11  12
ENDBRANCH  10  11
ENDBRANCH   9  10
ENDBRANCH   8   9
ENDBRANCH   7   8
ENDBRANCH   6   7
ENDBRANCH   5   6
ENDBRANCH   4   5
ENDBRANCH   3   4
ENDBRANCH   2   3
ENDBRANCH   1   2
BRANCH   1  18
ATOM     18  C   UNL     1      41.311  55.779  16.982  1.00  0.00     0.000 C 
BRANCH  18  19
ATOM     19  C   UNL     1      42.726  55.179  17.078  1.00  0.00     0.000 C 
BRANCH  19  20
ATOM     20  C   UNL     1      42.800  53.650  16.903  1.00  0.00     0.000 C 
BRANCH  20  21
ATOM     21  C   UNL     1      43.267  53.168  15.513  1.00  0.00     0.000 C 
BRANCH  21  22
ATOM     22  C   UNL     1      44.624  53.728  15.050  1.00  0.00     0.000 C 
BRANCH  22  23
ATOM     23  C   UNL     1      45.538  52.656  14.441  1.00  0.00     0.000 C 
BRANCH  23  24
ATOM     24  C   UNL     1      46.924  53.232  14.136  1.00  0.00    -0.000 C 
BRANCH  24  25
ATOM     25  C   UNL     1      48.020  52.460  14.887  1.00  0.00    -0.000 C 
BRANCH  25  26
ATOM     26  C   UNL     1      48.743  53.322  15.936  1.00  0.00    -0.000 C 
BRANCH  26  27
ATOM     27  C   UNL     1      48.471  54.835  15.838  1.00  0.00    -0.000 C 
BRANCH  27  28
ATOM     28  C   UNL     1      48.036  55.482  17.171  1.00  0.00    -0.000 C 
BRANCH  28  29
ATOM     29  C   UNL     1      47.367  56.854  16.971  1.00  0.00    -0.000 C 
BRANCH  29  30
ATOM     30  C   UNL     1      46.013  56.739  16.238  1.00  0.00    -0.000 C 
BRANCH  30  31
ATOM     31  C   UNL     1      46.047  57.266  14.794  1.00  0.00    -0.003 C 
ATOM     32  C   UNL     1      46.040  58.791  14.714  1.00  0.00     0.004 C 
ENDBRANCH  30  31
ENDBRANCH  29  30
ENDBRANCH  28  29
ENDBRANCH  27  28
ENDBRANCH  26  27
ENDBRANCH  25  26
ENDBRANCH  24  25
ENDBRANCH  23  24
ENDBRANCH  22  23
ENDBRANCH  21  22
ENDBRANCH  20  21
ENDBRANCH  19  20
ENDBRANCH  18  19
ENDBRANCH   1  18
TORSDOF 28
ENDMDL
MODEL 2
REMARK VINA RESULT:    -5.352      3.818     13.633
REMARK INTER + INTRA:         -16.498
REMARK INTER:                 -13.832
REMARK INTRA:                  -2.666
REMARK UNBOUND:                -2.385
REMARK SMILES CCCCCCCCCCCCCCCCCCCCCCCCCCCCCC(=O)[O-]
REMARK SMILES IDX 16 1 17 2 18 3 19 4 20 5 21 6 22 7 23 8 24 9 25 10 26 11
REMARK SMILES IDX 27 12 28 13 29 14 30 15 31 16 32 17 15 18 14 19 13 20 12 21
REMARK SMILES IDX 11 22 10 23 9 24 8 25 7 26 6 27 5 28 4 29 3 30 2 31 1 32
REMARK H PARENT
REMARK Flexibility Score: inf
ROOT
ATOM      1  C   UNL     1      38.919  57.078  18.039  1.00  0.00     0.000 C 
ENDROOT
BRANCH   1   2
ATOM      2  C   UNL     1      40.104  56.128  18.306  1.00  0.00     0.000 C 
BRANCH   2   3
ATOM      3  C   UNL     1      41.058  55.902  17.116  1.00  0.00     0.000 C 
BRANCH   3   4
ATOM      4  C   UNL     1      42.489  55.540  17.544  1.00  0.00     0.000 C 
BRANCH   4   5
ATOM      5  C   UNL     1      42.800  54.071  17.225  1.00  0.00     0.000 C 
BRANCH   5   6
ATOM      6  C   UNL     1      43.028  53.827  15.726  1.00  0.00     0.000 C 
BRANCH   6   7
ATOM      7  C   UNL     1      44.453  54.195  15.276  1.00  0.00     0.000 C 
BRANCH   7   8
ATOM      8  C   UNL     1      45.227  52.983  14.732  1.00  0.00     0.000 C 
BRANCH   8   9
ATOM      9  C   UNL     1      46.620  53.361  14.208  1.00  0.00     0.000 C 
BRANCH   9  10
ATOM     10  C   UNL     1      47.703  52.472  14.839  1.00  0.00     0.000 C 
BRANCH  10  11
ATOM     11  C   UNL     1      48.683  53.259  15.724  1.00  0.00     0.000 C 
BRANCH  11  12
ATOM     12  C   UNL     1      48.429  54.777  15.693  1.00  0.00     0.000 C 
BRANCH  12  13
ATOM     13  C   UNL     1      48.062  55.336  17.078  1.00  0.00     0.006 C 
BRANCH  13  14
ATOM     14  C   UNL     1      48.229  56.859  17.154  1.00  0.00     0.053 C 
BRANCH  14  15
ATOM     15  C   UNL     1      47.167  57.544  16.354  1.00  0.00     0.041 C 
ATOM     16  O   UNL     1      45.972  57.153  16.423  1.00  0.00    -0.550 OA
ATOM     17  O   UNL     1      47.487  58.640  15.563  1.00  0.00    -0.550 OA
ENDBRANCH  14  15
ENDBRANCH  13  14
ENDBRANCH  12  13
ENDBRANCH  11  12
ENDBRANCH  10  11
ENDBRANCH   9  10
ENDBRANCH   8   9
ENDBRANCH   7   8
ENDBRANCH   6   7
ENDBRANCH   5   6
ENDBRANCH   4   5
ENDBRANCH   3   4
ENDBRANCH   2   3
ENDBRANCH   1   2
BRANCH   1  18
ATOM     18  C   UNL     1      38.019  56.682  16.845  1.00  0.00     0.000 C 
BRANCH  18  19
ATOM     19  C   UNL     1      36.553  57.134  16.990  1.00  0.00     0.000 C 
BRANCH  19  20
ATOM     20  C   UNL     1      35.999  57.941  15.802  1.00  0.00     0.000 C 
BRANCH  20  21
ATOM     21  C   UNL     1      35.186  57.127  14.773  1.00  0.00     0.000 C 
BRANCH  21  22
ATOM     22  C   UNL     1      34.050  56.274  15.366  1.00  0.00     0.000 C 
BRANCH  22  23
ATOM     23  C   UNL     1      32.815  56.208  14.459  1.00  0.00     0.000 C 
BRANCH  23  24
ATOM     24  C   UNL     1      31.554  56.623  15.224  1.00  0.00    -0.000 C 
BRANCH  24  25
ATOM     25  C   UNL     1      31.872  56.898  16.702  1.00  0.00    -0.000 C 
BRANCH  25  26
ATOM     26  C   UNL     1      30.768  56.403  17.651  1.00  0.00    -0.000 C 
BRANCH  26  27
ATOM     27  C   UNL     1      30.907  54.938  18.106  1.00  0.00    -0.000 C 
BRANCH  27  28
ATOM     28  C   UNL     1      29.706  54.045  17.723  1.00  0.00    -0.000 C 
BRANCH  28  29
ATOM     29  C   UNL     1      30.123  52.822  16.886  1.00  0.00    -0.000 C 
BRANCH  29  30
ATOM     30  C   UNL     1      30.576  53.218  15.464  1.00  0.00    -0.000 C 
BRANCH  30  31
ATOM     31  C   UNL     1      31.932  52.615  15.059  1.00  0.00    -0.003 C 
ATOM     32  C   UNL     1      32.996  52.753  16.146  1.00  0.00     0.004 C 
ENDBRANCH  30  31
ENDBRANCH  29  30
ENDBRANCH  28  29
ENDBRANCH  27  28
ENDBRANCH  26  27
ENDBRANCH  25  26
ENDBRANCH  24  25
ENDBRANCH  23  24
ENDBRANCH  22  23
ENDBRANCH  21  22
ENDBRANCH  20  21
ENDBRANCH  19  20
ENDBRANCH  18  19
ENDBRANCH   1  18
TORSDOF 28
ENDMDL
MODEL 3
REMARK VINA RESULT:    -5.247      4.300     13.420
REMARK INTER + INTRA:         -16.222
REMARK INTER:                 -13.283
REMARK INTRA:                  -2.939
REMARK UNBOUND:                -2.385
REMARK SMILES CCCCCCCCCCCCCCCCCCCCCCCCCCCCCC(=O)[O-]
REMARK SMILES IDX 16 1 17 2 18 3 19 4 20 5 21 6 22 7 23 8 24 9 25 10 26 11
REMARK SMILES IDX 27 12 28 13 29 14 30 15 31 16 32 17 15 18 14 19 13 20 12 21
REMARK SMILES IDX 11 22 10 23 9 24 8 25 7 26 6 27 5 28 4 29 3 30 2 31 1 32
REMARK H PARENT
REMARK Flexibility Score: inf
ROOT
ATOM      1  C   UNL     1      39.919  56.184  18.341  1.00  0.00     0.000 C 
ENDROOT
BRANCH   1   2
ATOM      2  C   UNL     1      40.943  55.998  17.202  1.00  0.00     0.000 C 
BRANCH   2   3
ATOM      3  C   UNL     1      42.368  55.613  17.645  1.00  0.00     0.000 C 
BRANCH   3   4
ATOM      4  C   UNL     1      42.875  54.312  17.002  1.00  0.00     0.000 C 
BRANCH   4   5
ATOM      5  C   UNL     1      42.487  54.248  15.518  1.00  0.00     0.000 C 
BRANCH   5   6
ATOM      6  C   UNL     1      43.709  54.141  14.593  1.00  0.00     0.000 C 
BRANCH   6   7
ATOM      7  C   UNL     1      44.566  52.898  14.887  1.00  0.00     0.000 C 
BRANCH   7   8
ATOM      8  C   UNL     1      45.730  52.739  13.893  1.00  0.00     0.000 C 
BRANCH   8   9
ATOM      9  C   UNL     1      46.868  51.874  14.452  1.00  0.00     0.000 C 
BRANCH   9  10
ATOM     10  C   UNL     1      48.041  52.747  14.922  1.00  0.00     0.000 C 
BRANCH  10  11
ATOM     11  C   UNL     1      48.212  54.023  14.082  1.00  0.00     0.000 C 
BRANCH  11  12
ATOM     12  C   UNL     1      48.289  55.298  14.940  1.00  0.00     0.000 C 
BRANCH  12  13
ATOM     13  C   UNL     1      46.900  55.888  15.236  1.00  0.00     0.006 C 
BRANCH  13  14
ATOM     14  C   UNL     1      46.535  55.798  16.723  1.00  0.00     0.053 C 
BRANCH  14  15
ATOM     15  C   UNL     1      47.756  55.944  17.574  1.00  0.00     0.041 C 
ATOM     16  O   UNL     1      48.293  57.073  17.721  1.00  0.00    -0.550 OA
ATOM     17  O   UNL     1      48.278  54.842  18.239  1.00  0.00    -0.550 OA
ENDBRANCH  14  15
ENDBRANCH  13  14
ENDBRANCH  12  13
ENDBRANCH  11  12
ENDBRANCH  10  11
ENDBRANCH   9  10
ENDBRANCH   8   9
ENDBRANCH   7   8
ENDBRANCH   6   7
ENDBRANCH   5   6
ENDBRANCH   4   5
ENDBRANCH   3   4
ENDBRANCH   2   3
ENDBRANCH   1   2
BRANCH   1  18
ATOM     18  C   UNL     1      38.756  57.152  18.023  1.00  0.00     0.000 C 
BRANCH  18  19
ATOM     19  C   UNL     1      37.891  56.718  16.824  1.00  0.00     0.000 C 
BRANCH  19  20
ATOM     20  C   UNL     1      36.419  57.167  16.884  1.00  0.00     0.000 C 
BRANCH  20  21
ATOM     21  C   UNL     1      35.986  58.157  15.783  1.00  0.00     0.000 C 
BRANCH  21  22
ATOM     22  C   UNL     1      35.330  57.513  14.548  1.00  0.00     0.000 C 
BRANCH  22  23
ATOM     23  C   UNL     1      34.571  56.221  14.878  1.00  0.00     0.000 C 
BRANCH  23  24
ATOM     24  C   UNL     1      33.060  56.473  14.921  1.00  0.00    -0.000 C 
BRANCH  24  25
ATOM     25  C   UNL     1      32.503  56.238  16.334  1.00  0.00    -0.000 C 
BRANCH  25  26
ATOM     26  C   UNL     1      30.993  55.944  16.337  1.00  0.00    -0.000 C 
BRANCH  26  27
ATOM     27  C   UNL     1      30.511  54.994  15.224  1.00  0.00    -0.000 C 
BRANCH  27  28
ATOM     28  C   UNL     1      29.710  53.779  15.741  1.00  0.00    -0.000 C 
BRANCH  28  29
ATOM     29  C   UNL     1      30.482  52.972  16.802  1.00  0.00    -0.000 C 
BRANCH  29  30
ATOM     30  C   UNL     1      31.367  51.877  16.169  1.00  0.00    -0.000 C 
BRANCH  30  31
ATOM     31  C   UNL     1      32.868  52.213  16.187  1.00  0.00    -0.003 C 
ATOM     32  C   UNL     1      33.390  52.693  14.835  1.00  0.00     0.004 C 
ENDBRANCH  30  31
ENDBRANCH  29  30
ENDBRANCH  28  29
ENDBRANCH  27  28
ENDBRANCH  26  27
ENDBRANCH  25  26
ENDBRANCH  24  25
ENDBRANCH  23  24
ENDBRANCH  22  23
ENDBRANCH  21  22
ENDBRANCH  20  21
ENDBRANCH  19  20
ENDBRANCH  18  19
ENDBRANCH   1  18
TORSDOF 28
ENDMDL
MODEL 4
REMARK VINA RESULT:    -5.093      4.109     13.338
REMARK INTER + INTRA:         -15.815
REMARK INTER:                 -13.120
REMARK INTRA:                  -2.695
REMARK UNBOUND:                -2.385
REMARK SMILES CCCCCCCCCCCCCCCCCCCCCCCCCCCCCC(=O)[O-]
REMARK SMILES IDX 16 1 17 2 18 3 19 4 20 5 21 6 22 7 23 8 24 9 25 10 26 11
REMARK SMILES IDX 27 12 28 13 29 14 30 15 31 16 32 17 15 18 14 19 13 20 12 21
REMARK SMILES IDX 11 22 10 23 9 24 8 25 7 26 6 27 5 28 4 29 3 30 2 31 1 32
REMARK H PARENT
REMARK Flexibility Score: inf
ROOT
ATOM      1  C   UNL     1      38.783  56.644  17.627  1.00  0.00     0.000 C 
ENDROOT
BRANCH   1   2
ATOM      2  C   UNL     1      40.203  56.346  18.150  1.00  0.00     0.000 C 
BRANCH   2   3
ATOM      3  C   UNL     1      41.187  55.770  17.112  1.00  0.00     0.000 C 
BRANCH   3   4
ATOM      4  C   UNL     1      42.611  55.588  17.660  1.00  0.00     0.000 C 
BRANCH   4   5
ATOM      5  C   UNL     1      43.349  54.473  16.905  1.00  0.00     0.000 C 
BRANCH   5   6
ATOM      6  C   UNL     1      42.508  53.873  15.768  1.00  0.00     0.000 C 
BRANCH   6   7
ATOM      7  C   UNL     1      43.372  53.320  14.621  1.00  0.00     0.000 C 
BRANCH   7   8
ATOM      8  C   UNL     1      44.874  53.554  14.853  1.00  0.00     0.000 C 
BRANCH   8   9
ATOM      9  C   UNL     1      45.724  52.328  14.489  1.00  0.00     0.000 C 
BRANCH   9  10
ATOM     10  C   UNL     1      47.127  52.751  14.029  1.00  0.00     0.000 C 
BRANCH  10  11
ATOM     11  C   UNL     1      48.199  52.548  15.112  1.00  0.00     0.000 C 
BRANCH  11  12
ATOM     12  C   UNL     1      48.902  53.859  15.508  1.00  0.00     0.000 C 
BRANCH  12  13
ATOM     13  C   UNL     1      47.917  54.913  16.041  1.00  0.00     0.006 C 
BRANCH  13  14
ATOM     14  C   UNL     1      48.443  56.343  15.865  1.00  0.00     0.053 C 
BRANCH  14  15
ATOM     15  C   UNL     1      47.851  57.250  16.896  1.00  0.00     0.041 C 
ATOM     16  O   UNL     1      48.480  57.491  17.961  1.00  0.00    -0.550 OA
ATOM     17  O   UNL     1      46.627  57.864  16.666  1.00  0.00    -0.550 OA
ENDBRANCH  14  15
ENDBRANCH  13  14
ENDBRANCH  12  13
ENDBRANCH  11  12
ENDBRANCH  10  11
ENDBRANCH   9  10
ENDBRANCH   8   9
ENDBRANCH   7   8
ENDBRANCH   6   7
ENDBRANCH   5   6
ENDBRANCH   4   5
ENDBRANCH   3   4
ENDBRANCH   2   3
ENDBRANCH   1   2
BRANCH   1  18
ATOM     18  C   UNL     1      38.558  56.333  16.129  1.00  0.00     0.000 C 
BRANCH  18  19
ATOM     19  C   UNL     1      37.201  56.819  15.585  1.00  0.00     0.000 C 
BRANCH  19  20
ATOM     20  C   UNL     1      36.101  57.002  16.646  1.00  0.00     0.000 C 
BRANCH  20  21
ATOM     21  C   UNL     1      34.664  57.106  16.094  1.00  0.00     0.000 C 
BRANCH  21  22
ATOM     22  C   UNL     1      34.558  57.182  14.560  1.00  0.00     0.000 C 
BRANCH  22  23
ATOM     23  C   UNL     1      33.445  56.292  13.992  1.00  0.00     0.000 C 
BRANCH  23  24
ATOM     24  C   UNL     1      33.795  54.809  14.160  1.00  0.00    -0.000 C 
BRANCH  24  25
ATOM     25  C   UNL     1      32.532  53.970  14.406  1.00  0.00    -0.000 C 
BRANCH  25  26
ATOM     26  C   UNL     1      32.631  53.103  15.672  1.00  0.00    -0.000 C 
BRANCH  26  27
ATOM     27  C   UNL     1      31.825  53.618  16.880  1.00  0.00    -0.000 C 
BRANCH  27  28
ATOM     28  C   UNL     1      30.711  54.621  16.509  1.00  0.00    -0.000 C 
BRANCH  28  29
ATOM     29  C   UNL     1      30.797  55.926  17.321  1.00  0.00    -0.000 C 
BRANCH  29  30
ATOM     30  C   UNL     1      30.918  57.169  16.412  1.00  0.00    -0.000 C 
BRANCH  30  31
ATOM     31  C   UNL     1      30.358  56.952  14.996  1.00  0.00    -0.003 C 
ATOM     32  C   UNL     1      29.961  58.253  14.303  1.00  0.00     0.004 C 
ENDBRANCH  30  31
ENDBRANCH  29  30
ENDBRANCH  28  29
ENDBRANCH  27  28
ENDBRANCH  26  27
ENDBRANCH  25  26
ENDBRANCH  24  25
ENDBRANCH  23  24
ENDBRANCH  22  23
ENDBRANCH  21  22
ENDBRANCH  20  21
ENDBRANCH  19  20
ENDBRANCH  18  19
ENDBRANCH   1  18
TORSDOF 28
ENDMDL
MODEL 5
REMARK VINA RESULT:    -5.058      3.814     13.340
REMARK INTER + INTRA:         -15.723
REMARK INTER:                 -12.845
REMARK INTRA:                  -2.878
REMARK UNBOUND:                -2.385
REMARK SMILES CCCCCCCCCCCCCCCCCCCCCCCCCCCCCC(=O)[O-]
REMARK SMILES IDX 16 1 17 2 18 3 19 4 20 5 21 6 22 7 23 8 24 9 25 10 26 11
REMARK SMILES IDX 27 12 28 13 29 14 30 15 31 16 32 17 15 18 14 19 13 20 12 21
REMARK SMILES IDX 11 22 10 23 9 24 8 25 7 26 6 27 5 28 4 29 3 30 2 31 1 32
REMARK H PARENT
REMARK Flexibility Score: inf
ROOT
ATOM      1  C   UNL     1      36.432  57.194  16.953  1.00  0.00     0.000 C 
ENDROOT
BRANCH   1   2
ATOM      2  C   UNL     1      37.883  56.676  16.888  1.00  0.00     0.000 C 
BRANCH   2   3
ATOM      3  C   UNL     1      38.762  57.002  18.112  1.00  0.00     0.000 C 
BRANCH   3   4
ATOM      4  C   UNL     1      40.051  56.169  18.175  1.00  0.00     0.000 C 
BRANCH   4   5
ATOM      5  C   UNL     1      40.607  55.914  16.767  1.00  0.00     0.000 C 
BRANCH   5   6
ATOM      6  C   UNL     1      41.960  55.185  16.789  1.00  0.00     0.000 C 
BRANCH   6   7
ATOM      7  C   UNL     1      42.333  54.589  15.421  1.00  0.00     0.000 C 
BRANCH   7   8
ATOM      8  C   UNL     1      43.433  53.518  15.528  1.00  0.00     0.000 C 
BRANCH   8   9
ATOM      9  C   UNL     1      44.471  53.626  14.402  1.00  0.00     0.000 C 
BRANCH   9  10
ATOM     10  C   UNL     1      45.533  52.523  14.528  1.00  0.00     0.000 C 
BRANCH  10  11
ATOM     11  C   UNL     1      46.895  52.934  13.947  1.00  0.00     0.000 C 
BRANCH  11  12
ATOM     12  C   UNL     1      47.967  53.148  15.031  1.00  0.00     0.000 C 
BRANCH  12  13
ATOM     13  C   UNL     1      48.609  54.543  14.949  1.00  0.00     0.006 C 
BRANCH  13  14
ATOM     14  C   UNL     1      47.599  55.666  15.219  1.00  0.00     0.053 C 
BRANCH  14  15
ATOM     15  C   UNL     1      47.184  55.664  16.656  1.00  0.00     0.041 C 
ATOM     16  O   UNL     1      45.962  55.702  16.960  1.00  0.00    -0.550 OA
ATOM     17  O   UNL     1      48.141  55.579  17.659  1.00  0.00    -0.550 OA
ENDBRANCH  14  15
ENDBRANCH  13  14
ENDBRANCH  12  13
ENDBRANCH  11  12
ENDBRANCH  10  11
ENDBRANCH   9  10
ENDBRANCH   8   9
ENDBRANCH   7   8
ENDBRANCH   6   7
ENDBRANCH   5   6
ENDBRANCH   4   5
ENDBRANCH   3   4
ENDBRANCH   2   3
ENDBRANCH   1   2
BRANCH   1  18
ATOM     18  C   UNL     1      36.030  58.160  15.814  1.00  0.00     0.000 C 
BRANCH  18  19
ATOM     19  C   UNL     1      35.538  57.452  14.537  1.00  0.00     0.000 C 
BRANCH  19  20
ATOM     20  C   UNL     1      34.519  56.321  14.770  1.00  0.00     0.000 C 
BRANCH  20  21
ATOM     21  C   UNL     1      33.192  56.458  13.995  1.00  0.00     0.000 C 
BRANCH  21  22
ATOM     22  C   UNL     1      31.940  56.637  14.872  1.00  0.00     0.000 C 
BRANCH  22  23
ATOM     23  C   UNL     1      32.256  56.646  16.373  1.00  0.00     0.000 C 
BRANCH  23  24
ATOM     24  C   UNL     1      30.988  56.400  17.198  1.00  0.00    -0.000 C 
BRANCH  24  25
ATOM     25  C   UNL     1      31.067  55.058  17.942  1.00  0.00    -0.000 C 
BRANCH  25  26
ATOM     26  C   UNL     1      29.963  54.075  17.517  1.00  0.00    -0.000 C 
BRANCH  26  27
ATOM     27  C   UNL     1      30.454  52.843  16.732  1.00  0.00    -0.000 C 
BRANCH  27  28
ATOM     28  C   UNL     1      31.007  53.173  15.329  1.00  0.00    -0.000 C 
BRANCH  28  29
ATOM     29  C   UNL     1      32.534  52.995  15.239  1.00  0.00    -0.000 C 
BRANCH  29  30
ATOM     30  C   UNL     1      33.110  52.287  16.485  1.00  0.00    -0.000 C 
BRANCH  30  31
ATOM     31  C   UNL     1      33.627  50.867  16.202  1.00  0.00    -0.003 C 
ATOM     32  C   UNL     1      32.521  49.814  16.209  1.00  0.00     0.004 C 
ENDBRANCH  30  31
ENDBRANCH  29  30
ENDBRANCH  28  29
ENDBRANCH  27  28
ENDBRANCH  26  27
ENDBRANCH  25  26
ENDBRANCH  24  25
ENDBRANCH  23  24
ENDBRANCH  22  23
ENDBRANCH  21  22
ENDBRANCH  20  21
ENDBRANCH  19  20
ENDBRANCH  18  19
ENDBRANCH   1  18
TORSDOF 28
ENDMDL
MODEL 6
REMARK VINA RESULT:    -5.002      1.411      2.624
REMARK INTER + INTRA:         -15.573
REMARK INTER:                 -12.572
REMARK INTRA:                  -3.001
REMARK UNBOUND:                -2.385
REMARK SMILES CCCCCCCCCCCCCCCCCCCCCCCCCCCCCC(=O)[O-]
REMARK SMILES IDX 16 1 17 2 18 3 19 4 20 5 21 6 22 7 23 8 24 9 25 10 26 11
REMARK SMILES IDX 27 12 28 13 29 14 30 15 31 16 32 17 15 18 14 19 13 20 12 21
REMARK SMILES IDX 11 22 10 23 9 24 8 25 7 26 6 27 5 28 4 29 3 30 2 31 1 32
REMARK H PARENT
REMARK Flexibility Score: inf
ROOT
ATOM      1  C   UNL     1      38.641  57.116  17.973  1.00  0.00     0.000 C 
ENDROOT
BRANCH   1   2
ATOM      2  C   UNL     1      37.246  56.871  17.361  1.00  0.00     0.000 C 
BRANCH   2   3
ATOM      3  C   UNL     1      37.161  56.994  15.827  1.00  0.00     0.000 C 
BRANCH   3   4
ATOM      4  C   UNL     1      36.024  57.911  15.353  1.00  0.00     0.000 C 
BRANCH   4   5
ATOM      5  C   UNL     1      35.245  57.265  14.198  1.00  0.00     0.000 C 
BRANCH   5   6
ATOM      6  C   UNL     1      34.043  56.441  14.685  1.00  0.00     0.000 C 
BRANCH   6   7
ATOM      7  C   UNL     1      33.684  56.729  16.154  1.00  0.00     0.000 C 
BRANCH   7   8
ATOM      8  C   UNL     1      32.274  56.236  16.521  1.00  0.00     0.000 C 
BRANCH   8   9
ATOM      9  C   UNL     1      31.228  56.599  15.458  1.00  0.00     0.000 C 
BRANCH   9  10
ATOM     10  C   UNL     1      30.351  55.386  15.115  1.00  0.00     0.000 C 
BRANCH  10  11
ATOM     11  C   UNL     1      30.966  54.491  14.026  1.00  0.00     0.000 C 
BRANCH  11  12
ATOM     12  C   UNL     1      31.374  53.104  14.554  1.00  0.00     0.000 C 
BRANCH  12  13
ATOM     13  C   UNL     1      32.883  53.004  14.831  1.00  0.00     0.006 C 
BRANCH  13  14
ATOM     14  C   UNL     1      33.183  52.577  16.273  1.00  0.00     0.053 C 
BRANCH  14  15
ATOM     15  C   UNL     1      33.578  51.136  16.323  1.00  0.00     0.041 C 
ATOM     16  O   UNL     1      32.851  50.302  16.925  1.00  0.00    -0.550 OA
ATOM     17  O   UNL     1      34.725  50.703  15.669  1.00  0.00    -0.550 OA
ENDBRANCH  14  15
ENDBRANCH  13  14
ENDBRANCH  12  13
ENDBRANCH  11  12
ENDBRANCH  10  11
ENDBRANCH   9  10
ENDBRANCH   8   9
ENDBRANCH   7   8
ENDBRANCH   6   7
ENDBRANCH   5   6
ENDBRANCH   4   5
ENDBRANCH   3   4
ENDBRANCH   2   3
ENDBRANCH   1   2
BRANCH   1  18
ATOM     18  C   UNL     1      39.792  56.314  17.321  1.00  0.00     0.000 C 
BRANCH  18  19
ATOM     19  C   UNL     1      40.922  55.935  18.298  1.00  0.00     0.000 C 
BRANCH  19  20
ATOM     20  C   UNL     1      42.272  55.601  17.636  1.00  0.00     0.000 C 
BRANCH  20  21
ATOM     21  C   UNL     1      42.178  54.903  16.263  1.00  0.00     0.000 C 
BRANCH  21  22
ATOM     22  C   UNL     1      43.071  53.660  16.101  1.00  0.00     0.000 C 
BRANCH  22  23
ATOM     23  C   UNL     1      43.354  53.313  14.633  1.00  0.00     0.000 C 
BRANCH  23  24
ATOM     24  C   UNL     1      44.813  53.617  14.273  1.00  0.00    -0.000 C 
BRANCH  24  25
ATOM     25  C   UNL     1      45.711  52.399  14.539  1.00  0.00    -0.000 C 
BRANCH  25  26
ATOM     26  C   UNL     1      47.163  52.618  14.082  1.00  0.00    -0.000 C 
BRANCH  26  27
ATOM     27  C   UNL     1      48.234  52.328  15.150  1.00  0.00    -0.000 C 
BRANCH  27  28
ATOM     28  C   UNL     1      48.899  53.595  15.732  1.00  0.00    -0.000 C 
BRANCH  28  29
ATOM     29  C   UNL     1      48.778  54.809  14.793  1.00  0.00    -0.000 C 
BRANCH  29  30
ATOM     30  C   UNL     1      48.078  56.004  15.475  1.00  0.00    -0.000 C 
BRANCH  30  31
ATOM     31  C   UNL     1      47.038  55.587  16.529  1.00  0.00    -0.003 C 
ATOM     32  C   UNL     1      45.721  56.350  16.405  1.00  0.00     0.004 C 
ENDBRANCH  30  31
ENDBRANCH  29  30
ENDBRANCH  28  29
ENDBRANCH  27  28
ENDBRANCH  26  27
ENDBRANCH  25  26
ENDBRANCH  24  25
ENDBRANCH  23  24
ENDBRANCH  22  23
ENDBRANCH  21  22
ENDBRANCH  20  21
ENDBRANCH  19  20
ENDBRANCH  18  19
ENDBRANCH   1  18
TORSDOF 28
ENDMDL
MODEL 7
REMARK VINA RESULT:    -4.937      1.295      3.364
REMARK INTER + INTRA:         -15.403
REMARK INTER:                 -12.459
REMARK INTRA:                  -2.943
REMARK UNBOUND:                -2.385
REMARK SMILES CCCCCCCCCCCCCCCCCCCCCCCCCCCCCC(=O)[O-]
REMARK SMILES IDX 16 1 17 2 18 3 19 4 20 5 21 6 22 7 23 8 24 9 25 10 26 11
REMARK SMILES IDX 27 12 28 13 29 14 30 15 31 16 32 17 15 18 14 19 13 20 12 21
REMARK SMILES IDX 11 22 10 23 9 24 8 25 7 26 6 27 5 28 4 29 3 30 2 31 1 32
REMARK H PARENT
REMARK Flexibility Score: inf
ROOT
ATOM      1  C   UNL     1      41.815  54.911  15.884  1.00  0.00     0.000 C 
ENDROOT
BRANCH   1   2
ATOM      2  C   UNL     1      40.513  55.668  16.217  1.00  0.00     0.000 C 
BRANCH   2   3
ATOM      3  C   UNL     1      40.401  56.196  17.661  1.00  0.00     0.000 C 
BRANCH   3   4
ATOM      4  C   UNL     1      39.029  56.810  17.979  1.00  0.00     0.000 C 
BRANCH   4   5
ATOM      5  C   UNL     1      38.099  56.734  16.760  1.00  0.00     0.000 C 
BRANCH   5   6
ATOM      6  C   UNL     1      36.657  57.149  17.091  1.00  0.00     0.000 C 
BRANCH   6   7
ATOM      7  C   UNL     1      36.107  58.204  16.116  1.00  0.00     0.000 C 
BRANCH   7   8
ATOM      8  C   UNL     1      36.253  57.778  14.645  1.00  0.00     0.000 C 
BRANCH   8   9
ATOM      9  C   UNL     1      34.918  57.347  14.021  1.00  0.00     0.000 C 
BRANCH   9  10
ATOM     10  C   UNL     1      34.449  56.005  14.603  1.00  0.00     0.000 C 
BRANCH  10  11
ATOM     11  C   UNL     1      33.191  56.138  15.476  1.00  0.00     0.000 C 
BRANCH  11  12
ATOM     12  C   UNL     1      33.035  54.982  16.480  1.00  0.00     0.000 C 
BRANCH  12  13
ATOM     13  C   UNL     1      32.708  53.648  15.788  1.00  0.00     0.006 C 
BRANCH  13  14
ATOM     14  C   UNL     1      31.699  52.812  16.585  1.00  0.00     0.053 C 
BRANCH  14  15
ATOM     15  C   UNL     1      32.033  51.357  16.493  1.00  0.00     0.041 C 
ATOM     16  O   UNL     1      31.156  50.529  16.132  1.00  0.00    -0.550 OA
ATOM     17  O   UNL     1      33.323  50.919  16.763  1.00  0.00    -0.550 OA
ENDBRANCH  14  15
ENDBRANCH  13  14
ENDBRANCH  12  13
ENDBRANCH  11  12
ENDBRANCH  10  11
ENDBRANCH   9  10
ENDBRANCH   8   9
ENDBRANCH   7   8
ENDBRANCH   6   7
ENDBRANCH   5   6
ENDBRANCH   4   5
ENDBRANCH   3   4
ENDBRANCH   2   3
ENDBRANCH   1   2
BRANCH   1  18
ATOM     18  C   UNL     1      42.723  54.606  17.098  1.00  0.00     0.000 C 
BRANCH  18  19
ATOM     19  C   UNL     1      44.230  54.648  16.779  1.00  0.00     0.000 C 
BRANCH  19  20
ATOM     20  C   UNL     1      44.721  55.950  16.119  1.00  0.00     0.000 C 
BRANCH  20  21
ATOM     21  C   UNL     1      45.131  55.824  14.637  1.00  0.00     0.000 C 
BRANCH  21  22
ATOM     22  C   UNL     1      46.176  56.848  14.159  1.00  0.00     0.000 C 
BRANCH  22  23
ATOM     23  C   UNL     1      46.168  58.142  14.985  1.00  0.00     0.000 C 
BRANCH  23  24
ATOM     24  C   UNL     1      47.510  58.341  15.698  1.00  0.00    -0.000 C 
BRANCH  24  25
ATOM     25  C   UNL     1      47.405  57.966  17.184  1.00  0.00    -0.000 C 
BRANCH  25  26
ATOM     26  C   UNL     1      48.492  56.971  17.625  1.00  0.00    -0.000 C 
BRANCH  26  27
ATOM     27  C   UNL     1      48.120  55.484  17.466  1.00  0.00    -0.000 C 
BRANCH  27  28
ATOM     28  C   UNL     1      48.425  54.909  16.065  1.00  0.00    -0.000 C 
BRANCH  28  29
ATOM     29  C   UNL     1      48.841  53.427  16.114  1.00  0.00    -0.000 C 
BRANCH  29  30
ATOM     30  C   UNL     1      48.805  52.768  14.718  1.00  0.00    -0.000 C 
BRANCH  30  31
ATOM     31  C   UNL     1      47.479  52.986  13.969  1.00  0.00    -0.003 C 
ATOM     32  C   UNL     1      46.301  52.264  14.616  1.00  0.00     0.004 C 
ENDBRANCH  30  31
ENDBRANCH  29  30
ENDBRANCH  28  29
ENDBRANCH  27  28
ENDBRANCH  26  27
ENDBRANCH  25  26
ENDBRANCH  24  25
ENDBRANCH  23  24
ENDBRANCH  22  23
ENDBRANCH  21  22
ENDBRANCH  20  21
ENDBRANCH  19  20
ENDBRANCH  18  19
ENDBRANCH   1  18
TORSDOF 28
ENDMDL
MODEL 8
REMARK VINA RESULT:    -4.924      3.722     13.079
REMARK INTER + INTRA:         -15.370
REMARK INTER:                 -12.879
REMARK INTRA:                  -2.491
REMARK UNBOUND:                -2.385
REMARK SMILES CCCCCCCCCCCCCCCCCCCCCCCCCCCCCC(=O)[O-]
REMARK SMILES IDX 16 1 17 2 18 3 19 4 20 5 21 6 22 7 23 8 24 9 25 10 26 11
REMARK SMILES IDX 27 12 28 13 29 14 30 15 31 16 32 17 15 18 14 19 13 20 12 21
REMARK SMILES IDX 11 22 10 23 9 24 8 25 7 26 6 27 5 28 4 29 3 30 2 31 1 32
REMARK H PARENT
REMARK Flexibility Score: inf
ROOT
ATOM      1  C   UNL     1      41.007  55.846  18.537  1.00  0.00     0.000 C 
ENDROOT
BRANCH   1   2
ATOM      2  C   UNL     1      42.192  56.304  17.661  1.00  0.00     0.000 C 
BRANCH   2   3
ATOM      3  C   UNL     1      42.508  55.408  16.447  1.00  0.00     0.000 C 
BRANCH   3   4
ATOM      4  C   UNL     1      43.004  54.007  16.838  1.00  0.00     0.000 C 
BRANCH   4   5
ATOM      5  C   UNL     1      42.758  53.003  15.703  1.00  0.00     0.000 C 
BRANCH   5   6
ATOM      6  C   UNL     1      43.667  53.249  14.490  1.00  0.00     0.000 C 
BRANCH   6   7
ATOM      7  C   UNL     1      45.160  53.262  14.862  1.00  0.00     0.000 C 
BRANCH   7   8
ATOM      8  C   UNL     1      46.009  52.395  13.916  1.00  0.00     0.000 C 
BRANCH   8   9
ATOM      9  C   UNL     1      47.242  51.801  14.609  1.00  0.00     0.000 C 
BRANCH   9  10
ATOM     10  C   UNL     1      48.461  52.721  14.443  1.00  0.00     0.000 C 
BRANCH  10  11
ATOM     11  C   UNL     1      48.815  53.484  15.730  1.00  0.00     0.000 C 
BRANCH  11  12
ATOM     12  C   UNL     1      48.561  54.998  15.616  1.00  0.00     0.000 C 
BRANCH  12  13
ATOM     13  C   UNL     1      47.940  55.583  16.896  1.00  0.00     0.006 C 
BRANCH  13  14
ATOM     14  C   UNL     1      46.416  55.727  16.790  1.00  0.00     0.053 C 
BRANCH  14  15
ATOM     15  C   UNL     1      46.058  56.908  15.945  1.00  0.00     0.041 C 
ATOM     16  O   UNL     1      46.227  58.076  16.386  1.00  0.00    -0.550 OA
ATOM     17  O   UNL     1      45.577  56.723  14.655  1.00  0.00    -0.550 OA
ENDBRANCH  14  15
ENDBRANCH  13  14
ENDBRANCH  12  13
ENDBRANCH  11  12
ENDBRANCH  10  11
ENDBRANCH   9  10
ENDBRANCH   8   9
ENDBRANCH   7   8
ENDBRANCH   6   7
ENDBRANCH   5   6
ENDBRANCH   4   5
ENDBRANCH   3   4
ENDBRANCH   2   3
ENDBRANCH   1   2
BRANCH   1  18
ATOM     18  C   UNL     1      39.615  55.982  17.877  1.00  0.00     0.000 C 
BRANCH  18  19
ATOM     19  C   UNL     1      38.983  57.379  18.032  1.00  0.00     0.000 C 
BRANCH  19  20
ATOM     20  C   UNL     1      37.467  57.442  17.767  1.00  0.00     0.000 C 
BRANCH  20  21
ATOM     21  C   UNL     1      37.028  57.030  16.347  1.00  0.00     0.000 C 
BRANCH  21  22
ATOM     22  C   UNL     1      36.281  58.117  15.554  1.00  0.00     0.000 C 
BRANCH  22  23
ATOM     23  C   UNL     1      35.885  57.664  14.142  1.00  0.00     0.000 C 
BRANCH  23  24
ATOM     24  C   UNL     1      34.375  57.418  14.053  1.00  0.00    -0.000 C 
BRANCH  24  25
ATOM     25  C   UNL     1      33.995  56.081  14.706  1.00  0.00    -0.000 C 
BRANCH  25  26
ATOM     26  C   UNL     1      33.301  56.258  16.068  1.00  0.00    -0.000 C 
BRANCH  26  27
ATOM     27  C   UNL     1      31.770  56.418  16.004  1.00  0.00    -0.000 C 
BRANCH  27  28
ATOM     28  C   UNL     1      31.069  56.293  17.374  1.00  0.00    -0.000 C 
BRANCH  28  29
ATOM     29  C   UNL     1      30.304  54.965  17.526  1.00  0.00    -0.000 C 
BRANCH  29  30
ATOM     30  C   UNL     1      30.443  54.068  16.276  1.00  0.00    -0.000 C 
BRANCH  30  31
ATOM     31  C   UNL     1      31.123  52.718  16.561  1.00  0.00    -0.003 C 
ATOM     32  C   UNL     1      32.613  52.716  16.227  1.00  0.00     0.004 C 
ENDBRANCH  30  31
ENDBRANCH  29  30
ENDBRANCH  28  29
ENDBRANCH  27  28
ENDBRANCH  26  27
ENDBRANCH  25  26
ENDBRANCH  24  25
ENDBRANCH  23  24
ENDBRANCH  22  23
ENDBRANCH  21  22
ENDBRANCH  20  21
ENDBRANCH  19  20
ENDBRANCH  18  19
ENDBRANCH   1  18
TORSDOF 28
ENDMDL
MODEL 9
REMARK VINA RESULT:    -4.876      1.529      2.225
REMARK INTER + INTRA:         -15.242
REMARK INTER:                 -12.706
REMARK INTRA:                  -2.535
REMARK UNBOUND:                -2.385
REMARK SMILES CCCCCCCCCCCCCCCCCCCCCCCCCCCCCC(=O)[O-]
REMARK SMILES IDX 16 1 17 2 18 3 19 4 20 5 21 6 22 7 23 8 24 9 25 10 26 11
REMARK SMILES IDX 27 12 28 13 29 14 30 15 31 16 32 17 15 18 14 19 13 20 12 21
REMARK SMILES IDX 11 22 10 23 9 24 8 25 7 26 6 27 5 28 4 29 3 30 2 31 1 32
REMARK H PARENT
REMARK Flexibility Score: inf
ROOT
ATOM      1  C   UNL     1      41.536  55.743  17.947  1.00  0.00     0.000 C 
ENDROOT
BRANCH   1   2
ATOM      2  C   UNL     1      40.297  56.307  17.221  1.00  0.00     0.000 C 
BRANCH   2   3
ATOM      3  C   UNL     1      38.996  56.331  18.047  1.00  0.00     0.000 C 
BRANCH   3   4
ATOM      4  C   UNL     1      38.018  57.432  17.610  1.00  0.00     0.000 C 
BRANCH   4   5
ATOM      5  C   UNL     1      36.919  56.860  16.704  1.00  0.00     0.000 C 
BRANCH   5   6
ATOM      6  C   UNL     1      36.520  57.826  15.578  1.00  0.00     0.000 C 
BRANCH   6   7
ATOM      7  C   UNL     1      35.759  57.125  14.438  1.00  0.00     0.000 C 
BRANCH   7   8
ATOM      8  C   UNL     1      34.275  56.902  14.774  1.00  0.00     0.000 C 
BRANCH   8   9
ATOM      9  C   UNL     1      33.621  55.843  13.876  1.00  0.00     0.000 C 
BRANCH   9  10
ATOM     10  C   UNL     1      33.836  54.432  14.446  1.00  0.00     0.000 C 
BRANCH  10  11
ATOM     11  C   UNL     1      32.527  53.760  14.890  1.00  0.00     0.000 C 
BRANCH  11  12
ATOM     12  C   UNL     1      32.475  53.495  16.405  1.00  0.00     0.000 C 
BRANCH  12  13
ATOM     13  C   UNL     1      32.582  54.789  17.228  1.00  0.00     0.006 C 
BRANCH  13  14
ATOM     14  C   UNL     1      31.208  55.338  17.632  1.00  0.00     0.053 C 
BRANCH  14  15
ATOM     15  C   UNL     1      30.854  56.530  16.803  1.00  0.00     0.041 C 
ATOM     16  O   UNL     1      30.918  57.687  17.298  1.00  0.00    -0.550 OA
ATOM     17  O   UNL     1      30.494  56.372  15.470  1.00  0.00    -0.550 OA
ENDBRANCH  14  15
ENDBRANCH  13  14
ENDBRANCH  12  13
ENDBRANCH  11  12
ENDBRANCH  10  11
ENDBRANCH   9  10
ENDBRANCH   8   9
ENDBRANCH   7   8
ENDBRANCH   6   7
ENDBRANCH   5   6
ENDBRANCH   4   5
ENDBRANCH   3   4
ENDBRANCH   2   3
ENDBRANCH   1   2
BRANCH   1  18
ATOM     18  C   UNL     1      42.635  55.175  17.019  1.00  0.00     0.000 C 
BRANCH  18  19
ATOM     19  C   UNL     1      42.094  54.547  15.720  1.00  0.00     0.000 C 
BRANCH  19  20
ATOM     20  C   UNL     1      42.961  53.419  15.130  1.00  0.00     0.000 C 
BRANCH  20  21
ATOM     21  C   UNL     1      44.471  53.724  15.044  1.00  0.00     0.000 C 
BRANCH  21  22
ATOM     22  C   UNL     1      45.312  52.660  14.316  1.00  0.00     0.000 C 
BRANCH  22  23
ATOM     23  C   UNL     1      46.708  53.163  13.927  1.00  0.00     0.000 C 
BRANCH  23  24
ATOM     24  C   UNL     1      47.772  52.610  14.882  1.00  0.00    -0.000 C 
BRANCH  24  25
ATOM     25  C   UNL     1      49.010  53.520  14.914  1.00  0.00    -0.000 C 
BRANCH  25  26
ATOM     26  C   UNL     1      48.689  54.944  15.398  1.00  0.00    -0.000 C 
BRANCH  26  27
ATOM     27  C   UNL     1      48.163  55.040  16.843  1.00  0.00    -0.000 C 
BRANCH  27  28
ATOM     28  C   UNL     1      46.785  55.725  16.964  1.00  0.00    -0.000 C 
BRANCH  28  29
ATOM     29  C   UNL     1      46.864  57.249  16.756  1.00  0.00    -0.000 C 
BRANCH  29  30
ATOM     30  C   UNL     1      45.681  57.782  15.918  1.00  0.00    -0.000 C 
BRANCH  30  31
ATOM     31  C   UNL     1      46.117  58.573  14.673  1.00  0.00    -0.003 C 
ATOM     32  C   UNL     1      47.595  58.957  14.695  1.00  0.00     0.004 C 
ENDBRANCH  30  31
ENDBRANCH  29  30
ENDBRANCH  28  29
ENDBRANCH  27  28
ENDBRANCH  26  27
ENDBRANCH  25  26
ENDBRANCH  24  25
ENDBRANCH  23  24
ENDBRANCH  22  23
ENDBRANCH  21  22
ENDBRANCH  20  21
ENDBRANCH  19  20
ENDBRANCH  18  19
ENDBRANCH   1  18
TORSDOF 28
ENDMDL
