MODEL 1
REMARK VINA RESULT:    -1.573      0.000      0.000
REMARK INTER + INTRA:          -6.882
REMARK INTER:                  -4.147
REMARK INTRA:                  -2.736
REMARK UNBOUND:                -2.736
REMARK SMILES CCCCCCCCCCCCCCCCCCCCCCCCCCCCCC(=O)[O-]
REMARK SMILES IDX 16 1 17 2 18 3 19 4 20 5 21 6 22 7 23 8 24 9 25 10 26 11
REMARK SMILES IDX 27 12 28 13 29 14 30 15 31 16 32 17 15 18 14 19 13 20 12 21
REMARK SMILES IDX 11 22 10 23 9 24 8 25 7 26 6 27 5 28 4 29 3 30 2 31 1 32
REMARK H PARENT
REMARK Flexibility Score: inf
ROOT
ATOM      1  C   UNL     1       3.407 -10.148   2.870  1.00  0.00     0.000 C 
ENDROOT
BRANCH   1   2
ATOM      2  C   UNL     1       4.367  -8.969   3.113  1.00  0.00     0.000 C 
BRANCH   2   3
ATOM      3  C   UNL     1       5.837  -9.362   3.366  1.00  0.00     0.000 C 
BRANCH   3   4
ATOM      4  C   UNL     1       6.672  -8.313   4.123  1.00  0.00     0.000 C 
BRANCH   4   5
ATOM      5  C   UNL     1       5.959  -7.771   5.370  1.00  0.00     0.000 C 
BRANCH   5   6
ATOM      6  C   UNL     1       6.962  -7.134   6.340  1.00  0.00     0.000 C 
BRANCH   6   7
ATOM      7  C   UNL     1       6.543  -7.359   7.800  1.00  0.00     0.000 C 
BRANCH   7   8
ATOM      8  C   UNL     1       6.463  -6.049   8.606  1.00  0.00     0.000 C 
BRANCH   8   9
ATOM      9  C   UNL     1       7.705  -5.143   8.496  1.00  0.00     0.000 C 
BRANCH   9  10
ATOM     10  C   UNL     1       8.027  -4.318   9.757  1.00  0.00     0.000 C 
BRANCH  10  11
ATOM     11  C   UNL     1       8.332  -2.830   9.501  1.00  0.00     0.000 C 
BRANCH  11  12
ATOM     12  C   UNL     1       7.065  -1.965   9.422  1.00  0.00     0.000 C 
BRANCH  12  13
ATOM     13  C   UNL     1       7.310  -0.706   8.581  1.00  0.00     0.006 C 
BRANCH  13  14
ATOM     14  C   UNL     1       7.879   0.427   9.441  1.00  0.00     0.053 C 
BRANCH  14  15
ATOM     15  C   UNL     1       7.067   1.673   9.279  1.00  0.00     0.041 C 
ATOM     16  O   UNL     1       5.856   1.691   9.627  1.00  0.00    -0.550 OA
ATOM     17  O   UNL     1       7.646   2.816   8.741  1.00  0.00    -0.550 OA
ENDBRANCH  14  15
ENDBRANCH  13  14
ENDBRANCH  12  13
ENDBRANCH  11  12
ENDBRANCH  10  11
ENDBRANCH   9  10
ENDBRANCH   8   9
ENDBRANCH   7   8
ENDBRANCH   6   7
ENDBRANCH   5   6
ENDBRANCH   4   5
ENDBRANCH   3   4
ENDBRANCH   2   3
ENDBRANCH   1   2
BRANCH   1  18
ATOM     18  C   UNL     1       3.350 -11.125   4.053  1.00  0.00     0.000 C 
BRANCH  18  19
ATOM     19  C   UNL     1       1.977 -11.079   4.737  1.00  0.00     0.000 C 
BRANCH  19  20
ATOM     20  C   UNL     1       2.119 -11.062   6.265  1.00  0.00     0.000 C 
BRANCH  20  21
ATOM     21  C   UNL     1       1.359  -9.875   6.875  1.00  0.00     0.000 C 
BRANCH  21  22
ATOM     22  C   UNL     1       1.928  -9.452   8.241  1.00  0.00     0.000 C 
BRANCH  22  23
ATOM     23  C   UNL     1       1.795 -10.536   9.333  1.00  0.00     0.000 C 
BRANCH  23  24
ATOM     24  C   UNL     1       3.139 -11.019   9.914  1.00  0.00    -0.000 C 
BRANCH  24  25
ATOM     25  C   UNL     1       4.245  -9.945   9.915  1.00  0.00    -0.000 C 
BRANCH  25  26
ATOM     26  C   UNL     1       5.306 -10.197   8.828  1.00  0.00    -0.000 C 
BRANCH  26  27
ATOM     27  C   UNL     1       6.627 -10.736   9.400  1.00  0.00    -0.000 C 
BRANCH  27  28
ATOM     28  C   UNL     1       7.444  -9.654  10.125  1.00  0.00    -0.000 C 
BRANCH  28  29
ATOM     29  C   UNL     1       8.957  -9.945  10.125  1.00  0.00    -0.000 C 
BRANCH  29  30
ATOM     30  C   UNL     1       9.861  -8.706   9.991  1.00  0.00    -0.000 C 
BRANCH  30  31
ATOM     31  C   UNL     1       9.862  -8.116   8.573  1.00  0.00    -0.003 C 
ATOM     32  C   UNL     1      10.015  -9.213   7.522  1.00  0.00     0.004 C 
ENDBRANCH  30  31
ENDBRANCH  29  30
ENDBRANCH  28  29
ENDBRANCH  27  28
ENDBRANCH  26  27
ENDBRANCH  25  26
ENDBRANCH  24  25
ENDBRANCH  23  24
ENDBRANCH  22  23
ENDBRANCH  21  22
ENDBRANCH  20  21
ENDBRANCH  19  20
ENDBRANCH  18  19
ENDBRANCH   1  18
TORSDOF 28
ENDMDL
MODEL 2
REMARK VINA RESULT:    -1.117      4.493      7.838
REMARK INTER + INTRA:          -5.680
REMARK INTER:                  -3.731
REMARK INTRA:                  -1.950
REMARK UNBOUND:                -2.736
REMARK SMILES CCCCCCCCCCCCCCCCCCCCCCCCCCCCCC(=O)[O-]
REMARK SMILES IDX 16 1 17 2 18 3 19 4 20 5 21 6 22 7 23 8 24 9 25 10 26 11
REMARK SMILES IDX 27 12 28 13 29 14 30 15 31 16 32 17 15 18 14 19 13 20 12 21
REMARK SMILES IDX 11 22 10 23 9 24 8 25 7 26 6 27 5 28 4 29 3 30 2 31 1 32
REMARK H PARENT
REMARK Flexibility Score: inf
ROOT
ATOM      1  C   UNL     1       3.725  -8.947   2.760  1.00  0.00     0.000 C 
ENDROOT
BRANCH   1   2
ATOM      2  C   UNL     1       3.465 -10.463   2.684  1.00  0.00     0.000 C 
BRANCH   2   3
ATOM      3  C   UNL     1       2.277 -10.967   3.529  1.00  0.00     0.000 C 
BRANCH   3   4
ATOM      4  C   UNL     1       2.567 -11.125   5.033  1.00  0.00     0.000 C 
BRANCH   4   5
ATOM      5  C   UNL     1       4.068 -11.094   5.356  1.00  0.00     0.000 C 
BRANCH   5   6
ATOM      6  C   UNL     1       4.371 -10.058   6.446  1.00  0.00     0.000 C 
BRANCH   6   7
ATOM      7  C   UNL     1       4.631 -10.735   7.800  1.00  0.00     0.000 C 
BRANCH   7   8
ATOM      8  C   UNL     1       3.990  -9.978   8.978  1.00  0.00     0.000 C 
BRANCH   8   9
ATOM      9  C   UNL     1       3.428 -10.878  10.096  1.00  0.00     0.000 C 
BRANCH   9  10
ATOM     10  C   UNL     1       1.895 -11.045  10.093  1.00  0.00     0.000 C 
BRANCH  10  11
ATOM     11  C   UNL     1       1.146 -10.158   9.082  1.00  0.00     0.000 C 
BRANCH  11  12
ATOM     12  C   UNL     1      -0.298 -10.622   8.835  1.00  0.00     0.000 C 
BRANCH  12  13
ATOM     13  C   UNL     1      -1.125 -10.557  10.125  1.00  0.00     0.006 C 
BRANCH  13  14
ATOM     14  C   UNL     1      -2.081  -9.359  10.106  1.00  0.00     0.053 C 
BRANCH  14  15
ATOM     15  C   UNL     1      -3.443  -9.777   9.651  1.00  0.00     0.041 C 
ATOM     16  O   UNL     1      -3.702 -10.996   9.456  1.00  0.00    -0.550 OA
ATOM     17  O   UNL     1      -4.430  -8.822   9.440  1.00  0.00    -0.550 OA
ENDBRANCH  14  15
ENDBRANCH  13  14
ENDBRANCH  12  13
ENDBRANCH  11  12
ENDBRANCH  10  11
ENDBRANCH   9  10
ENDBRANCH   8   9
ENDBRANCH   7   8
ENDBRANCH   6   7
ENDBRANCH   5   6
ENDBRANCH   4   5
ENDBRANCH   3   4
ENDBRANCH   2   3
ENDBRANCH   1   2
BRANCH   1  18
ATOM     18  C   UNL     1       5.218  -8.601   2.849  1.00  0.00     0.000 C 
BRANCH  18  19
ATOM     19  C   UNL     1       5.710  -8.665   4.301  1.00  0.00     0.000 C 
BRANCH  19  20
ATOM     20  C   UNL     1       7.229  -8.461   4.381  1.00  0.00     0.000 C 
BRANCH  20  21
ATOM     21  C   UNL     1       7.673  -8.193   5.827  1.00  0.00     0.000 C 
BRANCH  21  22
ATOM     22  C   UNL     1       7.016  -6.935   6.421  1.00  0.00     0.000 C 
BRANCH  22  23
ATOM     23  C   UNL     1       5.922  -7.240   7.467  1.00  0.00     0.000 C 
BRANCH  23  24
ATOM     24  C   UNL     1       6.273  -6.793   8.901  1.00  0.00    -0.000 C 
BRANCH  24  25
ATOM     25  C   UNL     1       6.660  -5.305   9.017  1.00  0.00    -0.000 C 
BRANCH  25  26
ATOM     26  C   UNL     1       7.705  -5.057  10.120  1.00  0.00    -0.000 C 
BRANCH  26  27
ATOM     27  C   UNL     1       9.145  -5.042   9.584  1.00  0.00    -0.000 C 
BRANCH  27  28
ATOM     28  C   UNL     1       9.441  -6.228   8.649  1.00  0.00    -0.000 C 
BRANCH  28  29
ATOM     29  C   UNL     1       9.875  -7.495   9.409  1.00  0.00    -0.000 C 
BRANCH  29  30
ATOM     30  C   UNL     1       8.722  -8.367   9.939  1.00  0.00    -0.000 C 
BRANCH  30  31
ATOM     31  C   UNL     1       8.705  -9.775   9.326  1.00  0.00    -0.003 C 
ATOM     32  C   UNL     1       9.714  -9.890   8.185  1.00  0.00     0.004 C 
ENDBRANCH  30  31
ENDBRANCH  29  30
ENDBRANCH  28  29
ENDBRANCH  27  28
ENDBRANCH  26  27
ENDBRANCH  25  26
ENDBRANCH  24  25
ENDBRANCH  23  24
ENDBRANCH  22  23
ENDBRANCH  21  22
ENDBRANCH  20  21
ENDBRANCH  19  20
ENDBRANCH  18  19
ENDBRANCH   1  18
TORSDOF 28
ENDMDL
MODEL 3
REMARK VINA RESULT:    -0.499      4.144      7.682
REMARK INTER + INTRA:          -4.051
REMARK INTER:                  -2.089
REMARK INTRA:                  -1.962
REMARK UNBOUND:                -2.736
REMARK SMILES CCCCCCCCCCCCCCCCCCCCCCCCCCCCCC(=O)[O-]
REMARK SMILES IDX 16 1 17 2 18 3 19 4 20 5 21 6 22 7 23 8 24 9 25 10 26 11
REMARK SMILES IDX 27 12 28 13 29 14 30 15 31 16 32 17 15 18 14 19 13 20 12 21
REMARK SMILES IDX 11 22 10 23 9 24 8 25 7 26 6 27 5 28 4 29 3 30 2 31 1 32
REMARK H PARENT
REMARK Flexibility Score: inf
ROOT
ATOM      1  C   UNL     1       6.084 -10.275   5.479  1.00  0.00     0.000 C 
ENDROOT
BRANCH   1   2
ATOM      2  C   UNL     1       5.737 -11.112   6.723  1.00  0.00     0.000 C 
BRANCH   2   3
ATOM      3  C   UNL     1       6.504 -10.729   8.006  1.00  0.00     0.000 C 
BRANCH   3   4
ATOM      4  C   UNL     1       5.625 -10.511   9.251  1.00  0.00     0.000 C 
BRANCH   4   5
ATOM      5  C   UNL     1       5.889  -9.162   9.937  1.00  0.00     0.000 C 
BRANCH   5   6
ATOM      6  C   UNL     1       4.582  -8.380  10.124  1.00  0.00     0.000 C 
BRANCH   6   7
ATOM      7  C   UNL     1       4.584  -7.089   9.292  1.00  0.00     0.000 C 
BRANCH   7   8
ATOM      8  C   UNL     1       5.283  -5.918  10.007  1.00  0.00     0.000 C 
BRANCH   8   9
ATOM      9  C   UNL     1       6.707  -5.610   9.504  1.00  0.00     0.000 C 
BRANCH   9  10
ATOM     10  C   UNL     1       7.262  -6.601   8.462  1.00  0.00     0.000 C 
BRANCH  10  11
ATOM     11  C   UNL     1       8.433  -6.068   7.615  1.00  0.00     0.000 C 
BRANCH  11  12
ATOM     12  C   UNL     1       9.203  -7.182   6.891  1.00  0.00     0.000 C 
BRANCH  12  13
ATOM     13  C   UNL     1       8.714  -8.567   7.335  1.00  0.00     0.006 C 
BRANCH  13  14
ATOM     14  C   UNL     1       9.891  -9.461   7.739  1.00  0.00     0.053 C 
BRANCH  14  15
ATOM     15  C   UNL     1       9.834  -9.783   9.199  1.00  0.00     0.041 C 
ATOM     16  O   UNL     1      10.075 -10.953   9.601  1.00  0.00    -0.550 OA
ATOM     17  O   UNL     1       9.513  -8.791  10.118  1.00  0.00    -0.550 OA
ENDBRANCH  14  15
ENDBRANCH  13  14
ENDBRANCH  12  13
ENDBRANCH  11  12
ENDBRANCH  10  11
ENDBRANCH   9  10
ENDBRANCH   8   9
ENDBRANCH   7   8
ENDBRANCH   6   7
ENDBRANCH   5   6
ENDBRANCH   4   5
ENDBRANCH   3   4
ENDBRANCH   2   3
ENDBRANCH   1   2
BRANCH   1  18
ATOM     18  C   UNL     1       5.418 -10.801   4.200  1.00  0.00     0.000 C 
BRANCH  18  19
ATOM     19  C   UNL     1       4.073 -10.106   3.955  1.00  0.00     0.000 C 
BRANCH  19  20
ATOM     20  C   UNL     1       2.919 -11.118   3.946  1.00  0.00     0.000 C 
BRANCH  20  21
ATOM     21  C   UNL     1       1.958 -10.867   5.117  1.00  0.00     0.000 C 
BRANCH  21  22
ATOM     22  C   UNL     1       2.572  -9.961   6.199  1.00  0.00     0.000 C 
BRANCH  22  23
ATOM     23  C   UNL     1       2.666 -10.628   7.589  1.00  0.00     0.000 C 
BRANCH  23  24
ATOM     24  C   UNL     1       2.398  -9.673   8.769  1.00  0.00    -0.000 C 
BRANCH  24  25
ATOM     25  C   UNL     1       1.662 -10.330   9.954  1.00  0.00    -0.000 C 
BRANCH  25  26
ATOM     26  C   UNL     1       0.179  -9.923  10.019  1.00  0.00    -0.000 C 
BRANCH  26  27
ATOM     27  C   UNL     1      -0.774 -11.123   9.889  1.00  0.00    -0.000 C 
BRANCH  27  28
ATOM     28  C   UNL     1      -2.160 -10.724   9.356  1.00  0.00    -0.000 C 
BRANCH  28  29
ATOM     29  C   UNL     1      -2.683  -9.413   9.971  1.00  0.00    -0.000 C 
BRANCH  29  30
ATOM     30  C   UNL     1      -4.216  -9.282  10.026  1.00  0.00    -0.000 C 
BRANCH  30  31
ATOM     31  C   UNL     1      -4.941 -10.603   9.730  1.00  0.00    -0.003 C 
ATOM     32  C   UNL     1      -6.414 -10.522  10.124  1.00  0.00     0.004 C 
ENDBRANCH  30  31
ENDBRANCH  29  30
ENDBRANCH  28  29
ENDBRANCH  27  28
ENDBRANCH  26  27
ENDBRANCH  25  26
ENDBRANCH  24  25
ENDBRANCH  23  24
ENDBRANCH  22  23
ENDBRANCH  21  22
ENDBRANCH  20  21
ENDBRANCH  19  20
ENDBRANCH  18  19
ENDBRANCH   1  18
TORSDOF 28
ENDMDL
MODEL 4
REMARK VINA RESULT:    -0.386      3.314      7.110
REMARK INTER + INTRA:          -3.754
REMARK INTER:                  -2.834
REMARK INTRA:                  -0.920
REMARK UNBOUND:                -2.736
REMARK SMILES CCCCCCCCCCCCCCCCCCCCCCCCCCCCCC(=O)[O-]
REMARK SMILES IDX 16 1 17 2 18 3 19 4 20 5 21 6 22 7 23 8 24 9 25 10 26 11
REMARK SMILES IDX 27 12 28 13 29 14 30 15 31 16 32 17 15 18 14 19 13 20 12 21
REMARK SMILES IDX 11 22 10 23 9 24 8 25 7 26 6 27 5 28 4 29 3 30 2 31 1 32
REMARK H PARENT
REMARK Flexibility Score: inf
ROOT
ATOM      1  C   UNL     1       4.160 -10.132   6.787  1.00  0.00     0.000 C 
ENDROOT
BRANCH   1   2
ATOM      2  C   UNL     1       2.976 -11.013   7.227  1.00  0.00     0.000 C 
BRANCH   2   3
ATOM      3  C   UNL     1       1.680 -10.825   6.411  1.00  0.00     0.000 C 
BRANCH   3   4
ATOM      4  C   UNL     1       0.728  -9.737   6.940  1.00  0.00     0.000 C 
BRANCH   4   5
ATOM      5  C   UNL     1       0.072 -10.117   8.276  1.00  0.00     0.000 C 
BRANCH   5   6
ATOM      6  C   UNL     1       0.866  -9.544   9.457  1.00  0.00     0.000 C 
BRANCH   6   7
ATOM      7  C   UNL     1       2.015  -8.647   8.972  1.00  0.00     0.000 C 
BRANCH   7   8
ATOM      8  C   UNL     1       2.990  -8.264  10.100  1.00  0.00     0.000 C 
BRANCH   8   9
ATOM      9  C   UNL     1       4.034  -7.196   9.718  1.00  0.00     0.000 C 
BRANCH   9  10
ATOM     10  C   UNL     1       5.500  -7.588   9.990  1.00  0.00     0.000 C 
BRANCH  10  11
ATOM     11  C   UNL     1       5.791  -9.099   9.937  1.00  0.00     0.000 C 
BRANCH  11  12
ATOM     12  C   UNL     1       7.268  -9.414   9.658  1.00  0.00     0.000 C 
BRANCH  12  13
ATOM     13  C   UNL     1       7.626 -10.831  10.123  1.00  0.00     0.006 C 
BRANCH  13  14
ATOM     14  C   UNL     1       9.113 -11.125   9.894  1.00  0.00     0.053 C 
BRANCH  14  15
ATOM     15  C   UNL     1       9.746 -10.044   9.076  1.00  0.00     0.041 C 
ATOM     16  O   UNL     1      10.122 -10.278   7.896  1.00  0.00    -0.550 OA
ATOM     17  O   UNL     1       9.925  -8.776   9.617  1.00  0.00    -0.550 OA
ENDBRANCH  14  15
ENDBRANCH  13  14
ENDBRANCH  12  13
ENDBRANCH  11  12
ENDBRANCH  10  11
ENDBRANCH   9  10
ENDBRANCH   8   9
ENDBRANCH   7   8
ENDBRANCH   6   7
ENDBRANCH   5   6
ENDBRANCH   4   5
ENDBRANCH   3   4
ENDBRANCH   2   3
ENDBRANCH   1   2
BRANCH   1  18
ATOM     18  C   UNL     1       4.869 -10.666   5.535  1.00  0.00     0.000 C 
BRANCH  18  19
ATOM     19  C   UNL     1       4.176 -10.172   4.259  1.00  0.00     0.000 C 
BRANCH  19  20
ATOM     20  C   UNL     1       5.162  -9.436   3.341  1.00  0.00     0.000 C 
BRANCH  20  21
ATOM     21  C   UNL     1       5.520  -8.056   3.912  1.00  0.00     0.000 C 
BRANCH  21  22
ATOM     22  C   UNL     1       6.934  -8.019   4.519  1.00  0.00     0.000 C 
BRANCH  22  23
ATOM     23  C   UNL     1       7.034  -8.696   5.903  1.00  0.00     0.000 C 
BRANCH  23  24
ATOM     24  C   UNL     1       8.159  -8.141   6.800  1.00  0.00    -0.000 C 
BRANCH  24  25
ATOM     25  C   UNL     1       8.444  -6.640   6.595  1.00  0.00    -0.000 C 
BRANCH  25  26
ATOM     26  C   UNL     1       7.825  -5.770   7.704  1.00  0.00    -0.000 C 
BRANCH  26  27
ATOM     27  C   UNL     1       8.551  -5.918   9.051  1.00  0.00    -0.000 C 
BRANCH  27  28
ATOM     28  C   UNL     1       8.011  -4.957  10.123  1.00  0.00    -0.000 C 
BRANCH  28  29
ATOM     29  C   UNL     1       8.393  -3.489   9.859  1.00  0.00    -0.000 C 
BRANCH  29  30
ATOM     30  C   UNL     1       7.231  -2.578   9.423  1.00  0.00    -0.000 C 
BRANCH  30  31
ATOM     31  C   UNL     1       7.468  -1.099   9.761  1.00  0.00    -0.003 C 
ATOM     32  C   UNL     1       7.619  -0.263   8.493  1.00  0.00     0.004 C 
ENDBRANCH  30  31
ENDBRANCH  29  30
ENDBRANCH  28  29
ENDBRANCH  27  28
ENDBRANCH  26  27
ENDBRANCH  25  26
ENDBRANCH  24  25
ENDBRANCH  23  24
ENDBRANCH  22  23
ENDBRANCH  21  22
ENDBRANCH  20  21
ENDBRANCH  19  20
ENDBRANCH  18  19
ENDBRANCH   1  18
TORSDOF 28
ENDMDL
MODEL 5
REMARK VINA RESULT:    -0.098      3.702      9.122
REMARK INTER + INTRA:          -2.994
REMARK INTER:                  -3.544
REMARK INTRA:                   0.550
REMARK UNBOUND:                -2.736
REMARK SMILES CCCCCCCCCCCCCCCCCCCCCCCCCCCCCC(=O)[O-]
REMARK SMILES IDX 16 1 17 2 18 3 19 4 20 5 21 6 22 7 23 8 24 9 25 10 26 11
REMARK SMILES IDX 27 12 28 13 29 14 30 15 31 16 32 17 15 18 14 19 13 20 12 21
REMARK SMILES IDX 11 22 10 23 9 24 8 25 7 26 6 27 5 28 4 29 3 30 2 31 1 32
REMARK H PARENT
REMARK Flexibility Score: inf
ROOT
ATOM      1  C   UNL     1       7.252  -8.746   6.298  1.00  0.00     0.000 C 
ENDROOT
BRANCH   1   2
ATOM      2  C   UNL     1       6.308  -9.455   5.309  1.00  0.00     0.000 C 
BRANCH   2   3
ATOM      3  C   UNL     1       5.787  -8.575   4.154  1.00  0.00     0.000 C 
BRANCH   3   4
ATOM      4  C   UNL     1       4.977  -9.322   3.079  1.00  0.00     0.000 C 
BRANCH   4   5
ATOM      5  C   UNL     1       3.460  -9.175   3.268  1.00  0.00     0.000 C 
BRANCH   5   6
ATOM      6  C   UNL     1       2.757 -10.530   3.118  1.00  0.00     0.000 C 
BRANCH   6   7
ATOM      7  C   UNL     1       1.962 -10.887   4.383  1.00  0.00     0.000 C 
BRANCH   7   8
ATOM      8  C   UNL     1       2.854 -11.022   5.630  1.00  0.00     0.000 C 
BRANCH   8   9
ATOM      9  C   UNL     1       3.662  -9.760   5.988  1.00  0.00     0.000 C 
BRANCH   9  10
ATOM     10  C   UNL     1       3.409  -9.200   7.402  1.00  0.00     0.000 C 
BRANCH  10  11
ATOM     11  C   UNL     1       1.927  -9.118   7.814  1.00  0.00     0.000 C 
BRANCH  11  12
ATOM     12  C   UNL     1       1.632  -9.851   9.132  1.00  0.00     0.000 C 
BRANCH  12  13
ATOM     13  C   UNL     1       0.816 -11.125   8.883  1.00  0.00     0.006 C 
BRANCH  13  14
ATOM     14  C   UNL     1      -0.550 -11.047   9.574  1.00  0.00     0.053 C 
BRANCH  14  15
ATOM     15  C   UNL     1      -1.274  -9.800   9.174  1.00  0.00     0.041 C 
ATOM     16  O   UNL     1      -1.839  -9.727   8.050  1.00  0.00    -0.550 OA
ATOM     17  O   UNL     1      -1.323  -8.715  10.041  1.00  0.00    -0.550 OA
ENDBRANCH  14  15
ENDBRANCH  13  14
ENDBRANCH  12  13
ENDBRANCH  11  12
ENDBRANCH  10  11
ENDBRANCH   9  10
ENDBRANCH   8   9
ENDBRANCH   7   8
ENDBRANCH   6   7
ENDBRANCH   5   6
ENDBRANCH   4   5
ENDBRANCH   3   4
ENDBRANCH   2   3
ENDBRANCH   1   2
BRANCH   1  18
ATOM     18  C   UNL     1       8.571  -9.501   6.511  1.00  0.00     0.000 C 
BRANCH  18  19
ATOM     19  C   UNL     1       9.635  -8.584   7.128  1.00  0.00     0.000 C 
BRANCH  19  20
ATOM     20  C   UNL     1       9.760  -8.816   8.639  1.00  0.00     0.000 C 
BRANCH  20  21
ATOM     21  C   UNL     1       8.414  -8.592   9.344  1.00  0.00     0.000 C 
BRANCH  21  22
ATOM     22  C   UNL     1       8.342  -7.231  10.058  1.00  0.00     0.000 C 
BRANCH  22  23
ATOM     23  C   UNL     1       9.182  -6.127   9.379  1.00  0.00     0.000 C 
BRANCH  23  24
ATOM     24  C   UNL     1       8.751  -4.691   9.738  1.00  0.00    -0.000 C 
BRANCH  24  25
ATOM     25  C   UNL     1       7.495  -4.206   8.989  1.00  0.00    -0.000 C 
BRANCH  25  26
ATOM     26  C   UNL     1       7.604  -2.733   8.554  1.00  0.00    -0.000 C 
BRANCH  26  27
ATOM     27  C   UNL     1       8.054  -1.808   9.696  1.00  0.00    -0.000 C 
BRANCH  27  28
ATOM     28  C   UNL     1       7.109  -0.611   9.895  1.00  0.00    -0.000 C 
BRANCH  28  29
ATOM     29  C   UNL     1       7.838   0.744   9.839  1.00  0.00    -0.000 C 
BRANCH  29  30
ATOM     30  C   UNL     1       7.396   1.678   8.698  1.00  0.00    -0.000 C 
BRANCH  30  31
ATOM     31  C   UNL     1       6.762   2.983   9.202  1.00  0.00    -0.003 C 
ATOM     32  C   UNL     1       7.808   3.885   9.853  1.00  0.00     0.004 C 
ENDBRANCH  30  31
ENDBRANCH  29  30
ENDBRANCH  28  29
ENDBRANCH  27  28
ENDBRANCH  26  27
ENDBRANCH  25  26
ENDBRANCH  24  25
ENDBRANCH  23  24
ENDBRANCH  22  23
ENDBRANCH  21  22
ENDBRANCH  20  21
ENDBRANCH  19  20
ENDBRANCH  18  19
ENDBRANCH   1  18
TORSDOF 28
ENDMDL
MODEL 6
REMARK VINA RESULT:     0.040      2.614      5.427
REMARK INTER + INTRA:          -2.631
REMARK INTER:                   0.266
REMARK INTRA:                  -2.897
REMARK UNBOUND:                -2.736
REMARK SMILES CCCCCCCCCCCCCCCCCCCCCCCCCCCCCC(=O)[O-]
REMARK SMILES IDX 16 1 17 2 18 3 19 4 20 5 21 6 22 7 23 8 24 9 25 10 26 11
REMARK SMILES IDX 27 12 28 13 29 14 30 15 31 16 32 17 15 18 14 19 13 20 12 21
REMARK SMILES IDX 11 22 10 23 9 24 8 25 7 26 6 27 5 28 4 29 3 30 2 31 1 32
REMARK H PARENT
REMARK Flexibility Score: inf
ROOT
ATOM      1  C   UNL     1       4.075  -8.467   2.849  1.00  0.00     0.000 C 
ENDROOT
BRANCH   1   2
ATOM      2  C   UNL     1       5.096  -7.640   3.652  1.00  0.00     0.000 C 
BRANCH   2   3
ATOM      3  C   UNL     1       6.516  -7.589   3.050  1.00  0.00     0.000 C 
BRANCH   3   4
ATOM      4  C   UNL     1       7.656  -7.882   4.042  1.00  0.00     0.000 C 
BRANCH   4   5
ATOM      5  C   UNL     1       7.154  -8.108   5.476  1.00  0.00     0.000 C 
BRANCH   5   6
ATOM      6  C   UNL     1       8.032  -9.133   6.207  1.00  0.00     0.000 C 
BRANCH   6   7
ATOM      7  C   UNL     1       7.204  -9.972   7.190  1.00  0.00     0.000 C 
BRANCH   7   8
ATOM      8  C   UNL     1       7.493  -9.625   8.662  1.00  0.00     0.000 C 
BRANCH   8   9
ATOM      9  C   UNL     1       8.662 -10.406   9.294  1.00  0.00     0.000 C 
BRANCH   9  10
ATOM     10  C   UNL     1      10.062  -9.816   9.031  1.00  0.00     0.000 C 
BRANCH  10  11
ATOM     11  C   UNL     1      10.095  -8.292   8.809  1.00  0.00     0.000 C 
BRANCH  11  12
ATOM     12  C   UNL     1       9.882  -7.495  10.104  1.00  0.00     0.000 C 
BRANCH  12  13
ATOM     13  C   UNL     1       8.621  -6.628  10.017  1.00  0.00     0.006 C 
BRANCH  13  14
ATOM     14  C   UNL     1       8.944  -5.241   9.451  1.00  0.00     0.053 C 
BRANCH  14  15
ATOM     15  C   UNL     1       7.908  -4.820   8.457  1.00  0.00     0.041 C 
ATOM     16  O   UNL     1       7.693  -3.597   8.244  1.00  0.00    -0.550 OA
ATOM     17  O   UNL     1       7.178  -5.779   7.765  1.00  0.00    -0.550 OA
ENDBRANCH  14  15
ENDBRANCH  13  14
ENDBRANCH  12  13
ENDBRANCH  11  12
ENDBRANCH  10  11
ENDBRANCH   9  10
ENDBRANCH   8   9
ENDBRANCH   7   8
ENDBRANCH   6   7
ENDBRANCH   5   6
ENDBRANCH   4   5
ENDBRANCH   3   4
ENDBRANCH   2   3
ENDBRANCH   1   2
BRANCH   1  18
ATOM     18  C   UNL     1       3.904  -9.893   3.389  1.00  0.00     0.000 C 
BRANCH  18  19
ATOM     19  C   UNL     1       4.097  -9.930   4.910  1.00  0.00     0.000 C 
BRANCH  19  20
ATOM     20  C   UNL     1       3.351 -11.117   5.536  1.00  0.00     0.000 C 
BRANCH  20  21
ATOM     21  C   UNL     1       1.846 -11.039   5.241  1.00  0.00     0.000 C 
BRANCH  21  22
ATOM     22  C   UNL     1       1.115 -10.051   6.167  1.00  0.00     0.000 C 
BRANCH  22  23
ATOM     23  C   UNL     1       1.925  -8.772   6.474  1.00  0.00     0.000 C 
BRANCH  23  24
ATOM     24  C   UNL     1       2.288  -8.594   7.962  1.00  0.00    -0.000 C 
BRANCH  24  25
ATOM     25  C   UNL     1       3.804  -8.549   8.237  1.00  0.00    -0.000 C 
BRANCH  25  26
ATOM     26  C   UNL     1       4.252  -9.643   9.223  1.00  0.00    -0.000 C 
BRANCH  26  27
ATOM     27  C   UNL     1       3.406 -10.923   9.117  1.00  0.00    -0.000 C 
BRANCH  27  28
ATOM     28  C   UNL     1       2.245 -10.950  10.125  1.00  0.00    -0.000 C 
BRANCH  28  29
ATOM     29  C   UNL     1       0.871 -11.122   9.451  1.00  0.00    -0.000 C 
BRANCH  29  30
ATOM     30  C   UNL     1      -0.267 -10.287  10.065  1.00  0.00    -0.000 C 
BRANCH  30  31
ATOM     31  C   UNL     1      -1.445 -10.080   9.102  1.00  0.00    -0.003 C 
ATOM     32  C   UNL     1      -2.147  -8.751   9.371  1.00  0.00     0.004 C 
ENDBRANCH  30  31
ENDBRANCH  29  30
ENDBRANCH  28  29
ENDBRANCH  27  28
ENDBRANCH  26  27
ENDBRANCH  25  26
ENDBRANCH  24  25
ENDBRANCH  23  24
ENDBRANCH  22  23
ENDBRANCH  21  22
ENDBRANCH  20  21
ENDBRANCH  19  20
ENDBRANCH  18  19
ENDBRANCH   1  18
TORSDOF 28
ENDMDL
MODEL 7
REMARK VINA RESULT:     0.132      2.536      4.987
REMARK INTER + INTRA:          -2.387
REMARK INTER:                  -0.041
REMARK INTRA:                  -2.346
REMARK UNBOUND:                -2.736
REMARK SMILES CCCCCCCCCCCCCCCCCCCCCCCCCCCCCC(=O)[O-]
REMARK SMILES IDX 16 1 17 2 18 3 19 4 20 5 21 6 22 7 23 8 24 9 25 10 26 11
REMARK SMILES IDX 27 12 28 13 29 14 30 15 31 16 32 17 15 18 14 19 13 20 12 21
REMARK SMILES IDX 11 22 10 23 9 24 8 25 7 26 6 27 5 28 4 29 3 30 2 31 1 32
REMARK H PARENT
REMARK Flexibility Score: inf
ROOT
ATOM      1  C   UNL     1       4.456  -7.837   3.556  1.00  0.00     0.000 C 
ENDROOT
BRANCH   1   2
ATOM      2  C   UNL     1       5.975  -7.814   3.808  1.00  0.00     0.000 C 
BRANCH   2   3
ATOM      3  C   UNL     1       6.396  -7.971   5.284  1.00  0.00     0.000 C 
BRANCH   3   4
ATOM      4  C   UNL     1       7.776  -7.384   5.634  1.00  0.00     0.000 C 
BRANCH   4   5
ATOM      5  C   UNL     1       8.907  -8.417   5.524  1.00  0.00     0.000 C 
BRANCH   5   6
ATOM      6  C   UNL     1       8.797  -9.469   6.635  1.00  0.00     0.000 C 
BRANCH   6   7
ATOM      7  C   UNL     1       9.936  -9.322   7.655  1.00  0.00     0.000 C 
BRANCH   7   8
ATOM      8  C   UNL     1      10.116 -10.574   8.533  1.00  0.00     0.000 C 
BRANCH   8   9
ATOM      9  C   UNL     1       8.825 -11.088   9.200  1.00  0.00     0.000 C 
BRANCH   9  10
ATOM     10  C   UNL     1       8.111 -10.071  10.113  1.00  0.00     0.000 C 
BRANCH  10  11
ATOM     11  C   UNL     1       7.187  -9.078   9.384  1.00  0.00     0.000 C 
BRANCH  11  12
ATOM     12  C   UNL     1       7.467  -7.615   9.758  1.00  0.00     0.000 C 
BRANCH  12  13
ATOM     13  C   UNL     1       7.095  -6.671   8.609  1.00  0.00     0.006 C 
BRANCH  13  14
ATOM     14  C   UNL     1       6.842  -5.250   9.124  1.00  0.00     0.053 C 
BRANCH  14  15
ATOM     15  C   UNL     1       8.047  -4.389   8.913  1.00  0.00     0.041 C 
ATOM     16  O   UNL     1       8.238  -3.825   7.803  1.00  0.00    -0.550 OA
ATOM     17  O   UNL     1       8.963  -4.210   9.943  1.00  0.00    -0.550 OA
ENDBRANCH  14  15
ENDBRANCH  13  14
ENDBRANCH  12  13
ENDBRANCH  11  12
ENDBRANCH  10  11
ENDBRANCH   9  10
ENDBRANCH   8   9
ENDBRANCH   7   8
ENDBRANCH   6   7
ENDBRANCH   5   6
ENDBRANCH   4   5
ENDBRANCH   3   4
ENDBRANCH   2   3
ENDBRANCH   1   2
BRANCH   1  18
ATOM     18  C   UNL     1       4.053  -8.796   2.427  1.00  0.00     0.000 C 
BRANCH  18  19
ATOM     19  C   UNL     1       3.764 -10.199   2.976  1.00  0.00     0.000 C 
BRANCH  19  20
ATOM     20  C   UNL     1       4.506 -10.442   4.297  1.00  0.00     0.000 C 
BRANCH  20  21
ATOM     21  C   UNL     1       3.591 -11.121   5.326  1.00  0.00     0.000 C 
BRANCH  21  22
ATOM     22  C   UNL     1       2.255 -10.378   5.507  1.00  0.00     0.000 C 
BRANCH  22  23
ATOM     23  C   UNL     1       1.474 -10.801   6.771  1.00  0.00     0.000 C 
BRANCH  23  24
ATOM     24  C   UNL     1      -0.059 -10.721   6.625  1.00  0.00    -0.000 C 
BRANCH  24  25
ATOM     25  C   UNL     1      -0.776 -10.127   7.854  1.00  0.00    -0.000 C 
BRANCH  25  26
ATOM     26  C   UNL     1       0.055 -10.266   9.142  1.00  0.00    -0.000 C 
BRANCH  26  27
ATOM     27  C   UNL     1       0.451  -8.908   9.743  1.00  0.00    -0.000 C 
BRANCH  27  28
ATOM     28  C   UNL     1       1.562  -8.207   8.944  1.00  0.00    -0.000 C 
BRANCH  28  29
ATOM     29  C   UNL     1       2.673  -7.631   9.841  1.00  0.00    -0.000 C 
BRANCH  29  30
ATOM     30  C   UNL     1       3.870  -8.568  10.085  1.00  0.00    -0.000 C 
BRANCH  30  31
ATOM     31  C   UNL     1       3.975  -9.690   9.041  1.00  0.00    -0.003 C 
ATOM     32  C   UNL     1       4.411 -11.003   9.688  1.00  0.00     0.004 C 
ENDBRANCH  30  31
ENDBRANCH  29  30
ENDBRANCH  28  29
ENDBRANCH  27  28
ENDBRANCH  26  27
ENDBRANCH  25  26
ENDBRANCH  24  25
ENDBRANCH  23  24
ENDBRANCH  22  23
ENDBRANCH  21  22
ENDBRANCH  20  21
ENDBRANCH  19  20
ENDBRANCH  18  19
ENDBRANCH   1  18
TORSDOF 28
ENDMDL
