MODEL 1
REMARK VINA RESULT:    -4.439      0.000      0.000
REMARK INTER + INTRA:          -9.861
REMARK INTER:                  -8.590
REMARK INTRA:                  -1.271
REMARK UNBOUND:                -1.271
REMARK SMILES CCCCCCCCCCCCCCCCCC(=O)[O-]
REMARK SMILES IDX 10 1 11 2 12 3 13 4 14 5 15 6 16 7 17 8 18 9 19 10 20 11
REMARK SMILES IDX 9 12 8 13 7 14 6 15 5 16 4 17 3 18 2 19 1 20
REMARK H PARENT
REMARK Flexibility Score: inf
ROOT
ATOM      1  C   UNL     1      -1.771  14.122 -16.689  1.00  0.00     0.000 C 
ENDROOT
BRANCH   1   2
ATOM      2  C   UNL     1      -1.638  14.519 -18.171  1.00  0.00     0.000 C 
BRANCH   2   3
ATOM      3  C   UNL     1      -0.772  15.772 -18.383  1.00  0.00     0.000 C 
BRANCH   3   4
ATOM      4  C   UNL     1       0.682  15.430 -18.748  1.00  0.00     0.000 C 
BRANCH   4   5
ATOM      5  C   UNL     1       1.584  16.671 -18.820  1.00  0.00     0.000 C 
BRANCH   5   6
ATOM      6  C   UNL     1       1.195  17.561 -20.010  1.00  0.00     0.000 C 
BRANCH   6   7
ATOM      7  C   UNL     1       1.099  19.052 -19.635  1.00  0.00     0.006 C 
BRANCH   7   8
ATOM      8  C   UNL     1       0.921  19.315 -18.131  1.00  0.00     0.053 C 
BRANCH   8   9
ATOM      9  C   UNL     1      -0.515  19.526 -17.764  1.00  0.00     0.041 C 
ATOM     10  O   UNL     1      -1.425  19.294 -18.603  1.00  0.00    -0.550 OA
ATOM     11  O   UNL     1      -0.847  20.011 -16.505  1.00  0.00    -0.550 OA
ENDBRANCH   8   9
ENDBRANCH   7   8
ENDBRANCH   6   7
ENDBRANCH   5   6
ENDBRANCH   4   5
ENDBRANCH   3   4
ENDBRANCH   2   3
ENDBRANCH   1   2
BRANCH   1  12
ATOM     12  C   UNL     1      -3.127  13.516 -16.286  1.00  0.00     0.000 C 
BRANCH  12  13
ATOM     13  C   UNL     1      -3.054  12.682 -14.995  1.00  0.00    -0.000 C 
BRANCH  13  14
ATOM     14  C   UNL     1      -3.444  11.207 -15.208  1.00  0.00    -0.000 C 
BRANCH  14  15
ATOM     15  C   UNL     1      -3.992  10.862 -16.605  1.00  0.00    -0.000 C 
BRANCH  15  16
ATOM     16  C   UNL     1      -2.934  10.231 -17.526  1.00  0.00    -0.000 C 
BRANCH  16  17
ATOM     17  C   UNL     1      -2.790  10.981 -18.860  1.00  0.00    -0.000 C 
BRANCH  17  18
ATOM     18  C   UNL     1      -3.874  10.592 -19.880  1.00  0.00    -0.000 C 
BRANCH  18  19
ATOM     19  C   UNL     1      -5.054  11.577 -19.889  1.00  0.00    -0.003 C 
ATOM     20  C   UNL     1      -6.268  11.037 -20.644  1.00  0.00     0.004 C 
ENDBRANCH  18  19
ENDBRANCH  17  18
ENDBRANCH  16  17
ENDBRANCH  15  16
ENDBRANCH  14  15
ENDBRANCH  13  14
ENDBRANCH  12  13
ENDBRANCH   1  12
TORSDOF 16
ENDMDL
MODEL 2
REMARK VINA RESULT:    -4.232      1.182      3.109
REMARK INTER + INTRA:          -9.461
REMARK INTER:                  -8.090
REMARK INTRA:                  -1.371
REMARK UNBOUND:                -1.271
REMARK SMILES CCCCCCCCCCCCCCCCCC(=O)[O-]
REMARK SMILES IDX 10 1 11 2 12 3 13 4 14 5 15 6 16 7 17 8 18 9 19 10 20 11
REMARK SMILES IDX 9 12 8 13 7 14 6 15 5 16 4 17 3 18 2 19 1 20
REMARK H PARENT
REMARK Flexibility Score: inf
ROOT
ATOM      1  C   UNL     1      -1.395  15.268 -18.742  1.00  0.00     0.000 C 
ENDROOT
BRANCH   1   2
ATOM      2  C   UNL     1      -0.065  15.673 -18.081  1.00  0.00     0.000 C 
BRANCH   2   3
ATOM      3  C   UNL     1       1.150  15.478 -19.003  1.00  0.00     0.000 C 
BRANCH   3   4
ATOM      4  C   UNL     1       1.948  16.775 -19.212  1.00  0.00     0.000 C 
BRANCH   4   5
ATOM      5  C   UNL     1       1.671  17.431 -20.573  1.00  0.00     0.000 C 
BRANCH   5   6
ATOM      6  C   UNL     1       1.353  18.925 -20.405  1.00  0.00     0.000 C 
BRANCH   6   7
ATOM      7  C   UNL     1       0.768  19.259 -19.020  1.00  0.00     0.006 C 
BRANCH   7   8
ATOM      8  C   UNL     1      -0.764  19.391 -18.996  1.00  0.00     0.053 C 
BRANCH   8   9
ATOM      9  C   UNL     1      -1.274  19.750 -17.634  1.00  0.00     0.041 C 
ATOM     10  O   UNL     1      -2.513  19.831 -17.422  1.00  0.00    -0.550 OA
ATOM     11  O   UNL     1      -0.380  20.030 -16.608  1.00  0.00    -0.550 OA
ENDBRANCH   8   9
ENDBRANCH   7   8
ENDBRANCH   6   7
ENDBRANCH   5   6
ENDBRANCH   4   5
ENDBRANCH   3   4
ENDBRANCH   2   3
ENDBRANCH   1   2
BRANCH   1  12
ATOM     12  C   UNL     1      -2.022  13.962 -18.220  1.00  0.00     0.000 C 
BRANCH  12  13
ATOM     13  C   UNL     1      -2.227  12.910 -19.323  1.00  0.00    -0.000 C 
BRANCH  13  14
ATOM     14  C   UNL     1      -3.537  12.116 -19.163  1.00  0.00    -0.000 C 
BRANCH  14  15
ATOM     15  C   UNL     1      -3.369  10.606 -18.912  1.00  0.00    -0.000 C 
BRANCH  15  16
ATOM     16  C   UNL     1      -3.088  10.269 -17.438  1.00  0.00    -0.000 C 
BRANCH  16  17
ATOM     17  C   UNL     1      -3.960  11.087 -16.470  1.00  0.00    -0.000 C 
BRANCH  17  18
ATOM     18  C   UNL     1      -3.703  10.732 -14.995  1.00  0.00    -0.000 C 
BRANCH  18  19
ATOM     19  C   UNL     1      -2.805  11.762 -14.291  1.00  0.00    -0.003 C 
ATOM     20  C   UNL     1      -2.737  13.094 -15.037  1.00  0.00     0.004 C 
ENDBRANCH  18  19
ENDBRANCH  17  18
ENDBRANCH  16  17
ENDBRANCH  15  16
ENDBRANCH  14  15
ENDBRANCH  13  14
ENDBRANCH  12  13
ENDBRANCH   1  12
TORSDOF 16
ENDMDL
MODEL 3
REMARK VINA RESULT:    -4.215      2.686      7.957
REMARK INTER + INTRA:          -9.428
REMARK INTER:                  -8.046
REMARK INTRA:                  -1.382
REMARK UNBOUND:                -1.271
REMARK SMILES CCCCCCCCCCCCCCCCCC(=O)[O-]
REMARK SMILES IDX 10 1 11 2 12 3 13 4 14 5 15 6 16 7 17 8 18 9 19 10 20 11
REMARK SMILES IDX 9 12 8 13 7 14 6 15 5 16 4 17 3 18 2 19 1 20
REMARK H PARENT
REMARK Flexibility Score: inf
ROOT
ATOM      1  C   UNL     1      -0.573  15.678 -18.372  1.00  0.00     0.000 C 
ENDROOT
BRANCH   1   2
ATOM      2  C   UNL     1      -1.689  14.656 -18.089  1.00  0.00     0.000 C 
BRANCH   2   3
ATOM      3  C   UNL     1      -1.726  13.507 -19.111  1.00  0.00     0.000 C 
BRANCH   3   4
ATOM      4  C   UNL     1      -3.019  12.680 -19.024  1.00  0.00     0.000 C 
BRANCH   4   5
ATOM      5  C   UNL     1      -2.771  11.233 -18.573  1.00  0.00     0.000 C 
BRANCH   5   6
ATOM      6  C   UNL     1      -3.439  10.960 -17.216  1.00  0.00     0.000 C 
BRANCH   6   7
ATOM      7  C   UNL     1      -4.454  12.049 -16.822  1.00  0.00     0.006 C 
BRANCH   7   8
ATOM      8  C   UNL     1      -4.369  12.491 -15.352  1.00  0.00     0.053 C 
BRANCH   8   9
ATOM      9  C   UNL     1      -2.959  12.491 -14.847  1.00  0.00     0.041 C 
ATOM     10  O   UNL     1      -2.543  11.546 -14.126  1.00  0.00    -0.550 OA
ATOM     11  O   UNL     1      -2.115  13.553 -15.145  1.00  0.00    -0.550 OA
ENDBRANCH   8   9
ENDBRANCH   7   8
ENDBRANCH   6   7
ENDBRANCH   5   6
ENDBRANCH   4   5
ENDBRANCH   3   4
ENDBRANCH   2   3
ENDBRANCH   1   2
BRANCH   1  12
ATOM     12  C   UNL     1       0.662  15.123 -19.105  1.00  0.00     0.000 C 
BRANCH  12  13
ATOM     13  C   UNL     1       1.981  15.752 -18.624  1.00  0.00    -0.000 C 
BRANCH  13  14
ATOM     14  C   UNL     1       2.018  17.281 -18.800  1.00  0.00    -0.000 C 
BRANCH  14  15
ATOM     15  C   UNL     1       1.726  17.791 -20.223  1.00  0.00    -0.000 C 
BRANCH  15  16
ATOM     16  C   UNL     1       1.825  19.321 -20.347  1.00  0.00    -0.000 C 
BRANCH  16  17
ATOM     17  C   UNL     1       0.984  20.053 -19.288  1.00  0.00    -0.000 C 
BRANCH  17  18
ATOM     18  C   UNL     1      -0.529  19.894 -19.517  1.00  0.00    -0.000 C 
BRANCH  18  19
ATOM     19  C   UNL     1      -1.234  19.214 -18.333  1.00  0.00    -0.003 C 
ATOM     20  C   UNL     1      -0.921  19.883 -16.996  1.00  0.00     0.004 C 
ENDBRANCH  18  19
ENDBRANCH  17  18
ENDBRANCH  16  17
ENDBRANCH  15  16
ENDBRANCH  14  15
ENDBRANCH  13  14
ENDBRANCH  12  13
ENDBRANCH   1  12
TORSDOF 16
ENDMDL
MODEL 4
REMARK VINA RESULT:    -4.071      1.276      3.129
REMARK INTER + INTRA:          -9.150
REMARK INTER:                  -7.757
REMARK INTRA:                  -1.393
REMARK UNBOUND:                -1.271
REMARK SMILES CCCCCCCCCCCCCCCCCC(=O)[O-]
REMARK SMILES IDX 10 1 11 2 12 3 13 4 14 5 15 6 16 7 17 8 18 9 19 10 20 11
REMARK SMILES IDX 9 12 8 13 7 14 6 15 5 16 4 17 3 18 2 19 1 20
REMARK H PARENT
REMARK Flexibility Score: inf
ROOT
ATOM      1  C   UNL     1      -0.363  15.911 -18.654  1.00  0.00     0.000 C 
ENDROOT
BRANCH   1   2
ATOM      2  C   UNL     1       1.156  15.705 -18.514  1.00  0.00     0.000 C 
BRANCH   2   3
ATOM      3  C   UNL     1       1.841  15.351 -19.844  1.00  0.00     0.000 C 
BRANCH   3   4
ATOM      4  C   UNL     1       2.041  16.577 -20.750  1.00  0.00     0.000 C 
BRANCH   4   5
ATOM      5  C   UNL     1       2.124  17.893 -19.960  1.00  0.00     0.000 C 
BRANCH   5   6
ATOM      6  C   UNL     1       1.533  19.056 -20.772  1.00  0.00     0.000 C 
BRANCH   6   7
ATOM      7  C   UNL     1       0.463  19.844 -19.994  1.00  0.00     0.006 C 
BRANCH   7   8
ATOM      8  C   UNL     1       0.701  19.902 -18.476  1.00  0.00     0.053 C 
BRANCH   8   9
ATOM      9  C   UNL     1      -0.571  19.734 -17.702  1.00  0.00     0.041 C 
ATOM     10  O   UNL     1      -0.635  20.101 -16.500  1.00  0.00    -0.550 OA
ATOM     11  O   UNL     1      -1.675  19.141 -18.301  1.00  0.00    -0.550 OA
ENDBRANCH   8   9
ENDBRANCH   7   8
ENDBRANCH   6   7
ENDBRANCH   5   6
ENDBRANCH   4   5
ENDBRANCH   3   4
ENDBRANCH   2   3
ENDBRANCH   1   2
BRANCH   1  12
ATOM     12  C   UNL     1      -1.240  14.812 -18.028  1.00  0.00     0.000 C 
BRANCH  12  13
ATOM     13  C   UNL     1      -1.692  13.751 -19.046  1.00  0.00    -0.000 C 
BRANCH  13  14
ATOM     14  C   UNL     1      -2.867  12.893 -18.540  1.00  0.00    -0.000 C 
BRANCH  14  15
ATOM     15  C   UNL     1      -2.984  11.493 -19.170  1.00  0.00    -0.000 C 
BRANCH  15  16
ATOM     16  C   UNL     1      -3.377  10.407 -18.154  1.00  0.00    -0.000 C 
BRANCH  16  17
ATOM     17  C   UNL     1      -2.994  10.783 -16.713  1.00  0.00    -0.000 C 
BRANCH  17  18
ATOM     18  C   UNL     1      -4.219  10.980 -15.804  1.00  0.00    -0.000 C 
BRANCH  18  19
ATOM     19  C   UNL     1      -4.267  12.384 -15.179  1.00  0.00    -0.003 C 
ATOM     20  C   UNL     1      -2.878  12.987 -14.976  1.00  0.00     0.004 C 
ENDBRANCH  18  19
ENDBRANCH  17  18
ENDBRANCH  16  17
ENDBRANCH  15  16
ENDBRANCH  14  15
ENDBRANCH  13  14
ENDBRANCH  12  13
ENDBRANCH   1  12
TORSDOF 16
ENDMDL
MODEL 5
REMARK VINA RESULT:    -4.029      2.963      8.054
REMARK INTER + INTRA:          -9.070
REMARK INTER:                  -7.488
REMARK INTRA:                  -1.582
REMARK UNBOUND:                -1.271
REMARK SMILES CCCCCCCCCCCCCCCCCC(=O)[O-]
REMARK SMILES IDX 10 1 11 2 12 3 13 4 14 5 15 6 16 7 17 8 18 9 19 10 20 11
REMARK SMILES IDX 9 12 8 13 7 14 6 15 5 16 4 17 3 18 2 19 1 20
REMARK H PARENT
REMARK Flexibility Score: inf
ROOT
ATOM      1  C   UNL     1      -2.423  14.313 -17.394  1.00  0.00     0.000 C 
ENDROOT
BRANCH   1   2
ATOM      2  C   UNL     1      -2.028  13.772 -16.008  1.00  0.00     0.000 C 
BRANCH   2   3
ATOM      3  C   UNL     1      -3.150  12.962 -15.336  1.00  0.00     0.000 C 
BRANCH   3   4
ATOM      4  C   UNL     1      -4.089  12.296 -16.354  1.00  0.00     0.000 C 
BRANCH   4   5
ATOM      5  C   UNL     1      -3.900  10.773 -16.430  1.00  0.00     0.000 C 
BRANCH   5   6
ATOM      6  C   UNL     1      -2.824  10.407 -17.464  1.00  0.00     0.000 C 
BRANCH   6   7
ATOM      7  C   UNL     1      -2.998  11.158 -18.797  1.00  0.00     0.006 C 
BRANCH   7   8
ATOM      8  C   UNL     1      -3.803  10.388 -19.857  1.00  0.00     0.053 C 
BRANCH   8   9
ATOM      9  C   UNL     1      -5.071  11.096 -20.221  1.00  0.00     0.041 C 
ATOM     10  O   UNL     1      -5.751  10.713 -21.209  1.00  0.00    -0.550 OA
ATOM     11  O   UNL     1      -5.485  12.201 -19.488  1.00  0.00    -0.550 OA
ENDBRANCH   8   9
ENDBRANCH   7   8
ENDBRANCH   6   7
ENDBRANCH   5   6
ENDBRANCH   4   5
ENDBRANCH   3   4
ENDBRANCH   2   3
ENDBRANCH   1   2
BRANCH   1  12
ATOM     12  C   UNL     1      -1.274  14.429 -18.411  1.00  0.00     0.000 C 
BRANCH  12  13
ATOM     13  C   UNL     1      -0.499  15.753 -18.296  1.00  0.00    -0.000 C 
BRANCH  13  14
ATOM     14  C   UNL     1       0.992  15.611 -18.653  1.00  0.00    -0.000 C 
BRANCH  14  15
ATOM     15  C   UNL     1       1.738  16.932 -18.918  1.00  0.00    -0.000 C 
BRANCH  15  16
ATOM     16  C   UNL     1       1.537  17.460 -20.348  1.00  0.00    -0.000 C 
BRANCH  16  17
ATOM     17  C   UNL     1       1.068  18.925 -20.376  1.00  0.00    -0.000 C 
BRANCH  17  18
ATOM     18  C   UNL     1       0.616  19.429 -18.995  1.00  0.00    -0.000 C 
BRANCH  18  19
ATOM     19  C   UNL     1      -0.914  19.515 -18.872  1.00  0.00    -0.003 C 
ATOM     20  C   UNL     1      -1.379  19.740 -17.434  1.00  0.00     0.004 C 
ENDBRANCH  18  19
ENDBRANCH  17  18
ENDBRANCH  16  17
ENDBRANCH  15  16
ENDBRANCH  14  15
ENDBRANCH  13  14
ENDBRANCH  12  13
ENDBRANCH   1  12
TORSDOF 16
ENDMDL
MODEL 6
REMARK VINA RESULT:    -3.735      3.989      8.470
REMARK INTER + INTRA:          -8.500
REMARK INTER:                  -7.244
REMARK INTRA:                  -1.256
REMARK UNBOUND:                -1.271
REMARK SMILES CCCCCCCCCCCCCCCCCC(=O)[O-]
REMARK SMILES IDX 10 1 11 2 12 3 13 4 14 5 15 6 16 7 17 8 18 9 19 10 20 11
REMARK SMILES IDX 9 12 8 13 7 14 6 15 5 16 4 17 3 18 2 19 1 20
REMARK H PARENT
REMARK Flexibility Score: inf
ROOT
ATOM      1  C   UNL     1      -2.350  13.928 -18.806  1.00  0.00     0.000 C 
ENDROOT
BRANCH   1   2
ATOM      2  C   UNL     1      -2.369  12.412 -19.077  1.00  0.00     0.000 C 
BRANCH   2   3
ATOM      3  C   UNL     1      -3.241  11.634 -18.077  1.00  0.00     0.000 C 
BRANCH   3   4
ATOM      4  C   UNL     1      -4.569  12.347 -17.771  1.00  0.00     0.000 C 
BRANCH   4   5
ATOM      5  C   UNL     1      -4.813  12.527 -16.265  1.00  0.00     0.000 C 
BRANCH   5   6
ATOM      6  C   UNL     1      -3.482  12.667 -15.508  1.00  0.00     0.000 C 
BRANCH   6   7
ATOM      7  C   UNL     1      -3.249  11.530 -14.496  1.00  0.00     0.006 C 
BRANCH   7   8
ATOM      8  C   UNL     1      -4.208  10.339 -14.651  1.00  0.00     0.053 C 
BRANCH   8   9
ATOM      9  C   UNL     1      -4.110   9.385 -13.500  1.00  0.00     0.041 C 
ATOM     10  O   UNL     1      -3.054   9.321 -12.818  1.00  0.00    -0.550 OA
ATOM     11  O   UNL     1      -5.174   8.544 -13.203  1.00  0.00    -0.550 OA
ENDBRANCH   8   9
ENDBRANCH   7   8
ENDBRANCH   6   7
ENDBRANCH   5   6
ENDBRANCH   4   5
ENDBRANCH   3   4
ENDBRANCH   2   3
ENDBRANCH   1   2
BRANCH   1  12
ATOM     12  C   UNL     1      -1.290  14.406 -17.797  1.00  0.00     0.000 C 
BRANCH  12  13
ATOM     13  C   UNL     1      -0.489  15.621 -18.297  1.00  0.00    -0.000 C 
BRANCH  13  14
ATOM     14  C   UNL     1       0.826  15.229 -18.996  1.00  0.00    -0.000 C 
BRANCH  14  15
ATOM     15  C   UNL     1       2.075  16.007 -18.540  1.00  0.00    -0.000 C 
BRANCH  15  16
ATOM     16  C   UNL     1       1.953  17.524 -18.761  1.00  0.00    -0.000 C 
BRANCH  16  17
ATOM     17  C   UNL     1       1.235  17.872 -20.076  1.00  0.00    -0.000 C 
BRANCH  17  18
ATOM     18  C   UNL     1       0.716  19.320 -20.104  1.00  0.00    -0.000 C 
BRANCH  18  19
ATOM     19  C   UNL     1       0.127  19.760 -18.754  1.00  0.00    -0.003 C 
ATOM     20  C   UNL     1      -1.268  19.188 -18.505  1.00  0.00     0.004 C 
ENDBRANCH  18  19
ENDBRANCH  17  18
ENDBRANCH  16  17
ENDBRANCH  15  16
ENDBRANCH  14  15
ENDBRANCH  13  14
ENDBRANCH  12  13
ENDBRANCH   1  12
TORSDOF 16
ENDMDL
MODEL 7
REMARK VINA RESULT:    -3.693      1.281      3.370
REMARK INTER + INTRA:          -8.418
REMARK INTER:                  -7.036
REMARK INTRA:                  -1.382
REMARK UNBOUND:                -1.271
REMARK SMILES CCCCCCCCCCCCCCCCCC(=O)[O-]
REMARK SMILES IDX 10 1 11 2 12 3 13 4 14 5 15 6 16 7 17 8 18 9 19 10 20 11
REMARK SMILES IDX 9 12 8 13 7 14 6 15 5 16 4 17 3 18 2 19 1 20
REMARK H PARENT
REMARK Flexibility Score: inf
ROOT
ATOM      1  C   UNL     1      -2.211  13.455 -19.142  1.00  0.00     0.000 C 
ENDROOT
BRANCH   1   2
ATOM      2  C   UNL     1      -1.614  14.268 -17.979  1.00  0.00     0.000 C 
BRANCH   2   3
ATOM      3  C   UNL     1      -0.954  15.579 -18.438  1.00  0.00     0.000 C 
BRANCH   3   4
ATOM      4  C   UNL     1       0.571  15.451 -18.590  1.00  0.00     0.000 C 
BRANCH   4   5
ATOM      5  C   UNL     1       1.268  16.811 -18.753  1.00  0.00     0.000 C 
BRANCH   5   6
ATOM      6  C   UNL     1       0.608  17.634 -19.870  1.00  0.00     0.000 C 
BRANCH   6   7
ATOM      7  C   UNL     1       0.820  19.150 -19.698  1.00  0.00     0.006 C 
BRANCH   7   8
ATOM      8  C   UNL     1      -0.469  19.941 -19.420  1.00  0.00     0.053 C 
BRANCH   8   9
ATOM      9  C   UNL     1      -0.888  19.844 -17.985  1.00  0.00     0.041 C 
ATOM     10  O   UNL     1      -0.028  19.907 -17.067  1.00  0.00    -0.550 OA
ATOM     11  O   UNL     1      -2.225  19.651 -17.664  1.00  0.00    -0.550 OA
ENDBRANCH   8   9
ENDBRANCH   7   8
ENDBRANCH   6   7
ENDBRANCH   5   6
ENDBRANCH   4   5
ENDBRANCH   3   4
ENDBRANCH   2   3
ENDBRANCH   1   2
BRANCH   1  12
ATOM     12  C   UNL     1      -2.390  11.950 -18.872  1.00  0.00     0.000 C 
BRANCH  12  13
ATOM     13  C   UNL     1      -3.839  11.473 -19.067  1.00  0.00    -0.000 C 
BRANCH  13  14
ATOM     14  C   UNL     1      -4.863  12.327 -18.297  1.00  0.00    -0.000 C 
BRANCH  14  15
ATOM     15  C   UNL     1      -5.018  11.989 -16.803  1.00  0.00    -0.000 C 
BRANCH  15  16
ATOM     16  C   UNL     1      -4.291  12.985 -15.883  1.00  0.00    -0.000 C 
BRANCH  16  17
ATOM     17  C   UNL     1      -3.537  12.288 -14.738  1.00  0.00    -0.000 C 
BRANCH  17  18
ATOM     18  C   UNL     1      -3.443  10.764 -14.931  1.00  0.00    -0.000 C 
BRANCH  18  19
ATOM     19  C   UNL     1      -4.283   9.989 -13.902  1.00  0.00    -0.003 C 
ATOM     20  C   UNL     1      -3.460   8.965 -13.121  1.00  0.00     0.004 C 
ENDBRANCH  18  19
ENDBRANCH  17  18
ENDBRANCH  16  17
ENDBRANCH  15  16
ENDBRANCH  14  15
ENDBRANCH  13  14
ENDBRANCH  12  13
ENDBRANCH   1  12
TORSDOF 16
ENDMDL
MODEL 8
REMARK VINA RESULT:    -3.555      0.712      1.853
REMARK INTER + INTRA:          -8.152
REMARK INTER:                  -6.814
REMARK INTRA:                  -1.338
REMARK UNBOUND:                -1.271
REMARK SMILES CCCCCCCCCCCCCCCCCC(=O)[O-]
REMARK SMILES IDX 10 1 11 2 12 3 13 4 14 5 15 6 16 7 17 8 18 9 19 10 20 11
REMARK SMILES IDX 9 12 8 13 7 14 6 15 5 16 4 17 3 18 2 19 1 20
REMARK H PARENT
REMARK Flexibility Score: inf
ROOT
ATOM      1  C   UNL     1      -3.208  13.281 -15.303  1.00  0.00     0.000 C 
ENDROOT
BRANCH   1   2
ATOM      2  C   UNL     1      -2.005  13.834 -16.089  1.00  0.00     0.000 C 
BRANCH   2   3
ATOM      3  C   UNL     1      -2.321  14.087 -17.572  1.00  0.00     0.000 C 
BRANCH   3   4
ATOM      4  C   UNL     1      -1.077  14.491 -18.380  1.00  0.00     0.000 C 
BRANCH   4   5
ATOM      5  C   UNL     1      -0.807  16.003 -18.340  1.00  0.00     0.000 C 
BRANCH   5   6
ATOM      6  C   UNL     1       0.665  16.304 -18.663  1.00  0.00     0.000 C 
BRANCH   6   7
ATOM      7  C   UNL     1       0.834  17.499 -19.620  1.00  0.00     0.006 C 
BRANCH   7   8
ATOM      8  C   UNL     1       1.348  18.781 -18.947  1.00  0.00     0.053 C 
BRANCH   8   9
ATOM      9  C   UNL     1       0.255  19.521 -18.240  1.00  0.00     0.041 C 
ATOM     10  O   UNL     1       0.461  20.024 -17.104  1.00  0.00    -0.550 OA
ATOM     11  O   UNL     1      -1.002  19.626 -18.821  1.00  0.00    -0.550 OA
ENDBRANCH   8   9
ENDBRANCH   7   8
ENDBRANCH   6   7
ENDBRANCH   5   6
ENDBRANCH   4   5
ENDBRANCH   3   4
ENDBRANCH   2   3
ENDBRANCH   1   2
BRANCH   1  12
ATOM     12  C   UNL     1      -2.941  11.987 -14.511  1.00  0.00     0.000 C 
BRANCH  12  13
ATOM     13  C   UNL     1      -3.754  10.788 -15.028  1.00  0.00    -0.000 C 
BRANCH  13  14
ATOM     14  C   UNL     1      -4.022  10.850 -16.544  1.00  0.00    -0.000 C 
BRANCH  14  15
ATOM     15  C   UNL     1      -2.961  10.174 -17.432  1.00  0.00    -0.000 C 
BRANCH  15  16
ATOM     16  C   UNL     1      -2.765  10.884 -18.782  1.00  0.00    -0.000 C 
BRANCH  16  17
ATOM     17  C   UNL     1      -3.778  10.422 -19.843  1.00  0.00    -0.000 C 
BRANCH  17  18
ATOM     18  C   UNL     1      -4.800  11.514 -20.203  1.00  0.00    -0.000 C 
BRANCH  18  19
ATOM     19  C   UNL     1      -6.229  11.148 -19.769  1.00  0.00    -0.003 C 
ATOM     20  C   UNL     1      -7.107  10.708 -20.940  1.00  0.00     0.004 C 
ENDBRANCH  18  19
ENDBRANCH  17  18
ENDBRANCH  16  17
ENDBRANCH  15  16
ENDBRANCH  14  15
ENDBRANCH  13  14
ENDBRANCH  12  13
ENDBRANCH   1  12
TORSDOF 16
ENDMDL
MODEL 9
REMARK VINA RESULT:    -3.094      4.290      8.517
REMARK INTER + INTRA:          -7.259
REMARK INTER:                  -6.431
REMARK INTRA:                  -0.829
REMARK UNBOUND:                -1.271
REMARK SMILES CCCCCCCCCCCCCCCCCC(=O)[O-]
REMARK SMILES IDX 10 1 11 2 12 3 13 4 14 5 15 6 16 7 17 8 18 9 19 10 20 11
REMARK SMILES IDX 9 12 8 13 7 14 6 15 5 16 4 17 3 18 2 19 1 20
REMARK H PARENT
REMARK Flexibility Score: inf
ROOT
ATOM      1  C   UNL     1      -3.729  11.504 -19.515  1.00  0.00     0.000 C 
ENDROOT
BRANCH   1   2
ATOM      2  C   UNL     1      -4.941  12.039 -18.730  1.00  0.00     0.000 C 
BRANCH   2   3
ATOM      3  C   UNL     1      -4.974  11.555 -17.271  1.00  0.00     0.000 C 
BRANCH   3   4
ATOM      4  C   UNL     1      -4.937  12.715 -16.263  1.00  0.00     0.000 C 
BRANCH   4   5
ATOM      5  C   UNL     1      -3.517  13.026 -15.766  1.00  0.00     0.000 C 
BRANCH   5   6
ATOM      6  C   UNL     1      -3.210  12.258 -14.471  1.00  0.00     0.000 C 
BRANCH   6   7
ATOM      7  C   UNL     1      -3.806  10.838 -14.465  1.00  0.00     0.006 C 
BRANCH   7   8
ATOM      8  C   UNL     1      -3.227   9.913 -13.382  1.00  0.00     0.053 C 
BRANCH   8   9
ATOM      9  C   UNL     1      -4.027   8.656 -13.230  1.00  0.00     0.041 C 
ATOM     10  O   UNL     1      -3.447   7.550 -13.073  1.00  0.00    -0.550 OA
ATOM     11  O   UNL     1      -5.413   8.703 -13.297  1.00  0.00    -0.550 OA
ENDBRANCH   8   9
ENDBRANCH   7   8
ENDBRANCH   6   7
ENDBRANCH   5   6
ENDBRANCH   4   5
ENDBRANCH   3   4
ENDBRANCH   2   3
ENDBRANCH   1   2
BRANCH   1  12
ATOM     12  C   UNL     1      -2.370  12.115 -19.130  1.00  0.00     0.000 C 
BRANCH  12  13
ATOM     13  C   UNL     1      -2.387  13.653 -19.105  1.00  0.00    -0.000 C 
BRANCH  13  14
ATOM     14  C   UNL     1      -1.315  14.252 -18.176  1.00  0.00    -0.000 C 
BRANCH  14  15
ATOM     15  C   UNL     1      -1.048  15.758 -18.358  1.00  0.00    -0.000 C 
BRANCH  15  16
ATOM     16  C   UNL     1       0.427  16.075 -18.660  1.00  0.00    -0.000 C 
BRANCH  16  17
ATOM     17  C   UNL     1       0.629  17.515 -19.161  1.00  0.00    -0.000 C 
BRANCH  17  18
ATOM     18  C   UNL     1      -0.617  18.394 -18.960  1.00  0.00    -0.000 C 
BRANCH  18  19
ATOM     19  C   UNL     1      -0.390  19.847 -19.407  1.00  0.00    -0.003 C 
ATOM     20  C   UNL     1       0.549  19.955 -20.608  1.00  0.00     0.004 C 
ENDBRANCH  18  19
ENDBRANCH  17  18
ENDBRANCH  16  17
ENDBRANCH  15  16
ENDBRANCH  14  15
ENDBRANCH  13  14
ENDBRANCH  12  13
ENDBRANCH   1  12
TORSDOF 16
ENDMDL
