MODEL 1
REMARK VINA RESULT:    -4.688      0.000      0.000
REMARK INTER + INTRA:          -5.809
REMARK INTER:                  -5.510
REMARK INTRA:                  -0.299
REMARK UNBOUND:                -0.299
REMARK SMILES O=c1cc(-c2ccc(O)c(O)c2)oc2cc(O)cc(O)c12
REMARK SMILES IDX 4 1 3 2 2 3 1 4 21 5 19 6 18 7 16 8 15 9 14 10 13 11 5 12
REMARK SMILES IDX 6 13 7 14 8 15 12 16 10 17 9 18 11 20 20 22 17 24
REMARK H PARENT 9 19 11 21 20 23 17 25
REMARK Flexibility Score: inf
ROOT
ATOM      1  C   UNL     1       2.323   7.880  -5.093  1.00  0.00     0.138 A 
ATOM      2  C   UNL     1       3.614   8.181  -5.550  1.00  0.00     0.100 A 
ATOM      3  C   UNL     1       3.902   9.469  -6.005  1.00  0.00     0.197 A 
ATOM      4  O   UNL     1       5.051   9.692  -6.466  1.00  0.00    -0.289 OA
ATOM      5  C   UNL     1       2.900  10.468  -5.970  1.00  0.00     0.107 A 
ATOM      6  C   UNL     1       3.092  11.824  -6.369  1.00  0.00     0.134 A 
ATOM      7  C   UNL     1       1.996  12.695  -6.401  1.00  0.00     0.093 A 
ATOM      8  C   UNL     1       0.728  12.274  -5.993  1.00  0.00     0.123 A 
ATOM      9  C   UNL     1       0.542  10.966  -5.550  1.00  0.00     0.094 A 
ATOM     10  C   UNL     1       1.608  10.064  -5.539  1.00  0.00     0.146 A 
ATOM     11  O   UNL     1       1.386   8.822  -5.123  1.00  0.00    -0.456 OA
ENDROOT
BRANCH   1  12
ATOM     12  C   UNL     1       1.962   6.528  -4.599  1.00  0.00     0.021 A 
ATOM     13  C   UNL     1       2.898   5.791  -3.852  1.00  0.00     0.016 A 
ATOM     14  C   UNL     1       2.585   4.513  -3.383  1.00  0.00     0.051 A 
ATOM     15  C   UNL     1       1.340   3.944  -3.658  1.00  0.00     0.157 A 
ATOM     16  C   UNL     1       0.712   5.943  -4.886  1.00  0.00     0.062 A 
ATOM     17  C   UNL     1       0.399   4.659  -4.416  1.00  0.00     0.158 A 
BRANCH  15  18
ATOM     18  O   UNL     1       1.056   2.666  -3.175  1.00  0.00    -0.504 OA
ATOM     19  H   UNL     1       1.692   1.888  -3.304  1.00  0.00     0.293 HD
ENDBRANCH  15  18
BRANCH  17  20
ATOM     20  O   UNL     1      -0.842   4.092  -4.703  1.00  0.00    -0.504 OA
ATOM     21  H   UNL     1      -1.661   4.294  -4.143  1.00  0.00     0.293 HD
ENDBRANCH  17  20
ENDBRANCH   1  12
BRANCH   6  22
ATOM     22  O   UNL     1       4.332  12.369  -6.715  1.00  0.00    -0.507 OA
ATOM     23  H   UNL     1       4.814  12.200  -7.584  1.00  0.00     0.293 HD
ENDBRANCH   6  22
BRANCH   8  24
ATOM     24  O   UNL     1      -0.354  13.151  -6.014  1.00  0.00    -0.508 OA
ATOM     25  H   UNL     1      -0.808  13.411  -6.882  1.00  0.00     0.293 HD
ENDBRANCH   8  24
TORSDOF 5
ENDMDL
MODEL 2
REMARK VINA RESULT:    -4.637      2.770      3.706
REMARK INTER + INTRA:          -5.750
REMARK INTER:                  -5.435
REMARK INTRA:                  -0.315
REMARK UNBOUND:                -0.299
REMARK SMILES O=c1cc(-c2ccc(O)c(O)c2)oc2cc(O)cc(O)c12
REMARK SMILES IDX 4 1 3 2 2 3 1 4 21 5 19 6 18 7 16 8 15 9 14 10 13 11 5 12
REMARK SMILES IDX 6 13 7 14 8 15 12 16 10 17 9 18 11 20 20 22 17 24
REMARK H PARENT 9 19 11 21 20 23 17 25
REMARK Flexibility Score: inf
ROOT
ATOM      1  C   UNL     1       2.280   7.161  -5.450  1.00  0.00     0.138 A 
ATOM      2  C   UNL     1       2.417   8.029  -4.357  1.00  0.00     0.100 A 
ATOM      3  C   UNL     1       3.425   8.994  -4.365  1.00  0.00     0.197 A 
ATOM      4  O   UNL     1       3.562   9.717  -3.344  1.00  0.00    -0.289 OA
ATOM      5  C   UNL     1       4.279   9.111  -5.488  1.00  0.00     0.107 A 
ATOM      6  C   UNL     1       5.314  10.084  -5.623  1.00  0.00     0.134 A 
ATOM      7  C   UNL     1       6.171  10.030  -6.729  1.00  0.00     0.093 A 
ATOM      8  C   UNL     1       5.993   9.074  -7.733  1.00  0.00     0.123 A 
ATOM      9  C   UNL     1       4.952   8.154  -7.636  1.00  0.00     0.094 A 
ATOM     10  C   UNL     1       4.101   8.160  -6.528  1.00  0.00     0.146 A 
ATOM     11  O   UNL     1       3.130   7.257  -6.467  1.00  0.00    -0.456 OA
ENDROOT
BRANCH   1  12
ATOM     12  C   UNL     1       1.226   6.117  -5.494  1.00  0.00     0.021 A 
ATOM     13  C   UNL     1       0.547   5.769  -4.314  1.00  0.00     0.016 A 
ATOM     14  C   UNL     1      -0.443   4.783  -4.327  1.00  0.00     0.051 A 
ATOM     15  C   UNL     1      -0.766   4.122  -5.515  1.00  0.00     0.157 A 
ATOM     16  C   UNL     1       0.907   5.437  -6.686  1.00  0.00     0.062 A 
ATOM     17  C   UNL     1      -0.087   4.447  -6.700  1.00  0.00     0.158 A 
BRANCH  15  18
ATOM     18  O   UNL     1      -1.761   3.144  -5.497  1.00  0.00    -0.504 OA
ATOM     19  H   UNL     1      -1.610   2.216  -5.875  1.00  0.00     0.293 HD
ENDBRANCH  15  18
BRANCH  17  20
ATOM     20  O   UNL     1      -0.397   3.782  -7.886  1.00  0.00    -0.504 OA
ATOM     21  H   UNL     1      -1.342   3.482  -8.095  1.00  0.00     0.293 HD
ENDBRANCH  17  20
ENDBRANCH   1  12
BRANCH   6  22
ATOM     22  O   UNL     1       5.524  11.132  -4.722  1.00  0.00    -0.507 OA
ATOM     23  H   UNL     1       5.838  12.056  -4.975  1.00  0.00     0.293 HD
ENDBRANCH   6  22
BRANCH   8  24
ATOM     24  O   UNL     1       6.842   9.037  -8.837  1.00  0.00    -0.508 OA
ATOM     25  H   UNL     1       6.486   9.117  -9.782  1.00  0.00     0.293 HD
ENDBRANCH   8  24
TORSDOF 5
ENDMDL
MODEL 3
REMARK VINA RESULT:    -4.544      2.471      6.650
REMARK INTER + INTRA:          -5.640
REMARK INTER:                  -5.347
REMARK INTRA:                  -0.293
REMARK UNBOUND:                -0.299
REMARK SMILES O=c1cc(-c2ccc(O)c(O)c2)oc2cc(O)cc(O)c12
REMARK SMILES IDX 4 1 3 2 2 3 1 4 21 5 19 6 18 7 16 8 15 9 14 10 13 11 5 12
REMARK SMILES IDX 6 13 7 14 8 15 12 16 10 17 9 18 11 20 20 22 17 24
REMARK H PARENT 9 19 11 21 20 23 17 25
REMARK Flexibility Score: inf
ROOT
ATOM      1  C   UNL     1       0.765  10.081  -4.570  1.00  0.00     0.138 A 
ATOM      2  C   UNL     1       0.603   8.997  -3.696  1.00  0.00     0.100 A 
ATOM      3  C   UNL     1       1.408   7.866  -3.842  1.00  0.00     0.197 A 
ATOM      4  O   UNL     1       1.197   6.885  -3.083  1.00  0.00    -0.289 OA
ATOM      5  C   UNL     1       2.401   7.835  -4.850  1.00  0.00     0.107 A 
ATOM      6  C   UNL     1       3.306   6.753  -5.066  1.00  0.00     0.134 A 
ATOM      7  C   UNL     1       4.169   6.786  -6.167  1.00  0.00     0.093 A 
ATOM      8  C   UNL     1       4.202   7.887  -7.025  1.00  0.00     0.123 A 
ATOM      9  C   UNL     1       3.361   8.972  -6.792  1.00  0.00     0.094 A 
ATOM     10  C   UNL     1       2.463   8.955  -5.721  1.00  0.00     0.146 A 
ATOM     11  O   UNL     1       1.668  10.004  -5.542  1.00  0.00    -0.456 OA
ENDROOT
BRANCH   1  12
ATOM     12  C   UNL     1      -0.063  11.308  -4.459  1.00  0.00     0.021 A 
ATOM     13  C   UNL     1       0.366  12.491  -5.084  1.00  0.00     0.016 A 
ATOM     14  C   UNL     1      -0.391  13.661  -4.987  1.00  0.00     0.051 A 
ATOM     15  C   UNL     1      -1.584  13.674  -4.259  1.00  0.00     0.157 A 
ATOM     16  C   UNL     1      -1.259  11.329  -3.714  1.00  0.00     0.062 A 
ATOM     17  C   UNL     1      -2.019  12.504  -3.616  1.00  0.00     0.158 A 
BRANCH  15  18
ATOM     18  O   UNL     1      -2.319  14.857  -4.182  1.00  0.00    -0.504 OA
ATOM     19  H   UNL     1      -1.966  15.681  -3.711  1.00  0.00     0.293 HD
ENDBRANCH  15  18
BRANCH  17  20
ATOM     20  O   UNL     1      -3.203  12.513  -2.878  1.00  0.00    -0.504 OA
ATOM     21  H   UNL     1      -3.999  13.074  -3.159  1.00  0.00     0.293 HD
ENDBRANCH  17  20
ENDBRANCH   1  12
BRANCH   6  22
ATOM     22  O   UNL     1       3.414   5.645  -4.220  1.00  0.00    -0.507 OA
ATOM     23  H   UNL     1       3.460   5.690  -3.214  1.00  0.00     0.293 HD
ENDBRANCH   6  22
BRANCH   8  24
ATOM     24  O   UNL     1       5.075   7.917  -8.111  1.00  0.00    -0.508 OA
ATOM     25  H   UNL     1       4.898   8.504  -8.917  1.00  0.00     0.293 HD
ENDBRANCH   8  24
TORSDOF 5
ENDMDL
MODEL 4
REMARK VINA RESULT:    -4.529      2.733      6.991
REMARK INTER + INTRA:          -5.623
REMARK INTER:                  -5.318
REMARK INTRA:                  -0.305
REMARK UNBOUND:                -0.299
REMARK SMILES O=c1cc(-c2ccc(O)c(O)c2)oc2cc(O)cc(O)c12
REMARK SMILES IDX 4 1 3 2 2 3 1 4 21 5 19 6 18 7 16 8 15 9 14 10 13 11 5 12
REMARK SMILES IDX 6 13 7 14 8 15 12 16 10 17 9 18 11 20 20 22 17 24
REMARK H PARENT 9 19 11 21 20 23 17 25
REMARK Flexibility Score: inf
ROOT
ATOM      1  C   UNL     1       3.105   7.868  -5.933  1.00  0.00     0.138 A 
ATOM      2  C   UNL     1       2.630   7.869  -4.614  1.00  0.00     0.100 A 
ATOM      3  C   UNL     1       1.630   6.971  -4.240  1.00  0.00     0.197 A 
ATOM      4  O   UNL     1       1.181   7.037  -3.066  1.00  0.00    -0.289 OA
ATOM      5  C   UNL     1       1.126   6.045  -5.185  1.00  0.00     0.107 A 
ATOM      6  C   UNL     1       0.136   5.057  -4.905  1.00  0.00     0.134 A 
ATOM      7  C   UNL     1      -0.369   4.272  -5.949  1.00  0.00     0.093 A 
ATOM      8  C   UNL     1       0.123   4.400  -7.251  1.00  0.00     0.123 A 
ATOM      9  C   UNL     1       1.128   5.325  -7.523  1.00  0.00     0.094 A 
ATOM     10  C   UNL     1       1.628   6.147  -6.510  1.00  0.00     0.146 A 
ATOM     11  O   UNL     1       2.577   7.026  -6.814  1.00  0.00    -0.456 OA
ENDROOT
BRANCH   1  12
ATOM     12  C   UNL     1       4.168   8.801  -6.384  1.00  0.00     0.021 A 
ATOM     13  C   UNL     1       4.268  10.073  -5.793  1.00  0.00     0.016 A 
ATOM     14  C   UNL     1       5.254  10.972  -6.206  1.00  0.00     0.051 A 
ATOM     15  C   UNL     1       6.150  10.624  -7.220  1.00  0.00     0.157 A 
ATOM     16  C   UNL     1       5.064   8.460  -7.416  1.00  0.00     0.062 A 
ATOM     17  C   UNL     1       6.053   9.364  -7.831  1.00  0.00     0.158 A 
BRANCH  15  18
ATOM     18  O   UNL     1       7.125  11.543  -7.609  1.00  0.00    -0.504 OA
ATOM     19  H   UNL     1       7.260  11.806  -8.578  1.00  0.00     0.293 HD
ENDBRANCH  15  18
BRANCH  17  20
ATOM     20  O   UNL     1       6.937   9.014  -8.851  1.00  0.00    -0.504 OA
ATOM     21  H   UNL     1       6.818   9.356  -9.798  1.00  0.00     0.293 HD
ENDBRANCH  17  20
ENDBRANCH   1  12
BRANCH   6  22
ATOM     22  O   UNL     1      -0.362   4.789  -3.626  1.00  0.00    -0.507 OA
ATOM     23  H   UNL     1      -1.289   4.445  -3.429  1.00  0.00     0.293 HD
ENDBRANCH   6  22
BRANCH   8  24
ATOM     24  O   UNL     1      -0.376   3.605  -8.280  1.00  0.00    -0.508 OA
ATOM     25  H   UNL     1       0.238   3.053  -8.867  1.00  0.00     0.293 HD
ENDBRANCH   8  24
TORSDOF 5
ENDMDL
MODEL 5
REMARK VINA RESULT:    -4.452      2.335      6.594
REMARK INTER + INTRA:          -5.532
REMARK INTER:                  -5.230
REMARK INTRA:                  -0.302
REMARK UNBOUND:                -0.299
REMARK SMILES O=c1cc(-c2ccc(O)c(O)c2)oc2cc(O)cc(O)c12
REMARK SMILES IDX 4 1 3 2 2 3 1 4 21 5 19 6 18 7 16 8 15 9 14 10 13 11 5 12
REMARK SMILES IDX 6 13 7 14 8 15 12 16 10 17 9 18 11 20 20 22 17 24
REMARK H PARENT 9 19 11 21 20 23 17 25
REMARK Flexibility Score: inf
ROOT
ATOM      1  C   UNL     1       2.137  11.428  -5.367  1.00  0.00     0.138 A 
ATOM      2  C   UNL     1       3.430  11.704  -5.834  1.00  0.00     0.100 A 
ATOM      3  C   UNL     1       4.221  10.666  -6.327  1.00  0.00     0.197 A 
ATOM      4  O   UNL     1       5.399  10.934  -6.681  1.00  0.00    -0.289 OA
ATOM      5  C   UNL     1       3.701   9.351  -6.384  1.00  0.00     0.107 A 
ATOM      6  C   UNL     1       4.402   8.222  -6.905  1.00  0.00     0.134 A 
ATOM      7  C   UNL     1       3.830   6.948  -6.802  1.00  0.00     0.093 A 
ATOM      8  C   UNL     1       2.559   6.770  -6.250  1.00  0.00     0.123 A 
ATOM      9  C   UNL     1       1.845   7.873  -5.788  1.00  0.00     0.094 A 
ATOM     10  C   UNL     1       2.402   9.153  -5.845  1.00  0.00     0.146 A 
ATOM     11  O   UNL     1       1.693  10.176  -5.380  1.00  0.00    -0.456 OA
ENDROOT
BRANCH   1  12
ATOM     12  C   UNL     1       1.253  12.494  -4.832  1.00  0.00     0.021 A 
ATOM     13  C   UNL     1       1.815  13.560  -4.107  1.00  0.00     0.016 A 
ATOM     14  C   UNL     1       1.003  14.571  -3.586  1.00  0.00     0.051 A 
ATOM     15  C   UNL     1      -0.381  14.533  -3.771  1.00  0.00     0.157 A 
ATOM     16  C   UNL     1      -0.145  12.453  -5.004  1.00  0.00     0.062 A 
ATOM     17  C   UNL     1      -0.960  13.467  -4.480  1.00  0.00     0.158 A 
BRANCH  15  18
ATOM     18  O   UNL     1      -1.165  15.557  -3.241  1.00  0.00    -0.504 OA
ATOM     19  H   UNL     1      -0.960  15.984  -2.345  1.00  0.00     0.293 HD
ENDBRANCH  15  18
BRANCH  17  20
ATOM     20  O   UNL     1      -2.342  13.417  -4.658  1.00  0.00    -0.504 OA
ATOM     21  H   UNL     1      -2.787  12.650  -5.146  1.00  0.00     0.293 HD
ENDBRANCH  17  20
ENDBRANCH   1  12
BRANCH   6  22
ATOM     22  O   UNL     1       5.639   8.301  -7.551  1.00  0.00    -0.507 OA
ATOM     23  H   UNL     1       6.533   8.326  -7.085  1.00  0.00     0.293 HD
ENDBRANCH   6  22
BRANCH   8  24
ATOM     24  O   UNL     1       1.993   5.500  -6.165  1.00  0.00    -0.508 OA
ATOM     25  H   UNL     1       1.317   5.269  -5.446  1.00  0.00     0.293 HD
ENDBRANCH   8  24
TORSDOF 5
ENDMDL
MODEL 6
REMARK VINA RESULT:    -4.365      2.318      7.200
REMARK INTER + INTRA:          -5.430
REMARK INTER:                  -5.151
REMARK INTRA:                  -0.279
REMARK UNBOUND:                -0.299
REMARK SMILES O=c1cc(-c2ccc(O)c(O)c2)oc2cc(O)cc(O)c12
REMARK SMILES IDX 4 1 3 2 2 3 1 4 21 5 19 6 18 7 16 8 15 9 14 10 13 11 5 12
REMARK SMILES IDX 6 13 7 14 8 15 12 16 10 17 9 18 11 20 20 22 17 24
REMARK H PARENT 9 19 11 21 20 23 17 25
REMARK Flexibility Score: inf
ROOT
ATOM      1  C   UNL     1       3.421   9.327  -6.010  1.00  0.00     0.138 A 
ATOM      2  C   UNL     1       2.562   9.257  -4.905  1.00  0.00     0.100 A 
ATOM      3  C   UNL     1       1.697   8.170  -4.772  1.00  0.00     0.197 A 
ATOM      4  O   UNL     1       0.894   8.165  -3.803  1.00  0.00    -0.289 OA
ATOM      5  C   UNL     1       1.717   7.132  -5.734  1.00  0.00     0.107 A 
ATOM      6  C   UNL     1       0.910   5.957  -5.679  1.00  0.00     0.134 A 
ATOM      7  C   UNL     1       0.932   5.054  -6.749  1.00  0.00     0.093 A 
ATOM      8  C   UNL     1       1.775   5.255  -7.844  1.00  0.00     0.123 A 
ATOM      9  C   UNL     1       2.607   6.371  -7.882  1.00  0.00     0.094 A 
ATOM     10  C   UNL     1       2.583   7.308  -6.847  1.00  0.00     0.146 A 
ATOM     11  O   UNL     1       3.381   8.367  -6.928  1.00  0.00    -0.456 OA
ENDROOT
BRANCH   1  12
ATOM     12  C   UNL     1       4.361  10.460  -6.201  1.00  0.00     0.021 A 
ATOM     13  C   UNL     1       5.677  10.204  -6.625  1.00  0.00     0.016 A 
ATOM     14  C   UNL     1       6.582  11.252  -6.804  1.00  0.00     0.051 A 
ATOM     15  C   UNL     1       6.196  12.571  -6.555  1.00  0.00     0.157 A 
ATOM     16  C   UNL     1       3.981  11.791  -5.937  1.00  0.00     0.062 A 
ATOM     17  C   UNL     1       4.891  12.843  -6.115  1.00  0.00     0.158 A 
BRANCH  15  18
ATOM     18  O   UNL     1       7.123  13.597  -6.744  1.00  0.00    -0.504 OA
ATOM     19  H   UNL     1       7.436  13.876  -7.666  1.00  0.00     0.293 HD
ENDBRANCH  15  18
BRANCH  17  20
ATOM     20  O   UNL     1       4.502  14.157  -5.854  1.00  0.00    -0.504 OA
ATOM     21  H   UNL     1       4.057  14.415  -4.982  1.00  0.00     0.293 HD
ENDBRANCH  17  20
ENDBRANCH   1  12
BRANCH   6  22
ATOM     22  O   UNL     1       0.096   5.619  -4.593  1.00  0.00    -0.507 OA
ATOM     23  H   UNL     1       0.430   5.405  -3.667  1.00  0.00     0.293 HD
ENDBRANCH   6  22
BRANCH   8  24
ATOM     24  O   UNL     1       1.801   4.343  -8.898  1.00  0.00    -0.508 OA
ATOM     25  H   UNL     1       2.040   3.370  -8.750  1.00  0.00     0.293 HD
ENDBRANCH   8  24
TORSDOF 5
ENDMDL
MODEL 7
REMARK VINA RESULT:    -4.357      1.490      1.684
REMARK INTER + INTRA:          -5.421
REMARK INTER:                  -5.152
REMARK INTRA:                  -0.269
REMARK UNBOUND:                -0.299
REMARK SMILES O=c1cc(-c2ccc(O)c(O)c2)oc2cc(O)cc(O)c12
REMARK SMILES IDX 4 1 3 2 2 3 1 4 21 5 19 6 18 7 16 8 15 9 14 10 13 11 5 12
REMARK SMILES IDX 6 13 7 14 8 15 12 16 10 17 9 18 11 20 20 22 17 24
REMARK H PARENT 9 19 11 21 20 23 17 25
REMARK Flexibility Score: inf
ROOT
ATOM      1  C   UNL     1       3.434   8.085  -5.431  1.00  0.00     0.138 A 
ATOM      2  C   UNL     1       4.569   8.043  -6.253  1.00  0.00     0.100 A 
ATOM      3  C   UNL     1       5.143   9.235  -6.696  1.00  0.00     0.197 A 
ATOM      4  O   UNL     1       6.123   9.165  -7.482  1.00  0.00    -0.289 OA
ATOM      5  C   UNL     1       4.597  10.475  -6.286  1.00  0.00     0.107 A 
ATOM      6  C   UNL     1       5.124  11.752  -6.642  1.00  0.00     0.134 A 
ATOM      7  C   UNL     1       4.431  12.911  -6.273  1.00  0.00     0.093 A 
ATOM      8  C   UNL     1       3.262  12.841  -5.511  1.00  0.00     0.123 A 
ATOM      9  C   UNL     1       2.769  11.600  -5.113  1.00  0.00     0.094 A 
ATOM     10  C   UNL     1       3.419  10.424  -5.494  1.00  0.00     0.146 A 
ATOM     11  O   UNL     1       2.908   9.261  -5.105  1.00  0.00    -0.456 OA
ENDROOT
BRANCH   1  12
ATOM     12  C   UNL     1       2.783   6.848  -4.931  1.00  0.00     0.021 A 
ATOM     13  C   UNL     1       3.442   6.057  -3.974  1.00  0.00     0.016 A 
ATOM     14  C   UNL     1       2.854   4.884  -3.494  1.00  0.00     0.051 A 
ATOM     15  C   UNL     1       1.604   4.475  -3.966  1.00  0.00     0.157 A 
ATOM     16  C   UNL     1       1.529   6.424  -5.414  1.00  0.00     0.062 A 
ATOM     17  C   UNL     1       0.939   5.245  -4.933  1.00  0.00     0.158 A 
BRANCH  15  18
ATOM     18  O   UNL     1       1.041   3.300  -3.467  1.00  0.00    -0.504 OA
ATOM     19  H   UNL     1       0.651   3.244  -2.534  1.00  0.00     0.293 HD
ENDBRANCH  15  18
BRANCH  17  20
ATOM     20  O   UNL     1      -0.304   4.836  -5.416  1.00  0.00    -0.504 OA
ATOM     21  H   UNL     1      -0.592   5.025  -6.369  1.00  0.00     0.293 HD
ENDBRANCH  17  20
ENDBRANCH   1  12
BRANCH   6  22
ATOM     22  O   UNL     1       6.328  11.937  -7.328  1.00  0.00    -0.507 OA
ATOM     23  H   UNL     1       7.197  12.219  -6.902  1.00  0.00     0.293 HD
ENDBRANCH   6  22
BRANCH   8  24
ATOM     24  O   UNL     1       2.587  14.000  -5.136  1.00  0.00    -0.508 OA
ATOM     25  H   UNL     1       3.086  14.836  -4.855  1.00  0.00     0.293 HD
ENDBRANCH   8  24
TORSDOF 5
ENDMDL
MODEL 8
REMARK VINA RESULT:    -4.341      2.618      4.357
REMARK INTER + INTRA:          -5.401
REMARK INTER:                  -5.110
REMARK INTRA:                  -0.291
REMARK UNBOUND:                -0.299
REMARK SMILES O=c1cc(-c2ccc(O)c(O)c2)oc2cc(O)cc(O)c12
REMARK SMILES IDX 4 1 3 2 2 3 1 4 21 5 19 6 18 7 16 8 15 9 14 10 13 11 5 12
REMARK SMILES IDX 6 13 7 14 8 15 12 16 10 17 9 18 11 20 20 22 17 24
REMARK H PARENT 9 19 11 21 20 23 17 25
REMARK Flexibility Score: inf
ROOT
ATOM      1  C   UNL     1       1.936  11.072  -5.471  1.00  0.00     0.138 A 
ATOM      2  C   UNL     1       2.864  12.123  -5.492  1.00  0.00     0.100 A 
ATOM      3  C   UNL     1       2.465  13.403  -5.102  1.00  0.00     0.197 A 
ATOM      4  O   UNL     1       3.303  14.337  -5.190  1.00  0.00    -0.289 OA
ATOM      5  C   UNL     1       1.139  13.623  -4.659  1.00  0.00     0.107 A 
ATOM      6  C   UNL     1       0.634  14.875  -4.200  1.00  0.00     0.134 A 
ATOM      7  C   UNL     1      -0.727  15.000  -3.897  1.00  0.00     0.093 A 
ATOM      8  C   UNL     1      -1.588  13.903  -3.979  1.00  0.00     0.123 A 
ATOM      9  C   UNL     1      -1.093  12.663  -4.375  1.00  0.00     0.094 A 
ATOM     10  C   UNL     1       0.253  12.514  -4.718  1.00  0.00     0.146 A 
ATOM     11  O   UNL     1       0.683  11.317  -5.104  1.00  0.00    -0.456 OA
ENDROOT
BRANCH   1  12
ATOM     12  C   UNL     1       2.305   9.692  -5.875  1.00  0.00     0.021 A 
ATOM     13  C   UNL     1       1.539   8.608  -5.414  1.00  0.00     0.016 A 
ATOM     14  C   UNL     1       1.871   7.299  -5.773  1.00  0.00     0.051 A 
ATOM     15  C   UNL     1       2.977   7.049  -6.589  1.00  0.00     0.157 A 
ATOM     16  C   UNL     1       3.429   9.433  -6.685  1.00  0.00     0.062 A 
ATOM     17  C   UNL     1       3.763   8.120  -7.045  1.00  0.00     0.158 A 
BRANCH  15  18
ATOM     18  O   UNL     1       3.283   5.731  -6.932  1.00  0.00    -0.504 OA
ATOM     19  H   UNL     1       4.006   5.205  -6.455  1.00  0.00     0.293 HD
ENDBRANCH  15  18
BRANCH  17  20
ATOM     20  O   UNL     1       4.875   7.875  -7.850  1.00  0.00    -0.504 OA
ATOM     21  H   UNL     1       4.938   8.237  -8.794  1.00  0.00     0.293 HD
ENDBRANCH  17  20
ENDBRANCH   1  12
BRANCH   6  22
ATOM     22  O   UNL     1       1.424  16.011  -4.001  1.00  0.00    -0.507 OA
ATOM     23  H   UNL     1       1.572  16.738  -4.684  1.00  0.00     0.293 HD
ENDBRANCH   6  22
BRANCH   8  24
ATOM     24  O   UNL     1      -2.938  14.033  -3.661  1.00  0.00    -0.508 OA
ATOM     25  H   UNL     1      -3.571  14.565  -4.247  1.00  0.00     0.293 HD
ENDBRANCH   8  24
TORSDOF 5
ENDMDL
MODEL 9
REMARK VINA RESULT:    -4.257      2.721      4.799
REMARK INTER + INTRA:          -5.303
REMARK INTER:                  -4.990
REMARK INTRA:                  -0.313
REMARK UNBOUND:                -0.299
REMARK SMILES O=c1cc(-c2ccc(O)c(O)c2)oc2cc(O)cc(O)c12
REMARK SMILES IDX 4 1 3 2 2 3 1 4 21 5 19 6 18 7 16 8 15 9 14 10 13 11 5 12
REMARK SMILES IDX 6 13 7 14 8 15 12 16 10 17 9 18 11 20 20 22 17 24
REMARK H PARENT 9 19 11 21 20 23 17 25
REMARK Flexibility Score: inf
ROOT
ATOM      1  C   UNL     1       1.799  10.869  -5.424  1.00  0.00     0.138 A 
ATOM      2  C   UNL     1       0.498  11.036  -4.930  1.00  0.00     0.100 A 
ATOM      3  C   UNL     1       0.081  12.295  -4.496  1.00  0.00     0.197 A 
ATOM      4  O   UNL     1      -1.071  12.400  -4.001  1.00  0.00    -0.289 OA
ATOM      5  C   UNL     1       0.962  13.399  -4.588  1.00  0.00     0.107 A 
ATOM      6  C   UNL     1       0.631  14.735  -4.214  1.00  0.00     0.134 A 
ATOM      7  C   UNL     1       1.622  15.724  -4.239  1.00  0.00     0.093 A 
ATOM      8  C   UNL     1       2.916  15.436  -4.681  1.00  0.00     0.123 A 
ATOM      9  C   UNL     1       3.234  14.147  -5.099  1.00  0.00     0.094 A 
ATOM     10  C   UNL     1       2.277  13.130  -5.053  1.00  0.00     0.146 A 
ATOM     11  O   UNL     1       2.625  11.910  -5.448  1.00  0.00    -0.456 OA
ENDROOT
BRANCH   1  12
ATOM     12  C   UNL     1       2.295   9.553  -5.898  1.00  0.00     0.021 A 
ATOM     13  C   UNL     1       1.626   8.380  -5.508  1.00  0.00     0.016 A 
ATOM     14  C   UNL     1       2.077   7.129  -5.935  1.00  0.00     0.051 A 
ATOM     15  C   UNL     1       3.208   7.024  -6.749  1.00  0.00     0.157 A 
ATOM     16  C   UNL     1       3.443   9.442  -6.708  1.00  0.00     0.062 A 
ATOM     17  C   UNL     1       3.897   8.185  -7.135  1.00  0.00     0.158 A 
BRANCH  15  18
ATOM     18  O   UNL     1       3.634   5.761  -7.161  1.00  0.00    -0.504 OA
ATOM     19  H   UNL     1       3.479   5.422  -8.102  1.00  0.00     0.293 HD
ENDBRANCH  15  18
BRANCH  17  20
ATOM     20  O   UNL     1       5.033   8.087  -7.938  1.00  0.00    -0.504 OA
ATOM     21  H   UNL     1       5.935   7.833  -7.555  1.00  0.00     0.293 HD
ENDBRANCH  17  20
ENDBRANCH   1  12
BRANCH   6  22
ATOM     22  O   UNL     1      -0.651  15.147  -3.838  1.00  0.00    -0.507 OA
ATOM     23  H   UNL     1      -0.976  15.226  -2.887  1.00  0.00     0.293 HD
ENDBRANCH   6  22
BRANCH   8  24
ATOM     24  O   UNL     1       3.892  16.430  -4.717  1.00  0.00    -0.508 OA
ATOM     25  H   UNL     1       4.382  16.660  -5.574  1.00  0.00     0.293 HD
ENDBRANCH   8  24
TORSDOF 5
ENDMDL
