MODEL 1
REMARK VINA RESULT:     9.258      0.000      0.000
REMARK INTER + INTRA:          13.785
REMARK INTER:                  13.587
REMARK INTRA:                   0.198
REMARK UNBOUND:                 0.198
REMARK SMILES O=c1c(O[C@H]2O[C@H](CO)[C@@H](O)[C@@H](O)[C@@H]2O)c(-c2ccc(O)c(O)c2)oc2cc(O)cc(O)c12
REMARK SMILES IDX 4 1 3 2 16 3 25 4 2 5 26 6 1 7 33 8 27 9 31 10 28 11 30 12
REMARK SMILES IDX 17 13 18 14 19 15 20 16 24 17 22 18 21 19 23 21 32 23 29 25
REMARK SMILES IDX 5 27 14 28 6 29 12 30 7 31 10 32 15 33 13 35 8 37 9 38 11 40
REMARK H PARENT 21 20 23 22 32 24 29 26 15 34 13 36 9 39 11 41
REMARK Flexibility Score: inf
ROOT
ATOM      1  O   UNL     1      14.776  -2.026  27.557  1.00  0.00    -0.454 OA
ENDROOT
BRANCH   1   2
ATOM      2  C   UNL     1      14.706  -3.331  27.031  1.00  0.00     0.214 A 
ATOM      3  C   UNL     1      15.898  -3.920  26.565  1.00  0.00     0.180 A 
ATOM      4  O   UNL     1      15.895  -5.178  26.140  1.00  0.00    -0.452 OA
ATOM      5  C   UNL     1      13.514  -4.085  26.966  1.00  0.00     0.239 A 
ATOM      6  C   UNL     1      14.804  -5.927  26.077  1.00  0.00     0.146 A 
ATOM      7  O   UNL     1      12.441  -3.591  27.397  1.00  0.00    -0.285 OA
ATOM      8  C   UNL     1      13.540  -5.401  26.443  1.00  0.00     0.111 A 
ATOM      9  C   UNL     1      14.928  -7.252  25.649  1.00  0.00     0.094 A 
ATOM     10  C   UNL     1      12.391  -6.237  26.303  1.00  0.00     0.134 A 
ATOM     11  C   UNL     1      13.811  -8.082  25.592  1.00  0.00     0.123 A 
ATOM     12  C   UNL     1      12.552  -7.575  25.921  1.00  0.00     0.093 A 
BRANCH   3  13
ATOM     13  C   UNL     1      17.190  -3.198  26.585  1.00  0.00     0.025 A 
ATOM     14  C   UNL     1      17.408  -2.151  25.675  1.00  0.00     0.016 A 
ATOM     15  C   UNL     1      18.620  -1.457  25.673  1.00  0.00     0.051 A 
ATOM     16  C   UNL     1      19.631  -1.794  26.583  1.00  0.00     0.157 A 
ATOM     17  C   UNL     1      18.193  -3.510  27.521  1.00  0.00     0.062 A 
ATOM     18  C   UNL     1      19.411  -2.821  27.519  1.00  0.00     0.158 A 
BRANCH  16  19
ATOM     19  O   UNL     1      20.851  -1.118  26.561  1.00  0.00    -0.504 OA
ATOM     20  H   UNL     1      21.701  -1.564  26.233  1.00  0.00     0.293 HD
ENDBRANCH  16  19
BRANCH  18  21
ATOM     21  O   UNL     1      20.390  -3.168  28.449  1.00  0.00    -0.504 OA
ATOM     22  H   UNL     1      21.378  -3.069  28.253  1.00  0.00     0.293 HD
ENDBRANCH  18  21
ENDBRANCH   3  13
BRANCH  10  23
ATOM     23  O   UNL     1      11.079  -5.796  26.501  1.00  0.00    -0.507 OA
ATOM     24  H   UNL     1      10.272  -6.402  26.487  1.00  0.00     0.293 HD
ENDBRANCH  10  23
BRANCH  11  25
ATOM     25  O   UNL     1      13.964  -9.411  25.200  1.00  0.00    -0.508 OA
ATOM     26  H   UNL     1      13.172  -9.980  24.928  1.00  0.00     0.293 HD
ENDBRANCH  11  25
ENDBRANCH   1   2
BRANCH   1  27
ATOM     27  C   UNL     1      14.914  -0.804  26.831  1.00  0.00     0.339 C 
ATOM     28  C   UNL     1      15.792   0.157  27.686  1.00  0.00     0.214 C 
ATOM     29  O   UNL     1      13.613  -0.290  26.569  1.00  0.00    -0.332 OA
ATOM     30  C   UNL     1      15.001   1.398  28.122  1.00  0.00     0.180 C 
ATOM     31  C   UNL     1      13.623   1.013  25.996  1.00  0.00     0.179 C 
ATOM     32  C   UNL     1      14.374   2.055  26.881  1.00  0.00     0.177 C 
BRANCH  28  33
ATOM     33  O   UNL     1      16.921   0.565  26.956  1.00  0.00    -0.384 OA
ATOM     34  H   UNL     1      16.744   0.342  26.004  1.00  0.00     0.211 HD
ENDBRANCH  28  33
BRANCH  30  35
ATOM     35  O   UNL     1      14.001   1.033  29.042  1.00  0.00    -0.387 OA
ATOM     36  H   UNL     1      14.368   1.209  29.948  1.00  0.00     0.211 HD
ENDBRANCH  30  35
BRANCH  31  37
ATOM     37  C   UNL     1      14.127   1.005  24.537  1.00  0.00     0.191 C 
BRANCH  37  38
ATOM     38  O   UNL     1      13.683  -0.140  23.860  1.00  0.00    -0.394 OA
ATOM     39  H   UNL     1      14.491  -0.586  23.496  1.00  0.00     0.210 HD
ENDBRANCH  37  38
ENDBRANCH  31  37
BRANCH  32  40
ATOM     40  O   UNL     1      13.536   3.125  27.246  1.00  0.00    -0.387 OA
ATOM     41  H   UNL     1      13.357   3.668  26.434  1.00  0.00     0.211 HD
ENDBRANCH  32  40
ENDBRANCH   1  27
TORSDOF 12
ENDMDL
MODEL 2
REMARK VINA RESULT:     9.545      0.976      2.048
REMARK INTER + INTRA:          14.207
REMARK INTER:                  14.911
REMARK INTRA:                  -0.704
REMARK UNBOUND:                 0.198
REMARK SMILES O=c1c(O[C@H]2O[C@H](CO)[C@@H](O)[C@@H](O)[C@@H]2O)c(-c2ccc(O)c(O)c2)oc2cc(O)cc(O)c12
REMARK SMILES IDX 4 1 3 2 16 3 25 4 2 5 26 6 1 7 33 8 27 9 31 10 28 11 30 12
REMARK SMILES IDX 17 13 18 14 19 15 20 16 24 17 22 18 21 19 23 21 32 23 29 25
REMARK SMILES IDX 5 27 14 28 6 29 12 30 7 31 10 32 15 33 13 35 8 37 9 38 11 40
REMARK H PARENT 21 20 23 22 32 24 29 26 15 34 13 36 9 39 11 41
REMARK Flexibility Score: inf
ROOT
ATOM      1  O   UNL     1      15.342  -1.825  27.915  1.00  0.00    -0.454 OA
ENDROOT
BRANCH   1   2
ATOM      2  C   UNL     1      15.149  -3.066  27.277  1.00  0.00     0.214 A 
ATOM      3  C   UNL     1      16.264  -3.678  26.672  1.00  0.00     0.180 A 
ATOM      4  O   UNL     1      16.148  -4.886  26.134  1.00  0.00    -0.452 OA
ATOM      5  C   UNL     1      13.907  -3.737  27.232  1.00  0.00     0.239 A 
ATOM      6  C   UNL     1      15.007  -5.559  26.083  1.00  0.00     0.146 A 
ATOM      7  O   UNL     1      12.902  -3.223  27.785  1.00  0.00    -0.285 OA
ATOM      8  C   UNL     1      13.809  -4.995  26.590  1.00  0.00     0.111 A 
ATOM      9  C   UNL     1      15.012  -6.841  25.527  1.00  0.00     0.094 A 
ATOM     10  C   UNL     1      12.599  -5.743  26.458  1.00  0.00     0.134 A 
ATOM     11  C   UNL     1      13.840  -7.592  25.477  1.00  0.00     0.123 A 
ATOM     12  C   UNL     1      12.644  -7.045  25.944  1.00  0.00     0.093 A 
BRANCH   3  13
ATOM     13  C   UNL     1      17.600  -3.040  26.662  1.00  0.00     0.025 A 
ATOM     14  C   UNL     1      17.855  -1.989  25.768  1.00  0.00     0.016 A 
ATOM     15  C   UNL     1      19.108  -1.374  25.738  1.00  0.00     0.051 A 
ATOM     16  C   UNL     1      20.126  -1.796  26.605  1.00  0.00     0.157 A 
ATOM     17  C   UNL     1      18.611  -3.438  27.556  1.00  0.00     0.062 A 
ATOM     18  C   UNL     1      19.870  -2.828  27.526  1.00  0.00     0.158 A 
BRANCH  16  19
ATOM     19  O   UNL     1      21.385  -1.199  26.555  1.00  0.00    -0.504 OA
ATOM     20  H   UNL     1      22.123  -1.458  27.200  1.00  0.00     0.293 HD
ENDBRANCH  16  19
BRANCH  18  21
ATOM     21  O   UNL     1      20.855  -3.259  28.415  1.00  0.00    -0.504 OA
ATOM     22  H   UNL     1      20.629  -3.727  29.283  1.00  0.00     0.293 HD
ENDBRANCH  18  21
ENDBRANCH   3  13
BRANCH  10  23
ATOM     23  O   UNL     1      11.337  -5.245  26.793  1.00  0.00    -0.507 OA
ATOM     24  H   UNL     1      11.022  -5.094  27.739  1.00  0.00     0.293 HD
ENDBRANCH  10  23
BRANCH  11  25
ATOM     25  O   UNL     1      13.877  -8.884  24.954  1.00  0.00    -0.508 OA
ATOM     26  H   UNL     1      14.565  -9.562  25.258  1.00  0.00     0.293 HD
ENDBRANCH  11  25
ENDBRANCH   1   2
BRANCH   1  27
ATOM     27  C   UNL     1      14.566  -0.636  27.753  1.00  0.00     0.339 C 
ATOM     28  C   UNL     1      14.073  -0.593  26.276  1.00  0.00     0.214 C 
ATOM     29  O   UNL     1      15.377   0.479  28.106  1.00  0.00    -0.332 OA
ATOM     30  C   UNL     1      14.664   0.608  25.525  1.00  0.00     0.180 C 
ATOM     31  C   UNL     1      14.768   1.734  27.825  1.00  0.00     0.179 C 
ATOM     32  C   UNL     1      14.376   1.891  26.323  1.00  0.00     0.177 C 
BRANCH  28  33
ATOM     33  O   UNL     1      12.670  -0.517  26.233  1.00  0.00    -0.384 OA
ATOM     34  H   UNL     1      12.415  -0.455  25.274  1.00  0.00     0.211 HD
ENDBRANCH  28  33
BRANCH  30  35
ATOM     35  O   UNL     1      16.050   0.436  25.356  1.00  0.00    -0.387 OA
ATOM     36  H   UNL     1      16.186  -0.494  25.036  1.00  0.00     0.211 HD
ENDBRANCH  30  35
BRANCH  31  37
ATOM     37  C   UNL     1      13.592   2.039  28.776  1.00  0.00     0.191 C 
BRANCH  37  38
ATOM     38  O   UNL     1      14.033   2.738  29.910  1.00  0.00    -0.394 OA
ATOM     39  H   UNL     1      15.012   2.586  29.973  1.00  0.00     0.210 HD
ENDBRANCH  37  38
ENDBRANCH  31  37
BRANCH  32  40
ATOM     40  O   UNL     1      15.007   3.003  25.735  1.00  0.00    -0.387 OA
ATOM     41  H   UNL     1      15.847   2.689  25.307  1.00  0.00     0.211 HD
ENDBRANCH  32  40
ENDBRANCH   1  27
TORSDOF 12
ENDMDL
MODEL 3
REMARK VINA RESULT:    10.783      6.115     10.807
REMARK INTER + INTRA:          16.024
REMARK INTER:                  15.551
REMARK INTRA:                   0.473
REMARK UNBOUND:                 0.198
REMARK SMILES O=c1c(O[C@H]2O[C@H](CO)[C@@H](O)[C@@H](O)[C@@H]2O)c(-c2ccc(O)c(O)c2)oc2cc(O)cc(O)c12
REMARK SMILES IDX 4 1 3 2 16 3 25 4 2 5 26 6 1 7 33 8 27 9 31 10 28 11 30 12
REMARK SMILES IDX 17 13 18 14 19 15 20 16 24 17 22 18 21 19 23 21 32 23 29 25
REMARK SMILES IDX 5 27 14 28 6 29 12 30 7 31 10 32 15 33 13 35 8 37 9 38 11 40
REMARK H PARENT 21 20 23 22 32 24 29 26 15 34 13 36 9 39 11 41
REMARK Flexibility Score: inf
ROOT
ATOM      1  O   UNL     1      12.289 -10.399  29.252  1.00  0.00    -0.454 OA
ENDROOT
BRANCH   1   2
ATOM      2  C   UNL     1      12.834  -9.957  28.030  1.00  0.00     0.214 A 
ATOM      3  C   UNL     1      13.591 -10.873  27.275  1.00  0.00     0.180 A 
ATOM      4  O   UNL     1      14.052 -10.528  26.079  1.00  0.00    -0.452 OA
ATOM      5  C   UNL     1      12.643  -8.656  27.513  1.00  0.00     0.239 A 
ATOM      6  C   UNL     1      13.883  -9.325  25.548  1.00  0.00     0.146 A 
ATOM      7  O   UNL     1      11.952  -7.827  28.157  1.00  0.00    -0.285 OA
ATOM      8  C   UNL     1      13.207  -8.305  26.263  1.00  0.00     0.111 A 
ATOM      9  C   UNL     1      14.379  -9.087  24.264  1.00  0.00     0.094 A 
ATOM     10  C   UNL     1      13.104  -7.013  25.665  1.00  0.00     0.134 A 
ATOM     11  C   UNL     1      14.202  -7.845  23.658  1.00  0.00     0.123 A 
ATOM     12  C   UNL     1      13.564  -6.818  24.356  1.00  0.00     0.093 A 
BRANCH   3  13
ATOM     13  C   UNL     1      13.851 -12.253  27.746  1.00  0.00     0.025 A 
ATOM     14  C   UNL     1      13.824 -12.528  29.122  1.00  0.00     0.016 A 
ATOM     15  C   UNL     1      14.068 -13.820  29.590  1.00  0.00     0.051 A 
ATOM     16  C   UNL     1      14.339 -14.861  28.690  1.00  0.00     0.157 A 
ATOM     17  C   UNL     1      14.087 -13.306  26.843  1.00  0.00     0.062 A 
ATOM     18  C   UNL     1      14.337 -14.602  27.308  1.00  0.00     0.158 A 
BRANCH  16  19
ATOM     19  O   UNL     1      14.610 -16.145  29.162  1.00  0.00    -0.504 OA
ATOM     20  H   UNL     1      13.914 -16.882  29.129  1.00  0.00     0.293 HD
ENDBRANCH  16  19
BRANCH  18  21
ATOM     21  O   UNL     1      14.585 -15.619  26.386  1.00  0.00    -0.504 OA
ATOM     22  H   UNL     1      15.228 -15.499  25.613  1.00  0.00     0.293 HD
ENDBRANCH  18  21
ENDBRANCH   3  13
BRANCH  10  23
ATOM     23  O   UNL     1      12.584  -5.892  26.319  1.00  0.00    -0.507 OA
ATOM     24  H   UNL     1      13.067  -5.389  27.047  1.00  0.00     0.293 HD
ENDBRANCH  10  23
BRANCH  11  25
ATOM     25  O   UNL     1      14.669  -7.642  22.361  1.00  0.00    -0.508 OA
ATOM     26  H   UNL     1      14.041  -7.622  21.566  1.00  0.00     0.293 HD
ENDBRANCH  11  25
ENDBRANCH   1   2
BRANCH   1  27
ATOM     27  C   UNL     1      10.934 -10.770  29.513  1.00  0.00     0.339 C 
ATOM     28  C   UNL     1      10.923 -12.284  29.883  1.00  0.00     0.214 C 
ATOM     29  O   UNL     1      10.158 -10.469  28.359  1.00  0.00    -0.332 OA
ATOM     30  C   UNL     1      10.144 -13.106  28.847  1.00  0.00     0.180 C 
ATOM     31  C   UNL     1       8.820 -10.949  28.436  1.00  0.00     0.179 C 
ATOM     32  C   UNL     1       8.745 -12.490  28.668  1.00  0.00     0.177 C 
BRANCH  28  33
ATOM     33  O   UNL     1      10.344 -12.472  31.149  1.00  0.00    -0.384 OA
ATOM     34  H   UNL     1       9.990 -13.400  31.168  1.00  0.00     0.211 HD
ENDBRANCH  28  33
BRANCH  30  35
ATOM     35  O   UNL     1      10.835 -13.118  27.622  1.00  0.00    -0.387 OA
ATOM     36  H   UNL     1      11.423 -12.318  27.617  1.00  0.00     0.211 HD
ENDBRANCH  30  35
BRANCH  31  37
ATOM     37  C   UNL     1       7.972 -10.158  29.454  1.00  0.00     0.191 C 
BRANCH  37  38
ATOM     38  O   UNL     1       8.249 -10.574  30.766  1.00  0.00    -0.394 OA
ATOM     39  H   UNL     1       8.335  -9.750  31.312  1.00  0.00     0.210 HD
ENDBRANCH  37  38
ENDBRANCH  31  37
BRANCH  32  40
ATOM     40  O   UNL     1       8.039 -13.137  27.636  1.00  0.00    -0.387 OA
ATOM     41  H   UNL     1       7.999 -14.106  27.850  1.00  0.00     0.211 HD
ENDBRANCH  32  40
ENDBRANCH   1  27
TORSDOF 12
ENDMDL
