MODEL 1
REMARK VINA RESULT:    -4.363      0.000      0.000
REMARK INTER + INTRA:         -13.776
REMARK INTER:                  -9.974
REMARK INTRA:                  -3.802
REMARK UNBOUND:                -3.802
REMARK SMILES CCCCCCCCCCCCCCCCCCCCCCCC(=O)[O-]
REMARK SMILES IDX 13 1 14 2 15 3 16 4 17 5 18 6 19 7 20 8 21 9 22 10 23 11
REMARK SMILES IDX 24 12 25 13 26 14 12 15 11 16 10 17 9 18 8 19 7 20 6 21 5 22
REMARK SMILES IDX 4 23 3 24 2 25 1 26
REMARK H PARENT
REMARK Flexibility Score: inf
ROOT
ATOM      1  C   UNL     1     -12.487   4.164   8.889  1.00  0.00     0.000 C 
ENDROOT
BRANCH   1   2
ATOM      2  C   UNL     1     -10.964   4.023   8.719  1.00  0.00     0.000 C 
BRANCH   2   3
ATOM      3  C   UNL     1     -10.283   5.343   8.320  1.00  0.00     0.000 C 
BRANCH   3   4
ATOM      4  C   UNL     1      -9.766   5.395   6.868  1.00  0.00     0.000 C 
BRANCH   4   5
ATOM      5  C   UNL     1     -10.827   5.748   5.804  1.00  0.00     0.000 C 
BRANCH   5   6
ATOM      6  C   UNL     1     -11.545   4.543   5.169  1.00  0.00     0.000 C 
BRANCH   6   7
ATOM      7  C   UNL     1     -13.083   4.601   5.221  1.00  0.00     0.000 C 
BRANCH   7   8
ATOM      8  C   UNL     1     -13.680   5.896   4.630  1.00  0.00     0.000 C 
BRANCH   8   9
ATOM      9  C   UNL     1     -14.049   5.754   3.145  1.00  0.00     0.000 C 
BRANCH   9  10
ATOM     10  C   UNL     1     -14.420   7.113   2.539  1.00  0.00     0.006 C 
BRANCH  10  11
ATOM     11  C   UNL     1     -14.391   8.216   3.600  1.00  0.00     0.053 C 
BRANCH  11  12
ATOM     12  C   UNL     1     -14.015   9.527   2.982  1.00  0.00     0.041 C 
ATOM     13  O   UNL     1     -14.082  10.589   3.655  1.00  0.00    -0.550 OA
ATOM     14  O   UNL     1     -13.640   9.581   1.645  1.00  0.00    -0.550 OA
ENDBRANCH  11  12
ENDBRANCH  10  11
ENDBRANCH   9  10
ENDBRANCH   8   9
ENDBRANCH   7   8
ENDBRANCH   6   7
ENDBRANCH   5   6
ENDBRANCH   4   5
ENDBRANCH   3   4
ENDBRANCH   2   3
ENDBRANCH   1   2
BRANCH   1  15
ATOM     15  C   UNL     1     -12.921   5.629   9.120  1.00  0.00     0.000 C 
BRANCH  15  16
ATOM     16  C   UNL     1     -14.185   6.036   8.339  1.00  0.00     0.000 C 
BRANCH  16  17
ATOM     17  C   UNL     1     -14.229   7.508   7.898  1.00  0.00     0.000 C 
BRANCH  17  18
ATOM     18  C   UNL     1     -12.845   8.175   7.903  1.00  0.00    -0.000 C 
BRANCH  18  19
ATOM     19  C   UNL     1     -12.583   8.911   6.581  1.00  0.00    -0.000 C 
BRANCH  19  20
ATOM     20  C   UNL     1     -11.136   9.418   6.449  1.00  0.00    -0.000 C 
BRANCH  20  21
ATOM     21  C   UNL     1     -10.994  10.930   6.199  1.00  0.00    -0.000 C 
BRANCH  21  22
ATOM     22  C   UNL     1     -10.024  11.612   7.179  1.00  0.00    -0.000 C 
BRANCH  22  23
ATOM     23  C   UNL     1      -8.609  11.013   7.109  1.00  0.00    -0.000 C 
BRANCH  23  24
ATOM     24  C   UNL     1      -7.955  11.216   5.731  1.00  0.00    -0.000 C 
BRANCH  24  25
ATOM     25  C   UNL     1      -7.156   9.984   5.276  1.00  0.00    -0.003 C 
ATOM     26  C   UNL     1      -8.017   8.722   5.196  1.00  0.00     0.004 C 
ENDBRANCH  24  25
ENDBRANCH  23  24
ENDBRANCH  22  23
ENDBRANCH  21  22
ENDBRANCH  20  21
ENDBRANCH  19  20
ENDBRANCH  18  19
ENDBRANCH  17  18
ENDBRANCH  16  17
ENDBRANCH  15  16
ENDBRANCH   1  15
TORSDOF 22
ENDMDL
MODEL 2
REMARK VINA RESULT:    -4.253      2.517      5.318
REMARK INTER + INTRA:         -13.523
REMARK INTER:                 -10.657
REMARK INTRA:                  -2.867
REMARK UNBOUND:                -3.802
REMARK SMILES CCCCCCCCCCCCCCCCCCCCCCCC(=O)[O-]
REMARK SMILES IDX 13 1 14 2 15 3 16 4 17 5 18 6 19 7 20 8 21 9 22 10 23 11
REMARK SMILES IDX 24 12 25 13 26 14 12 15 11 16 10 17 9 18 8 19 7 20 6 21 5 22
REMARK SMILES IDX 4 23 3 24 2 25 1 26
REMARK H PARENT
REMARK Flexibility Score: inf
ROOT
ATOM      1  C   UNL     1     -11.365   3.203   6.809  1.00  0.00     0.000 C 
ENDROOT
BRANCH   1   2
ATOM      2  C   UNL     1     -11.194   3.647   8.273  1.00  0.00     0.000 C 
BRANCH   2   3
ATOM      3  C   UNL     1     -10.717   5.104   8.403  1.00  0.00     0.000 C 
BRANCH   3   4
ATOM      4  C   UNL     1      -9.854   5.612   7.231  1.00  0.00     0.000 C 
BRANCH   4   5
ATOM      5  C   UNL     1     -10.405   6.852   6.496  1.00  0.00     0.000 C 
BRANCH   5   6
ATOM      6  C   UNL     1     -11.782   7.343   6.980  1.00  0.00     0.000 C 
BRANCH   6   7
ATOM      7  C   UNL     1     -12.219   8.710   6.421  1.00  0.00     0.000 C 
BRANCH   7   8
ATOM      8  C   UNL     1     -11.232   9.856   6.729  1.00  0.00     0.000 C 
BRANCH   8   9
ATOM      9  C   UNL     1     -10.945  10.736   5.502  1.00  0.00     0.000 C 
BRANCH   9  10
ATOM     10  C   UNL     1      -9.462  11.123   5.439  1.00  0.00     0.006 C 
BRANCH  10  11
ATOM     11  C   UNL     1      -8.666  10.438   6.552  1.00  0.00     0.053 C 
BRANCH  11  12
ATOM     12  C   UNL     1      -7.611   9.549   5.970  1.00  0.00     0.041 C 
ATOM     13  O   UNL     1      -6.426   9.607   6.394  1.00  0.00    -0.550 OA
ATOM     14  O   UNL     1      -7.926   8.694   4.922  1.00  0.00    -0.550 OA
ENDBRANCH  11  12
ENDBRANCH  10  11
ENDBRANCH   9  10
ENDBRANCH   8   9
ENDBRANCH   7   8
ENDBRANCH   6   7
ENDBRANCH   5   6
ENDBRANCH   4   5
ENDBRANCH   3   4
ENDBRANCH   2   3
ENDBRANCH   1   2
BRANCH   1  15
ATOM     15  C   UNL     1     -12.617   3.821   6.148  1.00  0.00     0.000 C 
BRANCH  15  16
ATOM     16  C   UNL     1     -12.368   4.375   4.733  1.00  0.00     0.000 C 
BRANCH  16  17
ATOM     17  C   UNL     1     -13.609   4.950   4.032  1.00  0.00     0.000 C 
BRANCH  17  18
ATOM     18  C   UNL     1     -14.304   6.047   4.853  1.00  0.00    -0.000 C 
BRANCH  18  19
ATOM     19  C   UNL     1     -15.003   7.062   3.936  1.00  0.00    -0.000 C 
BRANCH  19  20
ATOM     20  C   UNL     1     -14.361   7.155   2.541  1.00  0.00    -0.000 C 
BRANCH  20  21
ATOM     21  C   UNL     1     -14.005   8.579   2.079  1.00  0.00    -0.000 C 
BRANCH  21  22
ATOM     22  C   UNL     1     -13.982   9.597   3.232  1.00  0.00    -0.000 C 
BRANCH  22  23
ATOM     23  C   UNL     1     -14.421  11.000   2.780  1.00  0.00    -0.000 C 
BRANCH  23  24
ATOM     24  C   UNL     1     -13.756  11.423   1.457  1.00  0.00    -0.000 C 
BRANCH  24  25
ATOM     25  C   UNL     1     -12.235  11.199   1.469  1.00  0.00    -0.003 C 
ATOM     26  C   UNL     1     -11.687  10.813   0.094  1.00  0.00     0.004 C 
ENDBRANCH  24  25
ENDBRANCH  23  24
ENDBRANCH  22  23
ENDBRANCH  21  22
ENDBRANCH  20  21
ENDBRANCH  19  20
ENDBRANCH  18  19
ENDBRANCH  17  18
ENDBRANCH  16  17
ENDBRANCH  15  16
ENDBRANCH   1  15
TORSDOF 22
ENDMDL
MODEL 3
REMARK VINA RESULT:    -4.243      1.447      4.157
REMARK INTER + INTRA:         -13.502
REMARK INTER:                 -10.019
REMARK INTRA:                  -3.483
REMARK UNBOUND:                -3.802
REMARK SMILES CCCCCCCCCCCCCCCCCCCCCCCC(=O)[O-]
REMARK SMILES IDX 13 1 14 2 15 3 16 4 17 5 18 6 19 7 20 8 21 9 22 10 23 11
REMARK SMILES IDX 24 12 25 13 26 14 12 15 11 16 10 17 9 18 8 19 7 20 6 21 5 22
REMARK SMILES IDX 4 23 3 24 2 25 1 26
REMARK H PARENT
REMARK Flexibility Score: inf
ROOT
ATOM      1  C   UNL     1     -13.099   4.618   5.733  1.00  0.00     0.000 C 
ENDROOT
BRANCH   1   2
ATOM      2  C   UNL     1     -12.865   6.035   5.180  1.00  0.00     0.000 C 
BRANCH   2   3
ATOM      3  C   UNL     1     -14.154   6.871   5.116  1.00  0.00     0.000 C 
BRANCH   3   4
ATOM      4  C   UNL     1     -14.025   8.307   5.664  1.00  0.00     0.000 C 
BRANCH   4   5
ATOM      5  C   UNL     1     -13.458   8.417   7.095  1.00  0.00     0.000 C 
BRANCH   5   6
ATOM      6  C   UNL     1     -12.099   9.133   7.208  1.00  0.00     0.000 C 
BRANCH   6   7
ATOM      7  C   UNL     1     -12.042  10.526   6.554  1.00  0.00     0.000 C 
BRANCH   7   8
ATOM      8  C   UNL     1     -11.025  10.632   5.397  1.00  0.00     0.000 C 
BRANCH   8   9
ATOM      9  C   UNL     1     -11.457  11.639   4.320  1.00  0.00     0.000 C 
BRANCH   9  10
ATOM     10  C   UNL     1     -12.792  11.227   3.686  1.00  0.00     0.006 C 
BRANCH  10  11
ATOM     11  C   UNL     1     -12.906  11.751   2.252  1.00  0.00     0.053 C 
BRANCH  11  12
ATOM     12  C   UNL     1     -12.599  10.663   1.271  1.00  0.00     0.041 C 
ATOM     13  O   UNL     1     -11.666  10.805   0.437  1.00  0.00    -0.550 OA
ATOM     14  O   UNL     1     -13.378   9.514   1.244  1.00  0.00    -0.550 OA
ENDBRANCH  11  12
ENDBRANCH  10  11
ENDBRANCH   9  10
ENDBRANCH   8   9
ENDBRANCH   7   8
ENDBRANCH   6   7
ENDBRANCH   5   6
ENDBRANCH   4   5
ENDBRANCH   3   4
ENDBRANCH   2   3
ENDBRANCH   1   2
BRANCH   1  15
ATOM     15  C   UNL     1     -13.829   4.629   7.095  1.00  0.00     0.000 C 
BRANCH  15  16
ATOM     16  C   UNL     1     -12.930   5.022   8.282  1.00  0.00     0.000 C 
BRANCH  16  17
ATOM     17  C   UNL     1     -12.027   3.897   8.813  1.00  0.00     0.000 C 
BRANCH  17  18
ATOM     18  C   UNL     1     -10.533   4.250   8.751  1.00  0.00    -0.000 C 
BRANCH  18  19
ATOM     19  C   UNL     1     -10.311   5.577   8.009  1.00  0.00    -0.000 C 
BRANCH  19  20
ATOM     20  C   UNL     1      -9.523   5.410   6.698  1.00  0.00    -0.000 C 
BRANCH  20  21
ATOM     21  C   UNL     1      -9.476   6.659   5.800  1.00  0.00    -0.000 C 
BRANCH  21  22
ATOM     22  C   UNL     1      -8.591   7.779   6.373  1.00  0.00    -0.000 C 
BRANCH  22  23
ATOM     23  C   UNL     1      -8.013   8.684   5.272  1.00  0.00    -0.000 C 
BRANCH  23  24
ATOM     24  C   UNL     1      -7.000   9.704   5.824  1.00  0.00    -0.000 C 
BRANCH  24  25
ATOM     25  C   UNL     1      -7.310  11.140   5.372  1.00  0.00    -0.003 C 
ATOM     26  C   UNL     1      -7.599  12.076   6.547  1.00  0.00     0.004 C 
ENDBRANCH  24  25
ENDBRANCH  23  24
ENDBRANCH  22  23
ENDBRANCH  21  22
ENDBRANCH  20  21
ENDBRANCH  19  20
ENDBRANCH  18  19
ENDBRANCH  17  18
ENDBRANCH  16  17
ENDBRANCH  15  16
ENDBRANCH   1  15
TORSDOF 22
ENDMDL
MODEL 4
REMARK VINA RESULT:    -4.212      3.713      7.154
REMARK INTER + INTRA:         -13.431
REMARK INTER:                 -10.828
REMARK INTRA:                  -2.603
REMARK UNBOUND:                -3.802
REMARK SMILES CCCCCCCCCCCCCCCCCCCCCCCC(=O)[O-]
REMARK SMILES IDX 13 1 14 2 15 3 16 4 17 5 18 6 19 7 20 8 21 9 22 10 23 11
REMARK SMILES IDX 24 12 25 13 26 14 12 15 11 16 10 17 9 18 8 19 7 20 6 21 5 22
REMARK SMILES IDX 4 23 3 24 2 25 1 26
REMARK H PARENT
REMARK Flexibility Score: inf
ROOT
ATOM      1  C   UNL     1     -11.616   3.874   6.212  1.00  0.00     0.000 C 
ENDROOT
BRANCH   1   2
ATOM      2  C   UNL     1     -10.862   4.950   5.411  1.00  0.00     0.000 C 
BRANCH   2   3
ATOM      3  C   UNL     1      -9.541   5.373   6.076  1.00  0.00     0.000 C 
BRANCH   3   4
ATOM      4  C   UNL     1      -9.481   6.847   6.524  1.00  0.00     0.000 C 
BRANCH   4   5
ATOM      5  C   UNL     1      -8.737   7.798   5.562  1.00  0.00     0.000 C 
BRANCH   5   6
ATOM      6  C   UNL     1      -7.950   8.934   6.241  1.00  0.00     0.000 C 
BRANCH   6   7
ATOM      7  C   UNL     1      -7.283   9.930   5.275  1.00  0.00     0.000 C 
BRANCH   7   8
ATOM      8  C   UNL     1      -6.777  11.220   5.957  1.00  0.00     0.000 C 
BRANCH   8   9
ATOM      9  C   UNL     1      -5.552  10.973   6.852  1.00  0.00     0.000 C 
BRANCH   9  10
ATOM     10  C   UNL     1      -4.310  10.656   6.010  1.00  0.00     0.006 C 
BRANCH  10  11
ATOM     11  C   UNL     1      -3.444  11.903   5.815  1.00  0.00     0.053 C 
BRANCH  11  12
ATOM     12  C   UNL     1      -2.587  11.760   4.597  1.00  0.00     0.041 C 
ATOM     13  O   UNL     1      -1.334  11.678   4.707  1.00  0.00    -0.550 OA
ATOM     14  O   UNL     1      -3.168  11.770   3.336  1.00  0.00    -0.550 OA
ENDBRANCH  11  12
ENDBRANCH  10  11
ENDBRANCH   9  10
ENDBRANCH   8   9
ENDBRANCH   7   8
ENDBRANCH   6   7
ENDBRANCH   5   6
ENDBRANCH   4   5
ENDBRANCH   3   4
ENDBRANCH   2   3
ENDBRANCH   1   2
BRANCH   1  15
ATOM     15  C   UNL     1     -10.996   3.634   7.607  1.00  0.00     0.000 C 
BRANCH  15  16
ATOM     16  C   UNL     1     -11.858   4.156   8.772  1.00  0.00     0.000 C 
BRANCH  16  17
ATOM     17  C   UNL     1     -12.174   5.660   8.723  1.00  0.00     0.000 C 
BRANCH  17  18
ATOM     18  C   UNL     1     -13.661   5.949   8.463  1.00  0.00    -0.000 C 
BRANCH  18  19
ATOM     19  C   UNL     1     -13.926   7.461   8.407  1.00  0.00    -0.000 C 
BRANCH  19  20
ATOM     20  C   UNL     1     -12.796   8.245   7.718  1.00  0.00    -0.000 C 
BRANCH  20  21
ATOM     21  C   UNL     1     -12.695   8.045   6.196  1.00  0.00    -0.000 C 
BRANCH  21  22
ATOM     22  C   UNL     1     -13.759   8.834   5.413  1.00  0.00    -0.000 C 
BRANCH  22  23
ATOM     23  C   UNL     1     -14.798   7.912   4.752  1.00  0.00    -0.000 C 
BRANCH  23  24
ATOM     24  C   UNL     1     -14.410   6.425   4.854  1.00  0.00    -0.000 C 
BRANCH  24  25
ATOM     25  C   UNL     1     -14.172   5.788   3.476  1.00  0.00    -0.003 C 
ATOM     26  C   UNL     1     -14.295   6.797   2.332  1.00  0.00     0.004 C 
ENDBRANCH  24  25
ENDBRANCH  23  24
ENDBRANCH  22  23
ENDBRANCH  21  22
ENDBRANCH  20  21
ENDBRANCH  19  20
ENDBRANCH  18  19
ENDBRANCH  17  18
ENDBRANCH  16  17
ENDBRANCH  15  16
ENDBRANCH   1  15
TORSDOF 22
ENDMDL
MODEL 5
REMARK VINA RESULT:    -4.173      1.408      5.688
REMARK INTER + INTRA:         -13.342
REMARK INTER:                  -9.587
REMARK INTRA:                  -3.755
REMARK UNBOUND:                -3.802
REMARK SMILES CCCCCCCCCCCCCCCCCCCCCCCC(=O)[O-]
REMARK SMILES IDX 13 1 14 2 15 3 16 4 17 5 18 6 19 7 20 8 21 9 22 10 23 11
REMARK SMILES IDX 24 12 25 13 26 14 12 15 11 16 10 17 9 18 8 19 7 20 6 21 5 22
REMARK SMILES IDX 4 23 3 24 2 25 1 26
REMARK H PARENT
REMARK Flexibility Score: inf
ROOT
ATOM      1  C   UNL     1      -7.768   9.245   5.168  1.00  0.00     0.000 C 
ENDROOT
BRANCH   1   2
ATOM      2  C   UNL     1      -7.713  10.735   5.549  1.00  0.00     0.000 C 
BRANCH   2   3
ATOM      3  C   UNL     1      -8.580  11.071   6.774  1.00  0.00     0.000 C 
BRANCH   3   4
ATOM      4  C   UNL     1      -9.797  11.971   6.481  1.00  0.00     0.000 C 
BRANCH   4   5
ATOM      5  C   UNL     1     -11.090  11.597   7.237  1.00  0.00     0.000 C 
BRANCH   5   6
ATOM      6  C   UNL     1     -11.576  10.151   7.027  1.00  0.00     0.000 C 
BRANCH   6   7
ATOM      7  C   UNL     1     -12.058   9.827   5.601  1.00  0.00     0.000 C 
BRANCH   7   8
ATOM      8  C   UNL     1     -13.517  10.250   5.323  1.00  0.00     0.000 C 
BRANCH   8   9
ATOM      9  C   UNL     1     -14.130   9.506   4.126  1.00  0.00     0.000 C 
BRANCH   9  10
ATOM     10  C   UNL     1     -14.286  10.441   2.919  1.00  0.00     0.006 C 
BRANCH  10  11
ATOM     11  C   UNL     1     -13.499   9.920   1.714  1.00  0.00     0.053 C 
BRANCH  11  12
ATOM     12  C   UNL     1     -12.368  10.846   1.388  1.00  0.00     0.041 C 
ATOM     13  O   UNL     1     -11.808  10.793   0.261  1.00  0.00    -0.550 OA
ATOM     14  O   UNL     1     -11.899  11.731   2.350  1.00  0.00    -0.550 OA
ENDBRANCH  11  12
ENDBRANCH  10  11
ENDBRANCH   9  10
ENDBRANCH   8   9
ENDBRANCH   7   8
ENDBRANCH   6   7
ENDBRANCH   5   6
ENDBRANCH   4   5
ENDBRANCH   3   4
ENDBRANCH   2   3
ENDBRANCH   1   2
BRANCH   1  15
ATOM     15  C   UNL     1      -8.331   8.366   6.307  1.00  0.00     0.000 C 
BRANCH  15  16
ATOM     16  C   UNL     1      -9.139   7.150   5.817  1.00  0.00     0.000 C 
BRANCH  16  17
ATOM     17  C   UNL     1      -9.995   6.462   6.893  1.00  0.00     0.000 C 
BRANCH  17  18
ATOM     18  C   UNL     1     -10.108   4.944   6.686  1.00  0.00    -0.000 C 
BRANCH  18  19
ATOM     19  C   UNL     1     -10.625   4.252   7.956  1.00  0.00    -0.000 C 
BRANCH  19  20
ATOM     20  C   UNL     1     -11.279   5.228   8.950  1.00  0.00    -0.000 C 
BRANCH  20  21
ATOM     21  C   UNL     1     -12.818   5.263   8.914  1.00  0.00    -0.000 C 
BRANCH  21  22
ATOM     22  C   UNL     1     -13.385   6.692   8.869  1.00  0.00    -0.000 C 
BRANCH  22  23
ATOM     23  C   UNL     1     -13.815   7.103   7.450  1.00  0.00    -0.000 C 
BRANCH  23  24
ATOM     24  C   UNL     1     -13.951   5.894   6.507  1.00  0.00    -0.000 C 
BRANCH  24  25
ATOM     25  C   UNL     1     -13.253   6.125   5.157  1.00  0.00    -0.003 C 
ATOM     26  C   UNL     1     -13.722   5.146   4.078  1.00  0.00     0.004 C 
ENDBRANCH  24  25
ENDBRANCH  23  24
ENDBRANCH  22  23
ENDBRANCH  21  22
ENDBRANCH  20  21
ENDBRANCH  19  20
ENDBRANCH  18  19
ENDBRANCH  17  18
ENDBRANCH  16  17
ENDBRANCH  15  16
ENDBRANCH   1  15
TORSDOF 22
ENDMDL
MODEL 6
REMARK VINA RESULT:    -4.128      1.508      5.668
REMARK INTER + INTRA:         -13.238
REMARK INTER:                  -9.830
REMARK INTRA:                  -3.408
REMARK UNBOUND:                -3.802
REMARK SMILES CCCCCCCCCCCCCCCCCCCCCCCC(=O)[O-]
REMARK SMILES IDX 13 1 14 2 15 3 16 4 17 5 18 6 19 7 20 8 21 9 22 10 23 11
REMARK SMILES IDX 24 12 25 13 26 14 12 15 11 16 10 17 9 18 8 19 7 20 6 21 5 22
REMARK SMILES IDX 4 23 3 24 2 25 1 26
REMARK H PARENT
REMARK Flexibility Score: inf
ROOT
ATOM      1  C   UNL     1      -9.716   7.036   6.738  1.00  0.00     0.000 C 
ENDROOT
BRANCH   1   2
ATOM      2  C   UNL     1      -8.828   7.227   5.496  1.00  0.00     0.000 C 
BRANCH   2   3
ATOM      3  C   UNL     1      -8.328   8.673   5.337  1.00  0.00     0.000 C 
BRANCH   3   4
ATOM      4  C   UNL     1      -7.664   9.274   6.592  1.00  0.00     0.000 C 
BRANCH   4   5
ATOM      5  C   UNL     1      -8.207  10.651   7.029  1.00  0.00     0.000 C 
BRANCH   5   6
ATOM      6  C   UNL     1      -9.257  11.270   6.088  1.00  0.00     0.000 C 
BRANCH   6   7
ATOM      7  C   UNL     1     -10.695  11.285   6.639  1.00  0.00     0.000 C 
BRANCH   7   8
ATOM      8  C   UNL     1     -11.751  11.759   5.617  1.00  0.00     0.000 C 
BRANCH   8   9
ATOM      9  C   UNL     1     -12.465  10.590   4.919  1.00  0.00     0.000 C 
BRANCH   9  10
ATOM     10  C   UNL     1     -13.133  11.053   3.618  1.00  0.00     0.006 C 
BRANCH  10  11
ATOM     11  C   UNL     1     -12.087  11.444   2.571  1.00  0.00     0.053 C 
BRANCH  11  12
ATOM     12  C   UNL     1     -12.300  10.673   1.306  1.00  0.00     0.041 C 
ATOM     13  O   UNL     1     -11.667  10.981   0.260  1.00  0.00    -0.550 OA
ATOM     14  O   UNL     1     -13.237   9.649   1.267  1.00  0.00    -0.550 OA
ENDBRANCH  11  12
ENDBRANCH  10  11
ENDBRANCH   9  10
ENDBRANCH   8   9
ENDBRANCH   7   8
ENDBRANCH   6   7
ENDBRANCH   5   6
ENDBRANCH   4   5
ENDBRANCH   3   4
ENDBRANCH   2   3
ENDBRANCH   1   2
BRANCH   1  15
ATOM     15  C   UNL     1     -11.144   7.589   6.533  1.00  0.00     0.000 C 
BRANCH  15  16
ATOM     16  C   UNL     1     -12.142   7.165   7.627  1.00  0.00     0.000 C 
BRANCH  16  17
ATOM     17  C   UNL     1     -11.682   5.989   8.505  1.00  0.00     0.000 C 
BRANCH  17  18
ATOM     18  C   UNL     1     -12.751   4.894   8.644  1.00  0.00    -0.000 C 
BRANCH  18  19
ATOM     19  C   UNL     1     -12.177   3.516   8.282  1.00  0.00    -0.000 C 
BRANCH  19  20
ATOM     20  C   UNL     1     -11.162   3.570   7.128  1.00  0.00    -0.000 C 
BRANCH  20  21
ATOM     21  C   UNL     1     -11.749   3.316   5.728  1.00  0.00    -0.000 C 
BRANCH  21  22
ATOM     22  C   UNL     1     -11.899   4.601   4.897  1.00  0.00    -0.000 C 
BRANCH  22  23
ATOM     23  C   UNL     1     -13.323   4.771   4.341  1.00  0.00    -0.000 C 
BRANCH  23  24
ATOM     24  C   UNL     1     -14.043   5.993   4.941  1.00  0.00    -0.000 C 
BRANCH  24  25
ATOM     25  C   UNL     1     -14.870   6.757   3.894  1.00  0.00    -0.003 C 
ATOM     26  C   UNL     1     -14.364   6.532   2.468  1.00  0.00     0.004 C 
ENDBRANCH  24  25
ENDBRANCH  23  24
ENDBRANCH  22  23
ENDBRANCH  21  22
ENDBRANCH  20  21
ENDBRANCH  19  20
ENDBRANCH  18  19
ENDBRANCH  17  18
ENDBRANCH  16  17
ENDBRANCH  15  16
ENDBRANCH   1  15
TORSDOF 22
ENDMDL
MODEL 7
REMARK VINA RESULT:    -4.108      1.907      4.013
REMARK INTER + INTRA:         -13.193
REMARK INTER:                 -11.157
REMARK INTRA:                  -2.036
REMARK UNBOUND:                -3.802
REMARK SMILES CCCCCCCCCCCCCCCCCCCCCCCC(=O)[O-]
REMARK SMILES IDX 13 1 14 2 15 3 16 4 17 5 18 6 19 7 20 8 21 9 22 10 23 11
REMARK SMILES IDX 24 12 25 13 26 14 12 15 11 16 10 17 9 18 8 19 7 20 6 21 5 22
REMARK SMILES IDX 4 23 3 24 2 25 1 26
REMARK H PARENT
REMARK Flexibility Score: inf
ROOT
ATOM      1  C   UNL     1     -13.532   4.768   7.486  1.00  0.00     0.000 C 
ENDROOT
BRANCH   1   2
ATOM      2  C   UNL     1     -13.949   5.766   6.391  1.00  0.00     0.000 C 
BRANCH   2   3
ATOM      3  C   UNL     1     -13.085   5.657   5.123  1.00  0.00     0.000 C 
BRANCH   3   4
ATOM      4  C   UNL     1     -13.829   5.152   3.871  1.00  0.00     0.000 C 
BRANCH   4   5
ATOM      5  C   UNL     1     -14.867   6.131   3.282  1.00  0.00     0.000 C 
BRANCH   5   6
ATOM      6  C   UNL     1     -14.312   7.131   2.251  1.00  0.00     0.000 C 
BRANCH   6   7
ATOM      7  C   UNL     1     -14.204   8.585   2.748  1.00  0.00     0.000 C 
BRANCH   7   8
ATOM      8  C   UNL     1     -13.611   9.560   1.708  1.00  0.00     0.000 C 
BRANCH   8   9
ATOM      9  C   UNL     1     -14.360  10.901   1.659  1.00  0.00     0.000 C 
BRANCH   9  10
ATOM     10  C   UNL     1     -13.566  12.000   2.377  1.00  0.00     0.006 C 
BRANCH  10  11
ATOM     11  C   UNL     1     -12.136  11.541   2.674  1.00  0.00     0.053 C 
BRANCH  11  12
ATOM     12  C   UNL     1     -11.819  11.726   4.126  1.00  0.00     0.041 C 
ATOM     13  O   UNL     1     -12.721  11.591   4.995  1.00  0.00    -0.550 OA
ATOM     14  O   UNL     1     -10.539  12.099   4.513  1.00  0.00    -0.550 OA
ENDBRANCH  11  12
ENDBRANCH  10  11
ENDBRANCH   9  10
ENDBRANCH   8   9
ENDBRANCH   7   8
ENDBRANCH   6   7
ENDBRANCH   5   6
ENDBRANCH   4   5
ENDBRANCH   3   4
ENDBRANCH   2   3
ENDBRANCH   1   2
BRANCH   1  15
ATOM     15  C   UNL     1     -12.718   3.582   6.923  1.00  0.00     0.000 C 
BRANCH  15  16
ATOM     16  C   UNL     1     -11.355   3.376   7.610  1.00  0.00     0.000 C 
BRANCH  16  17
ATOM     17  C   UNL     1     -11.014   4.408   8.698  1.00  0.00     0.000 C 
BRANCH  17  18
ATOM     18  C   UNL     1      -9.903   5.380   8.272  1.00  0.00    -0.000 C 
BRANCH  18  19
ATOM     19  C   UNL     1      -9.700   5.352   6.750  1.00  0.00    -0.000 C 
BRANCH  19  20
ATOM     20  C   UNL     1      -9.711   6.753   6.114  1.00  0.00    -0.000 C 
BRANCH  20  21
ATOM     21  C   UNL     1      -8.488   7.628   6.442  1.00  0.00    -0.000 C 
BRANCH  21  22
ATOM     22  C   UNL     1      -8.186   8.671   5.352  1.00  0.00    -0.000 C 
BRANCH  22  23
ATOM     23  C   UNL     1      -8.010  10.085   5.932  1.00  0.00    -0.000 C 
BRANCH  23  24
ATOM     24  C   UNL     1      -6.717  10.761   5.444  1.00  0.00    -0.000 C 
BRANCH  24  25
ATOM     25  C   UNL     1      -5.516  10.451   6.352  1.00  0.00    -0.003 C 
ATOM     26  C   UNL     1      -4.190  10.931   5.758  1.00  0.00     0.004 C 
ENDBRANCH  24  25
ENDBRANCH  23  24
ENDBRANCH  22  23
ENDBRANCH  21  22
ENDBRANCH  20  21
ENDBRANCH  19  20
ENDBRANCH  18  19
ENDBRANCH  17  18
ENDBRANCH  16  17
ENDBRANCH  15  16
ENDBRANCH   1  15
TORSDOF 22
ENDMDL
MODEL 8
REMARK VINA RESULT:    -4.087      1.485      4.873
REMARK INTER + INTRA:         -13.144
REMARK INTER:                  -9.498
REMARK INTRA:                  -3.646
REMARK UNBOUND:                -3.802
REMARK SMILES CCCCCCCCCCCCCCCCCCCCCCCC(=O)[O-]
REMARK SMILES IDX 13 1 14 2 15 3 16 4 17 5 18 6 19 7 20 8 21 9 22 10 23 11
REMARK SMILES IDX 24 12 25 13 26 14 12 15 11 16 10 17 9 18 8 19 7 20 6 21 5 22
REMARK SMILES IDX 4 23 3 24 2 25 1 26
REMARK H PARENT
REMARK Flexibility Score: inf
ROOT
ATOM      1  C   UNL     1     -11.740   9.867   6.501  1.00  0.00     0.000 C 
ENDROOT
BRANCH   1   2
ATOM      2  C   UNL     1     -12.389  10.159   7.865  1.00  0.00     0.000 C 
BRANCH   2   3
ATOM      3  C   UNL     1     -13.403   9.082   8.287  1.00  0.00     0.000 C 
BRANCH   3   4
ATOM      4  C   UNL     1     -12.967   7.631   8.003  1.00  0.00     0.000 C 
BRANCH   4   5
ATOM      5  C   UNL     1     -13.956   6.799   7.160  1.00  0.00     0.000 C 
BRANCH   5   6
ATOM      6  C   UNL     1     -13.439   6.376   5.772  1.00  0.00     0.000 C 
BRANCH   6   7
ATOM      7  C   UNL     1     -13.976   7.212   4.596  1.00  0.00     0.000 C 
BRANCH   7   8
ATOM      8  C   UNL     1     -14.853   8.408   5.027  1.00  0.00     0.000 C 
BRANCH   8   9
ATOM      9  C   UNL     1     -14.754   9.595   4.056  1.00  0.00     0.000 C 
BRANCH   9  10
ATOM     10  C   UNL     1     -13.940   9.220   2.811  1.00  0.00     0.006 C 
BRANCH  10  11
ATOM     11  C   UNL     1     -13.925  10.367   1.797  1.00  0.00     0.053 C 
BRANCH  11  12
ATOM     12  C   UNL     1     -12.535  10.895   1.626  1.00  0.00     0.041 C 
ATOM     13  O   UNL     1     -11.885  10.643   0.576  1.00  0.00    -0.550 OA
ATOM     14  O   UNL     1     -11.937  11.620   2.648  1.00  0.00    -0.550 OA
ENDBRANCH  11  12
ENDBRANCH  10  11
ENDBRANCH   9  10
ENDBRANCH   8   9
ENDBRANCH   7   8
ENDBRANCH   6   7
ENDBRANCH   5   6
ENDBRANCH   4   5
ENDBRANCH   3   4
ENDBRANCH   2   3
ENDBRANCH   1   2
BRANCH   1  15
ATOM     15  C   UNL     1     -10.804  11.006   6.037  1.00  0.00     0.000 C 
BRANCH  15  16
ATOM     16  C   UNL     1      -9.963  11.624   7.170  1.00  0.00     0.000 C 
BRANCH  16  17
ATOM     17  C   UNL     1      -8.474  11.820   6.841  1.00  0.00     0.000 C 
BRANCH  17  18
ATOM     18  C   UNL     1      -7.557  10.883   7.641  1.00  0.00    -0.000 C 
BRANCH  18  19
ATOM     19  C   UNL     1      -6.759   9.962   6.706  1.00  0.00    -0.000 C 
BRANCH  19  20
ATOM     20  C   UNL     1      -7.407   9.803   5.320  1.00  0.00    -0.000 C 
BRANCH  20  21
ATOM     21  C   UNL     1      -8.125   8.462   5.084  1.00  0.00    -0.000 C 
BRANCH  21  22
ATOM     22  C   UNL     1      -8.559   7.775   6.389  1.00  0.00    -0.000 C 
BRANCH  22  23
ATOM     23  C   UNL     1      -9.764   6.842   6.183  1.00  0.00    -0.000 C 
BRANCH  23  24
ATOM     24  C   UNL     1      -9.480   5.405   6.656  1.00  0.00    -0.000 C 
BRANCH  24  25
ATOM     25  C   UNL     1     -10.480   4.933   7.724  1.00  0.00    -0.003 C 
ATOM     26  C   UNL     1     -11.106   3.579   7.385  1.00  0.00     0.004 C 
ENDBRANCH  24  25
ENDBRANCH  23  24
ENDBRANCH  22  23
ENDBRANCH  21  22
ENDBRANCH  20  21
ENDBRANCH  19  20
ENDBRANCH  18  19
ENDBRANCH  17  18
ENDBRANCH  16  17
ENDBRANCH  15  16
ENDBRANCH   1  15
TORSDOF 22
ENDMDL
MODEL 9
REMARK VINA RESULT:    -4.078      1.480      5.790
REMARK INTER + INTRA:         -13.125
REMARK INTER:                  -9.434
REMARK INTRA:                  -3.691
REMARK UNBOUND:                -3.802
REMARK SMILES CCCCCCCCCCCCCCCCCCCCCCCC(=O)[O-]
REMARK SMILES IDX 13 1 14 2 15 3 16 4 17 5 18 6 19 7 20 8 21 9 22 10 23 11
REMARK SMILES IDX 24 12 25 13 26 14 12 15 11 16 10 17 9 18 8 19 7 20 6 21 5 22
REMARK SMILES IDX 4 23 3 24 2 25 1 26
REMARK H PARENT
REMARK Flexibility Score: inf
ROOT
ATOM      1  C   UNL     1      -8.508   8.079   6.229  1.00  0.00     0.000 C 
ENDROOT
BRANCH   1   2
ATOM      2  C   UNL     1      -8.019   8.937   5.048  1.00  0.00     0.000 C 
BRANCH   2   3
ATOM      3  C   UNL     1      -7.635  10.366   5.468  1.00  0.00     0.000 C 
BRANCH   3   4
ATOM      4  C   UNL     1      -7.295  10.536   6.962  1.00  0.00     0.000 C 
BRANCH   4   5
ATOM      5  C   UNL     1      -8.239  11.468   7.750  1.00  0.00     0.000 C 
BRANCH   5   6
ATOM      6  C   UNL     1      -9.492  11.933   6.984  1.00  0.00     0.000 C 
BRANCH   6   7
ATOM      7  C   UNL     1     -10.786  11.175   7.334  1.00  0.00     0.000 C 
BRANCH   7   8
ATOM      8  C   UNL     1     -11.879  11.271   6.248  1.00  0.00     0.000 C 
BRANCH   8   9
ATOM      9  C   UNL     1     -11.311  11.157   4.825  1.00  0.00     0.000 C 
BRANCH   9  10
ATOM     10  C   UNL     1     -12.427  11.257   3.777  1.00  0.00     0.006 C 
BRANCH  10  11
ATOM     11  C   UNL     1     -11.883  11.762   2.439  1.00  0.00     0.053 C 
BRANCH  11  12
ATOM     12  C   UNL     1     -12.274  10.835   1.331  1.00  0.00     0.041 C 
ATOM     13  O   UNL     1     -13.113   9.918   1.537  1.00  0.00    -0.550 OA
ATOM     14  O   UNL     1     -11.672  10.950   0.085  1.00  0.00    -0.550 OA
ENDBRANCH  11  12
ENDBRANCH  10  11
ENDBRANCH   9  10
ENDBRANCH   8   9
ENDBRANCH   7   8
ENDBRANCH   6   7
ENDBRANCH   5   6
ENDBRANCH   4   5
ENDBRANCH   3   4
ENDBRANCH   2   3
ENDBRANCH   1   2
BRANCH   1  15
ATOM     15  C   UNL     1     -10.034   7.838   6.189  1.00  0.00     0.000 C 
BRANCH  15  16
ATOM     16  C   UNL     1     -10.431   6.350   6.149  1.00  0.00     0.000 C 
BRANCH  16  17
ATOM     17  C   UNL     1      -9.550   5.420   6.999  1.00  0.00     0.000 C 
BRANCH  17  18
ATOM     18  C   UNL     1     -10.238   4.968   8.297  1.00  0.00    -0.000 C 
BRANCH  18  19
ATOM     19  C   UNL     1     -11.050   3.683   8.071  1.00  0.00    -0.000 C 
BRANCH  19  20
ATOM     20  C   UNL     1     -12.569   3.927   8.046  1.00  0.00    -0.000 C 
BRANCH  20  21
ATOM     21  C   UNL     1     -13.033   5.228   8.725  1.00  0.00    -0.000 C 
BRANCH  21  22
ATOM     22  C   UNL     1     -13.853   6.134   7.791  1.00  0.00    -0.000 C 
BRANCH  22  23
ATOM     23  C   UNL     1     -13.435   7.610   7.898  1.00  0.00    -0.000 C 
BRANCH  23  24
ATOM     24  C   UNL     1     -14.095   8.486   6.817  1.00  0.00    -0.000 C 
BRANCH  24  25
ATOM     25  C   UNL     1     -13.697   8.058   5.395  1.00  0.00    -0.003 C 
ATOM     26  C   UNL     1     -14.888   7.549   4.580  1.00  0.00     0.004 C 
ENDBRANCH  24  25
ENDBRANCH  23  24
ENDBRANCH  22  23
ENDBRANCH  21  22
ENDBRANCH  20  21
ENDBRANCH  19  20
ENDBRANCH  18  19
ENDBRANCH  17  18
ENDBRANCH  16  17
ENDBRANCH  15  16
ENDBRANCH   1  15
TORSDOF 22
ENDMDL
