MODEL 1
REMARK VINA RESULT:     0.864      0.000      0.000
REMARK INTER + INTRA:          -1.065
REMARK INTER:                   1.192
REMARK INTRA:                  -2.257
REMARK UNBOUND:                -2.257
REMARK SMILES CC[C@H](CC[C@@H](C)[C@@H]1CC[C@H]2[C@@H]3CC=C4C[C@@H](O)CC[C@@]4(C)[C@@H]3CC[C@]21C)C(C)C
REMARK SMILES IDX 5 1 4 2 3 3 2 4 1 5 28 6 29 7 30 8 6 9 7 10 8 11 9 12 26 13
REMARK SMILES IDX 10 14 11 15 25 16 27 17 12 18 24 19 23 20 13 21 21 22 14 23
REMARK SMILES IDX 15 24 20 25 22 26 16 27 19 28 17 29 18 30
REMARK H PARENT 18 31
REMARK Flexibility Score: inf
ROOT
ATOM      1  C   UNL     1     -23.218 -17.176 -16.015  1.00  0.00     0.004 C 
ENDROOT
BRANCH   1   2
ATOM      2  C   UNL     1     -23.579 -18.079 -14.809  1.00  0.00     0.004 C 
BRANCH   2   3
ATOM      3  C   UNL     1     -24.937 -18.812 -15.014  1.00  0.00    -0.009 C 
BRANCH   3   4
ATOM      4  C   UNL     1     -24.726 -20.349 -14.908  1.00  0.00     0.000 C 
ATOM      5  C   UNL     1     -24.796 -21.083 -16.249  1.00  0.00     0.004 C 
ENDBRANCH   3   4
BRANCH   3   6
ATOM      6  C   UNL     1     -26.022 -18.209 -14.045  1.00  0.00    -0.014 C 
ATOM      7  C   UNL     1     -25.525 -18.081 -12.596  1.00  0.00     0.007 C 
ATOM      8  C   UNL     1     -26.636 -16.887 -14.533  1.00  0.00     0.007 C 
ENDBRANCH   3   6
ENDBRANCH   2   3
ENDBRANCH   1   2
BRANCH   1   9
ATOM      9  C   UNL     1     -22.913 -15.707 -15.601  1.00  0.00    -0.011 C 
ATOM     10  C   UNL     1     -23.516 -14.715 -16.611  1.00  0.00     0.008 C 
BRANCH   9  11
ATOM     11  C   UNL     1     -23.229 -15.301 -14.112  1.00  0.00    -0.002 C 
ATOM     12  C   UNL     1     -24.318 -14.242 -13.989  1.00  0.00     0.005 C 
ATOM     13  C   UNL     1     -22.112 -14.844 -13.105  1.00  0.00    -0.026 C 
ATOM     14  C   UNL     1     -24.332 -13.875 -12.519  1.00  0.00     0.005 C 
ATOM     15  C   UNL     1     -22.871 -13.947 -12.064  1.00  0.00    -0.001 C 
ATOM     16  C   UNL     1     -21.404 -16.041 -12.414  1.00  0.00     0.007 C 
ATOM     17  C   UNL     1     -21.018 -14.000 -13.795  1.00  0.00     0.012 C 
ATOM     18  C   UNL     1     -22.736 -14.382 -10.571  1.00  0.00     0.000 C 
ATOM     19  C   UNL     1     -22.263 -16.793 -11.392  1.00  0.00     0.005 C 
ATOM     20  C   UNL     1     -23.009 -15.901 -10.341  1.00  0.00     0.003 C 
ATOM     21  C   UNL     1     -21.386 -13.902  -9.966  1.00  0.00     0.031 C 
ATOM     22  C   UNL     1     -22.736 -16.330  -8.843  1.00  0.00    -0.008 C 
ATOM     23  C   UNL     1     -20.708 -14.857  -9.018  1.00  0.00    -0.027 C 
ATOM     24  C   UNL     1     -21.335 -15.906  -8.433  1.00  0.00    -0.065 C 
ATOM     25  C   UNL     1     -23.730 -15.652  -7.834  1.00  0.00     0.014 C 
ATOM     26  C   UNL     1     -22.911 -17.881  -8.718  1.00  0.00     0.016 C 
ATOM     27  C   UNL     1     -20.913 -16.268  -7.029  1.00  0.00     0.063 C 
ATOM     28  C   UNL     1     -23.332 -15.855  -6.338  1.00  0.00     0.033 C 
ATOM     29  C   UNL     1     -21.847 -15.520  -6.050  1.00  0.00     0.118 C 
BRANCH  29  30
ATOM     30  O   UNL     1     -21.666 -14.125  -6.147  1.00  0.00    -0.393 OA
ATOM     31  H   UNL     1     -21.907 -13.866  -7.076  1.00  0.00     0.210 HD
ENDBRANCH  29  30
ENDBRANCH   9  11
ENDBRANCH   1   9
TORSDOF 7
ENDMDL
MODEL 2
REMARK VINA RESULT:     2.031      2.531      7.238
REMARK INTER + INTRA:           0.546
REMARK INTER:                   1.112
REMARK INTRA:                  -0.567
REMARK UNBOUND:                -2.257
REMARK SMILES CC[C@H](CC[C@@H](C)[C@@H]1CC[C@H]2[C@@H]3CC=C4C[C@@H](O)CC[C@@]4(C)[C@@H]3CC[C@]21C)C(C)C
REMARK SMILES IDX 5 1 4 2 3 3 2 4 1 5 28 6 29 7 30 8 6 9 7 10 8 11 9 12 26 13
REMARK SMILES IDX 10 14 11 15 25 16 27 17 12 18 24 19 23 20 13 21 21 22 14 23
REMARK SMILES IDX 15 24 20 25 22 26 16 27 19 28 17 29 18 30
REMARK H PARENT 18 31
REMARK Flexibility Score: inf
ROOT
ATOM      1  C   UNL     1     -21.098 -16.875  -7.039  1.00  0.00     0.004 C 
ENDROOT
BRANCH   1   2
ATOM      2  C   UNL     1     -22.399 -16.565  -6.257  1.00  0.00     0.004 C 
BRANCH   2   3
ATOM      3  C   UNL     1     -23.402 -17.756  -6.296  1.00  0.00    -0.009 C 
BRANCH   3   4
ATOM      4  C   UNL     1     -23.927 -18.048  -4.863  1.00  0.00     0.000 C 
ATOM      5  C   UNL     1     -22.838 -18.066  -3.790  1.00  0.00     0.004 C 
ENDBRANCH   3   4
BRANCH   3   6
ATOM      6  C   UNL     1     -24.510 -17.486  -7.383  1.00  0.00    -0.014 C 
ATOM      7  C   UNL     1     -24.607 -16.006  -7.784  1.00  0.00     0.007 C 
ATOM      8  C   UNL     1     -24.404 -18.385  -8.626  1.00  0.00     0.007 C 
ENDBRANCH   3   6
ENDBRANCH   2   3
ENDBRANCH   1   2
BRANCH   1   9
ATOM      9  C   UNL     1     -20.369 -15.591  -7.532  1.00  0.00    -0.011 C 
ATOM     10  C   UNL     1     -18.903 -15.579  -7.065  1.00  0.00     0.008 C 
BRANCH   9  11
ATOM     11  C   UNL     1     -20.506 -15.230  -9.060  1.00  0.00    -0.002 C 
ATOM     12  C   UNL     1     -19.484 -14.206  -9.536  1.00  0.00     0.005 C 
ATOM     13  C   UNL     1     -21.865 -14.766  -9.699  1.00  0.00    -0.026 C 
ATOM     14  C   UNL     1     -19.904 -13.875 -10.954  1.00  0.00     0.005 C 
ATOM     15  C   UNL     1     -21.436 -13.916 -10.947  1.00  0.00    -0.001 C 
ATOM     16  C   UNL     1     -22.771 -15.958 -10.108  1.00  0.00     0.007 C 
ATOM     17  C   UNL     1     -22.684 -13.875  -8.740  1.00  0.00     0.012 C 
ATOM     18  C   UNL     1     -22.021 -14.383 -12.317  1.00  0.00     0.000 C 
ATOM     19  C   UNL     1     -22.274 -16.759 -11.317  1.00  0.00     0.005 C 
ATOM     20  C   UNL     1     -21.860 -15.913 -12.570  1.00  0.00     0.003 C 
ATOM     21  C   UNL     1     -23.481 -13.879 -12.505  1.00  0.00     0.031 C 
ATOM     22  C   UNL     1     -22.579 -16.371 -13.903  1.00  0.00    -0.008 C 
ATOM     23  C   UNL     1     -24.431 -14.837 -13.176  1.00  0.00    -0.027 C 
ATOM     24  C   UNL     1     -24.030 -15.917 -13.888  1.00  0.00    -0.065 C 
ATOM     25  C   UNL     1     -21.921 -15.745 -15.185  1.00  0.00     0.014 C 
ATOM     26  C   UNL     1     -22.481 -17.929 -14.026  1.00  0.00     0.016 C 
ATOM     27  C   UNL     1     -24.860 -16.300 -15.089  1.00  0.00     0.063 C 
ATOM     28  C   UNL     1     -22.753 -15.973 -16.486  1.00  0.00     0.033 C 
ATOM     29  C   UNL     1     -24.249 -15.603 -16.327  1.00  0.00     0.118 C 
BRANCH  29  30
ATOM     30  O   UNL     1     -24.365 -14.201 -16.223  1.00  0.00    -0.393 OA
ATOM     31  H   UNL     1     -24.986 -13.908 -16.941  1.00  0.00     0.210 HD
ENDBRANCH  29  30
ENDBRANCH   9  11
ENDBRANCH   1   9
TORSDOF 7
ENDMDL
MODEL 3
REMARK VINA RESULT:     2.161      1.349      3.087
REMARK INTER + INTRA:           0.725
REMARK INTER:                  -0.588
REMARK INTRA:                   1.312
REMARK UNBOUND:                -2.257
REMARK SMILES CC[C@H](CC[C@@H](C)[C@@H]1CC[C@H]2[C@@H]3CC=C4C[C@@H](O)CC[C@@]4(C)[C@@H]3CC[C@]21C)C(C)C
REMARK SMILES IDX 5 1 4 2 3 3 2 4 1 5 28 6 29 7 30 8 6 9 7 10 8 11 9 12 26 13
REMARK SMILES IDX 10 14 11 15 25 16 27 17 12 18 24 19 23 20 13 21 21 22 14 23
REMARK SMILES IDX 15 24 20 25 22 26 16 27 19 28 17 29 18 30
REMARK H PARENT 18 31
REMARK Flexibility Score: inf
ROOT
ATOM      1  C   UNL     1     -22.482 -14.841 -15.331  1.00  0.00     0.004 C 
ENDROOT
BRANCH   1   2
ATOM      2  C   UNL     1     -23.260 -16.134 -15.680  1.00  0.00     0.004 C 
BRANCH   2   3
ATOM      3  C   UNL     1     -24.473 -16.361 -14.730  1.00  0.00    -0.009 C 
BRANCH   3   4
ATOM      4  C   UNL     1     -25.576 -15.307 -15.023  1.00  0.00     0.000 C 
ATOM      5  C   UNL     1     -25.053 -13.875 -15.153  1.00  0.00     0.004 C 
ENDBRANCH   3   4
BRANCH   3   6
ATOM      6  C   UNL     1     -24.935 -17.866 -14.803  1.00  0.00    -0.014 C 
ATOM      7  C   UNL     1     -23.764 -18.843 -14.990  1.00  0.00     0.007 C 
ATOM      8  C   UNL     1     -25.835 -18.304 -13.635  1.00  0.00     0.007 C 
ENDBRANCH   3   6
ENDBRANCH   2   3
ENDBRANCH   1   2
BRANCH   1   9
ATOM      9  C   UNL     1     -21.238 -15.108 -14.435  1.00  0.00    -0.011 C 
ATOM     10  C   UNL     1     -20.318 -13.875 -14.393  1.00  0.00     0.008 C 
BRANCH   9  11
ATOM     11  C   UNL     1     -21.502 -15.699 -12.999  1.00  0.00    -0.002 C 
ATOM     12  C   UNL     1     -22.114 -17.093 -13.018  1.00  0.00     0.005 C 
ATOM     13  C   UNL     1     -22.315 -14.920 -11.902  1.00  0.00    -0.026 C 
ATOM     14  C   UNL     1     -22.447 -17.387 -11.569  1.00  0.00     0.005 C 
ATOM     15  C   UNL     1     -22.887 -16.047 -10.970  1.00  0.00    -0.001 C 
ATOM     16  C   UNL     1     -21.438 -13.917 -11.106  1.00  0.00     0.007 C 
ATOM     17  C   UNL     1     -23.491 -14.122 -12.507  1.00  0.00     0.012 C 
ATOM     18  C   UNL     1     -22.520 -15.926  -9.458  1.00  0.00     0.000 C 
ATOM     19  C   UNL     1     -20.429 -14.563 -10.150  1.00  0.00     0.005 C 
ATOM     20  C   UNL     1     -21.001 -15.677  -9.207  1.00  0.00     0.003 C 
ATOM     21  C   UNL     1     -23.438 -14.898  -8.738  1.00  0.00     0.031 C 
ATOM     22  C   UNL     1     -20.687 -15.429  -7.677  1.00  0.00    -0.008 C 
ATOM     23  C   UNL     1     -22.775 -14.032  -7.697  1.00  0.00    -0.027 C 
ATOM     24  C   UNL     1     -21.572 -14.314  -7.144  1.00  0.00    -0.065 C 
ATOM     25  C   UNL     1     -20.972 -16.696  -6.792  1.00  0.00     0.014 C 
ATOM     26  C   UNL     1     -19.172 -15.067  -7.519  1.00  0.00     0.016 C 
ATOM     27  C   UNL     1     -21.374 -13.941  -5.694  1.00  0.00     0.063 C 
ATOM     28  C   UNL     1     -20.915 -16.410  -5.260  1.00  0.00     0.033 C 
ATOM     29  C   UNL     1     -21.745 -15.173  -4.836  1.00  0.00     0.118 C 
BRANCH  29  30
ATOM     30  O   UNL     1     -23.116 -15.478  -4.961  1.00  0.00    -0.393 OA
ATOM     31  H   UNL     1     -23.347 -15.385  -5.923  1.00  0.00     0.210 HD
ENDBRANCH  29  30
ENDBRANCH   9  11
ENDBRANCH   1   9
TORSDOF 7
ENDMDL
MODEL 4
REMARK VINA RESULT:     2.790      0.782      1.732
REMARK INTER + INTRA:           1.593
REMARK INTER:                   2.051
REMARK INTRA:                  -0.458
REMARK UNBOUND:                -2.257
REMARK SMILES CC[C@H](CC[C@@H](C)[C@@H]1CC[C@H]2[C@@H]3CC=C4C[C@@H](O)CC[C@@]4(C)[C@@H]3CC[C@]21C)C(C)C
REMARK SMILES IDX 5 1 4 2 3 3 2 4 1 5 28 6 29 7 30 8 6 9 7 10 8 11 9 12 26 13
REMARK SMILES IDX 10 14 11 15 25 16 27 17 12 18 24 19 23 20 13 21 21 22 14 23
REMARK SMILES IDX 15 24 20 25 22 26 16 27 19 28 17 29 18 30
REMARK H PARENT 18 31
REMARK Flexibility Score: inf
ROOT
ATOM      1  C   UNL     1     -24.112 -15.709 -16.367  1.00  0.00     0.004 C 
ENDROOT
BRANCH   1   2
ATOM      2  C   UNL     1     -24.828 -17.045 -16.049  1.00  0.00     0.004 C 
BRANCH   2   3
ATOM      3  C   UNL     1     -24.847 -17.348 -14.522  1.00  0.00    -0.009 C 
BRANCH   3   4
ATOM      4  C   UNL     1     -26.277 -17.119 -13.958  1.00  0.00     0.000 C 
ATOM      5  C   UNL     1     -27.273 -16.574 -14.983  1.00  0.00     0.004 C 
ENDBRANCH   3   4
BRANCH   3   6
ATOM      6  C   UNL     1     -24.232 -18.773 -14.251  1.00  0.00    -0.014 C 
ATOM      7  C   UNL     1     -24.981 -19.897 -14.986  1.00  0.00     0.007 C 
ATOM      8  C   UNL     1     -22.719 -18.864 -14.506  1.00  0.00     0.007 C 
ENDBRANCH   3   6
ENDBRANCH   2   3
ENDBRANCH   1   2
BRANCH   1   9
ATOM      9  C   UNL     1     -22.916 -15.422 -15.413  1.00  0.00    -0.011 C 
ATOM     10  C   UNL     1     -21.994 -14.338 -15.999  1.00  0.00     0.008 C 
BRANCH   9  11
ATOM     11  C   UNL     1     -23.255 -15.154 -13.898  1.00  0.00    -0.002 C 
ATOM     12  C   UNL     1     -24.343 -14.107 -13.695  1.00  0.00     0.005 C 
ATOM     13  C   UNL     1     -22.152 -14.796 -12.837  1.00  0.00    -0.026 C 
ATOM     14  C   UNL     1     -24.379 -13.877 -12.197  1.00  0.00     0.005 C 
ATOM     15  C   UNL     1     -22.925 -13.996 -11.729  1.00  0.00    -0.001 C 
ATOM     16  C   UNL     1     -21.458 -16.053 -12.248  1.00  0.00     0.007 C 
ATOM     17  C   UNL     1     -21.045 -13.896 -13.429  1.00  0.00     0.012 C 
ATOM     18  C   UNL     1     -22.815 -14.567 -10.281  1.00  0.00     0.000 C 
ATOM     19  C   UNL     1     -22.334 -16.894 -11.313  1.00  0.00     0.005 C 
ATOM     20  C   UNL     1     -23.094 -16.099 -10.196  1.00  0.00     0.003 C 
ATOM     21  C   UNL     1     -21.473 -14.150  -9.613  1.00  0.00     0.031 C 
ATOM     22  C   UNL     1     -22.845 -16.666  -8.740  1.00  0.00    -0.008 C 
ATOM     23  C   UNL     1     -20.812 -15.191  -8.747  1.00  0.00    -0.027 C 
ATOM     24  C   UNL     1     -21.450 -16.287  -8.271  1.00  0.00    -0.065 C 
ATOM     25  C   UNL     1     -23.853 -16.080  -7.687  1.00  0.00     0.014 C 
ATOM     26  C   UNL     1     -23.025 -18.222  -8.761  1.00  0.00     0.016 C 
ATOM     27  C   UNL     1     -21.051 -16.778  -6.901  1.00  0.00     0.063 C 
ATOM     28  C   UNL     1     -23.479 -16.422  -6.211  1.00  0.00     0.033 C 
ATOM     29  C   UNL     1     -21.998 -16.120  -5.870  1.00  0.00     0.118 C 
BRANCH  29  30
ATOM     30  O   UNL     1     -21.812 -14.723  -5.836  1.00  0.00    -0.393 OA
ATOM     31  H   UNL     1     -22.207 -14.399  -4.983  1.00  0.00     0.210 HD
ENDBRANCH  29  30
ENDBRANCH   9  11
ENDBRANCH   1   9
TORSDOF 7
ENDMDL
MODEL 5
REMARK VINA RESULT:     3.114      2.603      7.220
REMARK INTER + INTRA:           2.040
REMARK INTER:                   0.794
REMARK INTRA:                   1.246
REMARK UNBOUND:                -2.257
REMARK SMILES CC[C@H](CC[C@@H](C)[C@@H]1CC[C@H]2[C@@H]3CC=C4C[C@@H](O)CC[C@@]4(C)[C@@H]3CC[C@]21C)C(C)C
REMARK SMILES IDX 5 1 4 2 3 3 2 4 1 5 28 6 29 7 30 8 6 9 7 10 8 11 9 12 26 13
REMARK SMILES IDX 10 14 11 15 25 16 27 17 12 18 24 19 23 20 13 21 21 22 14 23
REMARK SMILES IDX 15 24 20 25 22 26 16 27 19 28 17 29 18 30
REMARK H PARENT 18 31
REMARK Flexibility Score: inf
ROOT
ATOM      1  C   UNL     1     -21.654 -16.764  -7.342  1.00  0.00     0.004 C 
ENDROOT
BRANCH   1   2
ATOM      2  C   UNL     1     -23.120 -16.327  -7.097  1.00  0.00     0.004 C 
BRANCH   2   3
ATOM      3  C   UNL     1     -24.015 -17.517  -6.639  1.00  0.00    -0.009 C 
BRANCH   3   4
ATOM      4  C   UNL     1     -24.178 -18.532  -7.805  1.00  0.00     0.000 C 
ATOM      5  C   UNL     1     -24.378 -17.882  -9.175  1.00  0.00     0.004 C 
ENDBRANCH   3   4
BRANCH   3   6
ATOM      6  C   UNL     1     -23.460 -18.116  -5.291  1.00  0.00    -0.014 C 
ATOM      7  C   UNL     1     -21.945 -18.369  -5.329  1.00  0.00     0.007 C 
ATOM      8  C   UNL     1     -23.851 -17.314  -4.039  1.00  0.00     0.007 C 
ENDBRANCH   3   6
ENDBRANCH   2   3
ENDBRANCH   1   2
BRANCH   1   9
ATOM      9  C   UNL     1     -20.751 -15.597  -7.838  1.00  0.00    -0.011 C 
ATOM     10  C   UNL     1     -19.301 -15.783  -7.358  1.00  0.00     0.008 C 
BRANCH   9  11
ATOM     11  C   UNL     1     -20.825 -15.233  -9.369  1.00  0.00    -0.002 C 
ATOM     12  C   UNL     1     -19.784 -14.208  -9.801  1.00  0.00     0.005 C 
ATOM     13  C   UNL     1     -22.157 -14.767 -10.063  1.00  0.00    -0.026 C 
ATOM     14  C   UNL     1     -20.146 -13.875 -11.235  1.00  0.00     0.005 C 
ATOM     15  C   UNL     1     -21.677 -13.916 -11.291  1.00  0.00    -0.001 C 
ATOM     16  C   UNL     1     -23.046 -15.959 -10.511  1.00  0.00     0.007 C 
ATOM     17  C   UNL     1     -23.015 -13.878  -9.136  1.00  0.00     0.012 C 
ATOM     18  C   UNL     1     -22.205 -14.380 -12.684  1.00  0.00     0.000 C 
ATOM     19  C   UNL     1     -22.500 -16.758 -11.699  1.00  0.00     0.005 C 
ATOM     20  C   UNL     1     -22.035 -15.910 -12.933  1.00  0.00     0.003 C 
ATOM     21  C   UNL     1     -23.656 -13.876 -12.931  1.00  0.00     0.031 C 
ATOM     22  C   UNL     1     -22.698 -16.365 -14.296  1.00  0.00    -0.008 C 
ATOM     23  C   UNL     1     -24.579 -14.832 -13.642  1.00  0.00    -0.027 C 
ATOM     24  C   UNL     1     -24.148 -15.911 -14.339  1.00  0.00    -0.065 C 
ATOM     25  C   UNL     1     -21.988 -15.737 -15.548  1.00  0.00     0.014 C 
ATOM     26  C   UNL     1     -22.595 -17.923 -14.417  1.00  0.00     0.016 C 
ATOM     27  C   UNL     1     -24.929 -16.291 -15.574  1.00  0.00     0.063 C 
ATOM     28  C   UNL     1     -22.766 -15.962 -16.882  1.00  0.00     0.033 C 
ATOM     29  C   UNL     1     -24.268 -15.592 -16.784  1.00  0.00     0.118 C 
BRANCH  29  30
ATOM     30  O   UNL     1     -24.388 -14.191 -16.682  1.00  0.00    -0.393 OA
ATOM     31  H   UNL     1     -23.526 -13.804 -16.990  1.00  0.00     0.210 HD
ENDBRANCH  29  30
ENDBRANCH   9  11
ENDBRANCH   1   9
TORSDOF 7
ENDMDL
MODEL 6
REMARK VINA RESULT:     3.173      2.848      7.910
REMARK INTER + INTRA:           2.122
REMARK INTER:                   0.692
REMARK INTRA:                   1.430
REMARK UNBOUND:                -2.257
REMARK SMILES CC[C@H](CC[C@@H](C)[C@@H]1CC[C@H]2[C@@H]3CC=C4C[C@@H](O)CC[C@@]4(C)[C@@H]3CC[C@]21C)C(C)C
REMARK SMILES IDX 5 1 4 2 3 3 2 4 1 5 28 6 29 7 30 8 6 9 7 10 8 11 9 12 26 13
REMARK SMILES IDX 10 14 11 15 25 16 27 17 12 18 24 19 23 20 13 21 21 22 14 23
REMARK SMILES IDX 15 24 20 25 22 26 16 27 19 28 17 29 18 30
REMARK H PARENT 18 31
REMARK Flexibility Score: inf
ROOT
ATOM      1  C   UNL     1     -23.344 -15.966  -7.102  1.00  0.00     0.004 C 
ENDROOT
BRANCH   1   2
ATOM      2  C   UNL     1     -22.667 -15.386  -5.835  1.00  0.00     0.004 C 
BRANCH   2   3
ATOM      3  C   UNL     1     -21.344 -16.130  -5.487  1.00  0.00    -0.009 C 
BRANCH   3   4
ATOM      4  C   UNL     1     -21.495 -17.645  -5.800  1.00  0.00     0.000 C 
ATOM      5  C   UNL     1     -22.432 -18.389  -4.847  1.00  0.00     0.004 C 
ENDBRANCH   3   4
BRANCH   3   6
ATOM      6  C   UNL     1     -20.127 -15.411  -6.183  1.00  0.00    -0.014 C 
ATOM      7  C   UNL     1     -19.888 -15.900  -7.621  1.00  0.00     0.007 C 
ATOM      8  C   UNL     1     -20.188 -13.876  -6.128  1.00  0.00     0.007 C 
ENDBRANCH   3   6
ENDBRANCH   2   3
ENDBRANCH   1   2
BRANCH   1   9
ATOM      9  C   UNL     1     -23.306 -14.986  -8.310  1.00  0.00    -0.011 C 
ATOM     10  C   UNL     1     -22.169 -13.963  -8.152  1.00  0.00     0.008 C 
BRANCH   9  11
ATOM     11  C   UNL     1     -23.333 -15.622  -9.751  1.00  0.00    -0.002 C 
ATOM     12  C   UNL     1     -23.147 -17.135  -9.751  1.00  0.00     0.005 C 
ATOM     13  C   UNL     1     -22.416 -15.107 -10.920  1.00  0.00    -0.026 C 
ATOM     14  C   UNL     1     -23.024 -17.506 -11.215  1.00  0.00     0.005 C 
ATOM     15  C   UNL     1     -22.265 -16.348 -11.870  1.00  0.00    -0.001 C 
ATOM     16  C   UNL     1     -23.027 -13.891 -11.667  1.00  0.00     0.007 C 
ATOM     17  C   UNL     1     -21.019 -14.682 -10.418  1.00  0.00     0.012 C 
ATOM     18  C   UNL     1     -22.695 -16.120 -13.353  1.00  0.00     0.000 C 
ATOM     19  C   UNL     1     -24.249 -14.216 -12.534  1.00  0.00     0.005 C 
ATOM     20  C   UNL     1     -24.094 -15.444 -13.495  1.00  0.00     0.003 C 
ATOM     21  C   UNL     1     -21.578 -15.397 -14.157  1.00  0.00     0.031 C 
ATOM     22  C   UNL     1     -24.438 -15.111 -15.003  1.00  0.00    -0.008 C 
ATOM     23  C   UNL     1     -22.042 -14.373 -15.162  1.00  0.00    -0.027 C 
ATOM     24  C   UNL     1     -23.314 -14.295 -15.620  1.00  0.00    -0.065 C 
ATOM     25  C   UNL     1     -24.597 -16.403 -15.882  1.00  0.00     0.014 C 
ATOM     26  C   UNL     1     -25.793 -14.328 -15.055  1.00  0.00     0.016 C 
ATOM     27  C   UNL     1     -23.506 -13.876 -17.058  1.00  0.00     0.063 C 
ATOM     28  C   UNL     1     -24.687 -16.107 -17.412  1.00  0.00     0.033 C 
ATOM     29  C   UNL     1     -23.570 -15.159 -17.918  1.00  0.00     0.118 C 
BRANCH  29  30
ATOM     30  O   UNL     1     -22.339 -15.846 -17.889  1.00  0.00    -0.393 OA
ATOM     31  H   UNL     1     -21.965 -15.731 -16.976  1.00  0.00     0.210 HD
ENDBRANCH  29  30
ENDBRANCH   9  11
ENDBRANCH   1   9
TORSDOF 7
ENDMDL
MODEL 7
REMARK VINA RESULT:     3.385      2.889      7.379
REMARK INTER + INTRA:           2.415
REMARK INTER:                   1.535
REMARK INTRA:                   0.880
REMARK UNBOUND:                -2.257
REMARK SMILES CC[C@H](CC[C@@H](C)[C@@H]1CC[C@H]2[C@@H]3CC=C4C[C@@H](O)CC[C@@]4(C)[C@@H]3CC[C@]21C)C(C)C
REMARK SMILES IDX 5 1 4 2 3 3 2 4 1 5 28 6 29 7 30 8 6 9 7 10 8 11 9 12 26 13
REMARK SMILES IDX 10 14 11 15 25 16 27 17 12 18 24 19 23 20 13 21 21 22 14 23
REMARK SMILES IDX 15 24 20 25 22 26 16 27 19 28 17 29 18 30
REMARK H PARENT 18 31
REMARK Flexibility Score: inf
ROOT
ATOM      1  C   UNL     1     -21.589 -15.930  -7.239  1.00  0.00     0.004 C 
ENDROOT
BRANCH   1   2
ATOM      2  C   UNL     1     -22.839 -16.254  -6.383  1.00  0.00     0.004 C 
BRANCH   2   3
ATOM      3  C   UNL     1     -23.425 -17.658  -6.715  1.00  0.00    -0.009 C 
BRANCH   3   4
ATOM      4  C   UNL     1     -23.646 -18.459  -5.401  1.00  0.00     0.000 C 
ATOM      5  C   UNL     1     -22.543 -18.265  -4.358  1.00  0.00     0.004 C 
ENDBRANCH   3   4
BRANCH   3   6
ATOM      6  C   UNL     1     -24.693 -17.505  -7.636  1.00  0.00    -0.014 C 
ATOM      7  C   UNL     1     -24.902 -16.064  -8.131  1.00  0.00     0.007 C 
ATOM      8  C   UNL     1     -24.744 -18.500  -8.807  1.00  0.00     0.007 C 
ENDBRANCH   3   6
ENDBRANCH   2   3
ENDBRANCH   1   2
BRANCH   1   9
ATOM      9  C   UNL     1     -21.896 -14.952  -8.411  1.00  0.00    -0.011 C 
ATOM     10  C   UNL     1     -20.803 -13.875  -8.528  1.00  0.00     0.008 C 
BRANCH   9  11
ATOM     11  C   UNL     1     -22.246 -15.593  -9.807  1.00  0.00    -0.002 C 
ATOM     12  C   UNL     1     -22.152 -17.113  -9.818  1.00  0.00     0.005 C 
ATOM     13  C   UNL     1     -21.552 -15.140 -11.143  1.00  0.00    -0.026 C 
ATOM     14  C   UNL     1     -22.345 -17.499 -11.271  1.00  0.00     0.005 C 
ATOM     15  C   UNL     1     -21.665 -16.392 -12.083  1.00  0.00    -0.001 C 
ATOM     16  C   UNL     1     -22.228 -13.892 -11.774  1.00  0.00     0.007 C 
ATOM     17  C   UNL     1     -20.060 -14.797 -10.935  1.00  0.00     0.012 C 
ATOM     18  C   UNL     1     -22.369 -16.146 -13.454  1.00  0.00     0.000 C 
ATOM     19  C   UNL     1     -23.615 -14.147 -12.375  1.00  0.00     0.005 C 
ATOM     20  C   UNL     1     -23.726 -15.387 -13.327  1.00  0.00     0.003 C 
ATOM     21  C   UNL     1     -21.395 -15.495 -14.477  1.00  0.00     0.031 C 
ATOM     22  C   UNL     1     -24.345 -15.042 -14.742  1.00  0.00    -0.008 C 
ATOM     23  C   UNL     1     -21.989 -14.451 -15.387  1.00  0.00    -0.027 C 
ATOM     24  C   UNL     1     -23.320 -14.298 -15.584  1.00  0.00    -0.065 C 
ATOM     25  C   UNL     1     -24.750 -16.326 -15.550  1.00  0.00     0.014 C 
ATOM     26  C   UNL     1     -25.634 -14.178 -14.537  1.00  0.00     0.016 C 
ATOM     27  C   UNL     1     -23.771 -13.875 -16.961  1.00  0.00     0.063 C 
ATOM     28  C   UNL     1     -25.125 -16.033 -17.036  1.00  0.00     0.033 C 
ATOM     29  C   UNL     1     -24.079 -15.157 -17.770  1.00  0.00     0.118 C 
BRANCH  29  30
ATOM     30  O   UNL     1     -22.909 -15.916 -17.975  1.00  0.00    -0.393 OA
ATOM     31  H   UNL     1     -22.177 -15.273 -18.168  1.00  0.00     0.210 HD
ENDBRANCH  29  30
ENDBRANCH   9  11
ENDBRANCH   1   9
TORSDOF 7
ENDMDL
