MODEL 1
REMARK VINA RESULT:    -7.588      0.000      0.000
REMARK INTER + INTRA:          -8.133
REMARK INTER:                  -8.253
REMARK INTRA:                   0.120
REMARK UNBOUND:                 0.120
REMARK SMILES CC1(C)CC[C@@]2(C(=O)[O-])CC[C@@]3(C)C(=CC[C@@H]4[C@]5(C)CC[C@H](O)C(C)(C)[C@H]5CC[C@@]43C)[C@@H]2C1
REMARK SMILES IDX 6 1 5 2 10 3 32 4 4 5 11 6 14 7 33 8 2 9 12 10 15 11 1 12
REMARK SMILES IDX 3 13 13 14 30 15 16 16 17 17 29 18 31 19 18 20 28 21 27 22
REMARK SMILES IDX 20 23 19 24 24 25 21 26 22 27 25 28 26 29 7 30 8 31 9 32
REMARK SMILES IDX 23 33
REMARK H PARENT 23 34
REMARK Flexibility Score: inf
ROOT
ATOM      1  C   UNL     1       9.099  16.563 -18.361  1.00  0.00     0.017 C 
ATOM      2  C   UNL     1       9.498  18.056 -18.253  1.00  0.00     0.014 C 
ATOM      3  C   UNL     1      10.310  15.700 -17.943  1.00  0.00     0.014 C 
ATOM      4  C   UNL     1       7.939  16.282 -17.357  1.00  0.00     0.028 C 
ATOM      5  C   UNL     1       8.322  18.988 -18.580  1.00  0.00     0.007 C 
ATOM      6  C   UNL     1       9.982  14.207 -18.061  1.00  0.00     0.013 C 
ATOM      7  C   UNL     1       7.632  14.773 -17.205  1.00  0.00    -0.064 C 
ATOM      8  C   UNL     1       6.716  17.219 -17.620  1.00  0.00     0.015 C 
ATOM      9  C   UNL     1       7.078  18.737 -17.685  1.00  0.00    -0.035 C 
ATOM     10  C   UNL     1       8.792  13.751 -17.144  1.00  0.00    -0.006 C 
ATOM     11  C   UNL     1       6.435  14.379 -16.718  1.00  0.00    -0.027 C 
ATOM     12  C   UNL     1       7.320  19.295 -16.256  1.00  0.00     0.011 C 
ATOM     13  C   UNL     1       5.875  19.500 -18.293  1.00  0.00     0.011 C 
ATOM     14  C   UNL     1       9.336  13.745 -15.671  1.00  0.00     0.017 C 
ATOM     15  C   UNL     1       8.254  12.286 -17.590  1.00  0.00    -0.020 C 
ATOM     16  C   UNL     1       6.278  13.070 -16.004  1.00  0.00     0.032 C 
ATOM     17  C   UNL     1       6.874  11.900 -16.826  1.00  0.00     0.006 C 
ATOM     18  C   UNL     1       9.427  11.252 -17.414  1.00  0.00     0.008 C 
ATOM     19  C   UNL     1       7.905  12.271 -19.120  1.00  0.00     0.012 C 
ATOM     20  C   UNL     1       6.720  10.431 -16.167  1.00  0.00    -0.025 C 
ATOM     21  C   UNL     1       8.987   9.827 -17.151  1.00  0.00     0.005 C 
ATOM     22  C   UNL     1       8.128   9.808 -15.876  1.00  0.00     0.003 C 
ATOM     23  C   UNL     1       5.942  10.466 -14.810  1.00  0.00     0.010 C 
ATOM     24  C   UNL     1       5.875   9.569 -17.167  1.00  0.00     0.012 C 
ATOM     25  C   UNL     1       8.185   8.448 -15.059  1.00  0.00    -0.006 C 
ATOM     26  C   UNL     1       5.879   9.108 -14.100  1.00  0.00     0.033 C 
ATOM     27  C   UNL     1       7.286   8.569 -13.785  1.00  0.00     0.120 C 
ATOM     28  C   UNL     1       7.766   7.195 -15.890  1.00  0.00     0.014 C 
ATOM     29  C   UNL     1       9.646   8.192 -14.574  1.00  0.00     0.014 C 
ENDROOT
BRANCH   1  30
ATOM     30  C   UNL     1       8.752  16.255 -19.817  1.00  0.00     0.048 C 
ATOM     31  O   UNL     1       9.557  16.494 -20.756  1.00  0.00    -0.550 OA
ATOM     32  O   UNL     1       7.503  15.728 -20.128  1.00  0.00    -0.550 OA
ENDBRANCH   1  30
BRANCH  27  33
ATOM     33  O   UNL     1       7.898   9.411 -12.834  1.00  0.00    -0.393 OA
ATOM     34  H   UNL     1       7.248  10.121 -12.604  1.00  0.00     0.210 HD
ENDBRANCH  27  33
TORSDOF 2
ENDMDL
MODEL 2
REMARK VINA RESULT:    -7.321      1.911      3.633
REMARK INTER + INTRA:          -7.843
REMARK INTER:                  -7.927
REMARK INTRA:                   0.084
REMARK UNBOUND:                 0.120
REMARK SMILES CC1(C)CC[C@@]2(C(=O)[O-])CC[C@@]3(C)C(=CC[C@@H]4[C@]5(C)CC[C@H](O)C(C)(C)[C@H]5CC[C@@]43C)[C@@H]2C1
REMARK SMILES IDX 6 1 5 2 10 3 32 4 4 5 11 6 14 7 33 8 2 9 12 10 15 11 1 12
REMARK SMILES IDX 3 13 13 14 30 15 16 16 17 17 29 18 31 19 18 20 28 21 27 22
REMARK SMILES IDX 20 23 19 24 24 25 21 26 22 27 25 28 26 29 7 30 8 31 9 32
REMARK SMILES IDX 23 33
REMARK H PARENT 23 34
REMARK Flexibility Score: inf
ROOT
ATOM      1  C   UNL     1       8.191  15.986 -19.230  1.00  0.00     0.017 C 
ATOM      2  C   UNL     1       7.626  17.007 -20.249  1.00  0.00     0.014 C 
ATOM      3  C   UNL     1       7.237  15.924 -18.017  1.00  0.00     0.014 C 
ATOM      4  C   UNL     1       8.214  14.575 -19.895  1.00  0.00     0.028 C 
ATOM      5  C   UNL     1       8.480  17.073 -21.524  1.00  0.00     0.007 C 
ATOM      6  C   UNL     1       7.764  14.949 -16.957  1.00  0.00     0.013 C 
ATOM      7  C   UNL     1       8.526  13.443 -18.888  1.00  0.00    -0.064 C 
ATOM      8  C   UNL     1       9.047  14.581 -21.217  1.00  0.00     0.015 C 
ATOM      9  C   UNL     1       8.633  15.697 -22.228  1.00  0.00    -0.035 C 
ATOM     10  C   UNL     1       7.899  13.473 -17.473  1.00  0.00    -0.006 C 
ATOM     11  C   UNL     1       8.981  12.252 -19.337  1.00  0.00    -0.027 C 
ATOM     12  C   UNL     1       7.315  15.309 -22.949  1.00  0.00     0.011 C 
ATOM     13  C   UNL     1       9.742  15.818 -23.303  1.00  0.00     0.011 C 
ATOM     14  C   UNL     1       6.440  12.904 -17.595  1.00  0.00     0.017 C 
ATOM     15  C   UNL     1       8.803  12.590 -16.455  1.00  0.00    -0.020 C 
ATOM     16  C   UNL     1       8.742  10.988 -18.568  1.00  0.00     0.032 C 
ATOM     17  C   UNL     1       9.163  11.138 -17.085  1.00  0.00     0.006 C 
ATOM     18  C   UNL     1       8.081  12.552 -15.058  1.00  0.00     0.008 C 
ATOM     19  C   UNL     1      10.184  13.291 -16.199  1.00  0.00     0.012 C 
ATOM     20  C   UNL     1       8.989   9.815 -16.170  1.00  0.00    -0.025 C 
ATOM     21  C   UNL     1       8.382  11.327 -14.218  1.00  0.00     0.005 C 
ATOM     22  C   UNL     1       7.968  10.077 -15.012  1.00  0.00     0.003 C 
ATOM     23  C   UNL     1       8.453   8.592 -16.988  1.00  0.00     0.010 C 
ATOM     24  C   UNL     1      10.414   9.434 -15.643  1.00  0.00     0.012 C 
ATOM     25  C   UNL     1       7.523   8.843 -14.118  1.00  0.00    -0.006 C 
ATOM     26  C   UNL     1       8.164   7.355 -16.130  1.00  0.00     0.033 C 
ATOM     27  C   UNL     1       7.113   7.652 -15.044  1.00  0.00     0.120 C 
ATOM     28  C   UNL     1       8.610   8.377 -13.100  1.00  0.00     0.014 C 
ATOM     29  C   UNL     1       6.265   9.233 -13.280  1.00  0.00     0.014 C 
ENDROOT
BRANCH   1  30
ATOM     30  C   UNL     1       9.560  16.475 -18.757  1.00  0.00     0.048 C 
ATOM     31  O   UNL     1      10.572  15.725 -18.767  1.00  0.00    -0.550 OA
ATOM     32  O   UNL     1       9.695  17.771 -18.270  1.00  0.00    -0.550 OA
ENDBRANCH   1  30
BRANCH  27  33
ATOM     33  O   UNL     1       5.875   7.919 -15.666  1.00  0.00    -0.393 OA
ATOM     34  H   UNL     1       5.800   8.900 -15.767  1.00  0.00     0.210 HD
ENDBRANCH  27  33
TORSDOF 2
ENDMDL
MODEL 3
REMARK VINA RESULT:    -5.138      0.981      1.016
REMARK INTER + INTRA:          -5.468
REMARK INTER:                  -5.830
REMARK INTRA:                   0.362
REMARK UNBOUND:                 0.120
REMARK SMILES CC1(C)CC[C@@]2(C(=O)[O-])CC[C@@]3(C)C(=CC[C@@H]4[C@]5(C)CC[C@H](O)C(C)(C)[C@H]5CC[C@@]43C)[C@@H]2C1
REMARK SMILES IDX 6 1 5 2 10 3 32 4 4 5 11 6 14 7 33 8 2 9 12 10 15 11 1 12
REMARK SMILES IDX 3 13 13 14 30 15 16 16 17 17 29 18 31 19 18 20 28 21 27 22
REMARK SMILES IDX 20 23 19 24 24 25 21 26 22 27 25 28 26 29 7 30 8 31 9 32
REMARK SMILES IDX 23 33
REMARK H PARENT 23 34
REMARK Flexibility Score: inf
ROOT
ATOM      1  C   UNL     1       9.248  15.817 -17.726  1.00  0.00     0.017 C 
ATOM      2  C   UNL     1       9.531  17.335 -17.599  1.00  0.00     0.014 C 
ATOM      3  C   UNL     1      10.430  15.043 -17.101  1.00  0.00     0.014 C 
ATOM      4  C   UNL     1       7.965  15.477 -16.906  1.00  0.00     0.028 C 
ATOM      5  C   UNL     1       8.364  18.181 -18.130  1.00  0.00     0.007 C 
ATOM      6  C   UNL     1      10.219  13.531 -17.226  1.00  0.00     0.013 C 
ATOM      7  C   UNL     1       7.733  13.955 -16.761  1.00  0.00    -0.064 C 
ATOM      8  C   UNL     1       6.742  16.326 -17.381  1.00  0.00     0.015 C 
ATOM      9  C   UNL     1       7.014  17.864 -17.432  1.00  0.00    -0.035 C 
ATOM     10  C   UNL     1       8.932  13.012 -16.493  1.00  0.00    -0.006 C 
ATOM     11  C   UNL     1       6.501  13.490 -16.455  1.00  0.00    -0.027 C 
ATOM     12  C   UNL     1       6.993  18.462 -15.999  1.00  0.00     0.011 C 
ATOM     13  C   UNL     1       5.875  18.535 -18.240  1.00  0.00     0.011 C 
ATOM     14  C   UNL     1       9.237  13.069 -14.954  1.00  0.00     0.017 C 
ATOM     15  C   UNL     1       8.563  11.508 -16.976  1.00  0.00    -0.020 C 
ATOM     16  C   UNL     1       6.317  12.187 -15.738  1.00  0.00     0.032 C 
ATOM     17  C   UNL     1       7.107  11.045 -16.425  1.00  0.00     0.006 C 
ATOM     18  C   UNL     1       9.756  10.557 -16.591  1.00  0.00     0.008 C 
ATOM     19  C   UNL     1       8.459  11.443 -18.541  1.00  0.00     0.012 C 
ATOM     20  C   UNL     1       6.944   9.580 -15.757  1.00  0.00    -0.025 C 
ATOM     21  C   UNL     1       9.370   9.110 -16.360  1.00  0.00     0.005 C 
ATOM     22  C   UNL     1       8.325   9.058 -15.233  1.00  0.00     0.003 C 
ATOM     23  C   UNL     1       5.963   9.588 -14.538  1.00  0.00     0.010 C 
ATOM     24  C   UNL     1       6.322   8.647 -16.851  1.00  0.00     0.012 C 
ATOM     25  C   UNL     1       8.339   7.719 -14.380  1.00  0.00    -0.006 C 
ATOM     26  C   UNL     1       5.875   8.242 -13.809  1.00  0.00     0.033 C 
ATOM     27  C   UNL     1       7.246   7.803 -13.265  1.00  0.00     0.120 C 
ATOM     28  C   UNL     1       8.134   6.427 -15.231  1.00  0.00     0.014 C 
ATOM     29  C   UNL     1       9.719   7.569 -13.668  1.00  0.00     0.014 C 
ENDROOT
BRANCH   1  30
ATOM     30  C   UNL     1       9.153  15.461 -19.209  1.00  0.00     0.048 C 
ATOM     31  O   UNL     1       9.876  16.022 -20.074  1.00  0.00    -0.550 OA
ATOM     32  O   UNL     1       8.222  14.517 -19.629  1.00  0.00    -0.550 OA
ENDBRANCH   1  30
BRANCH  27  33
ATOM     33  O   UNL     1       7.648   8.701 -12.254  1.00  0.00    -0.393 OA
ATOM     34  H   UNL     1       7.447   9.615 -12.573  1.00  0.00     0.210 HD
ENDBRANCH  27  33
TORSDOF 2
ENDMDL
