MODEL 1
REMARK VINA RESULT:    -4.326      0.000      0.000
REMARK INTER + INTRA:          -9.953
REMARK INTER:                  -8.119
REMARK INTRA:                  -1.833
REMARK UNBOUND:                -1.833
REMARK SMILES CCCCCCCCC=CCCCCCCCC(=O)[O-]
REMARK SMILES IDX 10 1 9 2 11 3 12 4 13 5 14 6 15 7 16 8 17 9 18 10 19 11
REMARK SMILES IDX 20 12 8 13 7 14 6 15 5 16 4 17 3 18 2 19 1 20
REMARK H PARENT
REMARK Flexibility Score: inf
ROOT
ATOM      1  C   UNL     1      -2.529  25.929   0.319  1.00  0.00    -0.031 C 
ATOM      2  C   UNL     1      -3.210  25.411   1.357  1.00  0.00    -0.031 C 
ENDROOT
BRANCH   1   3
ATOM      3  C   UNL     1      -1.433  26.955   0.473  1.00  0.00     0.027 C 
BRANCH   3   4
ATOM      4  C   UNL     1      -1.929  28.357   0.094  1.00  0.00     0.004 C 
BRANCH   4   5
ATOM      5  C   UNL     1      -2.002  29.300   1.308  1.00  0.00     0.000 C 
BRANCH   5   6
ATOM      6  C   UNL     1      -3.390  29.944   1.462  1.00  0.00     0.000 C 
BRANCH   6   7
ATOM      7  C   UNL     1      -4.520  29.058   0.915  1.00  0.00     0.000 C 
BRANCH   7   8
ATOM      8  C   UNL     1      -5.400  29.783  -0.117  1.00  0.00     0.006 C 
BRANCH   8   9
ATOM      9  C   UNL     1      -5.543  31.280   0.193  1.00  0.00     0.053 C 
BRANCH   9  10
ATOM     10  C   UNL     1      -6.909  31.791  -0.150  1.00  0.00     0.041 C 
ATOM     11  O   UNL     1      -7.898  31.487   0.569  1.00  0.00    -0.550 OA
ATOM     12  O   UNL     1      -7.096  32.572  -1.283  1.00  0.00    -0.550 OA
ENDBRANCH   9  10
ENDBRANCH   8   9
ENDBRANCH   7   8
ENDBRANCH   6   7
ENDBRANCH   5   6
ENDBRANCH   4   5
ENDBRANCH   3   4
ENDBRANCH   1   3
BRANCH   2  13
ATOM     13  C   UNL     1      -3.009  25.820   2.795  1.00  0.00     0.027 C 
BRANCH  13  14
ATOM     14  C   UNL     1      -4.324  26.306   3.414  1.00  0.00     0.004 C 
BRANCH  14  15
ATOM     15  C   UNL     1      -5.529  25.645   2.728  1.00  0.00     0.000 C 
BRANCH  15  16
ATOM     16  C   UNL     1      -6.622  26.655   2.346  1.00  0.00     0.000 C 
BRANCH  16  17
ATOM     17  C   UNL     1      -7.793  26.669   3.345  1.00  0.00    -0.000 C 
BRANCH  17  18
ATOM     18  C   UNL     1      -7.566  25.695   4.521  1.00  0.00    -0.000 C 
BRANCH  18  19
ATOM     19  C   UNL     1      -6.995  26.374   5.777  1.00  0.00    -0.003 C 
ATOM     20  C   UNL     1      -7.437  25.702   7.076  1.00  0.00     0.004 C 
ENDBRANCH  18  19
ENDBRANCH  17  18
ENDBRANCH  16  17
ENDBRANCH  15  16
ENDBRANCH  14  15
ENDBRANCH  13  14
ENDBRANCH   2  13
TORSDOF 15
ENDMDL
MODEL 2
REMARK VINA RESULT:    -4.191      3.536      5.872
REMARK INTER + INTRA:          -9.700
REMARK INTER:                  -7.056
REMARK INTRA:                  -2.644
REMARK UNBOUND:                -1.833
REMARK SMILES CCCCCCCCC=CCCCCCCCC(=O)[O-]
REMARK SMILES IDX 10 1 9 2 11 3 12 4 13 5 14 6 15 7 16 8 17 9 18 10 19 11
REMARK SMILES IDX 20 12 8 13 7 14 6 15 5 16 4 17 3 18 2 19 1 20
REMARK H PARENT
REMARK Flexibility Score: inf
ROOT
ATOM      1  C   UNL     1      -1.698  25.915  -0.727  1.00  0.00    -0.031 C 
ATOM      2  C   UNL     1      -0.986  24.970  -1.369  1.00  0.00    -0.031 C 
ENDROOT
BRANCH   1   3
ATOM      3  C   UNL     1      -1.648  26.122   0.767  1.00  0.00     0.027 C 
BRANCH   3   4
ATOM      4  C   UNL     1      -2.779  25.358   1.470  1.00  0.00     0.004 C 
BRANCH   4   5
ATOM      5  C   UNL     1      -3.024  25.863   2.903  1.00  0.00     0.000 C 
BRANCH   5   6
ATOM      6  C   UNL     1      -4.474  26.331   3.116  1.00  0.00     0.000 C 
BRANCH   6   7
ATOM      7  C   UNL     1      -4.943  27.319   2.037  1.00  0.00     0.000 C 
BRANCH   7   8
ATOM      8  C   UNL     1      -6.273  26.902   1.385  1.00  0.00     0.006 C 
BRANCH   8   9
ATOM      9  C   UNL     1      -7.152  26.080   2.336  1.00  0.00     0.053 C 
BRANCH   9  10
ATOM     10  C   UNL     1      -7.653  24.826   1.686  1.00  0.00     0.041 C 
ATOM     11  O   UNL     1      -8.774  24.814   1.113  1.00  0.00    -0.550 OA
ATOM     12  O   UNL     1      -6.898  23.662   1.746  1.00  0.00    -0.550 OA
ENDBRANCH   9  10
ENDBRANCH   8   9
ENDBRANCH   7   8
ENDBRANCH   6   7
ENDBRANCH   5   6
ENDBRANCH   4   5
ENDBRANCH   3   4
ENDBRANCH   1   3
BRANCH   2  13
ATOM     13  C   UNL     1      -0.093  23.967  -0.682  1.00  0.00     0.027 C 
BRANCH  13  14
ATOM     14  C   UNL     1      -0.505  22.535  -1.040  1.00  0.00     0.004 C 
BRANCH  14  15
ATOM     15  C   UNL     1      -1.480  21.968   0.003  1.00  0.00     0.000 C 
BRANCH  15  16
ATOM     16  C   UNL     1      -2.834  21.571  -0.605  1.00  0.00     0.000 C 
BRANCH  16  17
ATOM     17  C   UNL     1      -3.951  22.579  -0.278  1.00  0.00    -0.000 C 
BRANCH  17  18
ATOM     18  C   UNL     1      -4.492  23.277  -1.543  1.00  0.00    -0.000 C 
BRANCH  18  19
ATOM     19  C   UNL     1      -5.149  24.639  -1.258  1.00  0.00    -0.003 C 
ATOM     20  C   UNL     1      -6.526  24.788  -1.904  1.00  0.00     0.004 C 
ENDBRANCH  18  19
ENDBRANCH  17  18
ENDBRANCH  16  17
ENDBRANCH  15  16
ENDBRANCH  14  15
ENDBRANCH  13  14
ENDBRANCH   2  13
TORSDOF 15
ENDMDL
MODEL 3
REMARK VINA RESULT:    -4.187      4.558      6.514
REMARK INTER + INTRA:          -9.691
REMARK INTER:                  -7.557
REMARK INTRA:                  -2.134
REMARK UNBOUND:                -1.833
REMARK SMILES CCCCCCCCC=CCCCCCCCC(=O)[O-]
REMARK SMILES IDX 10 1 9 2 11 3 12 4 13 5 14 6 15 7 16 8 17 9 18 10 19 11
REMARK SMILES IDX 20 12 8 13 7 14 6 15 5 16 4 17 3 18 2 19 1 20
REMARK H PARENT
REMARK Flexibility Score: inf
ROOT
ATOM      1  C   UNL     1      -3.554  24.961  -0.994  1.00  0.00    -0.031 C 
ATOM      2  C   UNL     1      -3.053  26.137  -0.575  1.00  0.00    -0.031 C 
ENDROOT
BRANCH   1   3
ATOM      3  C   UNL     1      -4.640  24.212  -0.262  1.00  0.00     0.027 C 
BRANCH   3   4
ATOM      4  C   UNL     1      -4.116  22.881   0.297  1.00  0.00     0.004 C 
BRANCH   4   5
ATOM      5  C   UNL     1      -3.293  22.095  -0.739  1.00  0.00     0.000 C 
BRANCH   5   6
ATOM      6  C   UNL     1      -1.898  21.721  -0.211  1.00  0.00     0.000 C 
BRANCH   6   7
ATOM      7  C   UNL     1      -0.775  22.538  -0.870  1.00  0.00     0.000 C 
BRANCH   7   8
ATOM      8  C   UNL     1      -0.240  23.658   0.039  1.00  0.00     0.006 C 
BRANCH   8   9
ATOM      9  C   UNL     1       0.250  24.871  -0.763  1.00  0.00     0.053 C 
BRANCH   9  10
ATOM     10  C   UNL     1       1.395  24.517  -1.662  1.00  0.00     0.041 C 
ATOM     11  O   UNL     1       1.354  24.811  -2.886  1.00  0.00    -0.550 OA
ATOM     12  O   UNL     1       2.492  23.831  -1.156  1.00  0.00    -0.550 OA
ENDBRANCH   9  10
ENDBRANCH   8   9
ENDBRANCH   7   8
ENDBRANCH   6   7
ENDBRANCH   5   6
ENDBRANCH   4   5
ENDBRANCH   3   4
ENDBRANCH   1   3
BRANCH   2  13
ATOM     13  C   UNL     1      -3.470  26.834   0.697  1.00  0.00     0.027 C 
BRANCH  13  14
ATOM     14  C   UNL     1      -2.761  26.223   1.911  1.00  0.00     0.004 C 
BRANCH  14  15
ATOM     15  C   UNL     1      -3.779  25.674   2.922  1.00  0.00     0.000 C 
BRANCH  15  16
ATOM     16  C   UNL     1      -5.138  26.387   2.840  1.00  0.00     0.000 C 
BRANCH  16  17
ATOM     17  C   UNL     1      -6.318  25.456   3.175  1.00  0.00    -0.000 C 
BRANCH  17  18
ATOM     18  C   UNL     1      -7.471  26.208   3.873  1.00  0.00    -0.000 C 
BRANCH  18  19
ATOM     19  C   UNL     1      -7.653  25.817   5.349  1.00  0.00    -0.003 C 
ATOM     20  C   UNL     1      -6.574  26.396   6.261  1.00  0.00     0.004 C 
ENDBRANCH  18  19
ENDBRANCH  17  18
ENDBRANCH  16  17
ENDBRANCH  15  16
ENDBRANCH  14  15
ENDBRANCH  13  14
ENDBRANCH   2  13
TORSDOF 15
ENDMDL
MODEL 4
REMARK VINA RESULT:    -4.123      2.922      4.633
REMARK INTER + INTRA:          -9.572
REMARK INTER:                  -6.608
REMARK INTRA:                  -2.964
REMARK UNBOUND:                -1.833
REMARK SMILES CCCCCCCCC=CCCCCCCCC(=O)[O-]
REMARK SMILES IDX 10 1 9 2 11 3 12 4 13 5 14 6 15 7 16 8 17 9 18 10 19 11
REMARK SMILES IDX 20 12 8 13 7 14 6 15 5 16 4 17 3 18 2 19 1 20
REMARK H PARENT
REMARK Flexibility Score: inf
ROOT
ATOM      1  C   UNL     1      -1.810  21.755  -0.040  1.00  0.00    -0.031 C 
ATOM      2  C   UNL     1      -3.151  21.857  -0.023  1.00  0.00    -0.031 C 
ENDROOT
BRANCH   1   3
ATOM      3  C   UNL     1      -0.941  22.392  -1.097  1.00  0.00     0.027 C 
BRANCH   3   4
ATOM      4  C   UNL     1      -0.065  23.502  -0.500  1.00  0.00     0.004 C 
BRANCH   4   5
ATOM      5  C   UNL     1      -0.886  24.532   0.294  1.00  0.00     0.000 C 
BRANCH   5   6
ATOM      6  C   UNL     1      -1.017  25.872  -0.451  1.00  0.00     0.000 C 
BRANCH   6   7
ATOM      7  C   UNL     1      -2.226  25.908  -1.399  1.00  0.00     0.000 C 
BRANCH   7   8
ATOM      8  C   UNL     1      -3.290  26.932  -0.969  1.00  0.00     0.006 C 
BRANCH   8   9
ATOM      9  C   UNL     1      -4.399  27.091  -2.017  1.00  0.00     0.053 C 
BRANCH   9  10
ATOM     10  C   UNL     1      -5.700  27.494  -1.394  1.00  0.00     0.041 C 
ATOM     11  O   UNL     1      -5.891  28.687  -1.040  1.00  0.00    -0.550 OA
ATOM     12  O   UNL     1      -6.689  26.544  -1.171  1.00  0.00    -0.550 OA
ENDBRANCH   9  10
ENDBRANCH   8   9
ENDBRANCH   7   8
ENDBRANCH   6   7
ENDBRANCH   5   6
ENDBRANCH   4   5
ENDBRANCH   3   4
ENDBRANCH   1   3
BRANCH   2  13
ATOM     13  C   UNL     1      -3.963  22.570  -1.077  1.00  0.00     0.027 C 
BRANCH  13  14
ATOM     14  C   UNL     1      -4.861  23.639  -0.443  1.00  0.00     0.004 C 
BRANCH  14  15
ATOM     15  C   UNL     1      -4.489  23.862   1.031  1.00  0.00     0.000 C 
BRANCH  15  16
ATOM     16  C   UNL     1      -5.506  24.744   1.772  1.00  0.00     0.000 C 
BRANCH  16  17
ATOM     17  C   UNL     1      -4.841  25.708   2.770  1.00  0.00    -0.000 C 
BRANCH  17  18
ATOM     18  C   UNL     1      -3.301  25.616   2.730  1.00  0.00    -0.000 C 
BRANCH  18  19
ATOM     19  C   UNL     1      -2.604  26.987   2.737  1.00  0.00    -0.003 C 
ATOM     20  C   UNL     1      -3.536  28.135   2.353  1.00  0.00     0.004 C 
ENDBRANCH  18  19
ENDBRANCH  17  18
ENDBRANCH  16  17
ENDBRANCH  15  16
ENDBRANCH  14  15
ENDBRANCH  13  14
ENDBRANCH   2  13
TORSDOF 15
ENDMDL
MODEL 5
REMARK VINA RESULT:    -4.089      1.410      2.253
REMARK INTER + INTRA:          -9.508
REMARK INTER:                  -7.340
REMARK INTRA:                  -2.168
REMARK UNBOUND:                -1.833
REMARK SMILES CCCCCCCCC=CCCCCCCCC(=O)[O-]
REMARK SMILES IDX 10 1 9 2 11 3 12 4 13 5 14 6 15 7 16 8 17 9 18 10 19 11
REMARK SMILES IDX 20 12 8 13 7 14 6 15 5 16 4 17 3 18 2 19 1 20
REMARK H PARENT
REMARK Flexibility Score: inf
ROOT
ATOM      1  C   UNL     1      -3.675  27.126   3.617  1.00  0.00    -0.031 C 
ATOM      2  C   UNL     1      -3.861  25.905   3.083  1.00  0.00    -0.031 C 
ENDROOT
BRANCH   1   3
ATOM      3  C   UNL     1      -2.578  28.066   3.180  1.00  0.00     0.027 C 
BRANCH   3   4
ATOM      4  C   UNL     1      -3.143  29.227   2.349  1.00  0.00     0.004 C 
BRANCH   4   5
ATOM      5  C   UNL     1      -3.509  28.798   0.918  1.00  0.00     0.000 C 
BRANCH   5   6
ATOM      6  C   UNL     1      -5.021  28.895   0.650  1.00  0.00     0.000 C 
BRANCH   6   7
ATOM      7  C   UNL     1      -5.347  29.105  -0.837  1.00  0.00     0.000 C 
BRANCH   7   8
ATOM      8  C   UNL     1      -5.184  30.568  -1.282  1.00  0.00     0.006 C 
BRANCH   8   9
ATOM      9  C   UNL     1      -6.028  31.530  -0.435  1.00  0.00     0.053 C 
BRANCH   9  10
ATOM     10  C   UNL     1      -7.288  31.932  -1.138  1.00  0.00     0.041 C 
ATOM     11  O   UNL     1      -8.297  31.179  -1.111  1.00  0.00    -0.550 OA
ATOM     12  O   UNL     1      -7.336  33.121  -1.855  1.00  0.00    -0.550 OA
ENDBRANCH   9  10
ENDBRANCH   8   9
ENDBRANCH   7   8
ENDBRANCH   6   7
ENDBRANCH   5   6
ENDBRANCH   4   5
ENDBRANCH   3   4
ENDBRANCH   1   3
BRANCH   2  13
ATOM     13  C   UNL     1      -2.977  25.298   2.021  1.00  0.00     0.027 C 
BRANCH  13  14
ATOM     14  C   UNL     1      -3.819  24.651   0.916  1.00  0.00     0.004 C 
BRANCH  14  15
ATOM     15  C   UNL     1      -5.081  23.998   1.499  1.00  0.00     0.000 C 
BRANCH  15  16
ATOM     16  C   UNL     1      -6.346  24.330   0.693  1.00  0.00     0.000 C 
BRANCH  16  17
ATOM     17  C   UNL     1      -7.476  24.902   1.569  1.00  0.00    -0.000 C 
BRANCH  17  18
ATOM     18  C   UNL     1      -7.163  26.332   2.061  1.00  0.00    -0.000 C 
BRANCH  18  19
ATOM     19  C   UNL     1      -7.733  26.638   3.456  1.00  0.00    -0.003 C 
ATOM     20  C   UNL     1      -7.490  25.515   4.463  1.00  0.00     0.004 C 
ENDBRANCH  18  19
ENDBRANCH  17  18
ENDBRANCH  16  17
ENDBRANCH  15  16
ENDBRANCH  14  15
ENDBRANCH  13  14
ENDBRANCH   2  13
TORSDOF 15
ENDMDL
MODEL 6
REMARK VINA RESULT:    -4.073      4.100      6.846
REMARK INTER + INTRA:          -9.477
REMARK INTER:                  -6.438
REMARK INTRA:                  -3.039
REMARK UNBOUND:                -1.833
REMARK SMILES CCCCCCCCC=CCCCCCCCC(=O)[O-]
REMARK SMILES IDX 10 1 9 2 11 3 12 4 13 5 14 6 15 7 16 8 17 9 18 10 19 11
REMARK SMILES IDX 20 12 8 13 7 14 6 15 5 16 4 17 3 18 2 19 1 20
REMARK H PARENT
REMARK Flexibility Score: inf
ROOT
ATOM      1  C   UNL     1      -4.321  25.161  -1.010  1.00  0.00    -0.031 C 
ATOM      2  C   UNL     1      -4.849  26.300  -0.525  1.00  0.00    -0.031 C 
ENDROOT
BRANCH   1   3
ATOM      3  C   UNL     1      -4.850  23.789  -0.671  1.00  0.00     0.027 C 
BRANCH   3   4
ATOM      4  C   UNL     1      -3.937  23.075   0.335  1.00  0.00     0.004 C 
BRANCH   4   5
ATOM      5  C   UNL     1      -3.358  21.765  -0.227  1.00  0.00     0.000 C 
BRANCH   5   6
ATOM      6  C   UNL     1      -1.819  21.764  -0.233  1.00  0.00     0.000 C 
BRANCH   6   7
ATOM      7  C   UNL     1      -1.223  23.084   0.280  1.00  0.00     0.000 C 
BRANCH   7   8
ATOM      8  C   UNL     1      -0.156  23.663  -0.665  1.00  0.00     0.006 C 
BRANCH   8   9
ATOM      9  C   UNL     1      -0.741  24.699  -1.634  1.00  0.00     0.053 C 
BRANCH   9  10
ATOM     10  C   UNL     1       0.333  25.462  -2.348  1.00  0.00     0.041 C 
ATOM     11  O   UNL     1       1.531  25.079  -2.283  1.00  0.00    -0.550 OA
ATOM     12  O   UNL     1       0.017  26.616  -3.053  1.00  0.00    -0.550 OA
ENDBRANCH   9  10
ENDBRANCH   8   9
ENDBRANCH   7   8
ENDBRANCH   6   7
ENDBRANCH   5   6
ENDBRANCH   4   5
ENDBRANCH   3   4
ENDBRANCH   1   3
BRANCH   2  13
ATOM     13  C   UNL     1      -5.997  26.356   0.452  1.00  0.00     0.027 C 
BRANCH  13  14
ATOM     14  C   UNL     1      -5.546  26.956   1.789  1.00  0.00     0.004 C 
BRANCH  14  15
ATOM     15  C   UNL     1      -5.239  25.849   2.810  1.00  0.00     0.000 C 
BRANCH  15  16
ATOM     16  C   UNL     1      -3.733  25.611   2.990  1.00  0.00     0.000 C 
BRANCH  16  17
ATOM     17  C   UNL     1      -2.885  26.834   2.595  1.00  0.00    -0.000 C 
BRANCH  17  18
ATOM     18  C   UNL     1      -1.881  26.507   1.469  1.00  0.00    -0.000 C 
BRANCH  18  19
ATOM     19  C   UNL     1      -1.470  27.735   0.639  1.00  0.00    -0.003 C 
ATOM     20  C   UNL     1      -2.487  28.873   0.707  1.00  0.00     0.004 C 
ENDBRANCH  18  19
ENDBRANCH  17  18
ENDBRANCH  16  17
ENDBRANCH  15  16
ENDBRANCH  14  15
ENDBRANCH  13  14
ENDBRANCH   2  13
TORSDOF 15
ENDMDL
MODEL 7
REMARK VINA RESULT:    -4.055      2.090      2.742
REMARK INTER + INTRA:          -9.444
REMARK INTER:                  -7.246
REMARK INTRA:                  -2.198
REMARK UNBOUND:                -1.833
REMARK SMILES CCCCCCCCC=CCCCCCCCC(=O)[O-]
REMARK SMILES IDX 10 1 9 2 11 3 12 4 13 5 14 6 15 7 16 8 17 9 18 10 19 11
REMARK SMILES IDX 20 12 8 13 7 14 6 15 5 16 4 17 3 18 2 19 1 20
REMARK H PARENT
REMARK Flexibility Score: inf
ROOT
ATOM      1  C   UNL     1      -3.697  26.533   3.381  1.00  0.00    -0.031 C 
ATOM      2  C   UNL     1      -3.832  25.308   2.840  1.00  0.00    -0.031 C 
ENDROOT
BRANCH   1   3
ATOM      3  C   UNL     1      -3.486  27.784   2.564  1.00  0.00     0.027 C 
BRANCH   3   4
ATOM      4  C   UNL     1      -1.993  28.112   2.426  1.00  0.00     0.004 C 
BRANCH   4   5
ATOM      5  C   UNL     1      -1.494  27.971   0.978  1.00  0.00     0.000 C 
BRANCH   5   6
ATOM      6  C   UNL     1      -1.657  29.274   0.176  1.00  0.00     0.000 C 
BRANCH   6   7
ATOM      7  C   UNL     1      -2.711  29.157  -0.937  1.00  0.00     0.000 C 
BRANCH   7   8
ATOM      8  C   UNL     1      -3.285  27.736  -1.067  1.00  0.00     0.006 C 
BRANCH   8   9
ATOM      9  C   UNL     1      -4.387  27.651  -2.131  1.00  0.00     0.053 C 
BRANCH   9  10
ATOM     10  C   UNL     1      -5.737  27.963  -1.560  1.00  0.00     0.041 C 
ATOM     11  O   UNL     1      -6.472  27.035  -1.130  1.00  0.00    -0.550 OA
ATOM     12  O   UNL     1      -6.197  29.273  -1.536  1.00  0.00    -0.550 OA
ENDBRANCH   9  10
ENDBRANCH   8   9
ENDBRANCH   7   8
ENDBRANCH   6   7
ENDBRANCH   5   6
ENDBRANCH   4   5
ENDBRANCH   3   4
ENDBRANCH   1   3
BRANCH   2  13
ATOM     13  C   UNL     1      -3.741  25.017   1.362  1.00  0.00     0.027 C 
BRANCH  13  14
ATOM     14  C   UNL     1      -5.098  24.563   0.812  1.00  0.00     0.004 C 
BRANCH  14  15
ATOM     15  C   UNL     1      -6.027  24.110   1.948  1.00  0.00     0.000 C 
BRANCH  15  16
ATOM     16  C   UNL     1      -7.430  24.728   1.849  1.00  0.00     0.000 C 
BRANCH  16  17
ATOM     17  C   UNL     1      -7.532  26.088   2.563  1.00  0.00    -0.000 C 
BRANCH  17  18
ATOM     18  C   UNL     1      -8.057  25.947   4.008  1.00  0.00    -0.000 C 
BRANCH  18  19
ATOM     19  C   UNL     1      -6.958  26.088   5.075  1.00  0.00    -0.003 C 
ATOM     20  C   UNL     1      -7.450  25.777   6.488  1.00  0.00     0.004 C 
ENDBRANCH  18  19
ENDBRANCH  17  18
ENDBRANCH  16  17
ENDBRANCH  15  16
ENDBRANCH  14  15
ENDBRANCH  13  14
ENDBRANCH   2  13
TORSDOF 15
ENDMDL
MODEL 8
REMARK VINA RESULT:    -4.035      1.817      4.656
REMARK INTER + INTRA:          -9.407
REMARK INTER:                  -6.793
REMARK INTRA:                  -2.614
REMARK UNBOUND:                -1.833
REMARK SMILES CCCCCCCCC=CCCCCCCCC(=O)[O-]
REMARK SMILES IDX 10 1 9 2 11 3 12 4 13 5 14 6 15 7 16 8 17 9 18 10 19 11
REMARK SMILES IDX 20 12 8 13 7 14 6 15 5 16 4 17 3 18 2 19 1 20
REMARK H PARENT
REMARK Flexibility Score: inf
ROOT
ATOM      1  C   UNL     1      -5.859  25.994   2.570  1.00  0.00    -0.031 C 
ATOM      2  C   UNL     1      -4.823  26.240   3.393  1.00  0.00    -0.031 C 
ENDROOT
BRANCH   1   3
ATOM      3  C   UNL     1      -5.731  25.219   1.281  1.00  0.00     0.027 C 
BRANCH   3   4
ATOM      4  C   UNL     1      -5.864  26.143   0.063  1.00  0.00     0.004 C 
BRANCH   4   5
ATOM      5  C   UNL     1      -5.555  27.611   0.405  1.00  0.00     0.000 C 
BRANCH   5   6
ATOM      6  C   UNL     1      -4.671  28.284  -0.659  1.00  0.00     0.000 C 
BRANCH   6   7
ATOM      7  C   UNL     1      -3.893  29.489  -0.108  1.00  0.00     0.000 C 
BRANCH   7   8
ATOM      8  C   UNL     1      -4.783  30.462   0.684  1.00  0.00     0.006 C 
BRANCH   8   9
ATOM      9  C   UNL     1      -5.384  31.556  -0.208  1.00  0.00     0.053 C 
BRANCH   9  10
ATOM     10  C   UNL     1      -6.862  31.387  -0.377  1.00  0.00     0.041 C 
ATOM     11  O   UNL     1      -7.343  31.106  -1.507  1.00  0.00    -0.550 OA
ATOM     12  O   UNL     1      -7.713  31.576   0.705  1.00  0.00    -0.550 OA
ENDBRANCH   9  10
ENDBRANCH   8   9
ENDBRANCH   7   8
ENDBRANCH   6   7
ENDBRANCH   5   6
ENDBRANCH   4   5
ENDBRANCH   3   4
ENDBRANCH   1   3
BRANCH   2  13
ATOM     13  C   UNL     1      -3.400  25.822   3.117  1.00  0.00     0.027 C 
BRANCH  13  14
ATOM     14  C   UNL     1      -2.566  27.014   2.631  1.00  0.00     0.004 C 
BRANCH  14  15
ATOM     15  C   UNL     1      -1.903  26.704   1.281  1.00  0.00     0.000 C 
BRANCH  15  16
ATOM     16  C   UNL     1      -2.221  25.289   0.774  1.00  0.00     0.000 C 
BRANCH  16  17
ATOM     17  C   UNL     1      -2.335  25.218  -0.759  1.00  0.00    -0.000 C 
BRANCH  17  18
ATOM     18  C   UNL     1      -2.873  23.854  -1.240  1.00  0.00    -0.000 C 
BRANCH  18  19
ATOM     19  C   UNL     1      -2.647  22.716  -0.230  1.00  0.00    -0.003 C 
ATOM     20  C   UNL     1      -1.367  21.925  -0.493  1.00  0.00     0.004 C 
ENDBRANCH  18  19
ENDBRANCH  17  18
ENDBRANCH  16  17
ENDBRANCH  15  16
ENDBRANCH  14  15
ENDBRANCH  13  14
ENDBRANCH   2  13
TORSDOF 15
ENDMDL
MODEL 9
REMARK VINA RESULT:    -4.024      1.695      3.332
REMARK INTER + INTRA:          -9.387
REMARK INTER:                  -6.633
REMARK INTRA:                  -2.753
REMARK UNBOUND:                -1.833
REMARK SMILES CCCCCCCCC=CCCCCCCCC(=O)[O-]
REMARK SMILES IDX 10 1 9 2 11 3 12 4 13 5 14 6 15 7 16 8 17 9 18 10 19 11
REMARK SMILES IDX 20 12 8 13 7 14 6 15 5 16 4 17 3 18 2 19 1 20
REMARK H PARENT
REMARK Flexibility Score: inf
ROOT
ATOM      1  C   UNL     1      -0.660  30.220   0.582  1.00  0.00    -0.031 C 
ATOM      2  C   UNL     1      -0.951  30.416   1.881  1.00  0.00    -0.031 C 
ENDROOT
BRANCH   1   3
ATOM      3  C   UNL     1      -0.326  28.868  -0.000  1.00  0.00     0.027 C 
BRANCH   3   4
ATOM      4  C   UNL     1      -1.579  28.181  -0.561  1.00  0.00     0.004 C 
BRANCH   4   5
ATOM      5  C   UNL     1      -2.705  29.181  -0.872  1.00  0.00     0.000 C 
BRANCH   5   6
ATOM      6  C   UNL     1      -4.063  28.724  -0.310  1.00  0.00     0.000 C 
BRANCH   6   7
ATOM      7  C   UNL     1      -4.532  29.581   0.876  1.00  0.00     0.000 C 
BRANCH   7   8
ATOM      8  C   UNL     1      -4.917  31.012   0.462  1.00  0.00     0.006 C 
BRANCH   8   9
ATOM      9  C   UNL     1      -5.911  31.030  -0.707  1.00  0.00     0.053 C 
BRANCH   9  10
ATOM     10  C   UNL     1      -7.139  31.824  -0.381  1.00  0.00     0.041 C 
ATOM     11  O   UNL     1      -7.816  31.551   0.645  1.00  0.00    -0.550 OA
ATOM     12  O   UNL     1      -7.556  32.841  -1.230  1.00  0.00    -0.550 OA
ENDBRANCH   9  10
ENDBRANCH   8   9
ENDBRANCH   7   8
ENDBRANCH   6   7
ENDBRANCH   5   6
ENDBRANCH   4   5
ENDBRANCH   3   4
ENDBRANCH   1   3
BRANCH   2  13
ATOM     13  C   UNL     1      -0.933  29.331   2.929  1.00  0.00     0.027 C 
BRANCH  13  14
ATOM     14  C   UNL     1      -2.165  29.427   3.835  1.00  0.00     0.004 C 
BRANCH  14  15
ATOM     15  C   UNL     1      -2.976  28.122   3.797  1.00  0.00     0.000 C 
BRANCH  15  16
ATOM     16  C   UNL     1      -2.467  27.139   2.733  1.00  0.00     0.000 C 
BRANCH  16  17
ATOM     17  C   UNL     1      -3.158  25.765   2.815  1.00  0.00    -0.000 C 
BRANCH  17  18
ATOM     18  C   UNL     1      -3.864  25.390   1.495  1.00  0.00    -0.000 C 
BRANCH  18  19
ATOM     19  C   UNL     1      -5.354  25.771   1.468  1.00  0.00    -0.003 C 
ATOM     20  C   UNL     1      -5.951  25.957   2.861  1.00  0.00     0.004 C 
ENDBRANCH  18  19
ENDBRANCH  17  18
ENDBRANCH  16  17
ENDBRANCH  15  16
ENDBRANCH  14  15
ENDBRANCH  13  14
ENDBRANCH   2  13
TORSDOF 15
ENDMDL
