MODEL 1
REMARK VINA RESULT:    -5.034      0.000      0.000
REMARK INTER + INTRA:          -5.915
REMARK INTER:                  -5.769
REMARK INTRA:                  -0.146
REMARK UNBOUND:                -0.146
REMARK SMILES O=C([O-])C=Cc1ccc(O)cc1
REMARK SMILES IDX 6 1 7 2 12 3 8 4 11 5 9 6 5 7 4 8 2 9 1 10 3 11 10 12
REMARK H PARENT 10 13
REMARK Flexibility Score: inf
ROOT
ATOM      1  C   UNL     1      45.708   8.307  20.920  1.00  0.00    -0.025 A 
ATOM      2  C   UNL     1      46.776   8.111  21.813  1.00  0.00     0.012 A 
ATOM      3  C   UNL     1      44.436   8.624  21.439  1.00  0.00     0.012 A 
ATOM      4  C   UNL     1      46.586   8.256  23.190  1.00  0.00     0.047 A 
ATOM      5  C   UNL     1      44.251   8.767  22.819  1.00  0.00     0.047 A 
ATOM      6  C   UNL     1      45.323   8.586  23.696  1.00  0.00     0.115 A 
ENDROOT
BRANCH   1   7
ATOM      7  C   UNL     1      45.957   8.132  19.467  1.00  0.00     0.010 C 
ATOM      8  C   UNL     1      46.673   7.124  18.949  1.00  0.00     0.025 C 
BRANCH   8   9
ATOM      9  C   UNL     1      46.889   6.978  17.500  1.00  0.00     0.064 C 
ATOM     10  O   UNL     1      47.156   5.857  16.990  1.00  0.00    -0.545 OA
ATOM     11  O   UNL     1      46.795   8.095  16.681  1.00  0.00    -0.545 OA
ENDBRANCH   8   9
ENDBRANCH   1   7
BRANCH   6  12
ATOM     12  O   UNL     1      45.122   8.733  25.067  1.00  0.00    -0.508 OA
ATOM     13  H   UNL     1      44.193   8.721  25.470  1.00  0.00     0.293 HD
ENDBRANCH   6  12
TORSDOF 3
ENDMDL
MODEL 2
REMARK VINA RESULT:    -5.008      2.308      5.811
REMARK INTER + INTRA:          -5.885
REMARK INTER:                  -5.732
REMARK INTRA:                  -0.153
REMARK UNBOUND:                -0.146
REMARK SMILES O=C([O-])C=Cc1ccc(O)cc1
REMARK SMILES IDX 6 1 7 2 12 3 8 4 11 5 9 6 5 7 4 8 2 9 1 10 3 11 10 12
REMARK H PARENT 10 13
REMARK Flexibility Score: inf
ROOT
ATOM      1  C   UNL     1      46.014   7.386  18.569  1.00  0.00    -0.025 A 
ATOM      2  C   UNL     1      44.862   8.191  18.517  1.00  0.00     0.012 A 
ATOM      3  C   UNL     1      46.368   6.632  17.432  1.00  0.00     0.012 A 
ATOM      4  C   UNL     1      44.098   8.264  17.349  1.00  0.00     0.047 A 
ATOM      5  C   UNL     1      45.600   6.708  16.265  1.00  0.00     0.047 A 
ATOM      6  C   UNL     1      44.466   7.523  16.220  1.00  0.00     0.115 A 
ENDROOT
BRANCH   1   7
ATOM      7  C   UNL     1      46.787   7.335  19.835  1.00  0.00     0.010 C 
ATOM      8  C   UNL     1      46.406   7.943  20.967  1.00  0.00     0.025 C 
BRANCH   8   9
ATOM      9  C   UNL     1      47.194   7.860  22.207  1.00  0.00     0.064 C 
ATOM     10  O   UNL     1      46.860   8.501  23.238  1.00  0.00    -0.545 OA
ATOM     11  O   UNL     1      48.328   7.058  22.242  1.00  0.00    -0.545 OA
ENDBRANCH   8   9
ENDBRANCH   1   7
BRANCH   6  12
ATOM     12  O   UNL     1      43.712   7.588  15.050  1.00  0.00    -0.508 OA
ATOM     13  H   UNL     1      43.627   6.791  14.430  1.00  0.00     0.293 HD
ENDBRANCH   6  12
TORSDOF 3
ENDMDL
MODEL 3
REMARK VINA RESULT:    -4.914      2.521      6.004
REMARK INTER + INTRA:          -5.778
REMARK INTER:                  -5.633
REMARK INTRA:                  -0.144
REMARK UNBOUND:                -0.146
REMARK SMILES O=C([O-])C=Cc1ccc(O)cc1
REMARK SMILES IDX 6 1 7 2 12 3 8 4 11 5 9 6 5 7 4 8 2 9 1 10 3 11 10 12
REMARK H PARENT 10 13
REMARK Flexibility Score: inf
ROOT
ATOM      1  C   UNL     1      45.909   7.395  18.007  1.00  0.00    -0.025 A 
ATOM      2  C   UNL     1      46.826   6.651  17.246  1.00  0.00     0.012 A 
ATOM      3  C   UNL     1      44.679   7.762  17.422  1.00  0.00     0.012 A 
ATOM      4  C   UNL     1      46.514   6.257  15.942  1.00  0.00     0.047 A 
ATOM      5  C   UNL     1      44.372   7.366  16.116  1.00  0.00     0.047 A 
ATOM      6  C   UNL     1      45.285   6.613  15.374  1.00  0.00     0.115 A 
ENDROOT
BRANCH   1   7
ATOM      7  C   UNL     1      46.290   7.798  19.384  1.00  0.00     0.010 C 
ATOM      8  C   UNL     1      46.870   6.973  20.268  1.00  0.00     0.025 C 
BRANCH   8   9
ATOM      9  C   UNL     1      47.245   7.412  21.622  1.00  0.00     0.064 C 
ATOM     10  O   UNL     1      48.107   6.789  22.296  1.00  0.00    -0.545 OA
ATOM     11  O   UNL     1      46.636   8.535  22.168  1.00  0.00    -0.545 OA
ENDBRANCH   8   9
ENDBRANCH   1   7
BRANCH   6  12
ATOM     12  O   UNL     1      44.963   6.226  14.076  1.00  0.00    -0.508 OA
ATOM     13  H   UNL     1      45.014   6.877  13.301  1.00  0.00     0.293 HD
ENDBRANCH   6  12
TORSDOF 3
ENDMDL
MODEL 4
REMARK VINA RESULT:    -4.802      1.351      5.974
REMARK INTER + INTRA:          -5.650
REMARK INTER:                  -5.504
REMARK INTRA:                  -0.146
REMARK UNBOUND:                -0.146
REMARK SMILES O=C([O-])C=Cc1ccc(O)cc1
REMARK SMILES IDX 6 1 7 2 12 3 8 4 11 5 9 6 5 7 4 8 2 9 1 10 3 11 10 12
REMARK H PARENT 10 13
REMARK Flexibility Score: inf
ROOT
ATOM      1  C   UNL     1      45.612   8.010  19.648  1.00  0.00    -0.025 A 
ATOM      2  C   UNL     1      44.579   8.430  18.793  1.00  0.00     0.012 A 
ATOM      3  C   UNL     1      46.625   7.177  19.132  1.00  0.00     0.012 A 
ATOM      4  C   UNL     1      44.571   8.053  17.448  1.00  0.00     0.047 A 
ATOM      5  C   UNL     1      46.613   6.800  17.784  1.00  0.00     0.047 A 
ATOM      6  C   UNL     1      45.589   7.237  16.940  1.00  0.00     0.115 A 
ENDROOT
BRANCH   1   7
ATOM      7  C   UNL     1      45.571   8.430  21.071  1.00  0.00     0.010 C 
ATOM      8  C   UNL     1      44.451   8.461  21.807  1.00  0.00     0.025 C 
BRANCH   8   9
ATOM      9  C   UNL     1      44.452   8.873  23.221  1.00  0.00     0.064 C 
ATOM     10  O   UNL     1      43.470   9.479  23.725  1.00  0.00    -0.545 OA
ATOM     11  O   UNL     1      45.556   8.587  24.014  1.00  0.00    -0.545 OA
ENDBRANCH   8   9
ENDBRANCH   1   7
BRANCH   6  12
ATOM     12  O   UNL     1      45.592   6.854  15.600  1.00  0.00    -0.508 OA
ATOM     13  H   UNL     1      45.384   5.903  15.321  1.00  0.00     0.293 HD
ENDBRANCH   6  12
TORSDOF 3
ENDMDL
MODEL 5
REMARK VINA RESULT:    -4.751      1.727      2.725
REMARK INTER + INTRA:          -5.591
REMARK INTER:                  -5.453
REMARK INTRA:                  -0.139
REMARK UNBOUND:                -0.146
REMARK SMILES O=C([O-])C=Cc1ccc(O)cc1
REMARK SMILES IDX 6 1 7 2 12 3 8 4 11 5 9 6 5 7 4 8 2 9 1 10 3 11 10 12
REMARK H PARENT 10 13
REMARK Flexibility Score: inf
ROOT
ATOM      1  C   UNL     1      45.925   7.704  18.668  1.00  0.00    -0.025 A 
ATOM      2  C   UNL     1      44.816   8.521  18.946  1.00  0.00     0.012 A 
ATOM      3  C   UNL     1      46.738   7.274  19.737  1.00  0.00     0.012 A 
ATOM      4  C   UNL     1      44.508   8.879  20.262  1.00  0.00     0.047 A 
ATOM      5  C   UNL     1      46.427   7.636  21.052  1.00  0.00     0.047 A 
ATOM      6  C   UNL     1      45.313   8.436  21.318  1.00  0.00     0.115 A 
ENDROOT
BRANCH   1   7
ATOM      7  C   UNL     1      46.216   7.358  17.254  1.00  0.00     0.010 C 
ATOM      8  C   UNL     1      46.930   6.287  16.881  1.00  0.00     0.025 C 
BRANCH   8   9
ATOM      9  C   UNL     1      47.188   5.970  15.466  1.00  0.00     0.064 C 
ATOM     10  O   UNL     1      47.943   5.017  15.138  1.00  0.00    -0.545 OA
ATOM     11  O   UNL     1      46.586   6.735  14.475  1.00  0.00    -0.545 OA
ENDBRANCH   8   9
ENDBRANCH   1   7
BRANCH   6  12
ATOM     12  O   UNL     1      45.016   8.786  22.633  1.00  0.00    -0.508 OA
ATOM     13  H   UNL     1      44.109   9.157  22.891  1.00  0.00     0.293 HD
ENDBRANCH   6  12
TORSDOF 3
ENDMDL
MODEL 6
REMARK VINA RESULT:    -4.640      2.291      3.273
REMARK INTER + INTRA:          -5.464
REMARK INTER:                  -5.323
REMARK INTRA:                  -0.141
REMARK UNBOUND:                -0.146
REMARK SMILES O=C([O-])C=Cc1ccc(O)cc1
REMARK SMILES IDX 6 1 7 2 12 3 8 4 11 5 9 6 5 7 4 8 2 9 1 10 3 11 10 12
REMARK H PARENT 10 13
REMARK Flexibility Score: inf
ROOT
ATOM      1  C   UNL     1      45.722   7.703  18.450  1.00  0.00    -0.025 A 
ATOM      2  C   UNL     1      44.779   8.529  19.084  1.00  0.00     0.012 A 
ATOM      3  C   UNL     1      46.715   7.079  19.233  1.00  0.00     0.012 A 
ATOM      4  C   UNL     1      44.807   8.707  20.470  1.00  0.00     0.047 A 
ATOM      5  C   UNL     1      46.740   7.261  20.620  1.00  0.00     0.047 A 
ATOM      6  C   UNL     1      45.788   8.072  21.242  1.00  0.00     0.115 A 
ENDROOT
BRANCH   1   7
ATOM      7  C   UNL     1      45.656   7.552  16.975  1.00  0.00     0.010 C 
ATOM      8  C   UNL     1      44.598   7.047  16.324  1.00  0.00     0.025 C 
BRANCH   8   9
ATOM      9  C   UNL     1      44.565   6.924  14.857  1.00  0.00     0.064 C 
ATOM     10  O   UNL     1      45.625   6.804  14.188  1.00  0.00    -0.545 OA
ATOM     11  O   UNL     1      43.342   6.939  14.199  1.00  0.00    -0.545 OA
ENDBRANCH   8   9
ENDBRANCH   1   7
BRANCH   6  12
ATOM     12  O   UNL     1      45.825   8.242  22.624  1.00  0.00    -0.508 OA
ATOM     13  H   UNL     1      45.067   8.692  23.123  1.00  0.00     0.293 HD
ENDBRANCH   6  12
TORSDOF 3
ENDMDL
MODEL 7
REMARK VINA RESULT:    -4.638      1.523      5.833
REMARK INTER + INTRA:          -5.462
REMARK INTER:                  -5.314
REMARK INTRA:                  -0.148
REMARK UNBOUND:                -0.146
REMARK SMILES O=C([O-])C=Cc1ccc(O)cc1
REMARK SMILES IDX 6 1 7 2 12 3 8 4 11 5 9 6 5 7 4 8 2 9 1 10 3 11 10 12
REMARK H PARENT 10 13
REMARK Flexibility Score: inf
ROOT
ATOM      1  C   UNL     1      45.022   8.680  21.026  1.00  0.00    -0.025 A 
ATOM      2  C   UNL     1      46.126   7.894  21.398  1.00  0.00     0.012 A 
ATOM      3  C   UNL     1      44.678   8.768  19.662  1.00  0.00     0.012 A 
ATOM      4  C   UNL     1      46.853   7.189  20.435  1.00  0.00     0.047 A 
ATOM      5  C   UNL     1      45.410   8.061  18.701  1.00  0.00     0.047 A 
ATOM      6  C   UNL     1      46.496   7.270  19.083  1.00  0.00     0.115 A 
ENDROOT
BRANCH   1   7
ATOM      7  C   UNL     1      44.287   9.417  22.084  1.00  0.00     0.010 C 
ATOM      8  C   UNL     1      44.109   8.952  23.330  1.00  0.00     0.025 C 
BRANCH   8   9
ATOM      9  C   UNL     1      43.383   9.718  24.357  1.00  0.00     0.064 C 
ATOM     10  O   UNL     1      42.691  10.725  24.053  1.00  0.00    -0.545 OA
ATOM     11  O   UNL     1      43.462   9.321  25.685  1.00  0.00    -0.545 OA
ENDBRANCH   8   9
ENDBRANCH   1   7
BRANCH   6  12
ATOM     12  O   UNL     1      47.213   6.572  18.115  1.00  0.00    -0.508 OA
ATOM     13  H   UNL     1      46.840   6.423  17.184  1.00  0.00     0.293 HD
ENDBRANCH   6  12
TORSDOF 3
ENDMDL
MODEL 8
REMARK VINA RESULT:    -4.461      1.936      2.265
REMARK INTER + INTRA:          -5.259
REMARK INTER:                  -5.120
REMARK INTRA:                  -0.139
REMARK UNBOUND:                -0.146
REMARK SMILES O=C([O-])C=Cc1ccc(O)cc1
REMARK SMILES IDX 6 1 7 2 12 3 8 4 11 5 9 6 5 7 4 8 2 9 1 10 3 11 10 12
REMARK H PARENT 10 13
REMARK Flexibility Score: inf
ROOT
ATOM      1  C   UNL     1      45.665   8.080  19.331  1.00  0.00    -0.025 A 
ATOM      2  C   UNL     1      46.701   7.432  20.026  1.00  0.00     0.012 A 
ATOM      3  C   UNL     1      44.664   8.745  20.069  1.00  0.00     0.012 A 
ATOM      4  C   UNL     1      46.754   7.471  21.421  1.00  0.00     0.047 A 
ATOM      5  C   UNL     1      44.721   8.780  21.466  1.00  0.00     0.047 A 
ATOM      6  C   UNL     1      45.764   8.146  22.145  1.00  0.00     0.115 A 
ENDROOT
BRANCH   1   7
ATOM      7  C   UNL     1      45.647   8.003  17.849  1.00  0.00     0.010 C 
ATOM      8  C   UNL     1      44.533   7.823  17.125  1.00  0.00     0.025 C 
BRANCH   8   9
ATOM      9  C   UNL     1      44.553   7.763  15.654  1.00  0.00     0.064 C 
ATOM     10  O   UNL     1      43.907   6.882  15.028  1.00  0.00    -0.545 OA
ATOM     11  O   UNL     1      45.296   8.697  14.944  1.00  0.00    -0.545 OA
ENDBRANCH   8   9
ENDBRANCH   1   7
BRANCH   6  12
ATOM     12  O   UNL     1      45.807   8.192  23.537  1.00  0.00    -0.508 OA
ATOM     13  H   UNL     1      44.977   8.382  24.086  1.00  0.00     0.293 HD
ENDBRANCH   6  12
TORSDOF 3
ENDMDL
MODEL 9
REMARK VINA RESULT:    -4.321      3.023      3.983
REMARK INTER + INTRA:          -5.098
REMARK INTER:                  -4.946
REMARK INTRA:                  -0.152
REMARK UNBOUND:                -0.146
REMARK SMILES O=C([O-])C=Cc1ccc(O)cc1
REMARK SMILES IDX 6 1 7 2 12 3 8 4 11 5 9 6 5 7 4 8 2 9 1 10 3 11 10 12
REMARK H PARENT 10 13
REMARK Flexibility Score: inf
ROOT
ATOM      1  C   UNL     1      45.606   7.364  17.127  1.00  0.00    -0.025 A 
ATOM      2  C   UNL     1      46.488   7.351  18.221  1.00  0.00     0.012 A 
ATOM      3  C   UNL     1      44.402   8.091  17.234  1.00  0.00     0.012 A 
ATOM      4  C   UNL     1      46.192   8.068  19.383  1.00  0.00     0.047 A 
ATOM      5  C   UNL     1      44.109   8.807  18.399  1.00  0.00     0.047 A 
ATOM      6  C   UNL     1      45.001   8.800  19.474  1.00  0.00     0.115 A 
ENDROOT
BRANCH   1   7
ATOM      7  C   UNL     1      45.961   6.578  15.919  1.00  0.00     0.010 C 
ATOM      8  C   UNL     1      46.967   5.694  15.874  1.00  0.00     0.025 C 
BRANCH   8   9
ATOM      9  C   UNL     1      47.282   4.924  14.659  1.00  0.00     0.064 C 
ATOM     10  O   UNL     1      48.474   4.701  14.318  1.00  0.00    -0.545 OA
ATOM     11  O   UNL     1      46.246   4.433  13.875  1.00  0.00    -0.545 OA
ENDBRANCH   8   9
ENDBRANCH   1   7
BRANCH   6  12
ATOM     12  O   UNL     1      44.695   9.519  20.627  1.00  0.00    -0.508 OA
ATOM     13  H   UNL     1      45.302  10.255  20.968  1.00  0.00     0.293 HD
ENDBRANCH   6  12
TORSDOF 3
ENDMDL
