MODEL 1
REMARK VINA RESULT:    -7.399      0.000      0.000
REMARK INTER + INTRA:         -12.515
REMARK INTER:                 -10.211
REMARK INTRA:                  -2.304
REMARK UNBOUND:                -2.304
REMARK SMILES CC[C@H](CC[C@H](C)[C@H]1CC[C@H]2[C@H]3CC=C4C[C@@H](O)CC[C@@]4(C)[C@@H]3CC[C@]12C)C(C)C
REMARK SMILES IDX 5 1 4 2 3 3 2 4 1 5 28 6 29 7 30 8 6 9 7 10 8 11 9 12 26 13
REMARK SMILES IDX 10 14 11 15 25 16 27 17 12 18 24 19 23 20 13 21 21 22 14 23
REMARK SMILES IDX 15 24 20 25 22 26 16 27 19 28 17 29 18 30
REMARK H PARENT 18 31
REMARK Flexibility Score: inf
ROOT
ATOM      1  C   UNL     1      26.913 -17.147  29.879  1.00  0.00     0.004 C 
ENDROOT
BRANCH   1   2
ATOM      2  C   UNL     1      26.254 -17.438  31.247  1.00  0.00     0.004 C 
BRANCH   2   3
ATOM      3  C   UNL     1      26.670 -18.765  31.932  1.00  0.00    -0.009 C 
BRANCH   3   4
ATOM      4  C   UNL     1      25.538 -19.832  31.974  1.00  0.00     0.000 C 
ATOM      5  C   UNL     1      24.112 -19.296  32.098  1.00  0.00     0.004 C 
ENDBRANCH   3   4
BRANCH   3   6
ATOM      6  C   UNL     1      28.071 -19.264  31.441  1.00  0.00    -0.014 C 
ATOM      7  C   UNL     1      28.173 -20.771  31.147  1.00  0.00     0.007 C 
ATOM      8  C   UNL     1      29.211 -18.821  32.371  1.00  0.00     0.007 C 
ENDBRANCH   3   6
ENDBRANCH   2   3
ENDBRANCH   1   2
BRANCH   1   9
ATOM      9  C   UNL     1      26.008 -17.167  28.604  1.00  0.00    -0.011 C 
ATOM     10  C   UNL     1      25.778 -15.764  28.013  1.00  0.00     0.008 C 
BRANCH   9  11
ATOM     11  C   UNL     1      24.718 -18.068  28.743  1.00  0.00    -0.002 C 
ATOM     12  C   UNL     1      23.324 -17.441  28.429  1.00  0.00     0.005 C 
ATOM     13  C   UNL     1      24.726 -19.387  27.909  1.00  0.00    -0.026 C 
ATOM     14  C   UNL     1      22.426 -18.587  27.921  1.00  0.00     0.005 C 
ATOM     15  C   UNL     1      23.271 -19.837  28.122  1.00  0.00    -0.001 C 
ATOM     16  C   UNL     1      25.697 -20.487  28.459  1.00  0.00     0.007 C 
ATOM     17  C   UNL     1      25.036 -19.069  26.407  1.00  0.00     0.012 C 
ATOM     18  C   UNL     1      22.865 -21.185  27.463  1.00  0.00     0.000 C 
ATOM     19  C   UNL     1      25.095 -21.925  28.474  1.00  0.00     0.005 C 
ATOM     20  C   UNL     1      24.081 -22.144  27.320  1.00  0.00     0.003 C 
ATOM     21  C   UNL     1      22.130 -21.110  26.123  1.00  0.00     0.031 C 
ATOM     22  C   UNL     1      23.601 -23.617  27.068  1.00  0.00    -0.008 C 
ATOM     23  C   UNL     1      21.837 -22.497  25.597  1.00  0.00    -0.027 C 
ATOM     24  C   UNL     1      22.520 -23.615  25.963  1.00  0.00    -0.065 C 
ATOM     25  C   UNL     1      24.812 -24.476  26.579  1.00  0.00     0.014 C 
ATOM     26  C   UNL     1      23.013 -24.253  28.356  1.00  0.00     0.016 C 
ATOM     27  C   UNL     1      22.149 -24.937  25.324  1.00  0.00     0.063 C 
ATOM     28  C   UNL     1      24.414 -25.834  25.974  1.00  0.00     0.033 C 
ATOM     29  C   UNL     1      23.400 -25.677  24.834  1.00  0.00     0.118 C 
BRANCH  29  30
ATOM     30  O   UNL     1      23.993 -24.980  23.767  1.00  0.00    -0.393 OA
ATOM     31  H   UNL     1      23.863 -25.533  22.954  1.00  0.00     0.210 HD
ENDBRANCH  29  30
ENDBRANCH   9  11
ENDBRANCH   1   9
TORSDOF 7
ENDMDL
MODEL 2
REMARK VINA RESULT:    -7.366      6.929      9.248
REMARK INTER + INTRA:         -12.469
REMARK INTER:                 -11.570
REMARK INTRA:                  -0.899
REMARK UNBOUND:                -2.304
REMARK SMILES CC[C@H](CC[C@H](C)[C@H]1CC[C@H]2[C@H]3CC=C4C[C@@H](O)CC[C@@]4(C)[C@@H]3CC[C@]12C)C(C)C
REMARK SMILES IDX 5 1 4 2 3 3 2 4 1 5 28 6 29 7 30 8 6 9 7 10 8 11 9 12 26 13
REMARK SMILES IDX 10 14 11 15 25 16 27 17 12 18 24 19 23 20 13 21 21 22 14 23
REMARK SMILES IDX 15 24 20 25 22 26 16 27 19 28 17 29 18 30
REMARK H PARENT 18 31
REMARK Flexibility Score: inf
ROOT
ATOM      1  C   UNL     1      26.176 -27.118  36.616  1.00  0.00     0.004 C 
ENDROOT
BRANCH   1   2
ATOM      2  C   UNL     1      27.261 -26.308  37.364  1.00  0.00     0.004 C 
BRANCH   2   3
ATOM      3  C   UNL     1      26.844 -25.728  38.739  1.00  0.00    -0.009 C 
BRANCH   3   4
ATOM      4  C   UNL     1      26.908 -26.760  39.902  1.00  0.00     0.000 C 
ATOM      5  C   UNL     1      25.592 -27.450  40.264  1.00  0.00     0.004 C 
ENDBRANCH   3   4
BRANCH   3   6
ATOM      6  C   UNL     1      27.507 -24.337  39.015  1.00  0.00    -0.014 C 
ATOM      7  C   UNL     1      28.094 -24.148  40.425  1.00  0.00     0.007 C 
ATOM      8  C   UNL     1      26.580 -23.164  38.659  1.00  0.00     0.007 C 
ENDBRANCH   3   6
ENDBRANCH   2   3
ENDBRANCH   1   2
BRANCH   1   9
ATOM      9  C   UNL     1      26.609 -28.429  35.881  1.00  0.00    -0.011 C 
ATOM     10  C   UNL     1      27.306 -29.435  36.813  1.00  0.00     0.008 C 
BRANCH   9  11
ATOM     11  C   UNL     1      27.318 -28.184  34.490  1.00  0.00    -0.002 C 
ATOM     12  C   UNL     1      28.164 -29.335  33.863  1.00  0.00     0.005 C 
ATOM     13  C   UNL     1      26.379 -27.740  33.325  1.00  0.00    -0.026 C 
ATOM     14  C   UNL     1      28.094 -29.157  32.333  1.00  0.00     0.005 C 
ATOM     15  C   UNL     1      27.364 -27.834  32.148  1.00  0.00    -0.001 C 
ATOM     16  C   UNL     1      25.854 -26.269  33.450  1.00  0.00     0.007 C 
ATOM     17  C   UNL     1      25.187 -28.747  33.184  1.00  0.00     0.012 C 
ATOM     18  C   UNL     1      26.812 -27.418  30.755  1.00  0.00     0.000 C 
ATOM     19  C   UNL     1      25.888 -25.461  32.117  1.00  0.00     0.005 C 
ATOM     20  C   UNL     1      25.671 -26.370  30.879  1.00  0.00     0.003 C 
ATOM     21  C   UNL     1      26.356 -28.545  29.825  1.00  0.00     0.031 C 
ATOM     22  C   UNL     1      25.425 -25.651  29.505  1.00  0.00    -0.008 C 
ATOM     23  C   UNL     1      25.815 -27.981  28.530  1.00  0.00    -0.027 C 
ATOM     24  C   UNL     1      25.343 -26.713  28.385  1.00  0.00    -0.065 C 
ATOM     25  C   UNL     1      24.065 -24.882  29.563  1.00  0.00     0.014 C 
ATOM     26  C   UNL     1      26.563 -24.649  29.176  1.00  0.00     0.016 C 
ATOM     27  C   UNL     1      24.789 -26.291  27.040  1.00  0.00     0.063 C 
ATOM     28  C   UNL     1      23.543 -24.424  28.190  1.00  0.00     0.033 C 
ATOM     29  C   UNL     1      23.433 -25.592  27.203  1.00  0.00     0.118 C 
BRANCH  29  30
ATOM     30  O   UNL     1      22.465 -26.505  27.657  1.00  0.00    -0.393 OA
ATOM     31  H   UNL     1      21.579 -26.130  27.414  1.00  0.00     0.210 HD
ENDBRANCH  29  30
ENDBRANCH   9  11
ENDBRANCH   1   9
TORSDOF 7
ENDMDL
MODEL 3
REMARK VINA RESULT:    -7.328      0.470      1.551
REMARK INTER + INTRA:         -12.417
REMARK INTER:                 -10.348
REMARK INTRA:                  -2.069
REMARK UNBOUND:                -2.304
REMARK SMILES CC[C@H](CC[C@H](C)[C@H]1CC[C@H]2[C@H]3CC=C4C[C@@H](O)CC[C@@]4(C)[C@@H]3CC[C@]12C)C(C)C
REMARK SMILES IDX 5 1 4 2 3 3 2 4 1 5 28 6 29 7 30 8 6 9 7 10 8 11 9 12 26 13
REMARK SMILES IDX 10 14 11 15 25 16 27 17 12 18 24 19 23 20 13 21 21 22 14 23
REMARK SMILES IDX 15 24 20 25 22 26 16 27 19 28 17 29 18 30
REMARK H PARENT 18 31
REMARK Flexibility Score: inf
ROOT
ATOM      1  C   UNL     1      27.030 -17.177  29.694  1.00  0.00     0.004 C 
ENDROOT
BRANCH   1   2
ATOM      2  C   UNL     1      26.553 -17.761  31.044  1.00  0.00     0.004 C 
BRANCH   2   3
ATOM      3  C   UNL     1      27.383 -18.945  31.600  1.00  0.00    -0.009 C 
BRANCH   3   4
ATOM      4  C   UNL     1      28.612 -18.508  32.450  1.00  0.00     0.000 C 
ATOM      5  C   UNL     1      29.918 -19.254  32.178  1.00  0.00     0.004 C 
ENDBRANCH   3   4
BRANCH   3   6
ATOM      6  C   UNL     1      26.475 -20.058  32.225  1.00  0.00    -0.014 C 
ATOM      7  C   UNL     1      26.875 -21.506  31.893  1.00  0.00     0.007 C 
ATOM      8  C   UNL     1      24.984 -19.832  31.929  1.00  0.00     0.007 C 
ENDBRANCH   3   6
ENDBRANCH   2   3
ENDBRANCH   1   2
BRANCH   1   9
ATOM      9  C   UNL     1      26.011 -17.128  28.508  1.00  0.00    -0.011 C 
ATOM     10  C   UNL     1      25.703 -15.693  28.045  1.00  0.00     0.008 C 
BRANCH   9  11
ATOM     11  C   UNL     1      24.756 -18.068  28.698  1.00  0.00    -0.002 C 
ATOM     12  C   UNL     1      23.333 -17.489  28.425  1.00  0.00     0.005 C 
ATOM     13  C   UNL     1      24.778 -19.395  27.877  1.00  0.00    -0.026 C 
ATOM     14  C   UNL     1      22.455 -18.668  27.958  1.00  0.00     0.005 C 
ATOM     15  C   UNL     1      23.346 -19.888  28.142  1.00  0.00    -0.001 C 
ATOM     16  C   UNL     1      25.802 -20.458  28.405  1.00  0.00     0.007 C 
ATOM     17  C   UNL     1      25.029 -19.083  26.362  1.00  0.00     0.012 C 
ATOM     18  C   UNL     1      22.962 -21.256  27.509  1.00  0.00     0.000 C 
ATOM     19  C   UNL     1      25.246 -21.914  28.453  1.00  0.00     0.005 C 
ATOM     20  C   UNL     1      24.202 -22.177  27.336  1.00  0.00     0.003 C 
ATOM     21  C   UNL     1      22.181 -21.217  26.194  1.00  0.00     0.031 C 
ATOM     22  C   UNL     1      23.762 -23.667  27.113  1.00  0.00    -0.008 C 
ATOM     23  C   UNL     1      21.915 -22.618  25.691  1.00  0.00    -0.027 C 
ATOM     24  C   UNL     1      22.646 -23.710  26.045  1.00  0.00    -0.065 C 
ATOM     25  C   UNL     1      24.983 -24.492  26.592  1.00  0.00     0.014 C 
ATOM     26  C   UNL     1      23.237 -24.307  28.425  1.00  0.00     0.016 C 
ATOM     27  C   UNL     1      22.296 -25.050  25.430  1.00  0.00     0.063 C 
ATOM     28  C   UNL     1      24.609 -25.868  26.013  1.00  0.00     0.033 C 
ATOM     29  C   UNL     1      23.554 -25.755  24.906  1.00  0.00     0.118 C 
BRANCH  29  30
ATOM     30  O   UNL     1      24.089 -25.050  23.814  1.00  0.00    -0.393 OA
ATOM     31  H   UNL     1      24.142 -25.690  23.057  1.00  0.00     0.210 HD
ENDBRANCH  29  30
ENDBRANCH   9  11
ENDBRANCH   1   9
TORSDOF 7
ENDMDL
MODEL 4
REMARK VINA RESULT:    -7.068      7.854     10.239
REMARK INTER + INTRA:         -12.059
REMARK INTER:                 -10.189
REMARK INTRA:                  -1.869
REMARK UNBOUND:                -2.304
REMARK SMILES CC[C@H](CC[C@H](C)[C@H]1CC[C@H]2[C@H]3CC=C4C[C@@H](O)CC[C@@]4(C)[C@@H]3CC[C@]12C)C(C)C
REMARK SMILES IDX 5 1 4 2 3 3 2 4 1 5 28 6 29 7 30 8 6 9 7 10 8 11 9 12 26 13
REMARK SMILES IDX 10 14 11 15 25 16 27 17 12 18 24 19 23 20 13 21 21 22 14 23
REMARK SMILES IDX 15 24 20 25 22 26 16 27 19 28 17 29 18 30
REMARK H PARENT 18 31
REMARK Flexibility Score: inf
ROOT
ATOM      1  C   UNL     1      23.913 -28.046  38.064  1.00  0.00     0.004 C 
ENDROOT
BRANCH   1   2
ATOM      2  C   UNL     1      24.678 -26.729  38.330  1.00  0.00     0.004 C 
BRANCH   2   3
ATOM      3  C   UNL     1      25.515 -26.683  39.633  1.00  0.00    -0.009 C 
BRANCH   3   4
ATOM      4  C   UNL     1      25.418 -27.980  40.488  1.00  0.00     0.000 C 
ATOM      5  C   UNL     1      26.475 -29.050  40.212  1.00  0.00     0.004 C 
ENDBRANCH   3   4
BRANCH   3   6
ATOM      6  C   UNL     1      26.958 -26.128  39.385  1.00  0.00    -0.014 C 
ATOM      7  C   UNL     1      27.345 -24.890  40.214  1.00  0.00     0.007 C 
ATOM      8  C   UNL     1      27.247 -25.888  37.896  1.00  0.00     0.007 C 
ENDBRANCH   3   6
ENDBRANCH   2   3
ENDBRANCH   1   2
BRANCH   1   9
ATOM      9  C   UNL     1      24.439 -28.990  36.934  1.00  0.00    -0.011 C 
ATOM     10  C   UNL     1      24.613 -30.446  37.403  1.00  0.00     0.008 C 
BRANCH   9  11
ATOM     11  C   UNL     1      25.643 -28.393  36.104  1.00  0.00    -0.002 C 
ATOM     12  C   UNL     1      27.008 -29.149  36.106  1.00  0.00     0.005 C 
ATOM     13  C   UNL     1      25.361 -28.148  34.589  1.00  0.00    -0.026 C 
ATOM     14  C   UNL     1      27.688 -28.845  34.756  1.00  0.00     0.005 C 
ATOM     15  C   UNL     1      26.782 -27.805  34.112  1.00  0.00    -0.001 C 
ATOM     16  C   UNL     1      24.409 -26.936  34.303  1.00  0.00     0.007 C 
ATOM     17  C   UNL     1      24.811 -29.457  33.928  1.00  0.00     0.012 C 
ATOM     18  C   UNL     1      26.933 -27.442  32.607  1.00  0.00     0.000 C 
ATOM     19  C   UNL     1      24.868 -26.025  33.124  1.00  0.00     0.005 C 
ATOM     20  C   UNL     1      25.628 -26.823  32.032  1.00  0.00     0.003 C 
ATOM     21  C   UNL     1      27.413 -28.552  31.670  1.00  0.00     0.031 C 
ATOM     22  C   UNL     1      25.915 -26.079  30.680  1.00  0.00    -0.008 C 
ATOM     23  C   UNL     1      27.475 -28.055  30.243  1.00  0.00    -0.027 C 
ATOM     24  C   UNL     1      26.770 -26.991  29.772  1.00  0.00    -0.065 C 
ATOM     25  C   UNL     1      24.560 -25.785  29.957  1.00  0.00     0.014 C 
ATOM     26  C   UNL     1      26.667 -24.742  30.914  1.00  0.00     0.016 C 
ATOM     27  C   UNL     1      26.893 -26.627  28.306  1.00  0.00     0.063 C 
ATOM     28  C   UNL     1      24.712 -25.374  28.482  1.00  0.00     0.033 C 
ATOM     29  C   UNL     1      25.509 -26.409  27.680  1.00  0.00     0.118 C 
BRANCH  29  30
ATOM     30  O   UNL     1      24.798 -27.621  27.634  1.00  0.00    -0.393 OA
ATOM     31  H   UNL     1      24.135 -27.537  26.900  1.00  0.00     0.210 HD
ENDBRANCH  29  30
ENDBRANCH   9  11
ENDBRANCH   1   9
TORSDOF 7
ENDMDL
MODEL 5
REMARK VINA RESULT:    -6.945      2.990      6.867
REMARK INTER + INTRA:         -11.888
REMARK INTER:                 -10.015
REMARK INTRA:                  -1.873
REMARK UNBOUND:                -2.304
REMARK SMILES CC[C@H](CC[C@H](C)[C@H]1CC[C@H]2[C@H]3CC=C4C[C@@H](O)CC[C@@]4(C)[C@@H]3CC[C@]12C)C(C)C
REMARK SMILES IDX 5 1 4 2 3 3 2 4 1 5 28 6 29 7 30 8 6 9 7 10 8 11 9 12 26 13
REMARK SMILES IDX 10 14 11 15 25 16 27 17 12 18 24 19 23 20 13 21 21 22 14 23
REMARK SMILES IDX 15 24 20 25 22 26 16 27 19 28 17 29 18 30
REMARK H PARENT 18 31
REMARK Flexibility Score: inf
ROOT
ATOM      1  C   UNL     1      24.826 -26.504  27.087  1.00  0.00     0.004 C 
ENDROOT
BRANCH   1   2
ATOM      2  C   UNL     1      25.232 -26.047  28.508  1.00  0.00     0.004 C 
BRANCH   2   3
ATOM      3  C   UNL     1      26.740 -25.758  28.722  1.00  0.00    -0.009 C 
BRANCH   3   4
ATOM      4  C   UNL     1      27.677 -26.869  28.167  1.00  0.00     0.000 C 
ATOM      5  C   UNL     1      27.997 -28.019  29.122  1.00  0.00     0.004 C 
ENDBRANCH   3   4
BRANCH   3   6
ATOM      6  C   UNL     1      27.115 -24.286  28.342  1.00  0.00    -0.014 C 
ATOM      7  C   UNL     1      28.356 -24.126  27.445  1.00  0.00     0.007 C 
ATOM      8  C   UNL     1      27.222 -23.371  29.572  1.00  0.00     0.007 C 
ENDBRANCH   3   6
ENDBRANCH   2   3
ENDBRANCH   1   2
BRANCH   1   9
ATOM      9  C   UNL     1      24.151 -25.459  26.140  1.00  0.00    -0.011 C 
ATOM     10  C   UNL     1      24.016 -25.964  24.692  1.00  0.00     0.008 C 
BRANCH   9  11
ATOM     11  C   UNL     1      24.709 -23.989  26.299  1.00  0.00    -0.002 C 
ATOM     12  C   UNL     1      25.296 -23.267  25.048  1.00  0.00     0.005 C 
ATOM     13  C   UNL     1      23.706 -22.949  26.888  1.00  0.00    -0.026 C 
ATOM     14  C   UNL     1      25.062 -21.757  25.254  1.00  0.00     0.005 C 
ATOM     15  C   UNL     1      24.512 -21.659  26.670  1.00  0.00    -0.001 C 
ATOM     16  C   UNL     1      23.417 -23.132  28.418  1.00  0.00     0.007 C 
ATOM     17  C   UNL     1      22.373 -22.964  26.064  1.00  0.00     0.012 C 
ATOM     18  C   UNL     1      23.856 -20.344  27.179  1.00  0.00     0.000 C 
ATOM     19  C   UNL     1      23.400 -21.802  29.230  1.00  0.00     0.005 C 
ATOM     20  C   UNL     1      22.902 -20.605  28.378  1.00  0.00     0.003 C 
ATOM     21  C   UNL     1      23.131 -19.484  26.142  1.00  0.00     0.031 C 
ATOM     22  C   UNL     1      22.592 -19.269  29.143  1.00  0.00    -0.008 C 
ATOM     23  C   UNL     1      22.519 -18.264  26.795  1.00  0.00    -0.027 C 
ATOM     24  C   UNL     1      22.219 -18.173  28.119  1.00  0.00    -0.065 C 
ATOM     25  C   UNL     1      21.375 -19.494  30.098  1.00  0.00     0.014 C 
ATOM     26  C   UNL     1      23.812 -18.795  29.977  1.00  0.00     0.016 C 
ATOM     27  C   UNL     1      21.568 -16.906  28.633  1.00  0.00     0.063 C 
ATOM     28  C   UNL     1      20.757 -18.194  30.644  1.00  0.00     0.033 C 
ATOM     29  C   UNL     1      20.357 -17.234  29.516  1.00  0.00     0.118 C 
BRANCH  29  30
ATOM     30  O   UNL     1      19.333 -17.811  28.746  1.00  0.00    -0.393 OA
ATOM     31  H   UNL     1      18.511 -17.795  29.302  1.00  0.00     0.210 HD
ENDBRANCH  29  30
ENDBRANCH   9  11
ENDBRANCH   1   9
TORSDOF 7
ENDMDL
MODEL 6
REMARK VINA RESULT:    -6.936      7.050      9.338
REMARK INTER + INTRA:         -11.877
REMARK INTER:                 -10.938
REMARK INTRA:                  -0.939
REMARK UNBOUND:                -2.304
REMARK SMILES CC[C@H](CC[C@H](C)[C@H]1CC[C@H]2[C@H]3CC=C4C[C@@H](O)CC[C@@]4(C)[C@@H]3CC[C@]12C)C(C)C
REMARK SMILES IDX 5 1 4 2 3 3 2 4 1 5 28 6 29 7 30 8 6 9 7 10 8 11 9 12 26 13
REMARK SMILES IDX 10 14 11 15 25 16 27 17 12 18 24 19 23 20 13 21 21 22 14 23
REMARK SMILES IDX 15 24 20 25 22 26 16 27 19 28 17 29 18 30
REMARK H PARENT 18 31
REMARK Flexibility Score: inf
ROOT
ATOM      1  C   UNL     1      27.021 -27.127  36.756  1.00  0.00     0.004 C 
ENDROOT
BRANCH   1   2
ATOM      2  C   UNL     1      27.102 -27.820  38.136  1.00  0.00     0.004 C 
BRANCH   2   3
ATOM      3  C   UNL     1      26.838 -26.915  39.365  1.00  0.00    -0.009 C 
BRANCH   3   4
ATOM      4  C   UNL     1      26.991 -25.395  39.071  1.00  0.00     0.000 C 
ATOM      5  C   UNL     1      27.843 -24.600  40.061  1.00  0.00     0.004 C 
ENDBRANCH   3   4
BRANCH   3   6
ATOM      6  C   UNL     1      25.545 -27.341  40.140  1.00  0.00    -0.014 C 
ATOM      7  C   UNL     1      25.714 -28.515  41.121  1.00  0.00     0.007 C 
ATOM      8  C   UNL     1      24.354 -27.593  39.203  1.00  0.00     0.007 C 
ENDBRANCH   3   6
ENDBRANCH   2   3
ENDBRANCH   1   2
BRANCH   1   9
ATOM      9  C   UNL     1      26.213 -27.835  35.619  1.00  0.00    -0.011 C 
ATOM     10  C   UNL     1      25.624 -29.187  36.058  1.00  0.00     0.008 C 
BRANCH   9  11
ATOM     11  C   UNL     1      26.936 -27.830  34.215  1.00  0.00    -0.002 C 
ATOM     12  C   UNL     1      27.514 -29.169  33.661  1.00  0.00     0.005 C 
ATOM     13  C   UNL     1      26.095 -27.271  33.026  1.00  0.00    -0.026 C 
ATOM     14  C   UNL     1      27.459 -29.075  32.123  1.00  0.00     0.005 C 
ATOM     15  C   UNL     1      27.021 -27.642  31.856  1.00  0.00    -0.001 C 
ATOM     16  C   UNL     1      25.892 -25.717  33.059  1.00  0.00     0.007 C 
ATOM     17  C   UNL     1      24.716 -28.012  32.951  1.00  0.00     0.012 C 
ATOM     18  C   UNL     1      26.547 -27.206  30.440  1.00  0.00     0.000 C 
ATOM     19  C   UNL     1      26.075 -25.018  31.678  1.00  0.00     0.005 C 
ATOM     20  C   UNL     1      25.653 -25.935  30.500  1.00  0.00     0.003 C 
ATOM     21  C   UNL     1      25.852 -28.266  29.584  1.00  0.00     0.031 C 
ATOM     22  C   UNL     1      25.543 -25.266  29.084  1.00  0.00    -0.008 C 
ATOM     23  C   UNL     1      25.422 -27.681  28.257  1.00  0.00    -0.027 C 
ATOM     24  C   UNL     1      25.224 -26.354  28.033  1.00  0.00    -0.065 C 
ATOM     25  C   UNL     1      24.376 -24.226  29.095  1.00  0.00     0.014 C 
ATOM     26  C   UNL     1      26.861 -24.548  28.690  1.00  0.00     0.016 C 
ATOM     27  C   UNL     1      24.751 -25.909  26.665  1.00  0.00     0.063 C 
ATOM     28  C   UNL     1      23.942 -23.754  27.696  1.00  0.00     0.033 C 
ATOM     29  C   UNL     1      23.574 -24.932  26.785  1.00  0.00     0.118 C 
BRANCH  29  30
ATOM     30  O   UNL     1      22.443 -25.590  27.298  1.00  0.00    -0.393 OA
ATOM     31  H   UNL     1      21.648 -25.117  26.940  1.00  0.00     0.210 HD
ENDBRANCH  29  30
ENDBRANCH   9  11
ENDBRANCH   1   9
TORSDOF 7
ENDMDL
MODEL 7
REMARK VINA RESULT:    -6.872      1.648      4.046
REMARK INTER + INTRA:         -11.788
REMARK INTER:                  -9.694
REMARK INTRA:                  -2.093
REMARK UNBOUND:                -2.304
REMARK SMILES CC[C@H](CC[C@H](C)[C@H]1CC[C@H]2[C@H]3CC=C4C[C@@H](O)CC[C@@]4(C)[C@@H]3CC[C@]12C)C(C)C
REMARK SMILES IDX 5 1 4 2 3 3 2 4 1 5 28 6 29 7 30 8 6 9 7 10 8 11 9 12 26 13
REMARK SMILES IDX 10 14 11 15 25 16 27 17 12 18 24 19 23 20 13 21 21 22 14 23
REMARK SMILES IDX 15 24 20 25 22 26 16 27 19 28 17 29 18 30
REMARK H PARENT 18 31
REMARK Flexibility Score: inf
ROOT
ATOM      1  C   UNL     1      27.071 -17.738  30.925  1.00  0.00     0.004 C 
ENDROOT
BRANCH   1   2
ATOM      2  C   UNL     1      26.017 -16.666  30.565  1.00  0.00     0.004 C 
BRANCH   2   3
ATOM      3  C   UNL     1      24.684 -17.197  29.980  1.00  0.00    -0.009 C 
BRANCH   3   4
ATOM      4  C   UNL     1      23.481 -17.095  30.963  1.00  0.00     0.000 C 
ATOM      5  C   UNL     1      23.109 -18.379  31.706  1.00  0.00     0.004 C 
ENDBRANCH   3   4
BRANCH   3   6
ATOM      6  C   UNL     1      24.431 -16.674  28.525  1.00  0.00    -0.014 C 
ATOM      7  C   UNL     1      23.462 -17.516  27.676  1.00  0.00     0.007 C 
ATOM      8  C   UNL     1      25.737 -16.422  27.757  1.00  0.00     0.007 C 
ENDBRANCH   3   6
ENDBRANCH   2   3
ENDBRANCH   1   2
BRANCH   1   9
ATOM      9  C   UNL     1      26.567 -19.138  31.406  1.00  0.00    -0.011 C 
ATOM     10  C   UNL     1      26.594 -19.290  32.937  1.00  0.00     0.008 C 
BRANCH   9  11
ATOM     11  C   UNL     1      27.164 -20.353  30.590  1.00  0.00    -0.002 C 
ATOM     12  C   UNL     1      27.850 -21.518  31.368  1.00  0.00     0.005 C 
ATOM     13  C   UNL     1      26.164 -21.082  29.640  1.00  0.00    -0.026 C 
ATOM     14  C   UNL     1      27.655 -22.793  30.523  1.00  0.00     0.005 C 
ATOM     15  C   UNL     1      27.026 -22.288  29.232  1.00  0.00    -0.001 C 
ATOM     16  C   UNL     1      25.778 -20.260  28.362  1.00  0.00     0.007 C 
ATOM     17  C   UNL     1      24.883 -21.508  30.436  1.00  0.00     0.012 C 
ATOM     18  C   UNL     1      26.385 -23.279  28.219  1.00  0.00     0.000 C 
ATOM     19  C   UNL     1      25.758 -21.095  27.046  1.00  0.00     0.005 C 
ATOM     20  C   UNL     1      25.352 -22.571  27.298  1.00  0.00     0.003 C 
ATOM     21  C   UNL     1      25.753 -24.548  28.795  1.00  0.00     0.031 C 
ATOM     22  C   UNL     1      25.043 -23.448  26.033  1.00  0.00    -0.008 C 
ATOM     23  C   UNL     1      25.145 -25.388  27.693  1.00  0.00    -0.027 C 
ATOM     24  C   UNL     1      24.770 -24.902  26.478  1.00  0.00    -0.065 C 
ATOM     25  C   UNL     1      23.765 -22.895  25.324  1.00  0.00     0.014 C 
ATOM     26  C   UNL     1      26.227 -23.435  25.029  1.00  0.00     0.016 C 
ATOM     27  C   UNL     1      24.133 -25.848  25.481  1.00  0.00     0.063 C 
ATOM     28  C   UNL     1      23.160 -23.854  24.283  1.00  0.00     0.033 C 
ATOM     29  C   UNL     1      22.861 -25.233  24.882  1.00  0.00     0.118 C 
BRANCH  29  30
ATOM     30  O   UNL     1      21.866 -25.115  25.867  1.00  0.00    -0.393 OA
ATOM     31  H   UNL     1      21.478 -24.206  25.777  1.00  0.00     0.210 HD
ENDBRANCH  29  30
ENDBRANCH   9  11
ENDBRANCH   1   9
TORSDOF 7
ENDMDL
MODEL 8
REMARK VINA RESULT:    -6.859      1.482      2.390
REMARK INTER + INTRA:         -11.769
REMARK INTER:                  -9.543
REMARK INTRA:                  -2.226
REMARK UNBOUND:                -2.304
REMARK SMILES CC[C@H](CC[C@H](C)[C@H]1CC[C@H]2[C@H]3CC=C4C[C@@H](O)CC[C@@]4(C)[C@@H]3CC[C@]12C)C(C)C
REMARK SMILES IDX 5 1 4 2 3 3 2 4 1 5 28 6 29 7 30 8 6 9 7 10 8 11 9 12 26 13
REMARK SMILES IDX 10 14 11 15 25 16 27 17 12 18 24 19 23 20 13 21 21 22 14 23
REMARK SMILES IDX 15 24 20 25 22 26 16 27 19 28 17 29 18 30
REMARK H PARENT 18 31
REMARK Flexibility Score: inf
ROOT
ATOM      1  C   UNL     1      25.645 -16.732  30.170  1.00  0.00     0.004 C 
ENDROOT
BRANCH   1   2
ATOM      2  C   UNL     1      26.965 -17.530  30.275  1.00  0.00     0.004 C 
BRANCH   2   3
ATOM      3  C   UNL     1      27.632 -17.555  31.674  1.00  0.00    -0.009 C 
BRANCH   3   4
ATOM      4  C   UNL     1      26.812 -16.821  32.774  1.00  0.00     0.000 C 
ATOM      5  C   UNL     1      26.025 -17.713  33.734  1.00  0.00     0.004 C 
ENDBRANCH   3   4
BRANCH   3   6
ATOM      6  C   UNL     1      28.164 -18.980  32.046  1.00  0.00    -0.014 C 
ATOM      7  C   UNL     1      29.648 -19.051  32.449  1.00  0.00     0.007 C 
ATOM      8  C   UNL     1      27.853 -20.024  30.963  1.00  0.00     0.007 C 
ENDBRANCH   3   6
ENDBRANCH   2   3
ENDBRANCH   1   2
BRANCH   1   9
ATOM      9  C   UNL     1      24.307 -17.530  30.033  1.00  0.00    -0.011 C 
ATOM     10  C   UNL     1      23.120 -16.828  30.716  1.00  0.00     0.008 C 
BRANCH   9  11
ATOM     11  C   UNL     1      24.447 -19.076  30.328  1.00  0.00    -0.002 C 
ATOM     12  C   UNL     1      23.502 -19.729  31.384  1.00  0.00     0.005 C 
ATOM     13  C   UNL     1      24.316 -20.012  29.087  1.00  0.00    -0.026 C 
ATOM     14  C   UNL     1      23.310 -21.199  30.960  1.00  0.00     0.005 C 
ATOM     15  C   UNL     1      24.273 -21.377  29.794  1.00  0.00    -0.001 C 
ATOM     16  C   UNL     1      25.546 -19.967  28.117  1.00  0.00     0.007 C 
ATOM     17  C   UNL     1      22.987 -19.699  28.318  1.00  0.00     0.012 C 
ATOM     18  C   UNL     1      24.183 -22.626  28.873  1.00  0.00     0.000 C 
ATOM     19  C   UNL     1      26.013 -21.364  27.608  1.00  0.00     0.005 C 
ATOM     20  C   UNL     1      24.833 -22.364  27.485  1.00  0.00     0.003 C 
ATOM     21  C   UNL     1      22.797 -23.239  28.667  1.00  0.00     0.031 C 
ATOM     22  C   UNL     1      25.123 -23.716  26.742  1.00  0.00    -0.008 C 
ATOM     23  C   UNL     1      22.870 -24.419  27.723  1.00  0.00    -0.027 C 
ATOM     24  C   UNL     1      23.869 -24.616  26.820  1.00  0.00    -0.065 C 
ATOM     25  C   UNL     1      25.433 -23.421  25.239  1.00  0.00     0.014 C 
ATOM     26  C   UNL     1      26.328 -24.464  27.373  1.00  0.00     0.016 C 
ATOM     27  C   UNL     1      23.796 -25.820  25.904  1.00  0.00     0.063 C 
ATOM     28  C   UNL     1      25.397 -24.666  24.334  1.00  0.00     0.033 C 
ATOM     29  C   UNL     1      24.064 -25.416  24.448  1.00  0.00     0.118 C 
BRANCH  29  30
ATOM     30  O   UNL     1      23.023 -24.604  23.967  1.00  0.00    -0.393 OA
ATOM     31  H   UNL     1      23.365 -23.673  23.957  1.00  0.00     0.210 HD
ENDBRANCH  29  30
ENDBRANCH   9  11
ENDBRANCH   1   9
TORSDOF 7
ENDMDL
MODEL 9
REMARK VINA RESULT:    -6.686      2.877      7.173
REMARK INTER + INTRA:         -11.531
REMARK INTER:                  -9.605
REMARK INTRA:                  -1.926
REMARK UNBOUND:                -2.304
REMARK SMILES CC[C@H](CC[C@H](C)[C@H]1CC[C@H]2[C@H]3CC=C4C[C@@H](O)CC[C@@]4(C)[C@@H]3CC[C@]12C)C(C)C
REMARK SMILES IDX 5 1 4 2 3 3 2 4 1 5 28 6 29 7 30 8 6 9 7 10 8 11 9 12 26 13
REMARK SMILES IDX 10 14 11 15 25 16 27 17 12 18 24 19 23 20 13 21 21 22 14 23
REMARK SMILES IDX 15 24 20 25 22 26 16 27 19 28 17 29 18 30
REMARK H PARENT 18 31
REMARK Flexibility Score: inf
ROOT
ATOM      1  C   UNL     1      23.556 -26.121  27.507  1.00  0.00     0.004 C 
ENDROOT
BRANCH   1   2
ATOM      2  C   UNL     1      24.927 -26.818  27.663  1.00  0.00     0.004 C 
BRANCH   2   3
ATOM      3  C   UNL     1      25.919 -26.149  28.648  1.00  0.00    -0.009 C 
BRANCH   3   4
ATOM      4  C   UNL     1      26.192 -26.987  29.931  1.00  0.00     0.000 C 
ATOM      5  C   UNL     1      24.967 -27.614  30.599  1.00  0.00     0.004 C 
ENDBRANCH   3   4
BRANCH   3   6
ATOM      6  C   UNL     1      27.180 -25.579  27.916  1.00  0.00    -0.014 C 
ATOM      7  C   UNL     1      28.393 -26.524  27.847  1.00  0.00     0.007 C 
ATOM      8  C   UNL     1      27.601 -24.204  28.457  1.00  0.00     0.007 C 
ENDBRANCH   3   6
ENDBRANCH   2   3
ENDBRANCH   1   2
BRANCH   1   9
ATOM      9  C   UNL     1      23.378 -25.090  26.345  1.00  0.00    -0.011 C 
ATOM     10  C   UNL     1      23.060 -25.759  24.996  1.00  0.00     0.008 C 
BRANCH   9  11
ATOM     11  C   UNL     1      24.490 -23.968  26.304  1.00  0.00    -0.002 C 
ATOM     12  C   UNL     1      25.002 -23.466  24.918  1.00  0.00     0.005 C 
ATOM     13  C   UNL     1      24.146 -22.653  27.069  1.00  0.00    -0.026 C 
ATOM     14  C   UNL     1      25.436 -21.999  25.110  1.00  0.00     0.005 C 
ATOM     15  C   UNL     1      25.320 -21.772  26.610  1.00  0.00    -0.001 C 
ATOM     16  C   UNL     1      24.178 -22.792  28.630  1.00  0.00     0.007 C 
ATOM     17  C   UNL     1      22.763 -22.098  26.587  1.00  0.00     0.012 C 
ATOM     18  C   UNL     1      25.374 -20.335  27.203  1.00  0.00     0.000 C 
ATOM     19  C   UNL     1      24.877 -21.609  29.365  1.00  0.00     0.005 C 
ATOM     20  C   UNL     1      24.705 -20.267  28.605  1.00  0.00     0.003 C 
ATOM     21  C   UNL     1      24.823 -19.204  26.333  1.00  0.00     0.031 C 
ATOM     22  C   UNL     1      25.135 -18.962  29.364  1.00  0.00    -0.008 C 
ATOM     23  C   UNL     1      24.913 -17.880  27.059  1.00  0.00    -0.027 C 
ATOM     24  C   UNL     1      24.995 -17.753  28.412  1.00  0.00    -0.065 C 
ATOM     25  C   UNL     1      24.190 -18.744  30.590  1.00  0.00     0.014 C 
ATOM     26  C   UNL     1      26.602 -19.051  29.862  1.00  0.00     0.016 C 
ATOM     27  C   UNL     1      25.036 -16.362  29.011  1.00  0.00     0.063 C 
ATOM     28  C   UNL     1      24.281 -17.338  31.210  1.00  0.00     0.033 C 
ATOM     29  C   UNL     1      24.039 -16.238  30.171  1.00  0.00     0.118 C 
BRANCH  29  30
ATOM     30  O   UNL     1      22.720 -16.323  29.692  1.00  0.00    -0.393 OA
ATOM     31  H   UNL     1      22.609 -15.600  29.022  1.00  0.00     0.210 HD
ENDBRANCH  29  30
ENDBRANCH   9  11
ENDBRANCH   1   9
TORSDOF 7
ENDMDL
