MODEL 1
REMARK VINA RESULT:    -3.442      0.000      0.000
REMARK INTER + INTRA:         -11.632
REMARK INTER:                  -7.870
REMARK INTRA:                  -3.762
REMARK UNBOUND:                -3.762
REMARK SMILES CCCCCCCCCCCCCCCCCCCCCCCC(=O)[O-]
REMARK SMILES IDX 13 1 14 2 15 3 16 4 17 5 18 6 19 7 20 8 21 9 22 10 23 11
REMARK SMILES IDX 24 12 25 13 26 14 12 15 11 16 10 17 9 18 8 19 7 20 6 21 5 22
REMARK SMILES IDX 4 23 3 24 2 25 1 26
REMARK H PARENT
REMARK Flexibility Score: inf
ROOT
ATOM      1  C   UNL     1     -94.619 148.328 239.317  1.00  0.00     0.000 C 
ENDROOT
BRANCH   1   2
ATOM      2  C   UNL     1     -96.133 148.308 239.038  1.00  0.00     0.000 C 
BRANCH   2   3
ATOM      3  C   UNL     1     -96.547 147.189 238.071  1.00  0.00     0.000 C 
BRANCH   3   4
ATOM      4  C   UNL     1     -96.853 147.754 236.674  1.00  0.00     0.000 C 
BRANCH   4   5
ATOM      5  C   UNL     1     -95.616 147.791 235.758  1.00  0.00     0.000 C 
BRANCH   5   6
ATOM      6  C   UNL     1     -95.273 149.181 235.194  1.00  0.00     0.000 C 
BRANCH   6   7
ATOM      7  C   UNL     1     -94.582 150.089 236.227  1.00  0.00     0.000 C 
BRANCH   7   8
ATOM      8  C   UNL     1     -95.488 151.237 236.701  1.00  0.00     0.000 C 
BRANCH   8   9
ATOM      9  C   UNL     1     -96.710 151.434 235.788  1.00  0.00     0.000 C 
BRANCH   9  10
ATOM     10  C   UNL     1     -97.307 152.845 235.895  1.00  0.00     0.006 C 
BRANCH  10  11
ATOM     11  C   UNL     1     -96.882 153.577 237.175  1.00  0.00     0.053 C 
BRANCH  11  12
ATOM     12  C   UNL     1     -97.217 155.033 237.079  1.00  0.00     0.041 C 
ATOM     13  O   UNL     1     -98.419 155.409 237.074  1.00  0.00    -0.550 OA
ATOM     14  O   UNL     1     -96.200 155.972 236.940  1.00  0.00    -0.550 OA
ENDBRANCH  11  12
ENDBRANCH  10  11
ENDBRANCH   9  10
ENDBRANCH   8   9
ENDBRANCH   7   8
ENDBRANCH   6   7
ENDBRANCH   5   6
ENDBRANCH   4   5
ENDBRANCH   3   4
ENDBRANCH   2   3
ENDBRANCH   1   2
BRANCH   1  15
ATOM     15  C   UNL     1     -93.904 146.976 239.123  1.00  0.00     0.000 C 
BRANCH  15  16
ATOM     16  C   UNL     1     -93.301 146.362 240.402  1.00  0.00     0.000 C 
BRANCH  16  17
ATOM     17  C   UNL     1     -93.570 147.149 241.697  1.00  0.00     0.000 C 
BRANCH  17  18
ATOM     18  C   UNL     1     -94.618 146.476 242.599  1.00  0.00    -0.000 C 
BRANCH  18  19
ATOM     19  C   UNL     1     -95.950 147.248 242.650  1.00  0.00    -0.000 C 
BRANCH  19  20
ATOM     20  C   UNL     1     -95.819 148.776 242.788  1.00  0.00    -0.000 C 
BRANCH  20  21
ATOM     21  C   UNL     1     -97.170 149.475 243.025  1.00  0.00    -0.000 C 
BRANCH  21  22
ATOM     22  C   UNL     1     -98.211 149.118 241.952  1.00  0.00    -0.000 C 
BRANCH  22  23
ATOM     23  C   UNL     1     -99.520 149.914 242.108  1.00  0.00    -0.000 C 
BRANCH  23  24
ATOM     24  C   UNL     1     -99.784 150.838 240.899  1.00  0.00    -0.000 C 
BRANCH  24  25
ATOM     25  C   UNL     1     -98.648 150.831 239.862  1.00  0.00    -0.003 C 
ATOM     26  C   UNL     1     -99.119 150.454 238.459  1.00  0.00     0.004 C 
ENDBRANCH  24  25
ENDBRANCH  23  24
ENDBRANCH  22  23
ENDBRANCH  21  22
ENDBRANCH  20  21
ENDBRANCH  19  20
ENDBRANCH  18  19
ENDBRANCH  17  18
ENDBRANCH  16  17
ENDBRANCH  15  16
ENDBRANCH   1  15
TORSDOF 22
ENDMDL
MODEL 2
REMARK VINA RESULT:    -3.436      3.100      6.554
REMARK INTER + INTRA:         -11.618
REMARK INTER:                  -7.766
REMARK INTRA:                  -3.852
REMARK UNBOUND:                -3.762
REMARK SMILES CCCCCCCCCCCCCCCCCCCCCCCC(=O)[O-]
REMARK SMILES IDX 13 1 14 2 15 3 16 4 17 5 18 6 19 7 20 8 21 9 22 10 23 11
REMARK SMILES IDX 24 12 25 13 26 14 12 15 11 16 10 17 9 18 8 19 7 20 6 21 5 22
REMARK SMILES IDX 4 23 3 24 2 25 1 26
REMARK H PARENT
REMARK Flexibility Score: inf
ROOT
ATOM      1  C   UNL     1     -97.454 149.422 243.089  1.00  0.00     0.000 C 
ENDROOT
BRANCH   1   2
ATOM      2  C   UNL     1     -96.117 148.693 242.863  1.00  0.00     0.000 C 
BRANCH   2   3
ATOM      3  C   UNL     1     -96.257 147.164 242.897  1.00  0.00     0.000 C 
BRANCH   3   4
ATOM      4  C   UNL     1     -95.010 146.483 242.311  1.00  0.00     0.000 C 
BRANCH   4   5
ATOM      5  C   UNL     1     -93.816 147.445 242.161  1.00  0.00     0.000 C 
BRANCH   5   6
ATOM      6  C   UNL     1     -92.905 147.157 240.955  1.00  0.00     0.000 C 
BRANCH   6   7
ATOM      7  C   UNL     1     -92.359 145.717 240.950  1.00  0.00     0.000 C 
BRANCH   7   8
ATOM      8  C   UNL     1     -92.143 145.174 239.529  1.00  0.00     0.000 C 
BRANCH   8   9
ATOM      9  C   UNL     1     -93.305 145.528 238.584  1.00  0.00     0.000 C 
BRANCH   9  10
ATOM     10  C   UNL     1     -92.828 145.878 237.166  1.00  0.00     0.006 C 
BRANCH  10  11
ATOM     11  C   UNL     1     -93.923 145.697 236.107  1.00  0.00     0.053 C 
BRANCH  11  12
ATOM     12  C   UNL     1     -93.554 146.414 234.846  1.00  0.00     0.041 C 
ATOM     13  O   UNL     1     -92.576 146.023 234.157  1.00  0.00    -0.550 OA
ATOM     14  O   UNL     1     -94.258 147.550 234.461  1.00  0.00    -0.550 OA
ENDBRANCH  11  12
ENDBRANCH  10  11
ENDBRANCH   9  10
ENDBRANCH   8   9
ENDBRANCH   7   8
ENDBRANCH   6   7
ENDBRANCH   5   6
ENDBRANCH   4   5
ENDBRANCH   3   4
ENDBRANCH   2   3
ENDBRANCH   1   2
BRANCH   1  15
ATOM     15  C   UNL     1     -98.537 149.140 242.028  1.00  0.00     0.000 C 
BRANCH  15  16
ATOM     16  C   UNL     1     -98.499 150.059 240.791  1.00  0.00     0.000 C 
BRANCH  16  17
ATOM     17  C   UNL     1     -98.247 149.345 239.452  1.00  0.00     0.000 C 
BRANCH  17  18
ATOM     18  C   UNL     1     -97.945 147.846 239.620  1.00  0.00    -0.000 C 
BRANCH  18  19
ATOM     19  C   UNL     1     -96.563 147.448 239.066  1.00  0.00    -0.000 C 
BRANCH  19  20
ATOM     20  C   UNL     1     -95.509 148.570 239.061  1.00  0.00    -0.000 C 
BRANCH  20  21
ATOM     21  C   UNL     1     -94.953 148.863 237.655  1.00  0.00    -0.000 C 
BRANCH  21  22
ATOM     22  C   UNL     1     -94.676 150.359 237.434  1.00  0.00    -0.000 C 
BRANCH  22  23
ATOM     23  C   UNL     1     -95.355 150.906 236.165  1.00  0.00    -0.000 C 
BRANCH  23  24
ATOM     24  C   UNL     1     -96.836 151.266 236.408  1.00  0.00    -0.000 C 
BRANCH  24  25
ATOM     25  C   UNL     1     -97.038 152.674 236.993  1.00  0.00    -0.003 C 
ATOM     26  C   UNL     1     -98.207 152.756 237.972  1.00  0.00     0.004 C 
ENDBRANCH  24  25
ENDBRANCH  23  24
ENDBRANCH  22  23
ENDBRANCH  21  22
ENDBRANCH  20  21
ENDBRANCH  19  20
ENDBRANCH  18  19
ENDBRANCH  17  18
ENDBRANCH  16  17
ENDBRANCH  15  16
ENDBRANCH   1  15
TORSDOF 22
ENDMDL
MODEL 3
REMARK VINA RESULT:    -3.407      3.554      6.585
REMARK INTER + INTRA:         -11.550
REMARK INTER:                  -7.757
REMARK INTRA:                  -3.793
REMARK UNBOUND:                -3.762
REMARK SMILES CCCCCCCCCCCCCCCCCCCCCCCC(=O)[O-]
REMARK SMILES IDX 13 1 14 2 15 3 16 4 17 5 18 6 19 7 20 8 21 9 22 10 23 11
REMARK SMILES IDX 24 12 25 13 26 14 12 15 11 16 10 17 9 18 8 19 7 20 6 21 5 22
REMARK SMILES IDX 4 23 3 24 2 25 1 26
REMARK H PARENT
REMARK Flexibility Score: inf
ROOT
ATOM      1  C   UNL     1     -93.929 145.954 242.743  1.00  0.00     0.000 C 
ENDROOT
BRANCH   1   2
ATOM      2  C   UNL     1     -95.399 145.667 243.101  1.00  0.00     0.000 C 
BRANCH   2   3
ATOM      3  C   UNL     1     -96.176 145.010 241.952  1.00  0.00     0.000 C 
BRANCH   3   4
ATOM      4  C   UNL     1     -97.349 145.896 241.503  1.00  0.00     0.000 C 
BRANCH   4   5
ATOM      5  C   UNL     1     -97.010 146.763 240.276  1.00  0.00     0.000 C 
BRANCH   5   6
ATOM      6  C   UNL     1     -96.785 148.254 240.584  1.00  0.00     0.000 C 
BRANCH   6   7
ATOM      7  C   UNL     1     -98.099 149.017 240.831  1.00  0.00     0.000 C 
BRANCH   7   8
ATOM      8  C   UNL     1     -98.131 149.705 242.205  1.00  0.00     0.000 C 
BRANCH   8   9
ATOM      9  C   UNL     1     -96.933 149.309 243.085  1.00  0.00     0.000 C 
BRANCH   9  10
ATOM     10  C   UNL     1     -97.345 148.458 244.296  1.00  0.00     0.006 C 
BRANCH  10  11
ATOM     11  C   UNL     1     -98.788 148.721 244.747  1.00  0.00     0.053 C 
BRANCH  11  12
ATOM     12  C   UNL     1     -98.811 149.225 246.156  1.00  0.00     0.041 C 
ATOM     13  O   UNL     1     -99.906 149.372 246.760  1.00  0.00    -0.550 OA
ATOM     14  O   UNL     1     -97.624 149.586 246.784  1.00  0.00    -0.550 OA
ENDBRANCH  11  12
ENDBRANCH  10  11
ENDBRANCH   9  10
ENDBRANCH   8   9
ENDBRANCH   7   8
ENDBRANCH   6   7
ENDBRANCH   5   6
ENDBRANCH   4   5
ENDBRANCH   3   4
ENDBRANCH   2   3
ENDBRANCH   1   2
BRANCH   1  15
ATOM     15  C   UNL     1     -93.681 147.308 242.047  1.00  0.00     0.000 C 
BRANCH  15  16
ATOM     16  C   UNL     1     -93.145 147.218 240.606  1.00  0.00     0.000 C 
BRANCH  16  17
ATOM     17  C   UNL     1     -92.657 145.824 240.174  1.00  0.00     0.000 C 
BRANCH  17  18
ATOM     18  C   UNL     1     -93.310 145.339 238.868  1.00  0.00    -0.000 C 
BRANCH  18  19
ATOM     19  C   UNL     1     -94.206 146.408 238.214  1.00  0.00    -0.000 C 
BRANCH  19  20
ATOM     20  C   UNL     1     -93.767 146.864 236.810  1.00  0.00    -0.000 C 
BRANCH  20  21
ATOM     21  C   UNL     1     -94.534 148.103 236.314  1.00  0.00    -0.000 C 
BRANCH  21  22
ATOM     22  C   UNL     1     -96.058 147.921 236.398  1.00  0.00    -0.000 C 
BRANCH  22  23
ATOM     23  C   UNL     1     -96.763 149.120 237.058  1.00  0.00    -0.000 C 
BRANCH  23  24
ATOM     24  C   UNL     1     -95.775 150.254 237.407  1.00  0.00    -0.000 C 
BRANCH  24  25
ATOM     25  C   UNL     1     -95.950 151.511 236.537  1.00  0.00    -0.003 C 
ATOM     26  C   UNL     1     -96.199 152.776 237.354  1.00  0.00     0.004 C 
ENDBRANCH  24  25
ENDBRANCH  23  24
ENDBRANCH  22  23
ENDBRANCH  21  22
ENDBRANCH  20  21
ENDBRANCH  19  20
ENDBRANCH  18  19
ENDBRANCH  17  18
ENDBRANCH  16  17
ENDBRANCH  15  16
ENDBRANCH   1  15
TORSDOF 22
ENDMDL
MODEL 4
REMARK VINA RESULT:    -3.400      1.620      3.297
REMARK INTER + INTRA:         -11.536
REMARK INTER:                  -7.904
REMARK INTRA:                  -3.632
REMARK UNBOUND:                -3.762
REMARK SMILES CCCCCCCCCCCCCCCCCCCCCCCC(=O)[O-]
REMARK SMILES IDX 13 1 14 2 15 3 16 4 17 5 18 6 19 7 20 8 21 9 22 10 23 11
REMARK SMILES IDX 24 12 25 13 26 14 12 15 11 16 10 17 9 18 8 19 7 20 6 21 5 22
REMARK SMILES IDX 4 23 3 24 2 25 1 26
REMARK H PARENT
REMARK Flexibility Score: inf
ROOT
ATOM      1  C   UNL     1     -93.216 147.154 240.592  1.00  0.00     0.000 C 
ENDROOT
BRANCH   1   2
ATOM      2  C   UNL     1     -92.521 145.813 240.295  1.00  0.00     0.000 C 
BRANCH   2   3
ATOM      3  C   UNL     1     -92.769 145.315 238.864  1.00  0.00     0.000 C 
BRANCH   3   4
ATOM      4  C   UNL     1     -94.057 145.923 238.286  1.00  0.00     0.000 C 
BRANCH   4   5
ATOM      5  C   UNL     1     -93.868 146.493 236.867  1.00  0.00     0.000 C 
BRANCH   5   6
ATOM      6  C   UNL     1     -94.936 147.514 236.436  1.00  0.00     0.000 C 
BRANCH   6   7
ATOM      7  C   UNL     1     -94.389 148.950 236.354  1.00  0.00     0.000 C 
BRANCH   7   8
ATOM      8  C   UNL     1     -94.919 149.847 237.484  1.00  0.00     0.000 C 
BRANCH   8   9
ATOM      9  C   UNL     1     -95.443 151.196 236.964  1.00  0.00     0.000 C 
BRANCH   9  10
ATOM     10  C   UNL     1     -96.913 151.443 237.338  1.00  0.00     0.006 C 
BRANCH  10  11
ATOM     11  C   UNL     1     -97.564 152.550 236.498  1.00  0.00     0.053 C 
BRANCH  11  12
ATOM     12  C   UNL     1     -97.599 153.835 237.266  1.00  0.00     0.041 C 
ATOM     13  O   UNL     1     -96.551 154.519 237.407  1.00  0.00    -0.550 OA
ATOM     14  O   UNL     1     -98.780 154.249 237.873  1.00  0.00    -0.550 OA
ENDBRANCH  11  12
ENDBRANCH  10  11
ENDBRANCH   9  10
ENDBRANCH   8   9
ENDBRANCH   7   8
ENDBRANCH   6   7
ENDBRANCH   5   6
ENDBRANCH   4   5
ENDBRANCH   3   4
ENDBRANCH   2   3
ENDBRANCH   1   2
BRANCH   1  15
ATOM     15  C   UNL     1     -93.787 147.289 242.019  1.00  0.00     0.000 C 
BRANCH  15  16
ATOM     16  C   UNL     1     -93.999 145.960 242.769  1.00  0.00     0.000 C 
BRANCH  16  17
ATOM     17  C   UNL     1     -95.461 145.493 242.875  1.00  0.00     0.000 C 
BRANCH  17  18
ATOM     18  C   UNL     1     -96.074 145.132 241.511  1.00  0.00    -0.000 C 
BRANCH  18  19
ATOM     19  C   UNL     1     -97.261 146.037 241.129  1.00  0.00    -0.000 C 
BRANCH  19  20
ATOM     20  C   UNL     1     -96.968 147.076 240.029  1.00  0.00    -0.000 C 
BRANCH  20  21
ATOM     21  C   UNL     1     -97.260 148.520 240.476  1.00  0.00    -0.000 C 
BRANCH  21  22
ATOM     22  C   UNL     1     -97.816 148.590 241.907  1.00  0.00    -0.000 C 
BRANCH  22  23
ATOM     23  C   UNL     1     -96.803 149.173 242.909  1.00  0.00    -0.000 C 
BRANCH  23  24
ATOM     24  C   UNL     1     -97.115 148.754 244.361  1.00  0.00    -0.000 C 
BRANCH  24  25
ATOM     25  C   UNL     1     -98.085 147.564 244.462  1.00  0.00    -0.003 C 
ATOM     26  C   UNL     1     -97.700 146.566 245.551  1.00  0.00     0.004 C 
ENDBRANCH  24  25
ENDBRANCH  23  24
ENDBRANCH  22  23
ENDBRANCH  21  22
ENDBRANCH  20  21
ENDBRANCH  19  20
ENDBRANCH  18  19
ENDBRANCH  17  18
ENDBRANCH  16  17
ENDBRANCH  15  16
ENDBRANCH   1  15
TORSDOF 22
ENDMDL
MODEL 5
REMARK VINA RESULT:    -3.384      1.255      2.559
REMARK INTER + INTRA:         -11.499
REMARK INTER:                  -7.779
REMARK INTRA:                  -3.721
REMARK UNBOUND:                -3.762
REMARK SMILES CCCCCCCCCCCCCCCCCCCCCCCC(=O)[O-]
REMARK SMILES IDX 13 1 14 2 15 3 16 4 17 5 18 6 19 7 20 8 21 9 22 10 23 11
REMARK SMILES IDX 24 12 25 13 26 14 12 15 11 16 10 17 9 18 8 19 7 20 6 21 5 22
REMARK SMILES IDX 4 23 3 24 2 25 1 26
REMARK H PARENT
REMARK Flexibility Score: inf
ROOT
ATOM      1  C   UNL     1     -92.121 145.692 240.527  1.00  0.00     0.000 C 
ENDROOT
BRANCH   1   2
ATOM      2  C   UNL     1     -92.426 145.175 239.108  1.00  0.00     0.000 C 
BRANCH   2   3
ATOM      3  C   UNL     1     -93.888 145.394 238.694  1.00  0.00     0.000 C 
BRANCH   3   4
ATOM      4  C   UNL     1     -94.045 146.695 237.892  1.00  0.00     0.000 C 
BRANCH   4   5
ATOM      5  C   UNL     1     -94.986 147.709 238.569  1.00  0.00     0.000 C 
BRANCH   5   6
ATOM      6  C   UNL     1     -94.755 149.175 238.162  1.00  0.00     0.000 C 
BRANCH   6   7
ATOM      7  C   UNL     1     -94.844 149.392 236.641  1.00  0.00     0.000 C 
BRANCH   7   8
ATOM      8  C   UNL     1     -94.984 150.875 236.265  1.00  0.00     0.000 C 
BRANCH   8   9
ATOM      9  C   UNL     1     -96.234 151.146 235.409  1.00  0.00     0.000 C 
BRANCH   9  10
ATOM     10  C   UNL     1     -96.894 152.495 235.737  1.00  0.00     0.006 C 
BRANCH  10  11
ATOM     11  C   UNL     1     -96.523 153.017 237.131  1.00  0.00     0.053 C 
BRANCH  11  12
ATOM     12  C   UNL     1     -97.120 154.371 237.357  1.00  0.00     0.041 C 
ATOM     13  O   UNL     1     -96.468 155.408 237.067  1.00  0.00    -0.550 OA
ATOM     14  O   UNL     1     -98.377 154.487 237.941  1.00  0.00    -0.550 OA
ENDBRANCH  11  12
ENDBRANCH  10  11
ENDBRANCH   9  10
ENDBRANCH   8   9
ENDBRANCH   7   8
ENDBRANCH   6   7
ENDBRANCH   5   6
ENDBRANCH   4   5
ENDBRANCH   3   4
ENDBRANCH   2   3
ENDBRANCH   1   2
BRANCH   1  15
ATOM     15  C   UNL     1     -92.954 145.040 241.649  1.00  0.00     0.000 C 
BRANCH  15  16
ATOM     16  C   UNL     1     -93.830 146.011 242.465  1.00  0.00     0.000 C 
BRANCH  16  17
ATOM     17  C   UNL     1     -93.686 147.496 242.090  1.00  0.00     0.000 C 
BRANCH  17  18
ATOM     18  C   UNL     1     -95.034 148.235 242.042  1.00  0.00    -0.000 C 
BRANCH  18  19
ATOM     19  C   UNL     1     -96.240 147.279 241.976  1.00  0.00    -0.000 C 
BRANCH  19  20
ATOM     20  C   UNL     1     -97.621 147.960 242.001  1.00  0.00    -0.000 C 
BRANCH  20  21
ATOM     21  C   UNL     1     -98.224 148.145 240.596  1.00  0.00    -0.000 C 
BRANCH  21  22
ATOM     22  C   UNL     1     -98.571 149.612 240.296  1.00  0.00    -0.000 C 
BRANCH  22  23
ATOM     23  C   UNL     1     -97.974 150.102 238.964  1.00  0.00    -0.000 C 
BRANCH  23  24
ATOM     24  C   UNL     1     -99.059 150.327 237.889  1.00  0.00    -0.000 C 
BRANCH  24  25
ATOM     25  C   UNL     1     -99.467 149.040 237.150  1.00  0.00    -0.003 C 
ATOM     26  C   UNL     1     -98.273 148.187 236.730  1.00  0.00     0.004 C 
ENDBRANCH  24  25
ENDBRANCH  23  24
ENDBRANCH  22  23
ENDBRANCH  21  22
ENDBRANCH  20  21
ENDBRANCH  19  20
ENDBRANCH  18  19
ENDBRANCH  17  18
ENDBRANCH  16  17
ENDBRANCH  15  16
ENDBRANCH   1  15
TORSDOF 22
ENDMDL
MODEL 6
REMARK VINA RESULT:    -3.383      2.534      4.809
REMARK INTER + INTRA:         -11.496
REMARK INTER:                  -7.936
REMARK INTRA:                  -3.561
REMARK UNBOUND:                -3.762
REMARK SMILES CCCCCCCCCCCCCCCCCCCCCCCC(=O)[O-]
REMARK SMILES IDX 13 1 14 2 15 3 16 4 17 5 18 6 19 7 20 8 21 9 22 10 23 11
REMARK SMILES IDX 24 12 25 13 26 14 12 15 11 16 10 17 9 18 8 19 7 20 6 21 5 22
REMARK SMILES IDX 4 23 3 24 2 25 1 26
REMARK H PARENT
REMARK Flexibility Score: inf
ROOT
ATOM      1  C   UNL     1     -94.296 145.739 242.751  1.00  0.00     0.000 C 
ENDROOT
BRANCH   1   2
ATOM      2  C   UNL     1     -94.074 147.102 242.069  1.00  0.00     0.000 C 
BRANCH   2   3
ATOM      3  C   UNL     1     -92.886 147.097 241.095  1.00  0.00     0.000 C 
BRANCH   3   4
ATOM      4  C   UNL     1     -92.468 145.660 240.745  1.00  0.00     0.000 C 
BRANCH   4   5
ATOM      5  C   UNL     1     -92.425 145.400 239.228  1.00  0.00     0.000 C 
BRANCH   5   6
ATOM      6  C   UNL     1     -93.803 145.338 238.546  1.00  0.00     0.000 C 
BRANCH   6   7
ATOM      7  C   UNL     1     -94.144 146.624 237.771  1.00  0.00     0.000 C 
BRANCH   7   8
ATOM      8  C   UNL     1     -95.343 147.374 238.373  1.00  0.00     0.000 C 
BRANCH   8   9
ATOM      9  C   UNL     1     -95.061 148.875 238.557  1.00  0.00     0.000 C 
BRANCH   9  10
ATOM     10  C   UNL     1     -94.649 149.565 237.247  1.00  0.00     0.006 C 
BRANCH  10  11
ATOM     11  C   UNL     1     -95.362 150.906 237.030  1.00  0.00     0.053 C 
BRANCH  11  12
ATOM     12  C   UNL     1     -96.832 150.691 236.848  1.00  0.00     0.041 C 
ATOM     13  O   UNL     1     -97.272 150.178 235.785  1.00  0.00    -0.550 OA
ATOM     14  O   UNL     1     -97.722 151.110 237.830  1.00  0.00    -0.550 OA
ENDBRANCH  11  12
ENDBRANCH  10  11
ENDBRANCH   9  10
ENDBRANCH   8   9
ENDBRANCH   7   8
ENDBRANCH   6   7
ENDBRANCH   5   6
ENDBRANCH   4   5
ENDBRANCH   3   4
ENDBRANCH   2   3
ENDBRANCH   1   2
BRANCH   1  15
ATOM     15  C   UNL     1     -95.708 145.147 242.575  1.00  0.00     0.000 C 
BRANCH  15  16
ATOM     16  C   UNL     1     -96.427 145.539 241.270  1.00  0.00     0.000 C 
BRANCH  16  17
ATOM     17  C   UNL     1     -97.946 145.750 241.396  1.00  0.00     0.000 C 
BRANCH  17  18
ATOM     18  C   UNL     1     -98.410 147.107 240.840  1.00  0.00    -0.000 C 
BRANCH  18  19
ATOM     19  C   UNL     1     -98.531 148.191 241.929  1.00  0.00    -0.000 C 
BRANCH  19  20
ATOM     20  C   UNL     1     -97.235 148.966 242.231  1.00  0.00    -0.000 C 
BRANCH  20  21
ATOM     21  C   UNL     1     -96.874 148.968 243.728  1.00  0.00    -0.000 C 
BRANCH  21  22
ATOM     22  C   UNL     1     -97.345 147.694 244.447  1.00  0.00    -0.000 C 
BRANCH  22  23
ATOM     23  C   UNL     1     -97.884 147.977 245.861  1.00  0.00    -0.000 C 
BRANCH  23  24
ATOM     24  C   UNL     1     -98.060 149.488 246.124  1.00  0.00    -0.000 C 
BRANCH  24  25
ATOM     25  C   UNL     1     -97.644 149.916 247.542  1.00  0.00    -0.003 C 
ATOM     26  C   UNL     1     -98.259 151.246 247.971  1.00  0.00     0.004 C 
ENDBRANCH  24  25
ENDBRANCH  23  24
ENDBRANCH  22  23
ENDBRANCH  21  22
ENDBRANCH  20  21
ENDBRANCH  19  20
ENDBRANCH  18  19
ENDBRANCH  17  18
ENDBRANCH  16  17
ENDBRANCH  15  16
ENDBRANCH   1  15
TORSDOF 22
ENDMDL
MODEL 7
REMARK VINA RESULT:    -3.312      3.169      6.489
REMARK INTER + INTRA:         -11.334
REMARK INTER:                  -7.437
REMARK INTRA:                  -3.897
REMARK UNBOUND:                -3.762
REMARK SMILES CCCCCCCCCCCCCCCCCCCCCCCC(=O)[O-]
REMARK SMILES IDX 13 1 14 2 15 3 16 4 17 5 18 6 19 7 20 8 21 9 22 10 23 11
REMARK SMILES IDX 24 12 25 13 26 14 12 15 11 16 10 17 9 18 8 19 7 20 6 21 5 22
REMARK SMILES IDX 4 23 3 24 2 25 1 26
REMARK H PARENT
REMARK Flexibility Score: inf
ROOT
ATOM      1  C   UNL     1     -93.349 145.532 239.227  1.00  0.00     0.000 C 
ENDROOT
BRANCH   1   2
ATOM      2  C   UNL     1     -92.614 145.779 240.557  1.00  0.00     0.000 C 
BRANCH   2   3
ATOM      3  C   UNL     1     -92.860 147.185 241.123  1.00  0.00     0.000 C 
BRANCH   3   4
ATOM      4  C   UNL     1     -93.772 147.129 242.359  1.00  0.00     0.000 C 
BRANCH   4   5
ATOM      5  C   UNL     1     -94.158 145.692 242.755  1.00  0.00     0.000 C 
BRANCH   5   6
ATOM      6  C   UNL     1     -95.670 145.405 242.744  1.00  0.00     0.000 C 
BRANCH   6   7
ATOM      7  C   UNL     1     -96.347 145.823 241.427  1.00  0.00     0.000 C 
BRANCH   7   8
ATOM      8  C   UNL     1     -97.479 146.839 241.642  1.00  0.00     0.000 C 
BRANCH   8   9
ATOM      9  C   UNL     1     -97.021 148.286 241.391  1.00  0.00     0.000 C 
BRANCH   9  10
ATOM     10  C   UNL     1     -97.383 149.230 242.548  1.00  0.00     0.006 C 
BRANCH  10  11
ATOM     11  C   UNL     1     -96.942 148.693 243.916  1.00  0.00     0.053 C 
BRANCH  11  12
ATOM     12  C   UNL     1     -97.964 149.020 244.960  1.00  0.00     0.041 C 
ATOM     13  O   UNL     1     -99.121 149.386 244.622  1.00  0.00    -0.550 OA
ATOM     14  O   UNL     1     -97.621 148.974 246.306  1.00  0.00    -0.550 OA
ENDBRANCH  11  12
ENDBRANCH  10  11
ENDBRANCH   9  10
ENDBRANCH   8   9
ENDBRANCH   7   8
ENDBRANCH   6   7
ENDBRANCH   5   6
ENDBRANCH   4   5
ENDBRANCH   3   4
ENDBRANCH   2   3
ENDBRANCH   1   2
BRANCH   1  15
ATOM     15  C   UNL     1     -93.984 146.786 238.592  1.00  0.00     0.000 C 
BRANCH  15  16
ATOM     16  C   UNL     1     -95.388 146.578 237.992  1.00  0.00     0.000 C 
BRANCH  16  17
ATOM     17  C   UNL     1     -96.057 147.847 237.435  1.00  0.00     0.000 C 
BRANCH  17  18
ATOM     18  C   UNL     1     -95.539 149.136 238.095  1.00  0.00    -0.000 C 
BRANCH  18  19
ATOM     19  C   UNL     1     -95.070 150.187 237.072  1.00  0.00    -0.000 C 
BRANCH  19  20
ATOM     20  C   UNL     1     -96.191 150.849 236.250  1.00  0.00    -0.000 C 
BRANCH  20  21
ATOM     21  C   UNL     1     -96.220 152.381 236.400  1.00  0.00    -0.000 C 
BRANCH  21  22
ATOM     22  C   UNL     1     -97.002 152.834 237.643  1.00  0.00    -0.000 C 
BRANCH  22  23
ATOM     23  C   UNL     1     -98.526 152.723 237.459  1.00  0.00    -0.000 C 
BRANCH  23  24
ATOM     24  C   UNL     1     -99.227 152.185 238.725  1.00  0.00    -0.000 C 
BRANCH  24  25
ATOM     25  C   UNL     1     -98.618 150.875 239.254  1.00  0.00    -0.003 C 
ATOM     26  C   UNL     1     -99.227 149.630 238.614  1.00  0.00     0.004 C 
ENDBRANCH  24  25
ENDBRANCH  23  24
ENDBRANCH  22  23
ENDBRANCH  21  22
ENDBRANCH  20  21
ENDBRANCH  19  20
ENDBRANCH  18  19
ENDBRANCH  17  18
ENDBRANCH  16  17
ENDBRANCH  15  16
ENDBRANCH   1  15
TORSDOF 22
ENDMDL
MODEL 8
REMARK VINA RESULT:    -3.311      2.014      5.738
REMARK INTER + INTRA:         -11.331
REMARK INTER:                  -6.933
REMARK INTRA:                  -4.399
REMARK UNBOUND:                -3.762
REMARK SMILES CCCCCCCCCCCCCCCCCCCCCCCC(=O)[O-]
REMARK SMILES IDX 13 1 14 2 15 3 16 4 17 5 18 6 19 7 20 8 21 9 22 10 23 11
REMARK SMILES IDX 24 12 25 13 26 14 12 15 11 16 10 17 9 18 8 19 7 20 6 21 5 22
REMARK SMILES IDX 4 23 3 24 2 25 1 26
REMARK H PARENT
REMARK Flexibility Score: inf
ROOT
ATOM      1  C   UNL     1     -96.026 147.112 242.684  1.00  0.00     0.000 C 
ENDROOT
BRANCH   1   2
ATOM      2  C   UNL     1     -95.903 148.645 242.609  1.00  0.00     0.000 C 
BRANCH   2   3
ATOM      3  C   UNL     1     -97.039 149.371 243.345  1.00  0.00     0.000 C 
BRANCH   3   4
ATOM      4  C   UNL     1     -97.394 148.651 244.656  1.00  0.00     0.000 C 
BRANCH   4   5
ATOM      5  C   UNL     1     -98.911 148.466 244.847  1.00  0.00     0.000 C 
BRANCH   5   6
ATOM      6  C   UNL     1     -99.518 147.284 244.070  1.00  0.00     0.000 C 
BRANCH   6   7
ATOM      7  C   UNL     1    -100.218 147.721 242.771  1.00  0.00     0.000 C 
BRANCH   7   8
ATOM      8  C   UNL     1     -99.539 147.151 241.516  1.00  0.00     0.000 C 
BRANCH   8   9
ATOM      9  C   UNL     1     -99.410 148.196 240.395  1.00  0.00     0.000 C 
BRANCH   9  10
ATOM     10  C   UNL     1     -99.805 149.608 240.854  1.00  0.00     0.006 C 
BRANCH  10  11
ATOM     11  C   UNL     1     -98.724 150.656 240.557  1.00  0.00     0.053 C 
BRANCH  11  12
ATOM     12  C   UNL     1     -99.106 151.476 239.364  1.00  0.00     0.041 C 
ATOM     13  O   UNL     1     -98.806 151.087 238.205  1.00  0.00    -0.550 OA
ATOM     14  O   UNL     1     -99.746 152.698 239.537  1.00  0.00    -0.550 OA
ENDBRANCH  11  12
ENDBRANCH  10  11
ENDBRANCH   9  10
ENDBRANCH   8   9
ENDBRANCH   7   8
ENDBRANCH   6   7
ENDBRANCH   5   6
ENDBRANCH   4   5
ENDBRANCH   3   4
ENDBRANCH   2   3
ENDBRANCH   1   2
BRANCH   1  15
ATOM     15  C   UNL     1     -94.706 146.343 242.473  1.00  0.00     0.000 C 
BRANCH  15  16
ATOM     16  C   UNL     1     -93.502 147.208 242.050  1.00  0.00     0.000 C 
BRANCH  16  17
ATOM     17  C   UNL     1     -93.104 147.096 240.568  1.00  0.00     0.000 C 
BRANCH  17  18
ATOM     18  C   UNL     1     -93.199 145.659 240.029  1.00  0.00    -0.000 C 
BRANCH  18  19
ATOM     19  C   UNL     1     -94.092 145.544 238.779  1.00  0.00    -0.000 C 
BRANCH  19  20
ATOM     20  C   UNL     1     -95.527 145.050 239.039  1.00  0.00    -0.000 C 
BRANCH  20  21
ATOM     21  C   UNL     1     -96.538 146.200 239.195  1.00  0.00    -0.000 C 
BRANCH  21  22
ATOM     22  C   UNL     1     -96.403 147.254 238.084  1.00  0.00    -0.000 C 
BRANCH  22  23
ATOM     23  C   UNL     1     -96.126 148.665 238.635  1.00  0.00    -0.000 C 
BRANCH  23  24
ATOM     24  C   UNL     1     -94.762 149.214 238.166  1.00  0.00    -0.000 C 
BRANCH  24  25
ATOM     25  C   UNL     1     -94.828 149.951 236.817  1.00  0.00    -0.003 C 
ATOM     26  C   UNL     1     -95.503 151.317 236.913  1.00  0.00     0.004 C 
ENDBRANCH  24  25
ENDBRANCH  23  24
ENDBRANCH  22  23
ENDBRANCH  21  22
ENDBRANCH  20  21
ENDBRANCH  19  20
ENDBRANCH  18  19
ENDBRANCH  17  18
ENDBRANCH  16  17
ENDBRANCH  15  16
ENDBRANCH   1  15
TORSDOF 22
ENDMDL
MODEL 9
REMARK VINA RESULT:    -3.306      3.141      6.635
REMARK INTER + INTRA:         -11.319
REMARK INTER:                  -7.524
REMARK INTRA:                  -3.795
REMARK UNBOUND:                -3.762
REMARK SMILES CCCCCCCCCCCCCCCCCCCCCCCC(=O)[O-]
REMARK SMILES IDX 13 1 14 2 15 3 16 4 17 5 18 6 19 7 20 8 21 9 22 10 23 11
REMARK SMILES IDX 24 12 25 13 26 14 12 15 11 16 10 17 9 18 8 19 7 20 6 21 5 22
REMARK SMILES IDX 4 23 3 24 2 25 1 26
REMARK H PARENT
REMARK Flexibility Score: inf
ROOT
ATOM      1  C   UNL     1     -95.757 145.790 238.571  1.00  0.00     0.000 C 
ENDROOT
BRANCH   1   2
ATOM      2  C   UNL     1     -94.553 145.423 237.684  1.00  0.00     0.000 C 
BRANCH   2   3
ATOM      3  C   UNL     1     -93.205 145.630 238.389  1.00  0.00     0.000 C 
BRANCH   3   4
ATOM      4  C   UNL     1     -93.399 146.288 239.765  1.00  0.00     0.000 C 
BRANCH   4   5
ATOM      5  C   UNL     1     -92.405 145.773 240.822  1.00  0.00     0.000 C 
BRANCH   5   6
ATOM      6  C   UNL     1     -93.057 145.191 242.089  1.00  0.00     0.000 C 
BRANCH   6   7
ATOM      7  C   UNL     1     -94.585 145.060 241.967  1.00  0.00     0.000 C 
BRANCH   7   8
ATOM      8  C   UNL     1     -95.336 145.968 242.954  1.00  0.00     0.000 C 
BRANCH   8   9
ATOM      9  C   UNL     1     -96.180 147.037 242.239  1.00  0.00     0.000 C 
BRANCH   9  10
ATOM     10  C   UNL     1     -95.788 148.467 242.644  1.00  0.00     0.006 C 
BRANCH  10  11
ATOM     11  C   UNL     1     -97.000 149.341 242.992  1.00  0.00     0.053 C 
BRANCH  11  12
ATOM     12  C   UNL     1     -97.769 148.739 244.127  1.00  0.00     0.041 C 
ATOM     13  O   UNL     1     -97.226 148.593 245.254  1.00  0.00    -0.550 OA
ATOM     14  O   UNL     1     -99.068 148.288 243.924  1.00  0.00    -0.550 OA
ENDBRANCH  11  12
ENDBRANCH  10  11
ENDBRANCH   9  10
ENDBRANCH   8   9
ENDBRANCH   7   8
ENDBRANCH   6   7
ENDBRANCH   5   6
ENDBRANCH   4   5
ENDBRANCH   3   4
ENDBRANCH   2   3
ENDBRANCH   1   2
BRANCH   1  15
ATOM     15  C   UNL     1     -96.899 146.530 237.845  1.00  0.00     0.000 C 
BRANCH  15  16
ATOM     16  C   UNL     1     -96.937 148.055 238.063  1.00  0.00     0.000 C 
BRANCH  16  17
ATOM     17  C   UNL     1     -95.784 148.625 238.907  1.00  0.00     0.000 C 
BRANCH  17  18
ATOM     18  C   UNL     1     -94.839 149.528 238.096  1.00  0.00    -0.000 C 
BRANCH  18  19
ATOM     19  C   UNL     1     -94.835 149.195 236.592  1.00  0.00    -0.000 C 
BRANCH  19  20
ATOM     20  C   UNL     1     -94.964 150.407 235.651  1.00  0.00    -0.000 C 
BRANCH  20  21
ATOM     21  C   UNL     1     -96.419 150.690 235.233  1.00  0.00    -0.000 C 
BRANCH  21  22
ATOM     22  C   UNL     1     -96.847 152.134 235.538  1.00  0.00    -0.000 C 
BRANCH  22  23
ATOM     23  C   UNL     1     -96.511 152.560 236.979  1.00  0.00    -0.000 C 
BRANCH  23  24
ATOM     24  C   UNL     1     -97.778 152.731 237.844  1.00  0.00    -0.000 C 
BRANCH  24  25
ATOM     25  C   UNL     1     -98.487 151.404 238.164  1.00  0.00    -0.003 C 
ATOM     26  C   UNL     1     -98.748 151.208 239.655  1.00  0.00     0.004 C 
ENDBRANCH  24  25
ENDBRANCH  23  24
ENDBRANCH  22  23
ENDBRANCH  21  22
ENDBRANCH  20  21
ENDBRANCH  19  20
ENDBRANCH  18  19
ENDBRANCH  17  18
ENDBRANCH  16  17
ENDBRANCH  15  16
ENDBRANCH   1  15
TORSDOF 22
ENDMDL
