MODEL 1
REMARK VINA RESULT:    -6.738      0.000      0.000
REMARK INTER + INTRA:          -8.455
REMARK INTER:                  -8.117
REMARK INTRA:                  -0.338
REMARK UNBOUND:                -0.338
REMARK SMILES Oc1cc(O)c2cc(O)c(-c3ccc(O)c(O)c3)[o+]c2c1.[Cl-]
REMARK SMILES IDX 10 1 19 2 20 3 21 4 2 5 3 6 4 7 6 8 7 9 8 10 11 11 12 12
REMARK SMILES IDX 13 13 14 14 18 15 16 16 15 17 17 19 9 21 1 23 5 25
REMARK H PARENT 15 18 17 20 9 22 1 24 5 26
REMARK Flexibility Score: inf
ROOT
ATOM      1  C   UNL     1      15.090  14.878  62.165  1.00  0.00     0.402 A 
ATOM      2  O   UNL     1      16.113  15.730  62.181  1.00  0.00    -0.202 OA
ATOM      3  C   UNL     1      17.076  15.731  61.266  1.00  0.00     0.368 A 
ATOM      4  C   UNL     1      18.112  16.663  61.371  1.00  0.00     0.162 A 
ATOM      5  C   UNL     1      19.139  16.685  60.427  1.00  0.00     0.128 A 
ATOM      6  C   UNL     1      19.133  15.769  59.369  1.00  0.00     0.093 A 
ATOM      7  C   UNL     1      18.106  14.825  59.242  1.00  0.00     0.136 A 
ATOM      8  C   UNL     1      17.059  14.801  60.200  1.00  0.00     0.125 A 
ATOM      9  C   UNL     1      15.984  13.900  60.144  1.00  0.00     0.078 A 
ATOM     10  C   UNL     1      14.984  13.939  61.122  1.00  0.00     0.223 A 
ENDROOT
BRANCH   1  11
ATOM     11  C   UNL     1      14.084  14.971  63.248  1.00  0.00     0.087 A 
ATOM     12  C   UNL     1      14.283  14.340  64.487  1.00  0.00     0.022 A 
ATOM     13  C   UNL     1      13.330  14.461  65.503  1.00  0.00     0.051 A 
ATOM     14  C   UNL     1      12.173  15.223  65.299  1.00  0.00     0.157 A 
ATOM     15  C   UNL     1      12.932  15.750  63.055  1.00  0.00     0.068 A 
ATOM     16  C   UNL     1      11.975  15.873  64.069  1.00  0.00     0.158 A 
BRANCH  14  17
ATOM     17  O   UNL     1      11.223  15.340  66.312  1.00  0.00    -0.504 OA
ATOM     18  H   UNL     1      11.162  14.663  67.063  1.00  0.00     0.293 HD
ENDBRANCH  14  17
BRANCH  16  19
ATOM     19  O   UNL     1      10.837  16.645  63.837  1.00  0.00    -0.504 OA
ATOM     20  H   UNL     1      10.174  16.421  63.104  1.00  0.00     0.293 HD
ENDBRANCH  16  19
ENDBRANCH   1  11
BRANCH  10  21
ATOM     21  O   UNL     1      13.891  13.078  61.040  1.00  0.00    -0.500 OA
ATOM     22  H   UNL     1      13.946  12.192  60.549  1.00  0.00     0.294 HD
ENDBRANCH  10  21
BRANCH   5  23
ATOM     23  O   UNL     1      20.162  17.623  60.548  1.00  0.00    -0.507 OA
ATOM     24  H   UNL     1      21.112  17.345  60.771  1.00  0.00     0.293 HD
ENDBRANCH   5  23
BRANCH   7  25
ATOM     25  O   UNL     1      18.174  13.942  58.160  1.00  0.00    -0.507 OA
ATOM     26  H   UNL     1      18.397  14.216  57.214  1.00  0.00     0.293 HD
ENDBRANCH   7  25
TORSDOF 6
ENDMDL
MODEL 2
REMARK VINA RESULT:    -6.696      1.453      2.628
REMARK INTER + INTRA:          -8.405
REMARK INTER:                  -8.220
REMARK INTRA:                  -0.184
REMARK UNBOUND:                -0.338
REMARK SMILES Oc1cc(O)c2cc(O)c(-c3ccc(O)c(O)c3)[o+]c2c1.[Cl-]
REMARK SMILES IDX 10 1 19 2 20 3 21 4 2 5 3 6 4 7 6 8 7 9 8 10 11 11 12 12
REMARK SMILES IDX 13 13 14 14 18 15 16 16 15 17 17 19 9 21 1 23 5 25
REMARK H PARENT 15 18 17 20 9 22 1 24 5 26
REMARK Flexibility Score: inf
ROOT
ATOM      1  C   UNL     1      14.824  15.649  62.387  1.00  0.00     0.402 A 
ATOM      2  O   UNL     1      15.273  14.595  61.710  1.00  0.00    -0.202 OA
ATOM      3  C   UNL     1      16.053  14.693  60.639  1.00  0.00     0.368 A 
ATOM      4  C   UNL     1      16.471  13.527  59.992  1.00  0.00     0.162 A 
ATOM      5  C   UNL     1      17.288  13.600  58.863  1.00  0.00     0.128 A 
ATOM      6  C   UNL     1      17.690  14.848  58.374  1.00  0.00     0.093 A 
ATOM      7  C   UNL     1      17.285  16.031  59.004  1.00  0.00     0.136 A 
ATOM      8  C   UNL     1      16.456  15.960  60.154  1.00  0.00     0.125 A 
ATOM      9  C   UNL     1      16.012  17.092  60.856  1.00  0.00     0.078 A 
ATOM     10  C   UNL     1      15.201  16.944  61.986  1.00  0.00     0.223 A 
ENDROOT
BRANCH   1  11
ATOM     11  C   UNL     1      13.952  15.408  63.559  1.00  0.00     0.087 A 
ATOM     12  C   UNL     1      14.430  14.748  64.704  1.00  0.00     0.022 A 
ATOM     13  C   UNL     1      13.596  14.553  65.808  1.00  0.00     0.051 A 
ATOM     14  C   UNL     1      12.278  15.025  65.789  1.00  0.00     0.157 A 
ATOM     15  C   UNL     1      12.636  15.897  63.553  1.00  0.00     0.068 A 
ATOM     16  C   UNL     1      11.797  15.703  64.656  1.00  0.00     0.158 A 
BRANCH  14  17
ATOM     17  O   UNL     1      11.446  14.827  66.890  1.00  0.00    -0.504 OA
ATOM     18  H   UNL     1      11.574  15.346  67.751  1.00  0.00     0.293 HD
ENDBRANCH  14  17
BRANCH  16  19
ATOM     19  O   UNL     1      10.491  16.192  64.609  1.00  0.00    -0.504 OA
ATOM     20  H   UNL     1       9.725  15.646  64.232  1.00  0.00     0.293 HD
ENDBRANCH  16  19
ENDBRANCH   1  11
BRANCH  10  21
ATOM     21  O   UNL     1      14.802  18.065  62.712  1.00  0.00    -0.500 OA
ATOM     22  H   UNL     1      14.502  18.918  62.255  1.00  0.00     0.294 HD
ENDBRANCH  10  21
BRANCH   5  23
ATOM     23  O   UNL     1      17.694  12.426  58.233  1.00  0.00    -0.507 OA
ATOM     24  H   UNL     1      18.669  12.252  58.016  1.00  0.00     0.293 HD
ENDBRANCH   5  23
BRANCH   7  25
ATOM     25  O   UNL     1      17.727  17.237  58.453  1.00  0.00    -0.507 OA
ATOM     26  H   UNL     1      18.443  17.822  58.860  1.00  0.00     0.293 HD
ENDBRANCH   7  25
TORSDOF 6
ENDMDL
MODEL 3
REMARK VINA RESULT:    -6.457      3.144      6.287
REMARK INTER + INTRA:          -8.117
REMARK INTER:                  -8.139
REMARK INTRA:                   0.023
REMARK UNBOUND:                -0.338
REMARK SMILES Oc1cc(O)c2cc(O)c(-c3ccc(O)c(O)c3)[o+]c2c1.[Cl-]
REMARK SMILES IDX 10 1 19 2 20 3 21 4 2 5 3 6 4 7 6 8 7 9 8 10 11 11 12 12
REMARK SMILES IDX 13 13 14 14 18 15 16 16 15 17 17 19 9 21 1 23 5 25
REMARK H PARENT 15 18 17 20 9 22 1 24 5 26
REMARK Flexibility Score: inf
ROOT
ATOM      1  C   UNL     1      13.842  15.784  63.137  1.00  0.00     0.402 A 
ATOM      2  O   UNL     1      12.626  16.246  63.418  1.00  0.00    -0.202 OA
ATOM      3  C   UNL     1      12.329  17.540  63.463  1.00  0.00     0.368 A 
ATOM      4  C   UNL     1      11.021  17.927  63.771  1.00  0.00     0.162 A 
ATOM      5  C   UNL     1      10.682  19.279  63.829  1.00  0.00     0.128 A 
ATOM      6  C   UNL     1      11.653  20.253  63.579  1.00  0.00     0.093 A 
ATOM      7  C   UNL     1      12.971  19.891  63.268  1.00  0.00     0.136 A 
ATOM      8  C   UNL     1      13.319  18.517  63.206  1.00  0.00     0.125 A 
ATOM      9  C   UNL     1      14.610  18.062  62.890  1.00  0.00     0.078 A 
ATOM     10  C   UNL     1      14.878  16.691  62.842  1.00  0.00     0.223 A 
ENDROOT
BRANCH   1  11
ATOM     11  C   UNL     1      14.050  14.318  63.126  1.00  0.00     0.087 A 
ATOM     12  C   UNL     1      14.738  13.684  62.078  1.00  0.00     0.022 A 
ATOM     13  C   UNL     1      14.943  12.302  62.102  1.00  0.00     0.051 A 
ATOM     14  C   UNL     1      14.474  11.536  63.177  1.00  0.00     0.157 A 
ATOM     15  C   UNL     1      13.600  13.549  64.211  1.00  0.00     0.068 A 
ATOM     16  C   UNL     1      13.802  12.165  64.238  1.00  0.00     0.158 A 
BRANCH  14  17
ATOM     17  O   UNL     1      14.677  10.157  63.197  1.00  0.00    -0.504 OA
ATOM     18  H   UNL     1      14.868   9.637  62.348  1.00  0.00     0.293 HD
ENDBRANCH  14  17
BRANCH  16  19
ATOM     19  O   UNL     1      13.330  11.432  65.327  1.00  0.00    -0.504 OA
ATOM     20  H   UNL     1      13.282  10.420  65.315  1.00  0.00     0.293 HD
ENDBRANCH  16  19
ENDBRANCH   1  11
BRANCH  10  21
ATOM     21  O   UNL     1      16.146  16.238  62.479  1.00  0.00    -0.500 OA
ATOM     22  H   UNL     1      16.986  16.747  62.731  1.00  0.00     0.294 HD
ENDBRANCH  10  21
BRANCH   5  23
ATOM     23  O   UNL     1       9.373  19.644  64.137  1.00  0.00    -0.507 OA
ATOM     24  H   UNL     1       8.582  19.242  63.647  1.00  0.00     0.293 HD
ENDBRANCH   5  23
BRANCH   7  25
ATOM     25  O   UNL     1      13.884  20.924  63.034  1.00  0.00    -0.507 OA
ATOM     26  H   UNL     1      13.639  21.825  62.649  1.00  0.00     0.293 HD
ENDBRANCH   7  25
TORSDOF 6
ENDMDL
MODEL 4
REMARK VINA RESULT:    -6.308      3.094      6.606
REMARK INTER + INTRA:          -7.937
REMARK INTER:                  -7.622
REMARK INTRA:                  -0.315
REMARK UNBOUND:                -0.338
REMARK SMILES Oc1cc(O)c2cc(O)c(-c3ccc(O)c(O)c3)[o+]c2c1.[Cl-]
REMARK SMILES IDX 10 1 19 2 20 3 21 4 2 5 3 6 4 7 6 8 7 9 8 10 11 11 12 12
REMARK SMILES IDX 13 13 14 14 18 15 16 16 15 17 17 19 9 21 1 23 5 25
REMARK H PARENT 15 18 17 20 9 22 1 24 5 26
REMARK Flexibility Score: inf
ROOT
ATOM      1  C   UNL     1      14.993  12.700  61.695  1.00  0.00     0.402 A 
ATOM      2  O   UNL     1      14.950  14.030  61.656  1.00  0.00    -0.202 OA
ATOM      3  C   UNL     1      14.505  14.776  62.661  1.00  0.00     0.368 A 
ATOM      4  C   UNL     1      14.495  16.167  62.524  1.00  0.00     0.162 A 
ATOM      5  C   UNL     1      14.030  16.975  63.562  1.00  0.00     0.128 A 
ATOM      6  C   UNL     1      13.570  16.390  64.747  1.00  0.00     0.093 A 
ATOM      7  C   UNL     1      13.568  14.999  64.909  1.00  0.00     0.136 A 
ATOM      8  C   UNL     1      14.043  14.174  63.856  1.00  0.00     0.125 A 
ATOM      9  C   UNL     1      14.091  12.773  63.935  1.00  0.00     0.078 A 
ATOM     10  C   UNL     1      14.577  12.026  62.858  1.00  0.00     0.223 A 
ENDROOT
BRANCH   1  11
ATOM     11  C   UNL     1      15.501  11.981  60.504  1.00  0.00     0.087 A 
ATOM     12  C   UNL     1      16.809  11.469  60.463  1.00  0.00     0.022 A 
ATOM     13  C   UNL     1      17.260  10.772  59.338  1.00  0.00     0.051 A 
ATOM     14  C   UNL     1      16.408  10.568  58.246  1.00  0.00     0.157 A 
ATOM     15  C   UNL     1      14.645  11.755  59.415  1.00  0.00     0.068 A 
ATOM     16  C   UNL     1      15.092  11.060  58.287  1.00  0.00     0.158 A 
BRANCH  14  17
ATOM     17  O   UNL     1      16.860   9.875  57.123  1.00  0.00    -0.504 OA
ATOM     18  H   UNL     1      17.756  10.083  56.698  1.00  0.00     0.293 HD
ENDBRANCH  14  17
BRANCH  16  19
ATOM     19  O   UNL     1      14.217  10.865  57.218  1.00  0.00    -0.504 OA
ATOM     20  H   UNL     1      13.273  11.232  57.223  1.00  0.00     0.293 HD
ENDBRANCH  16  19
ENDBRANCH   1  11
BRANCH  10  21
ATOM     21  O   UNL     1      14.671  10.638  62.955  1.00  0.00    -0.500 OA
ATOM     22  H   UNL     1      14.043  10.101  63.541  1.00  0.00     0.294 HD
ENDBRANCH  10  21
BRANCH   5  23
ATOM     23  O   UNL     1      14.030  18.359  63.406  1.00  0.00    -0.507 OA
ATOM     24  H   UNL     1      13.453  18.813  62.705  1.00  0.00     0.293 HD
ENDBRANCH   5  23
BRANCH   7  25
ATOM     25  O   UNL     1      13.089  14.493  66.121  1.00  0.00    -0.507 OA
ATOM     26  H   UNL     1      13.677  14.177  66.879  1.00  0.00     0.293 HD
ENDBRANCH   7  25
TORSDOF 6
ENDMDL
MODEL 5
REMARK VINA RESULT:    -6.212      1.335      3.070
REMARK INTER + INTRA:          -7.821
REMARK INTER:                  -7.483
REMARK INTRA:                  -0.338
REMARK UNBOUND:                -0.338
REMARK SMILES Oc1cc(O)c2cc(O)c(-c3ccc(O)c(O)c3)[o+]c2c1.[Cl-]
REMARK SMILES IDX 10 1 19 2 20 3 21 4 2 5 3 6 4 7 6 8 7 9 8 10 11 11 12 12
REMARK SMILES IDX 13 13 14 14 18 15 16 16 15 17 17 19 9 21 1 23 5 25
REMARK H PARENT 15 18 17 20 9 22 1 24 5 26
REMARK Flexibility Score: inf
ROOT
ATOM      1  C   UNL     1      14.976  15.604  62.358  1.00  0.00     0.402 A 
ATOM      2  O   UNL     1      15.097  14.542  61.566  1.00  0.00    -0.202 OA
ATOM      3  C   UNL     1      16.040  14.428  60.637  1.00  0.00     0.368 A 
ATOM      4  C   UNL     1      16.085  13.273  59.851  1.00  0.00     0.162 A 
ATOM      5  C   UNL     1      17.062  13.128  58.865  1.00  0.00     0.128 A 
ATOM      6  C   UNL     1      18.002  14.143  58.662  1.00  0.00     0.093 A 
ATOM      7  C   UNL     1      17.979  15.311  59.436  1.00  0.00     0.136 A 
ATOM      8  C   UNL     1      16.988  15.460  60.441  1.00  0.00     0.125 A 
ATOM      9  C   UNL     1      16.897  16.588  61.272  1.00  0.00     0.078 A 
ATOM     10  C   UNL     1      15.895  16.664  62.245  1.00  0.00     0.223 A 
ENDROOT
BRANCH   1  11
ATOM     11  C   UNL     1      13.875  15.617  63.349  1.00  0.00     0.087 A 
ATOM     12  C   UNL     1      12.688  16.331  63.116  1.00  0.00     0.022 A 
ATOM     13  C   UNL     1      11.654  16.308  64.055  1.00  0.00     0.051 A 
ATOM     14  C   UNL     1      11.786  15.565  65.234  1.00  0.00     0.157 A 
ATOM     15  C   UNL     1      13.995  14.856  64.524  1.00  0.00     0.068 A 
ATOM     16  C   UNL     1      12.962  14.832  65.468  1.00  0.00     0.158 A 
BRANCH  14  17
ATOM     17  O   UNL     1      10.754  15.546  66.172  1.00  0.00    -0.504 OA
ATOM     18  H   UNL     1      10.931  15.702  67.157  1.00  0.00     0.293 HD
ENDBRANCH  14  17
BRANCH  16  19
ATOM     19  O   UNL     1      13.122  14.075  66.628  1.00  0.00    -0.504 OA
ATOM     20  H   UNL     1      13.649  13.211  66.638  1.00  0.00     0.293 HD
ENDBRANCH  16  19
ENDBRANCH   1  11
BRANCH  10  21
ATOM     21  O   UNL     1      15.835  17.760  63.104  1.00  0.00    -0.500 OA
ATOM     22  H   UNL     1      16.618  18.020  63.694  1.00  0.00     0.294 HD
ENDBRANCH  10  21
BRANCH   5  23
ATOM     23  O   UNL     1      17.089  11.969  58.093  1.00  0.00    -0.507 OA
ATOM     24  H   UNL     1      16.388  11.790  57.382  1.00  0.00     0.293 HD
ENDBRANCH   5  23
BRANCH   7  25
ATOM     25  O   UNL     1      18.951  16.279  59.169  1.00  0.00    -0.507 OA
ATOM     26  H   UNL     1      19.493  16.754  59.877  1.00  0.00     0.293 HD
ENDBRANCH   7  25
TORSDOF 6
ENDMDL
MODEL 6
REMARK VINA RESULT:    -6.195      1.707      7.155
REMARK INTER + INTRA:          -7.801
REMARK INTER:                  -7.558
REMARK INTRA:                  -0.244
REMARK UNBOUND:                -0.338
REMARK SMILES Oc1cc(O)c2cc(O)c(-c3ccc(O)c(O)c3)[o+]c2c1.[Cl-]
REMARK SMILES IDX 10 1 19 2 20 3 21 4 2 5 3 6 4 7 6 8 7 9 8 10 11 11 12 12
REMARK SMILES IDX 13 13 14 14 18 15 16 16 15 17 17 19 9 21 1 23 5 25
REMARK H PARENT 15 18 17 20 9 22 1 24 5 26
REMARK Flexibility Score: inf
ROOT
ATOM      1  C   UNL     1      14.200  15.497  63.000  1.00  0.00     0.402 A 
ATOM      2  O   UNL     1      13.393  16.550  62.899  1.00  0.00    -0.202 OA
ATOM      3  C   UNL     1      12.343  16.743  63.689  1.00  0.00     0.368 A 
ATOM      4  C   UNL     1      11.551  17.880  63.502  1.00  0.00     0.162 A 
ATOM      5  C   UNL     1      10.440  18.107  64.315  1.00  0.00     0.128 A 
ATOM      6  C   UNL     1      10.114  17.192  65.322  1.00  0.00     0.093 A 
ATOM      7  C   UNL     1      10.891  16.044  65.528  1.00  0.00     0.136 A 
ATOM      8  C   UNL     1      12.023  15.812  64.705  1.00  0.00     0.125 A 
ATOM      9  C   UNL     1      12.865  14.697  64.849  1.00  0.00     0.078 A 
ATOM     10  C   UNL     1      13.967  14.537  64.003  1.00  0.00     0.223 A 
ENDROOT
BRANCH   1  11
ATOM     11  C   UNL     1      15.333  15.389  62.053  1.00  0.00     0.087 A 
ATOM     12  C   UNL     1      15.394  14.360  61.098  1.00  0.00     0.022 A 
ATOM     13  C   UNL     1      16.462  14.292  60.199  1.00  0.00     0.051 A 
ATOM     14  C   UNL     1      17.476  15.257  60.233  1.00  0.00     0.157 A 
ATOM     15  C   UNL     1      16.342  16.365  62.069  1.00  0.00     0.068 A 
ATOM     16  C   UNL     1      17.414  16.301  61.171  1.00  0.00     0.158 A 
BRANCH  14  17
ATOM     17  O   UNL     1      18.542  15.186  59.337  1.00  0.00    -0.504 OA
ATOM     18  H   UNL     1      19.120  14.357  59.266  1.00  0.00     0.293 HD
ENDBRANCH  14  17
BRANCH  16  19
ATOM     19  O   UNL     1      18.404  17.282  61.225  1.00  0.00    -0.504 OA
ATOM     20  H   UNL     1      19.381  17.053  61.363  1.00  0.00     0.293 HD
ENDBRANCH  16  19
ENDBRANCH   1  11
BRANCH  10  21
ATOM     21  O   UNL     1      14.832  13.458  64.177  1.00  0.00    -0.500 OA
ATOM     22  H   UNL     1      15.561  13.467  64.882  1.00  0.00     0.294 HD
ENDBRANCH  10  21
BRANCH   5  23
ATOM     23  O   UNL     1       9.665  19.247  64.113  1.00  0.00    -0.507 OA
ATOM     24  H   UNL     1       8.830  19.225  63.537  1.00  0.00     0.293 HD
ENDBRANCH   5  23
BRANCH   7  25
ATOM     25  O   UNL     1      10.498  15.177  66.552  1.00  0.00    -0.507 OA
ATOM     26  H   UNL     1      11.115  14.530  67.020  1.00  0.00     0.293 HD
ENDBRANCH   7  25
TORSDOF 6
ENDMDL
MODEL 7
REMARK VINA RESULT:    -6.096      5.466      7.864
REMARK INTER + INTRA:          -7.682
REMARK INTER:                  -7.420
REMARK INTRA:                  -0.262
REMARK UNBOUND:                -0.338
REMARK SMILES Oc1cc(O)c2cc(O)c(-c3ccc(O)c(O)c3)[o+]c2c1.[Cl-]
REMARK SMILES IDX 10 1 19 2 20 3 21 4 2 5 3 6 4 7 6 8 7 9 8 10 11 11 12 12
REMARK SMILES IDX 13 13 14 14 18 15 16 16 15 17 17 19 9 21 1 23 5 25
REMARK H PARENT 15 18 17 20 9 22 1 24 5 26
REMARK Flexibility Score: inf
ROOT
ATOM      1  C   UNL     1      12.589  20.449  63.126  1.00  0.00     0.402 A 
ATOM      2  O   UNL     1      13.532  19.516  63.220  1.00  0.00    -0.202 OA
ATOM      3  C   UNL     1      13.269  18.230  63.424  1.00  0.00     0.368 A 
ATOM      4  C   UNL     1      14.330  17.324  63.512  1.00  0.00     0.162 A 
ATOM      5  C   UNL     1      14.083  15.968  63.729  1.00  0.00     0.128 A 
ATOM      6  C   UNL     1      12.767  15.511  63.859  1.00  0.00     0.093 A 
ATOM      7  C   UNL     1      11.687  16.399  63.776  1.00  0.00     0.136 A 
ATOM      8  C   UNL     1      11.934  17.778  63.553  1.00  0.00     0.125 A 
ATOM      9  C   UNL     1      10.914  18.737  63.442  1.00  0.00     0.078 A 
ATOM     10  C   UNL     1      11.234  20.079  63.216  1.00  0.00     0.223 A 
ENDROOT
BRANCH   1  11
ATOM     11  C   UNL     1      13.011  21.852  62.908  1.00  0.00     0.087 A 
ATOM     12  C   UNL     1      13.515  22.280  61.668  1.00  0.00     0.022 A 
ATOM     13  C   UNL     1      13.885  23.614  61.478  1.00  0.00     0.051 A 
ATOM     14  C   UNL     1      13.745  24.541  62.519  1.00  0.00     0.157 A 
ATOM     15  C   UNL     1      12.854  22.789  63.941  1.00  0.00     0.068 A 
ATOM     16  C   UNL     1      13.224  24.126  63.756  1.00  0.00     0.158 A 
BRANCH  14  17
ATOM     17  O   UNL     1      14.117  25.871  62.328  1.00  0.00    -0.504 OA
ATOM     18  H   UNL     1      15.072  26.180  62.472  1.00  0.00     0.293 HD
ENDBRANCH  14  17
BRANCH  16  19
ATOM     19  O   UNL     1      13.065  25.026  64.809  1.00  0.00    -0.504 OA
ATOM     20  H   UNL     1      12.956  26.021  64.655  1.00  0.00     0.293 HD
ENDBRANCH  16  19
ENDBRANCH   1  11
BRANCH  10  21
ATOM     21  O   UNL     1      10.220  21.023  63.056  1.00  0.00    -0.500 OA
ATOM     22  H   UNL     1       9.365  20.985  63.600  1.00  0.00     0.294 HD
ENDBRANCH  10  21
BRANCH   5  23
ATOM     23  O   UNL     1      15.154  15.081  63.812  1.00  0.00    -0.507 OA
ATOM     24  H   UNL     1      15.015  14.077  63.765  1.00  0.00     0.293 HD
ENDBRANCH   5  23
BRANCH   7  25
ATOM     25  O   UNL     1      10.403  15.865  63.920  1.00  0.00    -0.507 OA
ATOM     26  H   UNL     1       9.947  15.281  63.233  1.00  0.00     0.293 HD
ENDBRANCH   7  25
TORSDOF 6
ENDMDL
MODEL 8
REMARK VINA RESULT:    -6.009      1.864      7.303
REMARK INTER + INTRA:          -7.577
REMARK INTER:                  -7.934
REMARK INTRA:                   0.356
REMARK UNBOUND:                -0.338
REMARK SMILES Oc1cc(O)c2cc(O)c(-c3ccc(O)c(O)c3)[o+]c2c1.[Cl-]
REMARK SMILES IDX 10 1 19 2 20 3 21 4 2 5 3 6 4 7 6 8 7 9 8 10 11 11 12 12
REMARK SMILES IDX 13 13 14 14 18 15 16 16 15 17 17 19 9 21 1 23 5 25
REMARK H PARENT 15 18 17 20 9 22 1 24 5 26
REMARK Flexibility Score: inf
ROOT
ATOM      1  C   UNL     1      16.078  15.108  60.640  1.00  0.00     0.402 A 
ATOM      2  O   UNL     1      15.722  14.003  61.291  1.00  0.00    -0.202 OA
ATOM      3  C   UNL     1      14.879  14.000  62.317  1.00  0.00     0.368 A 
ATOM      4  C   UNL     1      14.569  12.788  62.940  1.00  0.00     0.162 A 
ATOM      5  C   UNL     1      13.689  12.755  64.022  1.00  0.00     0.128 A 
ATOM      6  C   UNL     1      13.114  13.942  64.489  1.00  0.00     0.093 A 
ATOM      7  C   UNL     1      13.409  15.170  63.883  1.00  0.00     0.136 A 
ATOM      8  C   UNL     1      14.301  15.206  62.780  1.00  0.00     0.125 A 
ATOM      9  C   UNL     1      14.644  16.388  62.103  1.00  0.00     0.078 A 
ATOM     10  C   UNL     1      15.527  16.346  61.020  1.00  0.00     0.223 A 
ENDROOT
BRANCH   1  11
ATOM     11  C   UNL     1      17.035  14.981  59.517  1.00  0.00     0.087 A 
ATOM     12  C   UNL     1      17.658  16.109  58.956  1.00  0.00     0.022 A 
ATOM     13  C   UNL     1      18.575  15.963  57.912  1.00  0.00     0.051 A 
ATOM     14  C   UNL     1      18.892  14.690  57.422  1.00  0.00     0.157 A 
ATOM     15  C   UNL     1      17.371  13.706  59.036  1.00  0.00     0.068 A 
ATOM     16  C   UNL     1      18.288  13.556  57.990  1.00  0.00     0.158 A 
BRANCH  14  17
ATOM     17  O   UNL     1      19.806  14.547  56.378  1.00  0.00    -0.504 OA
ATOM     18  H   UNL     1      20.805  14.554  56.545  1.00  0.00     0.293 HD
ENDBRANCH  14  17
BRANCH  16  19
ATOM     19  O   UNL     1      18.588  12.273  57.530  1.00  0.00    -0.504 OA
ATOM     20  H   UNL     1      17.868  11.627  57.230  1.00  0.00     0.293 HD
ENDBRANCH  16  19
ENDBRANCH   1  11
BRANCH  10  21
ATOM     21  O   UNL     1      15.829  17.511  60.317  1.00  0.00    -0.500 OA
ATOM     22  H   UNL     1      15.316  17.780  59.485  1.00  0.00     0.294 HD
ENDBRANCH  10  21
BRANCH   5  23
ATOM     23  O   UNL     1      13.392  11.536  64.628  1.00  0.00    -0.507 OA
ATOM     24  H   UNL     1      12.628  11.445  65.288  1.00  0.00     0.293 HD
ENDBRANCH   5  23
BRANCH   7  25
ATOM     25  O   UNL     1      12.796  16.311  64.409  1.00  0.00    -0.507 OA
ATOM     26  H   UNL     1      11.879  16.640  64.144  1.00  0.00     0.293 HD
ENDBRANCH   7  25
TORSDOF 6
ENDMDL
MODEL 9
REMARK VINA RESULT:    -5.839      2.577      7.054
REMARK INTER + INTRA:          -7.372
REMARK INTER:                  -7.023
REMARK INTRA:                  -0.349
REMARK UNBOUND:                -0.338
REMARK SMILES Oc1cc(O)c2cc(O)c(-c3ccc(O)c(O)c3)[o+]c2c1.[Cl-]
REMARK SMILES IDX 10 1 19 2 20 3 21 4 2 5 3 6 4 7 6 8 7 9 8 10 11 11 12 12
REMARK SMILES IDX 13 13 14 14 18 15 16 16 15 17 17 19 9 21 1 23 5 25
REMARK H PARENT 15 18 17 20 9 22 1 24 5 26
REMARK Flexibility Score: inf
ROOT
ATOM      1  C   UNL     1      14.588  16.945  62.210  1.00  0.00     0.402 A 
ATOM      2  O   UNL     1      14.248  18.218  62.399  1.00  0.00    -0.202 OA
ATOM      3  C   UNL     1      13.126  18.593  63.002  1.00  0.00     0.368 A 
ATOM      4  C   UNL     1      12.855  19.956  63.150  1.00  0.00     0.162 A 
ATOM      5  C   UNL     1      11.682  20.378  63.777  1.00  0.00     0.128 A 
ATOM      6  C   UNL     1      10.770  19.433  64.259  1.00  0.00     0.093 A 
ATOM      7  C   UNL     1      11.018  18.061  64.123  1.00  0.00     0.136 A 
ATOM      8  C   UNL     1      12.212  17.628  63.488  1.00  0.00     0.125 A 
ATOM      9  C   UNL     1      12.548  16.275  63.320  1.00  0.00     0.078 A 
ATOM     10  C   UNL     1      13.746  15.924  62.688  1.00  0.00     0.223 A 
ENDROOT
BRANCH   1  11
ATOM     11  C   UNL     1      15.863  16.656  61.515  1.00  0.00     0.087 A 
ATOM     12  C   UNL     1      17.070  16.530  62.222  1.00  0.00     0.022 A 
ATOM     13  C   UNL     1      18.257  16.233  61.547  1.00  0.00     0.051 A 
ATOM     14  C   UNL     1      18.253  16.047  60.159  1.00  0.00     0.157 A 
ATOM     15  C   UNL     1      15.860  16.448  60.126  1.00  0.00     0.068 A 
ATOM     16  C   UNL     1      17.046  16.152  59.446  1.00  0.00     0.158 A 
BRANCH  14  17
ATOM     17  O   UNL     1      19.438  15.753  59.487  1.00  0.00    -0.504 OA
ATOM     18  H   UNL     1      19.878  14.843  59.559  1.00  0.00     0.293 HD
ENDBRANCH  14  17
BRANCH  16  19
ATOM     19  O   UNL     1      17.007  15.964  58.064  1.00  0.00    -0.504 OA
ATOM     20  H   UNL     1      17.573  16.515  57.430  1.00  0.00     0.293 HD
ENDBRANCH  16  19
ENDBRANCH   1  11
BRANCH  10  21
ATOM     21  O   UNL     1      14.104  14.582  62.566  1.00  0.00    -0.500 OA
ATOM     22  H   UNL     1      14.764  14.269  61.862  1.00  0.00     0.294 HD
ENDBRANCH  10  21
BRANCH   5  23
ATOM     23  O   UNL     1      11.431  21.742  63.915  1.00  0.00    -0.507 OA
ATOM     24  H   UNL     1      11.825  22.420  63.273  1.00  0.00     0.293 HD
ENDBRANCH   5  23
BRANCH   7  25
ATOM     25  O   UNL     1      10.057  17.180  64.628  1.00  0.00    -0.507 OA
ATOM     26  H   UNL     1      10.243  16.471  65.323  1.00  0.00     0.293 HD
ENDBRANCH   7  25
TORSDOF 6
ENDMDL
