MODEL 1
REMARK VINA RESULT:    -5.255      0.000      0.000
REMARK INTER + INTRA:         -13.202
REMARK INTER:                 -10.169
REMARK INTRA:                  -3.032
REMARK UNBOUND:                -3.032
REMARK SMILES CCCCCCCCCCCCCCCCCC(=O)[O-]
REMARK SMILES IDX 10 1 11 2 12 3 13 4 14 5 15 6 16 7 17 8 18 9 19 10 20 11
REMARK SMILES IDX 9 12 8 13 7 14 6 15 5 16 4 17 3 18 2 19 1 20
REMARK H PARENT
REMARK Flexibility Score: inf
ROOT
ATOM      1  C   UNL     1     138.042 130.162 129.593  1.00  0.00     0.000 C 
ENDROOT
BRANCH   1   2
ATOM      2  C   UNL     1     138.786 130.935 130.693  1.00  0.00     0.000 C 
BRANCH   2   3
ATOM      3  C   UNL     1     139.735 132.004 130.127  1.00  0.00     0.000 C 
BRANCH   3   4
ATOM      4  C   UNL     1     139.625 133.345 130.867  1.00  0.00     0.000 C 
BRANCH   4   5
ATOM      5  C   UNL     1     140.127 134.500 129.987  1.00  0.00     0.000 C 
BRANCH   5   6
ATOM      6  C   UNL     1     139.857 135.880 130.608  1.00  0.00     0.000 C 
BRANCH   6   7
ATOM      7  C   UNL     1     138.751 136.653 129.875  1.00  0.00     0.006 C 
BRANCH   7   8
ATOM      8  C   UNL     1     137.566 136.927 130.805  1.00  0.00     0.053 C 
BRANCH   8   9
ATOM      9  C   UNL     1     136.805 138.129 130.342  1.00  0.00     0.041 C 
ATOM     10  O   UNL     1     137.404 139.216 130.130  1.00  0.00    -0.550 OA
ATOM     11  O   UNL     1     135.440 138.037 130.097  1.00  0.00    -0.550 OA
ENDBRANCH   8   9
ENDBRANCH   7   8
ENDBRANCH   6   7
ENDBRANCH   5   6
ENDBRANCH   4   5
ENDBRANCH   3   4
ENDBRANCH   2   3
ENDBRANCH   1   2
BRANCH   1  12
ATOM     12  C   UNL     1     138.273 130.809 128.220  1.00  0.00     0.000 C 
BRANCH  12  13
ATOM     13  C   UNL     1     136.959 131.196 127.514  1.00  0.00    -0.000 C 
BRANCH  13  14
ATOM     14  C   UNL     1     136.901 132.646 126.992  1.00  0.00    -0.000 C 
BRANCH  14  15
ATOM     15  C   UNL     1     137.000 133.734 128.077  1.00  0.00    -0.000 C 
BRANCH  15  16
ATOM     16  C   UNL     1     135.749 133.807 128.965  1.00  0.00    -0.000 C 
BRANCH  16  17
ATOM     17  C   UNL     1     136.107 133.569 130.439  1.00  0.00    -0.000 C 
BRANCH  17  18
ATOM     18  C   UNL     1     135.409 132.331 131.033  1.00  0.00    -0.000 C 
BRANCH  18  19
ATOM     19  C   UNL     1     134.019 132.030 130.447  1.00  0.00    -0.003 C 
ATOM     20  C   UNL     1     133.905 130.619 129.871  1.00  0.00     0.004 C 
ENDBRANCH  18  19
ENDBRANCH  17  18
ENDBRANCH  16  17
ENDBRANCH  15  16
ENDBRANCH  14  15
ENDBRANCH  13  14
ENDBRANCH  12  13
ENDBRANCH   1  12
TORSDOF 16
ENDMDL
MODEL 2
REMARK VINA RESULT:    -5.080      0.766      1.704
REMARK INTER + INTRA:         -12.865
REMARK INTER:                 -10.126
REMARK INTRA:                  -2.739
REMARK UNBOUND:                -3.032
REMARK SMILES CCCCCCCCCCCCCCCCCC(=O)[O-]
REMARK SMILES IDX 10 1 11 2 12 3 13 4 14 5 15 6 16 7 17 8 18 9 19 10 20 11
REMARK SMILES IDX 9 12 8 13 7 14 6 15 5 16 4 17 3 18 2 19 1 20
REMARK H PARENT
REMARK Flexibility Score: inf
ROOT
ATOM      1  C   UNL     1     138.127 130.840 128.133  1.00  0.00     0.000 C 
ENDROOT
BRANCH   1   2
ATOM      2  C   UNL     1     137.894 130.348 129.569  1.00  0.00     0.000 C 
BRANCH   2   3
ATOM      3  C   UNL     1     138.820 131.032 130.588  1.00  0.00     0.000 C 
BRANCH   3   4
ATOM      4  C   UNL     1     139.670 132.146 129.961  1.00  0.00     0.000 C 
BRANCH   4   5
ATOM      5  C   UNL     1     139.742 133.369 130.887  1.00  0.00     0.000 C 
BRANCH   5   6
ATOM      6  C   UNL     1     140.047 134.670 130.128  1.00  0.00     0.000 C 
BRANCH   6   7
ATOM      7  C   UNL     1     139.938 135.916 131.021  1.00  0.00     0.006 C 
BRANCH   7   8
ATOM      8  C   UNL     1     139.518 137.141 130.203  1.00  0.00     0.053 C 
BRANCH   8   9
ATOM      9  C   UNL     1     138.083 137.476 130.462  1.00  0.00     0.041 C 
ATOM     10  O   UNL     1     137.357 136.686 131.121  1.00  0.00    -0.550 OA
ATOM     11  O   UNL     1     137.560 138.683 130.017  1.00  0.00    -0.550 OA
ENDBRANCH   8   9
ENDBRANCH   7   8
ENDBRANCH   6   7
ENDBRANCH   5   6
ENDBRANCH   4   5
ENDBRANCH   3   4
ENDBRANCH   2   3
ENDBRANCH   1   2
BRANCH   1  12
ATOM     12  C   UNL     1     136.800 131.235 127.469  1.00  0.00     0.000 C 
BRANCH  12  13
ATOM     13  C   UNL     1     136.741 132.728 127.095  1.00  0.00    -0.000 C 
BRANCH  13  14
ATOM     14  C   UNL     1     137.106 133.702 128.234  1.00  0.00    -0.000 C 
BRANCH  14  15
ATOM     15  C   UNL     1     135.942 134.075 129.171  1.00  0.00    -0.000 C 
BRANCH  15  16
ATOM     16  C   UNL     1     136.169 133.611 130.618  1.00  0.00    -0.000 C 
BRANCH  16  17
ATOM     17  C   UNL     1     135.028 132.694 131.084  1.00  0.00    -0.000 C 
BRANCH  17  18
ATOM     18  C   UNL     1     134.183 132.148 129.919  1.00  0.00    -0.000 C 
BRANCH  18  19
ATOM     19  C   UNL     1     134.094 130.614 129.847  1.00  0.00    -0.003 C 
ATOM     20  C   UNL     1     132.958 130.041 130.693  1.00  0.00     0.004 C 
ENDBRANCH  18  19
ENDBRANCH  17  18
ENDBRANCH  16  17
ENDBRANCH  15  16
ENDBRANCH  14  15
ENDBRANCH  13  14
ENDBRANCH  12  13
ENDBRANCH   1  12
TORSDOF 16
ENDMDL
MODEL 3
REMARK VINA RESULT:    -5.069      2.755      5.481
REMARK INTER + INTRA:         -12.842
REMARK INTER:                 -10.029
REMARK INTRA:                  -2.813
REMARK UNBOUND:                -3.032
REMARK SMILES CCCCCCCCCCCCCCCCCC(=O)[O-]
REMARK SMILES IDX 10 1 11 2 12 3 13 4 14 5 15 6 16 7 17 8 18 9 19 10 20 11
REMARK SMILES IDX 9 12 8 13 7 14 6 15 5 16 4 17 3 18 2 19 1 20
REMARK H PARENT
REMARK Flexibility Score: inf
ROOT
ATOM      1  C   UNL     1     138.161 130.853 127.836  1.00  0.00     0.000 C 
ENDROOT
BRANCH   1   2
ATOM      2  C   UNL     1     137.003 131.764 127.402  1.00  0.00     0.000 C 
BRANCH   2   3
ATOM      3  C   UNL     1     137.118 133.184 127.980  1.00  0.00     0.000 C 
BRANCH   3   4
ATOM      4  C   UNL     1     135.782 133.941 127.963  1.00  0.00     0.000 C 
BRANCH   4   5
ATOM      5  C   UNL     1     135.253 134.153 129.390  1.00  0.00     0.000 C 
BRANCH   5   6
ATOM      6  C   UNL     1     136.151 133.505 130.457  1.00  0.00     0.000 C 
BRANCH   6   7
ATOM      7  C   UNL     1     135.422 132.421 131.265  1.00  0.00     0.006 C 
BRANCH   7   8
ATOM      8  C   UNL     1     133.967 132.280 130.805  1.00  0.00     0.053 C 
BRANCH   8   9
ATOM      9  C   UNL     1     133.735 130.926 130.212  1.00  0.00     0.041 C 
ATOM     10  O   UNL     1     132.885 130.149 130.720  1.00  0.00    -0.550 OA
ATOM     11  O   UNL     1     134.424 130.540 129.069  1.00  0.00    -0.550 OA
ENDBRANCH   8   9
ENDBRANCH   7   8
ENDBRANCH   6   7
ENDBRANCH   5   6
ENDBRANCH   4   5
ENDBRANCH   3   4
ENDBRANCH   2   3
ENDBRANCH   1   2
BRANCH   1  12
ATOM     12  C   UNL     1     137.893 130.253 129.224  1.00  0.00     0.000 C 
BRANCH  12  13
ATOM     13  C   UNL     1     139.048 130.495 130.213  1.00  0.00    -0.000 C 
BRANCH  13  14
ATOM     14  C   UNL     1     139.757 131.857 130.069  1.00  0.00    -0.000 C 
BRANCH  14  15
ATOM     15  C   UNL     1     139.396 132.897 131.145  1.00  0.00    -0.000 C 
BRANCH  15  16
ATOM     16  C   UNL     1     140.228 134.183 131.035  1.00  0.00    -0.000 C 
BRANCH  16  17
ATOM     17  C   UNL     1     140.143 134.772 129.620  1.00  0.00    -0.000 C 
BRANCH  17  18
ATOM     18  C   UNL     1     139.001 135.794 129.464  1.00  0.00    -0.000 C 
BRANCH  18  19
ATOM     19  C   UNL     1     138.637 136.557 130.749  1.00  0.00    -0.003 C 
ATOM     20  C   UNL     1     137.230 137.154 130.712  1.00  0.00     0.004 C 
ENDBRANCH  18  19
ENDBRANCH  17  18
ENDBRANCH  16  17
ENDBRANCH  15  16
ENDBRANCH  14  15
ENDBRANCH  13  14
ENDBRANCH  12  13
ENDBRANCH   1  12
TORSDOF 16
ENDMDL
MODEL 4
REMARK VINA RESULT:    -5.035      2.296      5.084
REMARK INTER + INTRA:         -12.777
REMARK INTER:                 -10.282
REMARK INTRA:                  -2.495
REMARK UNBOUND:                -3.032
REMARK SMILES CCCCCCCCCCCCCCCCCC(=O)[O-]
REMARK SMILES IDX 10 1 11 2 12 3 13 4 14 5 15 6 16 7 17 8 18 9 19 10 20 11
REMARK SMILES IDX 9 12 8 13 7 14 6 15 5 16 4 17 3 18 2 19 1 20
REMARK H PARENT
REMARK Flexibility Score: inf
ROOT
ATOM      1  C   UNL     1     139.482 131.032 129.881  1.00  0.00     0.000 C 
ENDROOT
BRANCH   1   2
ATOM      2  C   UNL     1     138.629 130.651 128.662  1.00  0.00     0.000 C 
BRANCH   2   3
ATOM      3  C   UNL     1     137.133 130.542 128.997  1.00  0.00     0.000 C 
BRANCH   3   4
ATOM      4  C   UNL     1     136.253 131.384 128.061  1.00  0.00     0.000 C 
BRANCH   4   5
ATOM      5  C   UNL     1     136.852 132.783 127.856  1.00  0.00     0.000 C 
BRANCH   5   6
ATOM      6  C   UNL     1     135.833 133.907 128.109  1.00  0.00     0.000 C 
BRANCH   6   7
ATOM      7  C   UNL     1     135.573 134.144 129.604  1.00  0.00     0.006 C 
BRANCH   7   8
ATOM      8  C   UNL     1     134.159 133.700 129.991  1.00  0.00     0.053 C 
BRANCH   8   9
ATOM      9  C   UNL     1     134.215 132.534 130.926  1.00  0.00     0.041 C 
ATOM     10  O   UNL     1     133.853 131.392 130.537  1.00  0.00    -0.550 OA
ATOM     11  O   UNL     1     134.712 132.697 132.213  1.00  0.00    -0.550 OA
ENDBRANCH   8   9
ENDBRANCH   7   8
ENDBRANCH   6   7
ENDBRANCH   5   6
ENDBRANCH   4   5
ENDBRANCH   3   4
ENDBRANCH   2   3
ENDBRANCH   1   2
BRANCH   1  12
ATOM     12  C   UNL     1     138.606 131.616 130.999  1.00  0.00     0.000 C 
BRANCH  12  13
ATOM     13  C   UNL     1     138.591 133.156 131.004  1.00  0.00    -0.000 C 
BRANCH  13  14
ATOM     14  C   UNL     1     139.981 133.822 130.978  1.00  0.00    -0.000 C 
BRANCH  14  15
ATOM     15  C   UNL     1     140.251 134.719 129.755  1.00  0.00    -0.000 C 
BRANCH  15  16
ATOM     16  C   UNL     1     139.003 135.483 129.288  1.00  0.00    -0.000 C 
BRANCH  16  17
ATOM     17  C   UNL     1     138.931 136.869 129.946  1.00  0.00    -0.000 C 
BRANCH  17  18
ATOM     18  C   UNL     1     137.780 136.991 130.962  1.00  0.00    -0.000 C 
BRANCH  18  19
ATOM     19  C   UNL     1     136.506 137.661 130.419  1.00  0.00    -0.003 C 
ATOM     20  C   UNL     1     136.664 139.166 130.212  1.00  0.00     0.004 C 
ENDBRANCH  18  19
ENDBRANCH  17  18
ENDBRANCH  16  17
ENDBRANCH  15  16
ENDBRANCH  14  15
ENDBRANCH  13  14
ENDBRANCH  12  13
ENDBRANCH   1  12
TORSDOF 16
ENDMDL
MODEL 5
REMARK VINA RESULT:    -4.806      0.984      2.227
REMARK INTER + INTRA:         -12.334
REMARK INTER:                  -9.734
REMARK INTRA:                  -2.600
REMARK UNBOUND:                -3.032
REMARK SMILES CCCCCCCCCCCCCCCCCC(=O)[O-]
REMARK SMILES IDX 10 1 11 2 12 3 13 4 14 5 15 6 16 7 17 8 18 9 19 10 20 11
REMARK SMILES IDX 9 12 8 13 7 14 6 15 5 16 4 17 3 18 2 19 1 20
REMARK H PARENT
REMARK Flexibility Score: inf
ROOT
ATOM      1  C   UNL     1     138.907 130.845 130.034  1.00  0.00     0.000 C 
ENDROOT
BRANCH   1   2
ATOM      2  C   UNL     1     138.510 131.676 131.264  1.00  0.00     0.000 C 
BRANCH   2   3
ATOM      3  C   UNL     1     138.417 133.179 130.958  1.00  0.00     0.000 C 
BRANCH   3   4
ATOM      4  C   UNL     1     139.635 133.703 130.183  1.00  0.00     0.000 C 
BRANCH   4   5
ATOM      5  C   UNL     1     139.320 135.046 129.509  1.00  0.00     0.000 C 
BRANCH   5   6
ATOM      6  C   UNL     1     140.003 136.234 130.206  1.00  0.00     0.000 C 
BRANCH   6   7
ATOM      7  C   UNL     1     139.014 137.348 130.581  1.00  0.00     0.006 C 
BRANCH   7   8
ATOM      8  C   UNL     1     137.578 136.818 130.614  1.00  0.00     0.053 C 
BRANCH   8   9
ATOM      9  C   UNL     1     136.605 137.924 130.352  1.00  0.00     0.041 C 
ATOM     10  O   UNL     1     137.015 139.103 130.192  1.00  0.00    -0.550 OA
ATOM     11  O   UNL     1     135.249 137.645 130.237  1.00  0.00    -0.550 OA
ENDBRANCH   8   9
ENDBRANCH   7   8
ENDBRANCH   6   7
ENDBRANCH   5   6
ENDBRANCH   4   5
ENDBRANCH   3   4
ENDBRANCH   2   3
ENDBRANCH   1   2
BRANCH   1  12
ATOM     12  C   UNL     1     137.681 130.546 129.158  1.00  0.00     0.000 C 
BRANCH  12  13
ATOM     13  C   UNL     1     136.398 130.328 129.981  1.00  0.00    -0.000 C 
BRANCH  13  14
ATOM     14  C   UNL     1     135.103 130.209 129.153  1.00  0.00    -0.000 C 
BRANCH  14  15
ATOM     15  C   UNL     1     133.965 131.154 129.583  1.00  0.00    -0.000 C 
BRANCH  15  16
ATOM     16  C   UNL     1     134.231 131.833 130.935  1.00  0.00    -0.000 C 
BRANCH  16  17
ATOM     17  C   UNL     1     134.224 133.362 130.792  1.00  0.00    -0.000 C 
BRANCH  17  18
ATOM     18  C   UNL     1     134.323 133.827 129.328  1.00  0.00    -0.000 C 
BRANCH  18  19
ATOM     19  C   UNL     1     135.737 134.224 128.869  1.00  0.00    -0.003 C 
ATOM     20  C   UNL     1     136.186 133.488 127.608  1.00  0.00     0.004 C 
ENDBRANCH  18  19
ENDBRANCH  17  18
ENDBRANCH  16  17
ENDBRANCH  15  16
ENDBRANCH  14  15
ENDBRANCH  13  14
ENDBRANCH  12  13
ENDBRANCH   1  12
TORSDOF 16
ENDMDL
MODEL 6
REMARK VINA RESULT:    -4.695      1.143      2.849
REMARK INTER + INTRA:         -12.120
REMARK INTER:                  -9.411
REMARK INTRA:                  -2.709
REMARK UNBOUND:                -3.032
REMARK SMILES CCCCCCCCCCCCCCCCCC(=O)[O-]
REMARK SMILES IDX 10 1 11 2 12 3 13 4 14 5 15 6 16 7 17 8 18 9 19 10 20 11
REMARK SMILES IDX 9 12 8 13 7 14 6 15 5 16 4 17 3 18 2 19 1 20
REMARK H PARENT
REMARK Flexibility Score: inf
ROOT
ATOM      1  C   UNL     1     137.390 133.155 131.380  1.00  0.00     0.000 C 
ENDROOT
BRANCH   1   2
ATOM      2  C   UNL     1     138.686 132.525 131.912  1.00  0.00     0.000 C 
BRANCH   2   3
ATOM      3  C   UNL     1     139.944 133.110 131.252  1.00  0.00     0.000 C 
BRANCH   3   4
ATOM      4  C   UNL     1     139.626 133.931 129.994  1.00  0.00     0.000 C 
BRANCH   4   5
ATOM      5  C   UNL     1     140.386 135.266 130.003  1.00  0.00     0.000 C 
BRANCH   5   6
ATOM      6  C   UNL     1     139.780 136.287 130.978  1.00  0.00     0.000 C 
BRANCH   6   7
ATOM      7  C   UNL     1     138.744 137.203 130.308  1.00  0.00     0.006 C 
BRANCH   7   8
ATOM      8  C   UNL     1     137.320 136.802 130.707  1.00  0.00     0.053 C 
BRANCH   8   9
ATOM      9  C   UNL     1     136.353 137.886 130.351  1.00  0.00     0.041 C 
ATOM     10  O   UNL     1     135.139 137.614 130.158  1.00  0.00    -0.550 OA
ATOM     11  O   UNL     1     136.782 139.206 130.280  1.00  0.00    -0.550 OA
ENDBRANCH   8   9
ENDBRANCH   7   8
ENDBRANCH   6   7
ENDBRANCH   5   6
ENDBRANCH   4   5
ENDBRANCH   3   4
ENDBRANCH   2   3
ENDBRANCH   1   2
BRANCH   1  12
ATOM     12  C   UNL     1     136.164 132.575 132.101  1.00  0.00     0.000 C 
BRANCH  12  13
ATOM     13  C   UNL     1     134.860 132.761 131.304  1.00  0.00    -0.000 C 
BRANCH  13  14
ATOM     14  C   UNL     1     134.910 133.847 130.211  1.00  0.00    -0.000 C 
BRANCH  14  15
ATOM     15  C   UNL     1     134.795 133.325 128.767  1.00  0.00    -0.000 C 
BRANCH  15  16
ATOM     16  C   UNL     1     136.161 133.036 128.126  1.00  0.00    -0.000 C 
BRANCH  16  17
ATOM     17  C   UNL     1     136.481 131.534 128.170  1.00  0.00    -0.000 C 
BRANCH  17  18
ATOM     18  C   UNL     1     137.992 131.245 128.209  1.00  0.00    -0.000 C 
BRANCH  18  19
ATOM     19  C   UNL     1     138.401 130.060 129.102  1.00  0.00    -0.003 C 
ATOM     20  C   UNL     1     137.333 129.689 130.130  1.00  0.00     0.004 C 
ENDBRANCH  18  19
ENDBRANCH  17  18
ENDBRANCH  16  17
ENDBRANCH  15  16
ENDBRANCH  14  15
ENDBRANCH  13  14
ENDBRANCH  12  13
ENDBRANCH   1  12
TORSDOF 16
ENDMDL
MODEL 7
REMARK VINA RESULT:    -4.683      1.165      2.174
REMARK INTER + INTRA:         -12.095
REMARK INTER:                  -9.836
REMARK INTRA:                  -2.259
REMARK UNBOUND:                -3.032
REMARK SMILES CCCCCCCCCCCCCCCCCC(=O)[O-]
REMARK SMILES IDX 10 1 11 2 12 3 13 4 14 5 15 6 16 7 17 8 18 9 19 10 20 11
REMARK SMILES IDX 9 12 8 13 7 14 6 15 5 16 4 17 3 18 2 19 1 20
REMARK H PARENT
REMARK Flexibility Score: inf
ROOT
ATOM      1  C   UNL     1     139.584 131.724 130.173  1.00  0.00     0.000 C 
ENDROOT
BRANCH   1   2
ATOM      2  C   UNL     1     138.872 132.511 131.284  1.00  0.00     0.000 C 
BRANCH   2   3
ATOM      3  C   UNL     1     138.118 133.739 130.750  1.00  0.00     0.000 C 
BRANCH   3   4
ATOM      4  C   UNL     1     138.449 134.046 129.282  1.00  0.00     0.000 C 
BRANCH   4   5
ATOM      5  C   UNL     1     139.272 135.338 129.164  1.00  0.00     0.000 C 
BRANCH   5   6
ATOM      6  C   UNL     1     139.936 135.741 130.491  1.00  0.00     0.000 C 
BRANCH   6   7
ATOM      7  C   UNL     1     139.349 137.032 131.079  1.00  0.00     0.006 C 
BRANCH   7   8
ATOM      8  C   UNL     1     138.649 137.858 129.996  1.00  0.00     0.053 C 
BRANCH   8   9
ATOM      9  C   UNL     1     137.201 138.035 130.328  1.00  0.00     0.041 C 
ATOM     10  O   UNL     1     136.492 137.038 130.625  1.00  0.00    -0.550 OA
ATOM     11  O   UNL     1     136.644 139.308 130.357  1.00  0.00    -0.550 OA
ENDBRANCH   8   9
ENDBRANCH   7   8
ENDBRANCH   6   7
ENDBRANCH   5   6
ENDBRANCH   4   5
ENDBRANCH   3   4
ENDBRANCH   2   3
ENDBRANCH   1   2
BRANCH   1  12
ATOM     12  C   UNL     1     139.222 130.233 130.242  1.00  0.00     0.000 C 
BRANCH  12  13
ATOM     13  C   UNL     1     138.321 129.783 129.077  1.00  0.00    -0.000 C 
BRANCH  13  14
ATOM     14  C   UNL     1     137.805 130.920 128.173  1.00  0.00    -0.000 C 
BRANCH  14  15
ATOM     15  C   UNL     1     136.277 131.108 128.169  1.00  0.00    -0.000 C 
BRANCH  15  16
ATOM     16  C   UNL     1     135.594 130.465 129.385  1.00  0.00    -0.000 C 
BRANCH  16  17
ATOM     17  C   UNL     1     134.358 131.271 129.811  1.00  0.00    -0.000 C 
BRANCH  17  18
ATOM     18  C   UNL     1     134.630 132.194 131.013  1.00  0.00    -0.000 C 
BRANCH  18  19
ATOM     19  C   UNL     1     134.626 133.698 130.688  1.00  0.00    -0.003 C 
ATOM     20  C   UNL     1     134.424 133.989 129.202  1.00  0.00     0.004 C 
ENDBRANCH  18  19
ENDBRANCH  17  18
ENDBRANCH  16  17
ENDBRANCH  15  16
ENDBRANCH  14  15
ENDBRANCH  13  14
ENDBRANCH  12  13
ENDBRANCH   1  12
TORSDOF 16
ENDMDL
MODEL 8
REMARK VINA RESULT:    -4.670      0.979      2.534
REMARK INTER + INTRA:         -12.071
REMARK INTER:                  -9.227
REMARK INTRA:                  -2.844
REMARK UNBOUND:                -3.032
REMARK SMILES CCCCCCCCCCCCCCCCCC(=O)[O-]
REMARK SMILES IDX 10 1 11 2 12 3 13 4 14 5 15 6 16 7 17 8 18 9 19 10 20 11
REMARK SMILES IDX 9 12 8 13 7 14 6 15 5 16 4 17 3 18 2 19 1 20
REMARK H PARENT
REMARK Flexibility Score: inf
ROOT
ATOM      1  C   UNL     1     138.131 130.902 127.923  1.00  0.00     0.000 C 
ENDROOT
BRANCH   1   2
ATOM      2  C   UNL     1     136.737 131.521 127.743  1.00  0.00     0.000 C 
BRANCH   2   3
ATOM      3  C   UNL     1     136.794 133.014 127.384  1.00  0.00     0.000 C 
BRANCH   3   4
ATOM      4  C   UNL     1     137.039 133.909 128.608  1.00  0.00     0.000 C 
BRANCH   4   5
ATOM      5  C   UNL     1     138.395 134.624 128.501  1.00  0.00     0.000 C 
BRANCH   5   6
ATOM      6  C   UNL     1     138.906 135.131 129.860  1.00  0.00     0.000 C 
BRANCH   6   7
ATOM      7  C   UNL     1     137.818 135.847 130.673  1.00  0.00     0.006 C 
BRANCH   7   8
ATOM      8  C   UNL     1     138.070 137.357 130.714  1.00  0.00     0.053 C 
BRANCH   8   9
ATOM      9  C   UNL     1     136.814 138.105 130.395  1.00  0.00     0.041 C 
ATOM     10  O   UNL     1     136.848 139.350 130.209  1.00  0.00    -0.550 OA
ATOM     11  O   UNL     1     135.613 137.421 130.255  1.00  0.00    -0.550 OA
ENDBRANCH   8   9
ENDBRANCH   7   8
ENDBRANCH   6   7
ENDBRANCH   5   6
ENDBRANCH   4   5
ENDBRANCH   3   4
ENDBRANCH   2   3
ENDBRANCH   1   2
BRANCH   1  12
ATOM     12  C   UNL     1     138.292 130.320 129.336  1.00  0.00     0.000 C 
BRANCH  12  13
ATOM     13  C   UNL     1     139.219 131.166 130.228  1.00  0.00    -0.000 C 
BRANCH  13  14
ATOM     14  C   UNL     1     138.505 131.979 131.327  1.00  0.00    -0.000 C 
BRANCH  14  15
ATOM     15  C   UNL     1     137.020 131.628 131.536  1.00  0.00    -0.000 C 
BRANCH  15  16
ATOM     16  C   UNL     1     136.190 132.822 132.031  1.00  0.00    -0.000 C 
BRANCH  16  17
ATOM     17  C   UNL     1     134.689 132.574 131.814  1.00  0.00    -0.000 C 
BRANCH  17  18
ATOM     18  C   UNL     1     134.350 132.198 130.360  1.00  0.00    -0.000 C 
BRANCH  18  19
ATOM     19  C   UNL     1     133.581 130.875 130.197  1.00  0.00    -0.003 C 
ATOM     20  C   UNL     1     134.468 129.721 129.729  1.00  0.00     0.004 C 
ENDBRANCH  18  19
ENDBRANCH  17  18
ENDBRANCH  16  17
ENDBRANCH  15  16
ENDBRANCH  14  15
ENDBRANCH  13  14
ENDBRANCH  12  13
ENDBRANCH   1  12
TORSDOF 16
ENDMDL
MODEL 9
REMARK VINA RESULT:    -4.608      3.121      6.095
REMARK INTER + INTRA:         -11.951
REMARK INTER:                  -9.428
REMARK INTRA:                  -2.523
REMARK UNBOUND:                -3.032
REMARK SMILES CCCCCCCCCCCCCCCCCC(=O)[O-]
REMARK SMILES IDX 10 1 11 2 12 3 13 4 14 5 15 6 16 7 17 8 18 9 19 10 20 11
REMARK SMILES IDX 9 12 8 13 7 14 6 15 5 16 4 17 3 18 2 19 1 20
REMARK H PARENT
REMARK Flexibility Score: inf
ROOT
ATOM      1  C   UNL     1     135.335 132.733 131.810  1.00  0.00     0.000 C 
ENDROOT
BRANCH   1   2
ATOM      2  C   UNL     1     134.470 133.039 130.577  1.00  0.00     0.000 C 
BRANCH   2   3
ATOM      3  C   UNL     1     134.996 134.233 129.766  1.00  0.00     0.000 C 
BRANCH   3   4
ATOM      4  C   UNL     1     135.217 133.893 128.285  1.00  0.00     0.000 C 
BRANCH   4   5
ATOM      5  C   UNL     1     136.714 133.764 127.969  1.00  0.00     0.000 C 
BRANCH   5   6
ATOM      6  C   UNL     1     137.066 132.425 127.301  1.00  0.00     0.000 C 
BRANCH   6   7
ATOM      7  C   UNL     1     136.929 131.232 128.258  1.00  0.00     0.006 C 
BRANCH   7   8
ATOM      8  C   UNL     1     138.281 130.543 128.471  1.00  0.00     0.053 C 
BRANCH   8   9
ATOM      9  C   UNL     1     138.293 129.808 129.774  1.00  0.00     0.041 C 
ATOM     10  O   UNL     1     137.221 129.363 130.261  1.00  0.00    -0.550 OA
ATOM     11  O   UNL     1     139.496 129.572 130.428  1.00  0.00    -0.550 OA
ENDBRANCH   8   9
ENDBRANCH   7   8
ENDBRANCH   6   7
ENDBRANCH   5   6
ENDBRANCH   4   5
ENDBRANCH   3   4
ENDBRANCH   2   3
ENDBRANCH   1   2
BRANCH   1  12
ATOM     12  C   UNL     1     136.720 133.385 131.680  1.00  0.00     0.000 C 
BRANCH  12  13
ATOM     13  C   UNL     1     137.871 132.404 131.972  1.00  0.00    -0.000 C 
BRANCH  13  14
ATOM     14  C   UNL     1     139.234 132.799 131.369  1.00  0.00    -0.000 C 
BRANCH  14  15
ATOM     15  C   UNL     1     139.178 133.903 130.298  1.00  0.00    -0.000 C 
BRANCH  15  16
ATOM     16  C   UNL     1     140.273 134.966 130.478  1.00  0.00    -0.000 C 
BRANCH  16  17
ATOM     17  C   UNL     1     139.674 136.293 130.968  1.00  0.00    -0.000 C 
BRANCH  17  18
ATOM     18  C   UNL     1     138.602 136.854 130.016  1.00  0.00    -0.000 C 
BRANCH  18  19
ATOM     19  C   UNL     1     137.241 137.144 130.674  1.00  0.00    -0.003 C 
ATOM     20  C   UNL     1     136.698 138.532 130.338  1.00  0.00     0.004 C 
ENDBRANCH  18  19
ENDBRANCH  17  18
ENDBRANCH  16  17
ENDBRANCH  15  16
ENDBRANCH  14  15
ENDBRANCH  13  14
ENDBRANCH  12  13
ENDBRANCH   1  12
TORSDOF 16
ENDMDL
