MODEL 1
REMARK VINA RESULT:    -4.031      0.000      0.000
REMARK INTER + INTRA:          -8.441
REMARK INTER:                  -6.859
REMARK INTRA:                  -1.581
REMARK UNBOUND:                -1.581
REMARK SMILES CCCCCCCCCCCCCC(=O)[O-]
REMARK SMILES IDX 8 1 9 2 10 3 11 4 12 5 13 6 14 7 15 8 16 9 7 10 6 11 5 12
REMARK SMILES IDX 4 13 3 14 2 15 1 16
REMARK H PARENT
REMARK Flexibility Score: inf
ROOT
ATOM      1  C   UNL     1       6.828 -16.572  23.773  1.00  0.00     0.000 C 
ENDROOT
BRANCH   1   2
ATOM      2  C   UNL     1       7.450 -17.788  23.075  1.00  0.00     0.000 C 
BRANCH   2   3
ATOM      3  C   UNL     1       7.081 -19.089  23.800  1.00  0.00     0.000 C 
BRANCH   3   4
ATOM      4  C   UNL     1       6.218 -19.991  22.904  1.00  0.00     0.000 C 
BRANCH   4   5
ATOM      5  C   UNL     1       6.801 -20.152  21.491  1.00  0.00     0.006 C 
BRANCH   5   6
ATOM      6  C   UNL     1       7.496 -21.505  21.289  1.00  0.00     0.053 C 
BRANCH   6   7
ATOM      7  C   UNL     1       8.977 -21.319  21.184  1.00  0.00     0.041 C 
ATOM      8  O   UNL     1       9.476 -20.164  21.232  1.00  0.00    -0.550 OA
ATOM      9  O   UNL     1       9.802 -22.417  20.984  1.00  0.00    -0.550 OA
ENDBRANCH   6   7
ENDBRANCH   5   6
ENDBRANCH   4   5
ENDBRANCH   3   4
ENDBRANCH   2   3
ENDBRANCH   1   2
BRANCH   1  10
ATOM     10  C   UNL     1       7.473 -15.268  23.281  1.00  0.00     0.000 C 
BRANCH  10  11
ATOM     11  C   UNL     1       8.476 -14.685  24.288  1.00  0.00    -0.000 C 
BRANCH  11  12
ATOM     12  C   UNL     1       9.932 -14.793  23.803  1.00  0.00    -0.000 C 
BRANCH  12  13
ATOM     13  C   UNL     1      10.684 -15.971  24.445  1.00  0.00    -0.000 C 
BRANCH  13  14
ATOM     14  C   UNL     1      10.092 -16.381  25.802  1.00  0.00    -0.000 C 
BRANCH  14  15
ATOM     15  C   UNL     1      10.120 -17.905  25.972  1.00  0.00    -0.003 C 
ATOM     16  C   UNL     1      10.689 -18.589  24.732  1.00  0.00     0.004 C 
ENDBRANCH  14  15
ENDBRANCH  13  14
ENDBRANCH  12  13
ENDBRANCH  11  12
ENDBRANCH  10  11
ENDBRANCH   1  10
TORSDOF 12
ENDMDL
MODEL 2
REMARK VINA RESULT:    -4.003      2.931      5.214
REMARK INTER + INTRA:          -8.393
REMARK INTER:                  -6.454
REMARK INTRA:                  -1.939
REMARK UNBOUND:                -1.581
REMARK SMILES CCCCCCCCCCCCCC(=O)[O-]
REMARK SMILES IDX 8 1 9 2 10 3 11 4 12 5 13 6 14 7 15 8 16 9 7 10 6 11 5 12
REMARK SMILES IDX 4 13 3 14 2 15 1 16
REMARK H PARENT
REMARK Flexibility Score: inf
ROOT
ATOM      1  C   UNL     1       7.541 -14.688  23.152  1.00  0.00     0.000 C 
ENDROOT
BRANCH   1   2
ATOM      2  C   UNL     1       8.261 -14.898  24.489  1.00  0.00     0.000 C 
BRANCH   2   3
ATOM      3  C   UNL     1       9.784 -14.859  24.309  1.00  0.00     0.000 C 
BRANCH   3   4
ATOM      4  C   UNL     1      10.442 -16.105  24.921  1.00  0.00     0.000 C 
BRANCH   4   5
ATOM      5  C   UNL     1      11.683 -16.563  24.138  1.00  0.00     0.006 C 
BRANCH   5   6
ATOM      6  C   UNL     1      12.080 -15.578  23.030  1.00  0.00     0.053 C 
BRANCH   6   7
ATOM      7  C   UNL     1      13.569 -15.489  22.922  1.00  0.00     0.041 C 
ATOM      8  O   UNL     1      14.153 -14.387  23.098  1.00  0.00    -0.550 OA
ATOM      9  O   UNL     1      14.309 -16.613  22.579  1.00  0.00    -0.550 OA
ENDBRANCH   6   7
ENDBRANCH   5   6
ENDBRANCH   4   5
ENDBRANCH   3   4
ENDBRANCH   2   3
ENDBRANCH   1   2
BRANCH   1  10
ATOM     10  C   UNL     1       6.709 -15.924  22.776  1.00  0.00     0.000 C 
BRANCH  10  11
ATOM     11  C   UNL     1       7.248 -16.648  21.533  1.00  0.00    -0.000 C 
BRANCH  11  12
ATOM     12  C   UNL     1       8.606 -17.325  21.785  1.00  0.00    -0.000 C 
BRANCH  12  13
ATOM     13  C   UNL     1       8.463 -18.786  22.241  1.00  0.00    -0.000 C 
BRANCH  13  14
ATOM     14  C   UNL     1       8.690 -18.962  23.749  1.00  0.00    -0.000 C 
BRANCH  14  15
ATOM     15  C   UNL     1       7.356 -19.117  24.489  1.00  0.00    -0.003 C 
ATOM     16  C   UNL     1       7.326 -18.270  25.758  1.00  0.00     0.004 C 
ENDBRANCH  14  15
ENDBRANCH  13  14
ENDBRANCH  12  13
ENDBRANCH  11  12
ENDBRANCH  10  11
ENDBRANCH   1  10
TORSDOF 12
ENDMDL
MODEL 3
REMARK VINA RESULT:    -3.980      2.594      4.737
REMARK INTER + INTRA:          -8.354
REMARK INTER:                  -6.238
REMARK INTRA:                  -2.116
REMARK UNBOUND:                -1.581
REMARK SMILES CCCCCCCCCCCCCC(=O)[O-]
REMARK SMILES IDX 8 1 9 2 10 3 11 4 12 5 13 6 14 7 15 8 16 9 7 10 6 11 5 12
REMARK SMILES IDX 4 13 3 14 2 15 1 16
REMARK H PARENT
REMARK Flexibility Score: inf
ROOT
ATOM      1  C   UNL     1       6.148 -17.170  23.711  1.00  0.00     0.000 C 
ENDROOT
BRANCH   1   2
ATOM      2  C   UNL     1       6.759 -17.666  25.027  1.00  0.00     0.000 C 
BRANCH   2   3
ATOM      3  C   UNL     1       7.758 -16.648  25.590  1.00  0.00     0.000 C 
BRANCH   3   4
ATOM      4  C   UNL     1       9.126 -17.300  25.839  1.00  0.00     0.000 C 
BRANCH   4   5
ATOM      5  C   UNL     1      10.291 -16.308  25.690  1.00  0.00     0.006 C 
BRANCH   5   6
ATOM      6  C   UNL     1      10.209 -15.493  24.392  1.00  0.00     0.053 C 
BRANCH   6   7
ATOM      7  C   UNL     1      11.467 -15.652  23.597  1.00  0.00     0.041 C 
ATOM      8  O   UNL     1      11.683 -14.916  22.598  1.00  0.00    -0.550 OA
ATOM      9  O   UNL     1      12.379 -16.645  23.930  1.00  0.00    -0.550 OA
ENDBRANCH   6   7
ENDBRANCH   5   6
ENDBRANCH   4   5
ENDBRANCH   3   4
ENDBRANCH   2   3
ENDBRANCH   1   2
BRANCH   1  10
ATOM     10  C   UNL     1       6.778 -15.837  23.281  1.00  0.00     0.000 C 
BRANCH  10  11
ATOM     11  C   UNL     1       7.436 -15.911  21.894  1.00  0.00    -0.000 C 
BRANCH  11  12
ATOM     12  C   UNL     1       7.690 -17.358  21.437  1.00  0.00    -0.000 C 
BRANCH  12  13
ATOM     13  C   UNL     1       9.174 -17.753  21.521  1.00  0.00    -0.000 C 
BRANCH  13  14
ATOM     14  C   UNL     1       9.452 -18.780  22.629  1.00  0.00    -0.000 C 
BRANCH  14  15
ATOM     15  C   UNL     1       8.463 -19.948  22.552  1.00  0.00    -0.003 C 
ATOM     16  C   UNL     1       8.800 -20.883  21.394  1.00  0.00     0.004 C 
ENDBRANCH  14  15
ENDBRANCH  13  14
ENDBRANCH  12  13
ENDBRANCH  11  12
ENDBRANCH  10  11
ENDBRANCH   1  10
TORSDOF 12
ENDMDL
MODEL 4
REMARK VINA RESULT:    -3.962      2.649      5.595
REMARK INTER + INTRA:          -8.322
REMARK INTER:                  -6.595
REMARK INTRA:                  -1.727
REMARK UNBOUND:                -1.581
REMARK SMILES CCCCCCCCCCCCCC(=O)[O-]
REMARK SMILES IDX 8 1 9 2 10 3 11 4 12 5 13 6 14 7 15 8 16 9 7 10 6 11 5 12
REMARK SMILES IDX 4 13 3 14 2 15 1 16
REMARK H PARENT
REMARK Flexibility Score: inf
ROOT
ATOM      1  C   UNL     1       7.024 -18.461  24.625  1.00  0.00     0.000 C 
ENDROOT
BRANCH   1   2
ATOM      2  C   UNL     1       6.078 -17.537  23.847  1.00  0.00     0.000 C 
BRANCH   2   3
ATOM      3  C   UNL     1       6.826 -16.314  23.303  1.00  0.00     0.000 C 
BRANCH   3   4
ATOM      4  C   UNL     1       8.283 -16.665  22.966  1.00  0.00     0.000 C 
BRANCH   4   5
ATOM      5  C   UNL     1       9.243 -15.486  23.190  1.00  0.00     0.006 C 
BRANCH   5   6
ATOM      6  C   UNL     1      10.332 -15.800  24.225  1.00  0.00     0.053 C 
BRANCH   6   7
ATOM      7  C   UNL     1       9.721 -16.016  25.574  1.00  0.00     0.041 C 
ATOM      8  O   UNL     1      10.088 -16.987  26.288  1.00  0.00    -0.550 OA
ATOM      9  O   UNL     1       8.713 -15.174  26.023  1.00  0.00    -0.550 OA
ENDBRANCH   6   7
ENDBRANCH   5   6
ENDBRANCH   4   5
ENDBRANCH   3   4
ENDBRANCH   2   3
ENDBRANCH   1   2
BRANCH   1  10
ATOM     10  C   UNL     1       7.002 -19.883  24.044  1.00  0.00     0.000 C 
BRANCH  10  11
ATOM     11  C   UNL     1       6.093 -20.008  22.811  1.00  0.00    -0.000 C 
BRANCH  11  12
ATOM     12  C   UNL     1       6.890 -20.125  21.500  1.00  0.00    -0.000 C 
BRANCH  12  13
ATOM     13  C   UNL     1       7.594 -21.484  21.355  1.00  0.00    -0.000 C 
BRANCH  13  14
ATOM     14  C   UNL     1       9.123 -21.356  21.297  1.00  0.00    -0.000 C 
BRANCH  14  15
ATOM     15  C   UNL     1       9.553 -19.887  21.391  1.00  0.00    -0.003 C 
ATOM     16  C   UNL     1      10.480 -19.658  22.582  1.00  0.00     0.004 C 
ENDBRANCH  14  15
ENDBRANCH  13  14
ENDBRANCH  12  13
ENDBRANCH  11  12
ENDBRANCH  10  11
ENDBRANCH   1  10
TORSDOF 12
ENDMDL
MODEL 5
REMARK VINA RESULT:    -3.959      2.836      4.928
REMARK INTER + INTRA:          -8.318
REMARK INTER:                  -6.129
REMARK INTRA:                  -2.189
REMARK UNBOUND:                -1.581
REMARK SMILES CCCCCCCCCCCCCC(=O)[O-]
REMARK SMILES IDX 8 1 9 2 10 3 11 4 12 5 13 6 14 7 15 8 16 9 7 10 6 11 5 12
REMARK SMILES IDX 4 13 3 14 2 15 1 16
REMARK H PARENT
REMARK Flexibility Score: inf
ROOT
ATOM      1  C   UNL     1       7.053 -15.253  21.927  1.00  0.00     0.000 C 
ENDROOT
BRANCH   1   2
ATOM      2  C   UNL     1       7.170 -16.533  21.090  1.00  0.00     0.000 C 
BRANCH   2   3
ATOM      3  C   UNL     1       8.548 -16.635  20.426  1.00  0.00     0.000 C 
BRANCH   3   4
ATOM      4  C   UNL     1       9.500 -17.502  21.265  1.00  0.00     0.000 C 
BRANCH   4   5
ATOM      5  C   UNL     1      10.444 -16.664  22.142  1.00  0.00     0.006 C 
BRANCH   5   6
ATOM      6  C   UNL     1      10.481 -17.148  23.598  1.00  0.00     0.053 C 
BRANCH   6   7
ATOM      7  C   UNL     1      10.398 -15.984  24.535  1.00  0.00     0.041 C 
ATOM      8  O   UNL     1      10.509 -16.161  25.777  1.00  0.00    -0.550 OA
ATOM      9  O   UNL     1      10.150 -14.710  24.040  1.00  0.00    -0.550 OA
ENDBRANCH   6   7
ENDBRANCH   5   6
ENDBRANCH   4   5
ENDBRANCH   3   4
ENDBRANCH   2   3
ENDBRANCH   1   2
BRANCH   1  10
ATOM     10  C   UNL     1       6.799 -15.585  23.404  1.00  0.00     0.000 C 
BRANCH  10  11
ATOM     11  C   UNL     1       6.400 -17.053  23.624  1.00  0.00    -0.000 C 
BRANCH  11  12
ATOM     12  C   UNL     1       7.024 -17.651  24.897  1.00  0.00    -0.000 C 
BRANCH  12  13
ATOM     13  C   UNL     1       7.388 -19.136  24.736  1.00  0.00    -0.000 C 
BRANCH  13  14
ATOM     14  C   UNL     1       6.669 -19.797  23.550  1.00  0.00    -0.000 C 
BRANCH  14  15
ATOM     15  C   UNL     1       7.678 -20.344  22.534  1.00  0.00    -0.003 C 
ATOM     16  C   UNL     1       7.083 -20.382  21.130  1.00  0.00     0.004 C 
ENDBRANCH  14  15
ENDBRANCH  13  14
ENDBRANCH  12  13
ENDBRANCH  11  12
ENDBRANCH  10  11
ENDBRANCH   1  10
TORSDOF 12
ENDMDL
MODEL 6
REMARK VINA RESULT:    -3.953      2.857      4.709
REMARK INTER + INTRA:          -8.308
REMARK INTER:                  -6.151
REMARK INTRA:                  -2.157
REMARK UNBOUND:                -1.581
REMARK SMILES CCCCCCCCCCCCCC(=O)[O-]
REMARK SMILES IDX 8 1 9 2 10 3 11 4 12 5 13 6 14 7 15 8 16 9 7 10 6 11 5 12
REMARK SMILES IDX 4 13 3 14 2 15 1 16
REMARK H PARENT
REMARK Flexibility Score: inf
ROOT
ATOM      1  C   UNL     1       8.652 -15.092  25.231  1.00  0.00     0.000 C 
ENDROOT
BRANCH   1   2
ATOM      2  C   UNL     1       9.830 -16.073  25.222  1.00  0.00     0.000 C 
BRANCH   2   3
ATOM      3  C   UNL     1      10.755 -15.814  24.025  1.00  0.00     0.000 C 
BRANCH   3   4
ATOM      4  C   UNL     1      11.114 -17.127  23.314  1.00  0.00     0.000 C 
BRANCH   4   5
ATOM      5  C   UNL     1      10.787 -18.368  24.161  1.00  0.00     0.006 C 
BRANCH   5   6
ATOM      6  C   UNL     1      12.046 -19.101  24.645  1.00  0.00     0.053 C 
BRANCH   6   7
ATOM      7  C   UNL     1      12.073 -19.156  26.140  1.00  0.00     0.041 C 
ATOM      8  O   UNL     1      13.149 -19.403  26.746  1.00  0.00    -0.550 OA
ATOM      9  O   UNL     1      10.900 -18.984  26.863  1.00  0.00    -0.550 OA
ENDBRANCH   6   7
ENDBRANCH   5   6
ENDBRANCH   4   5
ENDBRANCH   3   4
ENDBRANCH   2   3
ENDBRANCH   1   2
BRANCH   1  10
ATOM     10  C   UNL     1       8.224 -14.734  23.800  1.00  0.00     0.000 C 
BRANCH  10  11
ATOM     11  C   UNL     1       7.057 -15.597  23.295  1.00  0.00    -0.000 C 
BRANCH  11  12
ATOM     12  C   UNL     1       7.438 -16.447  22.070  1.00  0.00    -0.000 C 
BRANCH  12  13
ATOM     13  C   UNL     1       7.531 -17.946  22.396  1.00  0.00    -0.000 C 
BRANCH  13  14
ATOM     14  C   UNL     1       6.556 -18.373  23.503  1.00  0.00    -0.000 C 
BRANCH  14  15
ATOM     15  C   UNL     1       7.285 -19.155  24.602  1.00  0.00    -0.003 C 
ATOM     16  C   UNL     1       7.107 -18.490  25.964  1.00  0.00     0.004 C 
ENDBRANCH  14  15
ENDBRANCH  13  14
ENDBRANCH  12  13
ENDBRANCH  11  12
ENDBRANCH  10  11
ENDBRANCH   1  10
TORSDOF 12
ENDMDL
MODEL 7
REMARK VINA RESULT:    -3.930      1.496      2.701
REMARK INTER + INTRA:          -8.268
REMARK INTER:                  -6.439
REMARK INTRA:                  -1.830
REMARK UNBOUND:                -1.581
REMARK SMILES CCCCCCCCCCCCCC(=O)[O-]
REMARK SMILES IDX 8 1 9 2 10 3 11 4 12 5 13 6 14 7 15 8 16 9 7 10 6 11 5 12
REMARK SMILES IDX 4 13 3 14 2 15 1 16
REMARK H PARENT
REMARK Flexibility Score: inf
ROOT
ATOM      1  C   UNL     1       6.831 -17.901  25.768  1.00  0.00     0.000 C 
ENDROOT
BRANCH   1   2
ATOM      2  C   UNL     1       7.654 -19.139  25.392  1.00  0.00     0.000 C 
BRANCH   2   3
ATOM      3  C   UNL     1       6.927 -19.989  24.342  1.00  0.00     0.000 C 
BRANCH   3   4
ATOM      4  C   UNL     1       6.461 -19.123  23.162  1.00  0.00     0.000 C 
BRANCH   4   5
ATOM      5  C   UNL     1       6.976 -19.641  21.809  1.00  0.00     0.006 C 
BRANCH   5   6
ATOM      6  C   UNL     1       8.367 -20.281  21.913  1.00  0.00     0.053 C 
BRANCH   6   7
ATOM      7  C   UNL     1       8.474 -21.449  20.984  1.00  0.00     0.041 C 
ATOM      8  O   UNL     1       9.488 -21.585  20.250  1.00  0.00    -0.550 OA
ATOM      9  O   UNL     1       7.431 -22.362  20.892  1.00  0.00    -0.550 OA
ENDBRANCH   6   7
ENDBRANCH   5   6
ENDBRANCH   4   5
ENDBRANCH   3   4
ENDBRANCH   2   3
ENDBRANCH   1   2
BRANCH   1  10
ATOM     10  C   UNL     1       7.728 -16.660  25.884  1.00  0.00     0.000 C 
BRANCH  10  11
ATOM     11  C   UNL     1       9.140 -16.893  25.323  1.00  0.00    -0.000 C 
BRANCH  11  12
ATOM     12  C   UNL     1       9.829 -15.585  24.897  1.00  0.00    -0.000 C 
BRANCH  12  13
ATOM     13  C   UNL     1       9.489 -15.180  23.453  1.00  0.00    -0.000 C 
BRANCH  13  14
ATOM     14  C   UNL     1       8.947 -16.351  22.621  1.00  0.00    -0.000 C 
BRANCH  14  15
ATOM     15  C   UNL     1       7.753 -15.909  21.767  1.00  0.00    -0.003 C 
ATOM     16  C   UNL     1       6.585 -15.460  22.640  1.00  0.00     0.004 C 
ENDBRANCH  14  15
ENDBRANCH  13  14
ENDBRANCH  12  13
ENDBRANCH  11  12
ENDBRANCH  10  11
ENDBRANCH   1  10
TORSDOF 12
ENDMDL
MODEL 8
REMARK VINA RESULT:    -3.905      2.851      6.133
REMARK INTER + INTRA:          -8.225
REMARK INTER:                  -6.619
REMARK INTRA:                  -1.606
REMARK UNBOUND:                -1.581
REMARK SMILES CCCCCCCCCCCCCC(=O)[O-]
REMARK SMILES IDX 8 1 9 2 10 3 11 4 12 5 13 6 14 7 15 8 16 9 7 10 6 11 5 12
REMARK SMILES IDX 4 13 3 14 2 15 1 16
REMARK H PARENT
REMARK Flexibility Score: inf
ROOT
ATOM      1  C   UNL     1       6.736 -20.032  23.228  1.00  0.00     0.000 C 
ENDROOT
BRANCH   1   2
ATOM      2  C   UNL     1       6.772 -18.520  23.483  1.00  0.00     0.000 C 
BRANCH   2   3
ATOM      3  C   UNL     1       7.110 -17.752  22.199  1.00  0.00     0.000 C 
BRANCH   3   4
ATOM      4  C   UNL     1       8.089 -16.604  22.487  1.00  0.00     0.000 C 
BRANCH   4   5
ATOM      5  C   UNL     1       7.446 -15.467  23.298  1.00  0.00     0.006 C 
BRANCH   5   6
ATOM      6  C   UNL     1       8.469 -14.686  24.133  1.00  0.00     0.053 C 
BRANCH   6   7
ATOM      7  C   UNL     1       8.915 -15.501  25.306  1.00  0.00     0.041 C 
ATOM      8  O   UNL     1       8.125 -15.723  26.261  1.00  0.00    -0.550 OA
ATOM      9  O   UNL     1      10.219 -15.976  25.366  1.00  0.00    -0.550 OA
ENDBRANCH   6   7
ENDBRANCH   5   6
ENDBRANCH   4   5
ENDBRANCH   3   4
ENDBRANCH   2   3
ENDBRANCH   1   2
BRANCH   1  10
ATOM     10  C   UNL     1       6.742 -20.336  21.723  1.00  0.00     0.000 C 
BRANCH  10  11
ATOM     11  C   UNL     1       7.499 -21.629  21.380  1.00  0.00    -0.000 C 
BRANCH  11  12
ATOM     12  C   UNL     1       8.643 -21.396  20.378  1.00  0.00    -0.000 C 
BRANCH  12  13
ATOM     13  C   UNL     1       9.542 -20.212  20.771  1.00  0.00    -0.000 C 
BRANCH  13  14
ATOM     14  C   UNL     1       9.624 -19.141  19.674  1.00  0.00    -0.000 C 
BRANCH  14  15
ATOM     15  C   UNL     1       8.596 -19.410  18.568  1.00  0.00    -0.003 C 
ATOM     16  C   UNL     1       7.493 -18.355  18.571  1.00  0.00     0.004 C 
ENDBRANCH  14  15
ENDBRANCH  13  14
ENDBRANCH  12  13
ENDBRANCH  11  12
ENDBRANCH  10  11
ENDBRANCH   1  10
TORSDOF 12
ENDMDL
MODEL 9
REMARK VINA RESULT:    -3.902      1.802      2.930
REMARK INTER + INTRA:          -8.220
REMARK INTER:                  -5.973
REMARK INTRA:                  -2.247
REMARK UNBOUND:                -1.581
REMARK SMILES CCCCCCCCCCCCCC(=O)[O-]
REMARK SMILES IDX 8 1 9 2 10 3 11 4 12 5 13 6 14 7 15 8 16 9 7 10 6 11 5 12
REMARK SMILES IDX 4 13 3 14 2 15 1 16
REMARK H PARENT
REMARK Flexibility Score: inf
ROOT
ATOM      1  C   UNL     1       6.640 -16.173  23.276  1.00  0.00     0.000 C 
ENDROOT
BRANCH   1   2
ATOM      2  C   UNL     1       7.333 -16.563  21.965  1.00  0.00     0.000 C 
BRANCH   2   3
ATOM      3  C   UNL     1       7.589 -18.074  21.905  1.00  0.00     0.000 C 
BRANCH   3   4
ATOM      4  C   UNL     1       9.092 -18.373  21.787  1.00  0.00     0.000 C 
BRANCH   4   5
ATOM      5  C   UNL     1       9.509 -19.626  22.574  1.00  0.00     0.006 C 
BRANCH   5   6
ATOM      6  C   UNL     1      11.015 -19.664  22.866  1.00  0.00     0.053 C 
BRANCH   6   7
ATOM      7  C   UNL     1      11.631 -20.889  22.266  1.00  0.00     0.041 C 
ATOM      8  O   UNL     1      12.853 -21.137  22.445  1.00  0.00    -0.550 OA
ATOM      9  O   UNL     1      10.867 -21.730  21.468  1.00  0.00    -0.550 OA
ENDBRANCH   6   7
ENDBRANCH   5   6
ENDBRANCH   4   5
ENDBRANCH   3   4
ENDBRANCH   2   3
ENDBRANCH   1   2
BRANCH   1  10
ATOM     10  C   UNL     1       6.398 -17.407  24.158  1.00  0.00     0.000 C 
BRANCH  10  11
ATOM     11  C   UNL     1       7.114 -17.317  25.515  1.00  0.00    -0.000 C 
BRANCH  11  12
ATOM     12  C   UNL     1       8.158 -18.431  25.706  1.00  0.00    -0.000 C 
BRANCH  12  13
ATOM     13  C   UNL     1       9.587 -17.882  25.856  1.00  0.00    -0.000 C 
BRANCH  13  14
ATOM     14  C   UNL     1       9.668 -16.367  25.615  1.00  0.00    -0.000 C 
BRANCH  14  15
ATOM     15  C   UNL     1      10.529 -16.054  24.386  1.00  0.00    -0.003 C 
ATOM     16  C   UNL     1      10.075 -14.765  23.707  1.00  0.00     0.004 C 
ENDBRANCH  14  15
ENDBRANCH  13  14
ENDBRANCH  12  13
ENDBRANCH  11  12
ENDBRANCH  10  11
ENDBRANCH   1  10
TORSDOF 12
ENDMDL
