MODEL 1
REMARK VINA RESULT:    -6.322      0.000      0.000
REMARK INTER + INTRA:          -7.569
REMARK INTER:                  -7.431
REMARK INTRA:                  -0.138
REMARK UNBOUND:                -0.138
REMARK SMILES O=C([O-])C=Cc1ccc(O)c(O)c1
REMARK SMILES IDX 6 1 13 2 7 3 11 4 8 5 9 6 5 7 4 8 2 9 1 10 3 11 12 12 10 14
REMARK H PARENT 12 13 10 15
REMARK Flexibility Score: inf
ROOT
ATOM      1  C   UNL     1     -22.169 -15.934 -11.255  1.00  0.00    -0.022 A 
ATOM      2  C   UNL     1     -22.542 -16.903 -12.201  1.00  0.00     0.058 A 
ATOM      3  C   UNL     1     -21.556 -14.748 -11.704  1.00  0.00     0.012 A 
ATOM      4  C   UNL     1     -22.334 -16.690 -13.568  1.00  0.00     0.157 A 
ATOM      5  C   UNL     1     -21.347 -14.533 -13.069  1.00  0.00     0.051 A 
ATOM      6  C   UNL     1     -21.736 -15.498 -14.006  1.00  0.00     0.157 A 
ENDROOT
BRANCH   1   7
ATOM      7  C   UNL     1     -22.404 -16.216  -9.817  1.00  0.00     0.010 C 
ATOM      8  C   UNL     1     -21.611 -15.775  -8.832  1.00  0.00     0.025 C 
BRANCH   8   9
ATOM      9  C   UNL     1     -21.881 -16.066  -7.413  1.00  0.00     0.064 C 
ATOM     10  O   UNL     1     -23.061 -16.204  -6.990  1.00  0.00    -0.545 OA
ATOM     11  O   UNL     1     -20.820 -16.190  -6.527  1.00  0.00    -0.545 OA
ENDBRANCH   8   9
ENDBRANCH   1   7
BRANCH   4  12
ATOM     12  O   UNL     1     -22.728 -17.674 -14.475  1.00  0.00    -0.504 OA
ATOM     13  H   UNL     1     -22.063 -18.297 -14.916  1.00  0.00     0.293 HD
ENDBRANCH   4  12
BRANCH   6  14
ATOM     14  O   UNL     1     -21.526 -15.279 -15.366  1.00  0.00    -0.504 OA
ATOM     15  H   UNL     1     -21.078 -15.973 -15.953  1.00  0.00     0.293 HD
ENDBRANCH   6  14
TORSDOF 4
ENDMDL
MODEL 2
REMARK VINA RESULT:    -6.125      1.261      6.318
REMARK INTER + INTRA:          -7.338
REMARK INTER:                  -7.207
REMARK INTRA:                  -0.131
REMARK UNBOUND:                -0.138
REMARK SMILES O=C([O-])C=Cc1ccc(O)c(O)c1
REMARK SMILES IDX 6 1 13 2 7 3 11 4 8 5 9 6 5 7 4 8 2 9 1 10 3 11 12 12 10 14
REMARK H PARENT 12 13 10 15
REMARK Flexibility Score: inf
ROOT
ATOM      1  C   UNL     1     -22.448 -16.068  -9.263  1.00  0.00    -0.022 A 
ATOM      2  C   UNL     1     -21.329 -15.741  -8.479  1.00  0.00     0.058 A 
ATOM      3  C   UNL     1     -23.564 -16.661  -8.641  1.00  0.00     0.012 A 
ATOM      4  C   UNL     1     -21.327 -15.975  -7.099  1.00  0.00     0.157 A 
ATOM      5  C   UNL     1     -23.564 -16.895  -7.263  1.00  0.00     0.051 A 
ATOM      6  C   UNL     1     -22.451 -16.553  -6.487  1.00  0.00     0.157 A 
ENDROOT
BRANCH   1   7
ATOM      7  C   UNL     1     -22.392 -15.808 -10.723  1.00  0.00     0.010 C 
ATOM      8  C   UNL     1     -22.416 -16.772 -11.653  1.00  0.00     0.025 C 
BRANCH   8   9
ATOM      9  C   UNL     1     -22.371 -16.476 -13.095  1.00  0.00     0.064 C 
ATOM     10  O   UNL     1     -21.646 -15.548 -13.547  1.00  0.00    -0.545 OA
ATOM     11  O   UNL     1     -23.138 -17.231 -13.972  1.00  0.00    -0.545 OA
ENDBRANCH   8   9
ENDBRANCH   1   7
BRANCH   4  12
ATOM     12  O   UNL     1     -20.201 -15.627  -6.354  1.00  0.00    -0.504 OA
ATOM     13  H   UNL     1     -19.354 -15.279  -6.788  1.00  0.00     0.293 HD
ENDBRANCH   4  12
BRANCH   6  14
ATOM     14  O   UNL     1     -22.455 -16.787  -5.113  1.00  0.00    -0.504 OA
ATOM     15  H   UNL     1     -23.197 -17.315  -4.666  1.00  0.00     0.293 HD
ENDBRANCH   6  14
TORSDOF 4
ENDMDL
MODEL 3
REMARK VINA RESULT:    -5.930      1.264      2.223
REMARK INTER + INTRA:          -7.108
REMARK INTER:                  -6.981
REMARK INTRA:                  -0.127
REMARK UNBOUND:                -0.138
REMARK SMILES O=C([O-])C=Cc1ccc(O)c(O)c1
REMARK SMILES IDX 6 1 13 2 7 3 11 4 8 5 9 6 5 7 4 8 2 9 1 10 3 11 12 12 10 14
REMARK H PARENT 12 13 10 15
REMARK Flexibility Score: inf
ROOT
ATOM      1  C   UNL     1     -22.100 -15.946 -10.293  1.00  0.00    -0.022 A 
ATOM      2  C   UNL     1     -21.591 -14.897 -11.077  1.00  0.00     0.058 A 
ATOM      3  C   UNL     1     -22.657 -17.067 -10.939  1.00  0.00     0.012 A 
ATOM      4  C   UNL     1     -21.611 -14.970 -12.474  1.00  0.00     0.157 A 
ATOM      5  C   UNL     1     -22.679 -17.141 -12.334  1.00  0.00     0.051 A 
ATOM      6  C   UNL     1     -22.155 -16.098 -13.107  1.00  0.00     0.157 A 
ENDROOT
BRANCH   1   7
ATOM      7  C   UNL     1     -22.062 -15.812  -8.815  1.00  0.00     0.010 C 
ATOM      8  C   UNL     1     -20.970 -15.453  -8.128  1.00  0.00     0.025 C 
BRANCH   8   9
ATOM      9  C   UNL     1     -20.972 -15.320  -6.661  1.00  0.00     0.064 C 
ATOM     10  O   UNL     1     -21.008 -16.335  -5.915  1.00  0.00    -0.545 OA
ATOM     11  O   UNL     1     -20.934 -14.054  -6.090  1.00  0.00    -0.545 OA
ENDBRANCH   8   9
ENDBRANCH   1   7
BRANCH   4  12
ATOM     12  O   UNL     1     -21.086 -13.911 -13.215  1.00  0.00    -0.504 OA
ATOM     13  H   UNL     1     -20.902 -13.004 -12.803  1.00  0.00     0.293 HD
ENDBRANCH   4  12
BRANCH   6  14
ATOM     14  O   UNL     1     -22.178 -16.177 -14.498  1.00  0.00    -0.504 OA
ATOM     15  H   UNL     1     -21.568 -16.808 -15.005  1.00  0.00     0.293 HD
ENDBRANCH   6  14
TORSDOF 4
ENDMDL
MODEL 4
REMARK VINA RESULT:    -5.755      1.238      2.207
REMARK INTER + INTRA:          -6.903
REMARK INTER:                  -6.776
REMARK INTRA:                  -0.127
REMARK UNBOUND:                -0.138
REMARK SMILES O=C([O-])C=Cc1ccc(O)c(O)c1
REMARK SMILES IDX 6 1 13 2 7 3 11 4 8 5 9 6 5 7 4 8 2 9 1 10 3 11 12 12 10 14
REMARK H PARENT 12 13 10 15
REMARK Flexibility Score: inf
ROOT
ATOM      1  C   UNL     1     -22.485 -16.210 -12.034  1.00  0.00    -0.022 A 
ATOM      2  C   UNL     1     -21.642 -15.211 -12.548  1.00  0.00     0.058 A 
ATOM      3  C   UNL     1     -23.394 -16.845 -12.903  1.00  0.00     0.012 A 
ATOM      4  C   UNL     1     -21.681 -14.865 -13.903  1.00  0.00     0.157 A 
ATOM      5  C   UNL     1     -23.435 -16.501 -14.257  1.00  0.00     0.051 A 
ATOM      6  C   UNL     1     -22.581 -15.515 -14.764  1.00  0.00     0.157 A 
ENDROOT
BRANCH   1   7
ATOM      7  C   UNL     1     -22.408 -16.529 -10.586  1.00  0.00     0.010 C 
ATOM      8  C   UNL     1     -22.444 -15.606  -9.617  1.00  0.00     0.025 C 
BRANCH   8   9
ATOM      9  C   UNL     1     -22.377 -15.961  -8.189  1.00  0.00     0.064 C 
ATOM     10  O   UNL     1     -21.275 -15.995  -7.578  1.00  0.00    -0.545 OA
ATOM     11  O   UNL     1     -23.546 -16.262  -7.504  1.00  0.00    -0.545 OA
ENDBRANCH   8   9
ENDBRANCH   1   7
BRANCH   4  12
ATOM     12  O   UNL     1     -20.820 -13.875 -14.376  1.00  0.00    -0.504 OA
ATOM     13  H   UNL     1     -21.154 -12.961 -14.657  1.00  0.00     0.293 HD
ENDBRANCH   4  12
BRANCH   6  14
ATOM     14  O   UNL     1     -22.625 -15.176 -16.115  1.00  0.00    -0.504 OA
ATOM     15  H   UNL     1     -23.393 -15.463 -16.710  1.00  0.00     0.293 HD
ENDBRANCH   6  14
TORSDOF 4
ENDMDL
MODEL 5
REMARK VINA RESULT:    -5.557      1.502      6.091
REMARK INTER + INTRA:          -6.670
REMARK INTER:                  -6.544
REMARK INTRA:                  -0.126
REMARK UNBOUND:                -0.138
REMARK SMILES O=C([O-])C=Cc1ccc(O)c(O)c1
REMARK SMILES IDX 6 1 13 2 7 3 11 4 8 5 9 6 5 7 4 8 2 9 1 10 3 11 12 12 10 14
REMARK H PARENT 12 13 10 15
REMARK Flexibility Score: inf
ROOT
ATOM      1  C   UNL     1     -22.095 -15.502  -9.016  1.00  0.00    -0.022 A 
ATOM      2  C   UNL     1     -23.064 -16.220  -8.296  1.00  0.00     0.058 A 
ATOM      3  C   UNL     1     -20.850 -15.244  -8.410  1.00  0.00     0.012 A 
ATOM      4  C   UNL     1     -22.794 -16.697  -7.008  1.00  0.00     0.157 A 
ATOM      5  C   UNL     1     -20.579 -15.718  -7.123  1.00  0.00     0.051 A 
ATOM      6  C   UNL     1     -21.545 -16.447  -6.419  1.00  0.00     0.157 A 
ENDROOT
BRANCH   1   7
ATOM      7  C   UNL     1     -22.438 -15.011 -10.375  1.00  0.00     0.010 C 
ATOM      8  C   UNL     1     -22.143 -15.673 -11.502  1.00  0.00     0.025 C 
BRANCH   8   9
ATOM      9  C   UNL     1     -22.509 -15.161 -12.833  1.00  0.00     0.064 C 
ATOM     10  O   UNL     1     -23.462 -14.348 -12.979  1.00  0.00    -0.545 OA
ATOM     11  O   UNL     1     -21.794 -15.580 -13.947  1.00  0.00    -0.545 OA
ENDBRANCH   8   9
ENDBRANCH   1   7
BRANCH   4  12
ATOM     12  O   UNL     1     -23.779 -17.415  -6.331  1.00  0.00    -0.504 OA
ATOM     13  H   UNL     1     -23.698 -17.647  -5.349  1.00  0.00     0.293 HD
ENDBRANCH   4  12
BRANCH   6  14
ATOM     14  O   UNL     1     -21.269 -16.919  -5.137  1.00  0.00    -0.504 OA
ATOM     15  H   UNL     1     -20.867 -16.320  -4.425  1.00  0.00     0.293 HD
ENDBRANCH   6  14
TORSDOF 4
ENDMDL
MODEL 6
REMARK VINA RESULT:    -5.414      1.406      5.939
REMARK INTER + INTRA:          -6.502
REMARK INTER:                  -6.366
REMARK INTRA:                  -0.136
REMARK UNBOUND:                -0.138
REMARK SMILES O=C([O-])C=Cc1ccc(O)c(O)c1
REMARK SMILES IDX 6 1 13 2 7 3 11 4 8 5 9 6 5 7 4 8 2 9 1 10 3 11 12 12 10 14
REMARK H PARENT 12 13 10 15
REMARK Flexibility Score: inf
ROOT
ATOM      1  C   UNL     1     -22.068 -15.595  -9.568  1.00  0.00    -0.022 A 
ATOM      2  C   UNL     1     -22.374 -16.214  -8.345  1.00  0.00     0.058 A 
ATOM      3  C   UNL     1     -21.220 -14.470  -9.566  1.00  0.00     0.012 A 
ATOM      4  C   UNL     1     -21.829 -15.743  -7.146  1.00  0.00     0.157 A 
ATOM      5  C   UNL     1     -20.674 -13.998  -8.369  1.00  0.00     0.051 A 
ATOM      6  C   UNL     1     -20.972 -14.631  -7.157  1.00  0.00     0.157 A 
ENDROOT
BRANCH   1   7
ATOM      7  C   UNL     1     -22.682 -16.129 -10.809  1.00  0.00     0.010 C 
ATOM      8  C   UNL     1     -22.094 -16.079 -12.012  1.00  0.00     0.025 C 
BRANCH   8   9
ATOM      9  C   UNL     1     -22.729 -16.631 -13.221  1.00  0.00     0.064 C 
ATOM     10  O   UNL     1     -22.265 -17.655 -13.792  1.00  0.00    -0.545 OA
ATOM     11  O   UNL     1     -23.858 -16.013 -13.742  1.00  0.00    -0.545 OA
ENDBRANCH   8   9
ENDBRANCH   1   7
BRANCH   4  12
ATOM     12  O   UNL     1     -22.150 -16.393  -5.954  1.00  0.00    -0.504 OA
ATOM     13  H   UNL     1     -22.056 -17.396  -5.845  1.00  0.00     0.293 HD
ENDBRANCH   4  12
BRANCH   6  14
ATOM     14  O   UNL     1     -20.425 -14.157  -5.965  1.00  0.00    -0.504 OA
ATOM     15  H   UNL     1     -20.996 -13.702  -5.263  1.00  0.00     0.293 HD
ENDBRANCH   6  14
TORSDOF 4
ENDMDL
MODEL 7
REMARK VINA RESULT:    -5.320      1.904      2.312
REMARK INTER + INTRA:          -6.391
REMARK INTER:                  -6.266
REMARK INTRA:                  -0.125
REMARK UNBOUND:                -0.138
REMARK SMILES O=C([O-])C=Cc1ccc(O)c(O)c1
REMARK SMILES IDX 6 1 13 2 7 3 11 4 8 5 9 6 5 7 4 8 2 9 1 10 3 11 12 12 10 14
REMARK H PARENT 12 13 10 15
REMARK Flexibility Score: inf
ROOT
ATOM      1  C   UNL     1     -22.612 -15.704 -13.127  1.00  0.00    -0.022 A 
ATOM      2  C   UNL     1     -23.845 -16.112 -13.660  1.00  0.00     0.058 A 
ATOM      3  C   UNL     1     -21.726 -14.975 -13.944  1.00  0.00     0.012 A 
ATOM      4  C   UNL     1     -24.205 -15.781 -14.972  1.00  0.00     0.157 A 
ATOM      5  C   UNL     1     -22.083 -14.644 -15.254  1.00  0.00     0.051 A 
ATOM      6  C   UNL     1     -23.320 -15.042 -15.773  1.00  0.00     0.157 A 
ENDROOT
BRANCH   1   7
ATOM      7  C   UNL     1     -22.278 -16.091 -11.733  1.00  0.00     0.010 C 
ATOM      8  C   UNL     1     -22.385 -15.263 -10.685  1.00  0.00     0.025 C 
BRANCH   8   9
ATOM      9  C   UNL     1     -22.055 -15.685  -9.312  1.00  0.00     0.064 C 
ATOM     10  O   UNL     1     -22.854 -16.389  -8.638  1.00  0.00    -0.545 OA
ATOM     11  O   UNL     1     -20.844 -15.301  -8.753  1.00  0.00    -0.545 OA
ENDBRANCH   8   9
ENDBRANCH   1   7
BRANCH   4  12
ATOM     12  O   UNL     1     -25.443 -16.197 -15.460  1.00  0.00    -0.504 OA
ATOM     13  H   UNL     1     -26.252 -16.302 -14.860  1.00  0.00     0.293 HD
ENDBRANCH   4  12
BRANCH   6  14
ATOM     14  O   UNL     1     -23.673 -14.709 -17.080  1.00  0.00    -0.504 OA
ATOM     15  H   UNL     1     -24.638 -14.554 -17.347  1.00  0.00     0.293 HD
ENDBRANCH   6  14
TORSDOF 4
ENDMDL
MODEL 8
REMARK VINA RESULT:    -4.791      1.501      6.144
REMARK INTER + INTRA:          -5.769
REMARK INTER:                  -5.642
REMARK INTRA:                  -0.127
REMARK UNBOUND:                -0.138
REMARK SMILES O=C([O-])C=Cc1ccc(O)c(O)c1
REMARK SMILES IDX 6 1 13 2 7 3 11 4 8 5 9 6 5 7 4 8 2 9 1 10 3 11 12 12 10 14
REMARK H PARENT 12 13 10 15
REMARK Flexibility Score: inf
ROOT
ATOM      1  C   UNL     1     -22.715 -16.253 -10.837  1.00  0.00    -0.022 A 
ATOM      2  C   UNL     1     -22.334 -15.352  -9.829  1.00  0.00     0.058 A 
ATOM      3  C   UNL     1     -23.456 -17.397 -10.481  1.00  0.00     0.012 A 
ATOM      4  C   UNL     1     -22.702 -15.568  -8.496  1.00  0.00     0.157 A 
ATOM      5  C   UNL     1     -23.824 -17.616  -9.150  1.00  0.00     0.051 A 
ATOM      6  C   UNL     1     -23.452 -16.705  -8.154  1.00  0.00     0.157 A 
ENDROOT
BRANCH   1   7
ATOM      7  C   UNL     1     -22.290 -15.980 -12.233  1.00  0.00     0.010 C 
ATOM      8  C   UNL     1     -23.104 -15.490 -13.177  1.00  0.00     0.025 C 
BRANCH   8   9
ATOM      9  C   UNL     1     -22.644 -15.220 -14.550  1.00  0.00     0.064 C 
ATOM     10  O   UNL     1     -21.482 -14.786 -14.774  1.00  0.00    -0.545 OA
ATOM     11  O   UNL     1     -23.504 -15.449 -15.616  1.00  0.00    -0.545 OA
ENDBRANCH   8   9
ENDBRANCH   1   7
BRANCH   4  12
ATOM     12  O   UNL     1     -22.311 -14.645  -7.527  1.00  0.00    -0.504 OA
ATOM     13  H   UNL     1     -22.241 -13.654  -7.724  1.00  0.00     0.293 HD
ENDBRANCH   4  12
BRANCH   6  14
ATOM     14  O   UNL     1     -23.822 -16.926  -6.829  1.00  0.00    -0.504 OA
ATOM     15  H   UNL     1     -24.795 -16.991  -6.553  1.00  0.00     0.293 HD
ENDBRANCH   6  14
TORSDOF 4
ENDMDL
MODEL 9
REMARK VINA RESULT:    -4.456      1.555      2.053
REMARK INTER + INTRA:          -5.375
REMARK INTER:                  -5.248
REMARK INTRA:                  -0.127
REMARK UNBOUND:                -0.138
REMARK SMILES O=C([O-])C=Cc1ccc(O)c(O)c1
REMARK SMILES IDX 6 1 13 2 7 3 11 4 8 5 9 6 5 7 4 8 2 9 1 10 3 11 12 12 10 14
REMARK H PARENT 12 13 10 15
REMARK Flexibility Score: inf
ROOT
ATOM      1  C   UNL     1     -22.445 -16.360 -10.471  1.00  0.00    -0.022 A 
ATOM      2  C   UNL     1     -23.516 -17.257 -10.620  1.00  0.00     0.058 A 
ATOM      3  C   UNL     1     -21.880 -15.780 -11.624  1.00  0.00     0.012 A 
ATOM      4  C   UNL     1     -24.035 -17.553 -11.885  1.00  0.00     0.157 A 
ATOM      5  C   UNL     1     -22.396 -16.075 -12.889  1.00  0.00     0.051 A 
ATOM      6  C   UNL     1     -23.474 -16.958 -13.026  1.00  0.00     0.157 A 
ENDROOT
BRANCH   1   7
ATOM      7  C   UNL     1     -21.929 -16.089  -9.106  1.00  0.00     0.010 C 
ATOM      8  C   UNL     1     -22.713 -15.837  -8.050  1.00  0.00     0.025 C 
BRANCH   8   9
ATOM      9  C   UNL     1     -22.165 -15.584  -6.706  1.00  0.00     0.064 C 
ATOM     10  O   UNL     1     -22.209 -16.467  -5.808  1.00  0.00    -0.545 OA
ATOM     11  O   UNL     1     -21.591 -14.352  -6.424  1.00  0.00    -0.545 OA
ENDBRANCH   8   9
ENDBRANCH   1   7
BRANCH   4  12
ATOM     12  O   UNL     1     -25.105 -18.441 -11.988  1.00  0.00    -0.504 OA
ATOM     13  H   UNL     1     -26.061 -18.155 -11.816  1.00  0.00     0.293 HD
ENDBRANCH   4  12
BRANCH   6  14
ATOM     14  O   UNL     1     -23.986 -17.249 -14.290  1.00  0.00    -0.504 OA
ATOM     15  H   UNL     1     -23.449 -17.770 -14.973  1.00  0.00     0.293 HD
ENDBRANCH   6  14
TORSDOF 4
ENDMDL
