MODEL 1
REMARK VINA RESULT:    -2.878      0.000      0.000
REMARK INTER + INTRA:          -9.484
REMARK INTER:                  -6.244
REMARK INTRA:                  -3.240
REMARK UNBOUND:                -3.240
REMARK SMILES CCCCCCCCCCCCCCCCCCCCCC(=O)[O-]
REMARK SMILES IDX 12 1 11 2 10 3 9 4 8 5 7 6 6 7 5 8 4 9 3 10 2 11 1 12 13 13
REMARK SMILES IDX 14 14 15 15 16 16 17 17 18 18 19 19 20 20 21 21 22 22 23 23
REMARK SMILES IDX 24 24
REMARK H PARENT
REMARK Flexibility Score: inf
ROOT
ATOM      1  C   UNL     1       3.557   2.893  15.325  1.00  0.00     0.000 C 
ENDROOT
BRANCH   1   2
ATOM      2  C   UNL     1       4.100   3.919  14.313  1.00  0.00     0.000 C 
BRANCH   2   3
ATOM      3  C   UNL     1       4.499   3.343  12.939  1.00  0.00     0.000 C 
BRANCH   3   4
ATOM      4  C   UNL     1       4.601   1.808  12.876  1.00  0.00    -0.000 C 
BRANCH   4   5
ATOM      5  C   UNL     1       6.047   1.300  12.986  1.00  0.00    -0.000 C 
BRANCH   5   6
ATOM      6  C   UNL     1       6.100  -0.231  12.875  1.00  0.00    -0.000 C 
BRANCH   6   7
ATOM      7  C   UNL     1       4.706  -0.885  12.921  1.00  0.00    -0.000 C 
BRANCH   7   8
ATOM      8  C   UNL     1       4.473  -1.845  14.101  1.00  0.00    -0.000 C 
BRANCH   8   9
ATOM      9  C   UNL     1       2.992  -1.948  14.504  1.00  0.00    -0.000 C 
BRANCH   9  10
ATOM     10  C   UNL     1       2.150  -0.786  13.953  1.00  0.00    -0.000 C 
BRANCH  10  11
ATOM     11  C   UNL     1       0.827  -0.601  14.713  1.00  0.00    -0.003 C 
ATOM     12  C   UNL     1       0.957   0.478  15.785  1.00  0.00     0.004 C 
ENDBRANCH  10  11
ENDBRANCH   9  10
ENDBRANCH   8   9
ENDBRANCH   7   8
ENDBRANCH   6   7
ENDBRANCH   5   6
ENDBRANCH   4   5
ENDBRANCH   3   4
ENDBRANCH   2   3
ENDBRANCH   1   2
BRANCH   1  13
ATOM     13  C   UNL     1       4.627   2.405  16.315  1.00  0.00     0.000 C 
BRANCH  13  14
ATOM     14  C   UNL     1       4.717   0.868  16.391  1.00  0.00     0.000 C 
BRANCH  14  15
ATOM     15  C   UNL     1       6.139   0.299  16.552  1.00  0.00     0.000 C 
BRANCH  15  16
ATOM     16  C   UNL     1       6.152  -1.213  16.837  1.00  0.00     0.000 C 
BRANCH  16  17
ATOM     17  C   UNL     1       5.656  -1.555  18.251  1.00  0.00     0.000 C 
BRANCH  17  18
ATOM     18  C   UNL     1       6.414  -0.795  19.353  1.00  0.00     0.000 C 
BRANCH  18  19
ATOM     19  C   UNL     1       5.483   0.095  20.191  1.00  0.00     0.000 C 
BRANCH  19  20
ATOM     20  C   UNL     1       4.076   0.217  19.577  1.00  0.00     0.006 C 
BRANCH  20  21
ATOM     21  C   UNL     1       3.553   1.657  19.613  1.00  0.00     0.053 C 
BRANCH  21  22
ATOM     22  C   UNL     1       2.055   1.700  19.633  1.00  0.00     0.041 C 
ATOM     23  O   UNL     1       1.418   2.161  18.648  1.00  0.00    -0.550 OA
ATOM     24  O   UNL     1       1.363   1.271  20.759  1.00  0.00    -0.550 OA
ENDBRANCH  21  22
ENDBRANCH  20  21
ENDBRANCH  19  20
ENDBRANCH  18  19
ENDBRANCH  17  18
ENDBRANCH  16  17
ENDBRANCH  15  16
ENDBRANCH  14  15
ENDBRANCH  13  14
ENDBRANCH   1  13
TORSDOF 20
ENDMDL
MODEL 2
REMARK VINA RESULT:    -2.298      1.447      5.153
REMARK INTER + INTRA:          -8.226
REMARK INTER:                  -5.993
REMARK INTRA:                  -2.233
REMARK UNBOUND:                -3.240
REMARK SMILES CCCCCCCCCCCCCCCCCCCCCC(=O)[O-]
REMARK SMILES IDX 12 1 11 2 10 3 9 4 8 5 7 6 6 7 5 8 4 9 3 10 2 11 1 12 13 13
REMARK SMILES IDX 14 14 15 15 16 16 17 17 18 18 19 19 20 20 21 21 22 22 23 23
REMARK SMILES IDX 24 24
REMARK H PARENT
REMARK Flexibility Score: inf
ROOT
ATOM      1  C   UNL     1       4.158   3.457  16.240  1.00  0.00     0.000 C 
ENDROOT
BRANCH   1   2
ATOM      2  C   UNL     1       4.496   1.967  16.045  1.00  0.00     0.000 C 
BRANCH   2   3
ATOM      3  C   UNL     1       5.922   1.553  16.462  1.00  0.00     0.000 C 
BRANCH   3   4
ATOM      4  C   UNL     1       6.162   0.036  16.562  1.00  0.00    -0.000 C 
BRANCH   4   5
ATOM      5  C   UNL     1       4.870  -0.759  16.803  1.00  0.00    -0.000 C 
BRANCH   5   6
ATOM      6  C   UNL     1       5.010  -1.674  18.029  1.00  0.00    -0.000 C 
BRANCH   6   7
ATOM      7  C   UNL     1       6.302  -1.418  18.825  1.00  0.00    -0.000 C 
BRANCH   7   8
ATOM      8  C   UNL     1       6.246  -0.226  19.797  1.00  0.00    -0.000 C 
BRANCH   8   9
ATOM      9  C   UNL     1       4.811   0.135  20.218  1.00  0.00    -0.000 C 
BRANCH   9  10
ATOM     10  C   UNL     1       4.344   1.476  19.629  1.00  0.00    -0.000 C 
BRANCH  10  11
ATOM     11  C   UNL     1       2.902   1.422  19.102  1.00  0.00    -0.003 C 
ATOM     12  C   UNL     1       1.914   1.922  20.154  1.00  0.00     0.004 C 
ENDBRANCH  10  11
ENDBRANCH   9  10
ENDBRANCH   8   9
ENDBRANCH   7   8
ENDBRANCH   6   7
ENDBRANCH   5   6
ENDBRANCH   4   5
ENDBRANCH   3   4
ENDBRANCH   2   3
ENDBRANCH   1   2
BRANCH   1  13
ATOM     13  C   UNL     1       3.927   4.196  14.912  1.00  0.00     0.000 C 
BRANCH  13  14
ATOM     14  C   UNL     1       3.795   3.242  13.709  1.00  0.00     0.000 C 
BRANCH  14  15
ATOM     15  C   UNL     1       5.076   3.052  12.876  1.00  0.00     0.000 C 
BRANCH  15  16
ATOM     16  C   UNL     1       5.590   1.601  12.888  1.00  0.00     0.000 C 
BRANCH  16  17
ATOM     17  C   UNL     1       4.459   0.571  13.026  1.00  0.00     0.000 C 
BRANCH  17  18
ATOM     18  C   UNL     1       4.947  -0.880  12.875  1.00  0.00     0.000 C 
BRANCH  18  19
ATOM     19  C   UNL     1       4.308  -1.820  13.910  1.00  0.00     0.000 C 
BRANCH  19  20
ATOM     20  C   UNL     1       2.770  -1.755  13.892  1.00  0.00     0.006 C 
BRANCH  20  21
ATOM     21  C   UNL     1       2.194  -1.350  15.254  1.00  0.00     0.053 C 
BRANCH  21  22
ATOM     22  C   UNL     1       1.368  -0.104  15.155  1.00  0.00     0.041 C 
ATOM     23  O   UNL     1       1.471   0.799  16.028  1.00  0.00    -0.550 OA
ATOM     24  O   UNL     1       0.451   0.040  14.121  1.00  0.00    -0.550 OA
ENDBRANCH  21  22
ENDBRANCH  20  21
ENDBRANCH  19  20
ENDBRANCH  18  19
ENDBRANCH  17  18
ENDBRANCH  16  17
ENDBRANCH  15  16
ENDBRANCH  14  15
ENDBRANCH  13  14
ENDBRANCH   1  13
TORSDOF 20
ENDMDL
MODEL 3
REMARK VINA RESULT:    -1.905      1.132      4.013
REMARK INTER + INTRA:          -7.373
REMARK INTER:                  -4.548
REMARK INTRA:                  -2.825
REMARK UNBOUND:                -3.240
REMARK SMILES CCCCCCCCCCCCCCCCCCCCCC(=O)[O-]
REMARK SMILES IDX 12 1 11 2 10 3 9 4 8 5 7 6 6 7 5 8 4 9 3 10 2 11 1 12 13 13
REMARK SMILES IDX 14 14 15 15 16 16 17 17 18 18 19 19 20 20 21 21 22 22 23 23
REMARK SMILES IDX 24 24
REMARK H PARENT
REMARK Flexibility Score: inf
ROOT
ATOM      1  C   UNL     1       1.015   0.458  14.733  1.00  0.00     0.000 C 
ENDROOT
BRANCH   1   2
ATOM      2  C   UNL     1       1.380  -1.036  14.809  1.00  0.00     0.000 C 
BRANCH   2   3
ATOM      3  C   UNL     1       2.884  -1.340  14.968  1.00  0.00     0.000 C 
BRANCH   3   4
ATOM      4  C   UNL     1       3.610  -1.754  13.676  1.00  0.00    -0.000 C 
BRANCH   4   5
ATOM      5  C   UNL     1       4.236  -0.562  12.935  1.00  0.00    -0.000 C 
BRANCH   5   6
ATOM      6  C   UNL     1       5.714  -0.393  13.318  1.00  0.00    -0.000 C 
BRANCH   6   7
ATOM      7  C   UNL     1       6.476  -1.730  13.376  1.00  0.00    -0.000 C 
BRANCH   7   8
ATOM      8  C   UNL     1       7.090  -2.074  14.746  1.00  0.00    -0.000 C 
BRANCH   8   9
ATOM      9  C   UNL     1       6.046  -2.125  15.873  1.00  0.00    -0.000 C 
BRANCH   9  10
ATOM     10  C   UNL     1       6.304  -1.072  16.963  1.00  0.00    -0.000 C 
BRANCH  10  11
ATOM     11  C   UNL     1       5.865  -1.543  18.358  1.00  0.00    -0.003 C 
ATOM     12  C   UNL     1       6.452  -0.651  19.449  1.00  0.00     0.004 C 
ENDBRANCH  10  11
ENDBRANCH   9  10
ENDBRANCH   8   9
ENDBRANCH   7   8
ENDBRANCH   6   7
ENDBRANCH   5   6
ENDBRANCH   4   5
ENDBRANCH   3   4
ENDBRANCH   2   3
ENDBRANCH   1   2
BRANCH   1  13
ATOM     13  C   UNL     1       2.246   1.378  14.782  1.00  0.00     0.000 C 
BRANCH  13  14
ATOM     14  C   UNL     1       1.877   2.875  14.757  1.00  0.00     0.000 C 
BRANCH  14  15
ATOM     15  C   UNL     1       2.965   3.812  14.200  1.00  0.00     0.000 C 
BRANCH  15  16
ATOM     16  C   UNL     1       4.294   3.087  13.919  1.00  0.00     0.000 C 
BRANCH  16  17
ATOM     17  C   UNL     1       5.353   3.346  15.001  1.00  0.00     0.000 C 
BRANCH  17  18
ATOM     18  C   UNL     1       5.402   2.240  16.068  1.00  0.00     0.000 C 
BRANCH  18  19
ATOM     19  C   UNL     1       4.531   2.571  17.290  1.00  0.00     0.000 C 
BRANCH  19  20
ATOM     20  C   UNL     1       3.809   1.332  17.851  1.00  0.00     0.006 C 
BRANCH  20  21
ATOM     21  C   UNL     1       3.387   1.522  19.313  1.00  0.00     0.053 C 
BRANCH  21  22
ATOM     22  C   UNL     1       1.907   1.714  19.439  1.00  0.00     0.041 C 
ATOM     23  O   UNL     1       1.239   2.175  18.474  1.00  0.00    -0.550 OA
ATOM     24  O   UNL     1       1.269   1.426  20.639  1.00  0.00    -0.550 OA
ENDBRANCH  21  22
ENDBRANCH  20  21
ENDBRANCH  19  20
ENDBRANCH  18  19
ENDBRANCH  17  18
ENDBRANCH  16  17
ENDBRANCH  15  16
ENDBRANCH  14  15
ENDBRANCH  13  14
ENDBRANCH   1  13
TORSDOF 20
ENDMDL
MODEL 4
REMARK VINA RESULT:    -1.594      1.080      2.714
REMARK INTER + INTRA:          -6.697
REMARK INTER:                  -5.636
REMARK INTRA:                  -1.061
REMARK UNBOUND:                -3.240
REMARK SMILES CCCCCCCCCCCCCCCCCCCCCC(=O)[O-]
REMARK SMILES IDX 12 1 11 2 10 3 9 4 8 5 7 6 6 7 5 8 4 9 3 10 2 11 1 12 13 13
REMARK SMILES IDX 14 14 15 15 16 16 17 17 18 18 19 19 20 20 21 21 22 22 23 23
REMARK SMILES IDX 24 24
REMARK H PARENT
REMARK Flexibility Score: inf
ROOT
ATOM      1  C   UNL     1       5.405   1.685  12.961  1.00  0.00     0.000 C 
ENDROOT
BRANCH   1   2
ATOM      2  C   UNL     1       5.365   3.221  13.062  1.00  0.00     0.000 C 
BRANCH   2   3
ATOM      3  C   UNL     1       3.960   3.836  13.225  1.00  0.00     0.000 C 
BRANCH   3   4
ATOM      4  C   UNL     1       3.558   4.179  14.671  1.00  0.00    -0.000 C 
BRANCH   4   5
ATOM      5  C   UNL     1       2.574   3.164  15.275  1.00  0.00    -0.000 C 
BRANCH   5   6
ATOM      6  C   UNL     1       3.326   2.010  15.954  1.00  0.00    -0.000 C 
BRANCH   6   7
ATOM      7  C   UNL     1       2.753   0.627  15.596  1.00  0.00    -0.000 C 
BRANCH   7   8
ATOM      8  C   UNL     1       1.219   0.565  15.478  1.00  0.00    -0.000 C 
BRANCH   8   9
ATOM      9  C   UNL     1       0.735  -0.569  14.558  1.00  0.00    -0.000 C 
BRANCH   9  10
ATOM     10  C   UNL     1       1.444  -1.902  14.845  1.00  0.00    -0.000 C 
BRANCH  10  11
ATOM     11  C   UNL     1       2.900  -1.916  14.353  1.00  0.00    -0.003 C 
ATOM     12  C   UNL     1       3.093  -0.953  13.184  1.00  0.00     0.004 C 
ENDBRANCH  10  11
ENDBRANCH   9  10
ENDBRANCH   8   9
ENDBRANCH   7   8
ENDBRANCH   6   7
ENDBRANCH   5   6
ENDBRANCH   4   5
ENDBRANCH   3   4
ENDBRANCH   2   3
ENDBRANCH   1   2
BRANCH   1  13
ATOM     13  C   UNL     1       6.244   1.033  14.073  1.00  0.00     0.000 C 
BRANCH  13  14
ATOM     14  C   UNL     1       6.366  -0.495  13.914  1.00  0.00     0.000 C 
BRANCH  14  15
ATOM     15  C   UNL     1       6.920  -1.242  15.141  1.00  0.00     0.000 C 
BRANCH  15  16
ATOM     16  C   UNL     1       5.865  -2.122  15.835  1.00  0.00     0.000 C 
BRANCH  16  17
ATOM     17  C   UNL     1       5.096  -1.374  16.934  1.00  0.00     0.000 C 
BRANCH  17  18
ATOM     18  C   UNL     1       5.990  -0.426  17.752  1.00  0.00     0.000 C 
BRANCH  18  19
ATOM     19  C   UNL     1       5.299   0.915  18.047  1.00  0.00     0.000 C 
BRANCH  19  20
ATOM     20  C   UNL     1       4.466   0.875  19.341  1.00  0.00     0.006 C 
BRANCH  20  21
ATOM     21  C   UNL     1       3.523   2.078  19.458  1.00  0.00     0.053 C 
BRANCH  21  22
ATOM     22  C   UNL     1       2.112   1.649  19.721  1.00  0.00     0.041 C 
ATOM     23  O   UNL     1       1.837   0.950  20.733  1.00  0.00    -0.550 OA
ATOM     24  O   UNL     1       1.106   1.985  18.824  1.00  0.00    -0.550 OA
ENDBRANCH  21  22
ENDBRANCH  20  21
ENDBRANCH  19  20
ENDBRANCH  18  19
ENDBRANCH  17  18
ENDBRANCH  16  17
ENDBRANCH  15  16
ENDBRANCH  14  15
ENDBRANCH  13  14
ENDBRANCH   1  13
TORSDOF 20
ENDMDL
MODEL 5
REMARK VINA RESULT:    -1.329      1.538      5.004
REMARK INTER + INTRA:          -6.124
REMARK INTER:                  -4.827
REMARK INTRA:                  -1.297
REMARK UNBOUND:                -3.240
REMARK SMILES CCCCCCCCCCCCCCCCCCCCCC(=O)[O-]
REMARK SMILES IDX 12 1 11 2 10 3 9 4 8 5 7 6 6 7 5 8 4 9 3 10 2 11 1 12 13 13
REMARK SMILES IDX 14 14 15 15 16 16 17 17 18 18 19 19 20 20 21 21 22 22 23 23
REMARK SMILES IDX 24 24
REMARK H PARENT
REMARK Flexibility Score: inf
ROOT
ATOM      1  C   UNL     1       6.256   1.938  13.669  1.00  0.00     0.000 C 
ENDROOT
BRANCH   1   2
ATOM      2  C   UNL     1       6.306   0.519  13.074  1.00  0.00     0.000 C 
BRANCH   2   3
ATOM      3  C   UNL     1       7.251  -0.466  13.793  1.00  0.00     0.000 C 
BRANCH   3   4
ATOM      4  C   UNL     1       6.685  -1.881  14.005  1.00  0.00    -0.000 C 
BRANCH   4   5
ATOM      5  C   UNL     1       5.169  -1.889  14.251  1.00  0.00    -0.000 C 
BRANCH   5   6
ATOM      6  C   UNL     1       4.855  -2.124  15.736  1.00  0.00    -0.000 C 
BRANCH   6   7
ATOM      7  C   UNL     1       6.016  -1.725  16.666  1.00  0.00    -0.000 C 
BRANCH   7   8
ATOM      8  C   UNL     1       5.782  -2.007  18.161  1.00  0.00    -0.000 C 
BRANCH   8   9
ATOM      9  C   UNL     1       6.533  -1.027  19.078  1.00  0.00    -0.000 C 
BRANCH   9  10
ATOM     10  C   UNL     1       5.611   0.052  19.668  1.00  0.00    -0.000 C 
BRANCH  10  11
ATOM     11  C   UNL     1       4.787   0.778  18.592  1.00  0.00    -0.003 C 
ATOM     12  C   UNL     1       3.819   1.776  19.223  1.00  0.00     0.004 C 
ENDBRANCH  10  11
ENDBRANCH   9  10
ENDBRANCH   8   9
ENDBRANCH   7   8
ENDBRANCH   6   7
ENDBRANCH   5   6
ENDBRANCH   4   5
ENDBRANCH   3   4
ENDBRANCH   2   3
ENDBRANCH   1   2
BRANCH   1  13
ATOM     13  C   UNL     1       5.342   2.888  12.877  1.00  0.00     0.000 C 
BRANCH  13  14
ATOM     14  C   UNL     1       4.783   4.038  13.737  1.00  0.00     0.000 C 
BRANCH  14  15
ATOM     15  C   UNL     1       3.253   4.209  13.696  1.00  0.00     0.000 C 
BRANCH  15  16
ATOM     16  C   UNL     1       2.536   3.466  14.836  1.00  0.00     0.000 C 
BRANCH  16  17
ATOM     17  C   UNL     1       3.492   2.612  15.684  1.00  0.00     0.000 C 
BRANCH  17  18
ATOM     18  C   UNL     1       3.293   1.101  15.473  1.00  0.00     0.000 C 
BRANCH  18  19
ATOM     19  C   UNL     1       2.841   0.768  14.042  1.00  0.00     0.000 C 
BRANCH  19  20
ATOM     20  C   UNL     1       2.320  -0.675  13.911  1.00  0.00     0.006 C 
BRANCH  20  21
ATOM     21  C   UNL     1       1.424  -1.074  15.089  1.00  0.00     0.053 C 
BRANCH  21  22
ATOM     22  C   UNL     1       0.439   0.004  15.423  1.00  0.00     0.041 C 
ATOM     23  O   UNL     1      -0.439   0.347  14.586  1.00  0.00    -0.550 OA
ATOM     24  O   UNL     1       0.519   0.662  16.644  1.00  0.00    -0.550 OA
ENDBRANCH  21  22
ENDBRANCH  20  21
ENDBRANCH  19  20
ENDBRANCH  18  19
ENDBRANCH  17  18
ENDBRANCH  16  17
ENDBRANCH  15  16
ENDBRANCH  14  15
ENDBRANCH  13  14
ENDBRANCH   1  13
TORSDOF 20
ENDMDL
MODEL 6
REMARK VINA RESULT:    -1.172      1.150      4.110
REMARK INTER + INTRA:          -5.783
REMARK INTER:                  -3.939
REMARK INTRA:                  -1.844
REMARK UNBOUND:                -3.240
REMARK SMILES CCCCCCCCCCCCCCCCCCCCCC(=O)[O-]
REMARK SMILES IDX 12 1 11 2 10 3 9 4 8 5 7 6 6 7 5 8 4 9 3 10 2 11 1 12 13 13
REMARK SMILES IDX 14 14 15 15 16 16 17 17 18 18 19 19 20 20 21 21 22 22 23 23
REMARK SMILES IDX 24 24
REMARK H PARENT
REMARK Flexibility Score: inf
ROOT
ATOM      1  C   UNL     1       4.445  -0.906  13.884  1.00  0.00     0.000 C 
ENDROOT
BRANCH   1   2
ATOM      2  C   UNL     1       3.004  -1.399  13.652  1.00  0.00     0.000 C 
BRANCH   2   3
ATOM      3  C   UNL     1       1.929  -0.734  14.537  1.00  0.00     0.000 C 
BRANCH   3   4
ATOM      4  C   UNL     1       2.440  -0.166  15.874  1.00  0.00    -0.000 C 
BRANCH   4   5
ATOM      5  C   UNL     1       2.265   1.356  15.983  1.00  0.00    -0.000 C 
BRANCH   5   6
ATOM      6  C   UNL     1       2.582   2.041  14.644  1.00  0.00    -0.000 C 
BRANCH   6   7
ATOM      7  C   UNL     1       2.635   3.576  14.753  1.00  0.00    -0.000 C 
BRANCH   7   8
ATOM      8  C   UNL     1       3.229   4.298  13.529  1.00  0.00    -0.000 C 
BRANCH   8   9
ATOM      9  C   UNL     1       4.735   4.039  13.356  1.00  0.00    -0.000 C 
BRANCH   9  10
ATOM     10  C   UNL     1       5.037   2.604  12.896  1.00  0.00    -0.000 C 
BRANCH  10  11
ATOM     11  C   UNL     1       6.149   1.939  13.722  1.00  0.00    -0.003 C 
ATOM     12  C   UNL     1       6.905   0.905  12.892  1.00  0.00     0.004 C 
ENDBRANCH  10  11
ENDBRANCH   9  10
ENDBRANCH   8   9
ENDBRANCH   7   8
ENDBRANCH   6   7
ENDBRANCH   5   6
ENDBRANCH   4   5
ENDBRANCH   3   4
ENDBRANCH   2   3
ENDBRANCH   1   2
BRANCH   1  13
ATOM     13  C   UNL     1       5.455  -2.057  14.027  1.00  0.00     0.000 C 
BRANCH  13  14
ATOM     14  C   UNL     1       6.195  -2.039  15.379  1.00  0.00     0.000 C 
BRANCH  14  15
ATOM     15  C   UNL     1       5.320  -1.717  16.605  1.00  0.00     0.000 C 
BRANCH  15  16
ATOM     16  C   UNL     1       6.126  -1.642  17.914  1.00  0.00     0.000 C 
BRANCH  16  17
ATOM     17  C   UNL     1       6.137  -0.232  18.524  1.00  0.00     0.000 C 
BRANCH  17  18
ATOM     18  C   UNL     1       5.543   0.833  17.587  1.00  0.00     0.000 C 
BRANCH  18  19
ATOM     19  C   UNL     1       4.497   1.711  18.292  1.00  0.00     0.000 C 
BRANCH  19  20
ATOM     20  C   UNL     1       3.616   0.909  19.267  1.00  0.00     0.006 C 
BRANCH  20  21
ATOM     21  C   UNL     1       2.816   1.820  20.205  1.00  0.00     0.053 C 
BRANCH  21  22
ATOM     22  C   UNL     1       1.341   1.681  19.984  1.00  0.00     0.041 C 
ATOM     23  O   UNL     1       0.834   1.973  18.868  1.00  0.00    -0.550 OA
ATOM     24  O   UNL     1       0.519   1.271  21.026  1.00  0.00    -0.550 OA
ENDBRANCH  21  22
ENDBRANCH  20  21
ENDBRANCH  19  20
ENDBRANCH  18  19
ENDBRANCH  17  18
ENDBRANCH  16  17
ENDBRANCH  15  16
ENDBRANCH  14  15
ENDBRANCH  13  14
ENDBRANCH   1  13
TORSDOF 20
ENDMDL
MODEL 7
REMARK VINA RESULT:    -1.121      2.038      4.579
REMARK INTER + INTRA:          -5.671
REMARK INTER:                  -4.140
REMARK INTRA:                  -1.531
REMARK UNBOUND:                -3.240
REMARK SMILES CCCCCCCCCCCCCCCCCCCCCC(=O)[O-]
REMARK SMILES IDX 12 1 11 2 10 3 9 4 8 5 7 6 6 7 5 8 4 9 3 10 2 11 1 12 13 13
REMARK SMILES IDX 14 14 15 15 16 16 17 17 18 18 19 19 20 20 21 21 22 22 23 23
REMARK SMILES IDX 24 24
REMARK H PARENT
REMARK Flexibility Score: inf
ROOT
ATOM      1  C   UNL     1       3.232   3.643  14.187  1.00  0.00     0.000 C 
ENDROOT
BRANCH   1   2
ATOM      2  C   UNL     1       4.005   3.410  12.875  1.00  0.00     0.000 C 
BRANCH   2   3
ATOM      3  C   UNL     1       5.334   2.640  13.020  1.00  0.00     0.000 C 
BRANCH   3   4
ATOM      4  C   UNL     1       5.195   1.114  13.165  1.00  0.00    -0.000 C 
BRANCH   4   5
ATOM      5  C   UNL     1       6.372   0.476  13.919  1.00  0.00    -0.000 C 
BRANCH   5   6
ATOM      6  C   UNL     1       6.564  -0.989  13.496  1.00  0.00    -0.000 C 
BRANCH   6   7
ATOM      7  C   UNL     1       6.631  -1.956  14.692  1.00  0.00    -0.000 C 
BRANCH   7   8
ATOM      8  C   UNL     1       6.724  -1.282  16.073  1.00  0.00    -0.000 C 
BRANCH   8   9
ATOM      9  C   UNL     1       5.508  -1.580  16.967  1.00  0.00    -0.000 C 
BRANCH   9  10
ATOM     10  C   UNL     1       5.904  -1.849  18.428  1.00  0.00    -0.000 C 
BRANCH  10  11
ATOM     11  C   UNL     1       6.268  -0.564  19.188  1.00  0.00    -0.003 C 
ATOM     12  C   UNL     1       5.014   0.186  19.630  1.00  0.00     0.004 C 
ENDBRANCH  10  11
ENDBRANCH   9  10
ENDBRANCH   8   9
ENDBRANCH   7   8
ENDBRANCH   6   7
ENDBRANCH   5   6
ENDBRANCH   4   5
ENDBRANCH   3   4
ENDBRANCH   2   3
ENDBRANCH   1   2
BRANCH   1  13
ATOM     13  C   UNL     1       3.997   4.529  15.183  1.00  0.00     0.000 C 
BRANCH  13  14
ATOM     14  C   UNL     1       5.149   3.785  15.886  1.00  0.00     0.000 C 
BRANCH  14  15
ATOM     15  C   UNL     1       4.718   2.750  16.941  1.00  0.00     0.000 C 
BRANCH  15  16
ATOM     16  C   UNL     1       3.859   1.616  16.352  1.00  0.00     0.000 C 
BRANCH  16  17
ATOM     17  C   UNL     1       2.572   1.368  17.154  1.00  0.00     0.000 C 
BRANCH  17  18
ATOM     18  C   UNL     1       1.343   1.136  16.259  1.00  0.00     0.000 C 
BRANCH  18  19
ATOM     19  C   UNL     1       1.714   0.488  14.916  1.00  0.00     0.000 C 
BRANCH  19  20
ATOM     20  C   UNL     1       0.632  -0.485  14.413  1.00  0.00     0.006 C 
BRANCH  20  21
ATOM     21  C   UNL     1       1.101  -1.944  14.459  1.00  0.00     0.053 C 
BRANCH  21  22
ATOM     22  C   UNL     1       2.536  -2.049  14.877  1.00  0.00     0.041 C 
ATOM     23  O   UNL     1       2.846  -2.030  16.098  1.00  0.00    -0.550 OA
ATOM     24  O   UNL     1       3.535  -2.125  13.915  1.00  0.00    -0.550 OA
ENDBRANCH  21  22
ENDBRANCH  20  21
ENDBRANCH  19  20
ENDBRANCH  18  19
ENDBRANCH  17  18
ENDBRANCH  16  17
ENDBRANCH  15  16
ENDBRANCH  14  15
ENDBRANCH  13  14
ENDBRANCH   1  13
TORSDOF 20
ENDMDL
MODEL 8
REMARK VINA RESULT:    -1.050      2.037      5.633
REMARK INTER + INTRA:          -5.517
REMARK INTER:                  -3.480
REMARK INTRA:                  -2.037
REMARK UNBOUND:                -3.240
REMARK SMILES CCCCCCCCCCCCCCCCCCCCCC(=O)[O-]
REMARK SMILES IDX 12 1 11 2 10 3 9 4 8 5 7 6 6 7 5 8 4 9 3 10 2 11 1 12 13 13
REMARK SMILES IDX 14 14 15 15 16 16 17 17 18 18 19 19 20 20 21 21 22 22 23 23
REMARK SMILES IDX 24 24
REMARK H PARENT
REMARK Flexibility Score: inf
ROOT
ATOM      1  C   UNL     1       5.949   0.735  14.896  1.00  0.00     0.000 C 
ENDROOT
BRANCH   1   2
ATOM      2  C   UNL     1       6.178   0.055  16.259  1.00  0.00     0.000 C 
BRANCH   2   3
ATOM      3  C   UNL     1       5.023  -0.840  16.752  1.00  0.00     0.000 C 
BRANCH   3   4
ATOM      4  C   UNL     1       5.361  -1.748  17.948  1.00  0.00    -0.000 C 
BRANCH   4   5
ATOM      5  C   UNL     1       6.579  -1.256  18.746  1.00  0.00    -0.000 C 
BRANCH   5   6
ATOM      6  C   UNL     1       6.142  -0.356  19.912  1.00  0.00    -0.000 C 
BRANCH   6   7
ATOM      7  C   UNL     1       4.670   0.084  19.812  1.00  0.00    -0.000 C 
BRANCH   7   8
ATOM      8  C   UNL     1       4.453   1.567  19.455  1.00  0.00    -0.000 C 
BRANCH   8   9
ATOM      9  C   UNL     1       3.448   1.765  18.308  1.00  0.00    -0.000 C 
BRANCH   9  10
ATOM     10  C   UNL     1       1.995   1.836  18.804  1.00  0.00    -0.000 C 
BRANCH  10  11
ATOM     11  C   UNL     1       1.898   2.124  20.311  1.00  0.00    -0.003 C 
ATOM     12  C   UNL     1       0.810   1.274  20.962  1.00  0.00     0.004 C 
ENDBRANCH  10  11
ENDBRANCH   9  10
ENDBRANCH   8   9
ENDBRANCH   7   8
ENDBRANCH   6   7
ENDBRANCH   5   6
ENDBRANCH   4   5
ENDBRANCH   3   4
ENDBRANCH   2   3
ENDBRANCH   1   2
BRANCH   1  13
ATOM     13  C   UNL     1       6.732   0.066  13.754  1.00  0.00     0.000 C 
BRANCH  13  14
ATOM     14  C   UNL     1       5.921  -1.027  13.030  1.00  0.00     0.000 C 
BRANCH  14  15
ATOM     15  C   UNL     1       4.391  -0.869  13.105  1.00  0.00     0.000 C 
BRANCH  15  16
ATOM     16  C   UNL     1       3.693  -2.080  13.748  1.00  0.00     0.000 C 
BRANCH  16  17
ATOM     17  C   UNL     1       2.687  -1.678  14.837  1.00  0.00     0.000 C 
BRANCH  17  18
ATOM     18  C   UNL     1       1.466  -0.928  14.279  1.00  0.00     0.000 C 
BRANCH  18  19
ATOM     19  C   UNL     1       1.318   0.476  14.886  1.00  0.00     0.000 C 
BRANCH  19  20
ATOM     20  C   UNL     1       2.666   1.210  15.008  1.00  0.00     0.006 C 
BRANCH  20  21
ATOM     21  C   UNL     1       2.495   2.733  15.024  1.00  0.00     0.053 C 
BRANCH  21  22
ATOM     22  C   UNL     1       3.744   3.434  14.584  1.00  0.00     0.041 C 
ATOM     23  O   UNL     1       4.420   4.108  15.407  1.00  0.00    -0.550 OA
ATOM     24  O   UNL     1       4.139   3.378  13.253  1.00  0.00    -0.550 OA
ENDBRANCH  21  22
ENDBRANCH  20  21
ENDBRANCH  19  20
ENDBRANCH  18  19
ENDBRANCH  17  18
ENDBRANCH  16  17
ENDBRANCH  15  16
ENDBRANCH  14  15
ENDBRANCH  13  14
ENDBRANCH   1  13
TORSDOF 20
ENDMDL
