MODEL 1
REMARK VINA RESULT:    -3.524      0.000      0.000
REMARK INTER + INTRA:          -8.614
REMARK INTER:                  -6.409
REMARK INTRA:                  -2.205
REMARK UNBOUND:                -2.205
REMARK SMILES CCCCCCCCCCCCCCCC(=O)[O-]
REMARK SMILES IDX 9 1 10 2 11 3 12 4 13 5 14 6 15 7 16 8 17 9 18 10 8 11 7 12
REMARK SMILES IDX 6 13 5 14 4 15 3 16 2 17 1 18
REMARK H PARENT
REMARK Flexibility Score: inf
ROOT
ATOM      1  C   UNL     1       7.005   1.251  48.584  1.00  0.00     0.000 C 
ENDROOT
BRANCH   1   2
ATOM      2  C   UNL     1       6.391   2.165  47.511  1.00  0.00     0.000 C 
BRANCH   2   3
ATOM      3  C   UNL     1       5.831   3.470  48.097  1.00  0.00     0.000 C 
BRANCH   3   4
ATOM      4  C   UNL     1       6.789   4.059  49.139  1.00  0.00     0.000 C 
BRANCH   4   5
ATOM      5  C   UNL     1       6.682   5.589  49.180  1.00  0.00     0.000 C 
BRANCH   5   6
ATOM      6  C   UNL     1       7.618   6.236  48.150  1.00  0.00     0.006 C 
BRANCH   6   7
ATOM      7  C   UNL     1       8.137   7.602  48.617  1.00  0.00     0.053 C 
BRANCH   7   8
ATOM      8  C   UNL     1       7.031   8.601  48.754  1.00  0.00     0.041 C 
ATOM      9  O   UNL     1       6.289   8.866  47.771  1.00  0.00    -0.550 OA
ATOM     10  O   UNL     1       6.791   9.208  49.979  1.00  0.00    -0.550 OA
ENDBRANCH   7   8
ENDBRANCH   6   7
ENDBRANCH   5   6
ENDBRANCH   4   5
ENDBRANCH   3   4
ENDBRANCH   2   3
ENDBRANCH   1   2
BRANCH   1  11
ATOM     11  C   UNL     1       6.009   0.191  49.091  1.00  0.00     0.000 C 
BRANCH  11  12
ATOM     12  C   UNL     1       5.580   0.443  50.546  1.00  0.00    -0.000 C 
BRANCH  12  13
ATOM     13  C   UNL     1       6.740   0.965  51.414  1.00  0.00    -0.000 C 
BRANCH  13  14
ATOM     14  C   UNL     1       6.351   2.231  52.197  1.00  0.00    -0.000 C 
BRANCH  14  15
ATOM     15  C   UNL     1       4.825   2.469  52.249  1.00  0.00    -0.000 C 
BRANCH  15  16
ATOM     16  C   UNL     1       4.425   3.935  52.004  1.00  0.00    -0.000 C 
BRANCH  16  17
ATOM     17  C   UNL     1       3.446   4.095  50.834  1.00  0.00    -0.003 C 
ATOM     18  C   UNL     1       2.876   2.747  50.404  1.00  0.00     0.004 C 
ENDBRANCH  16  17
ENDBRANCH  15  16
ENDBRANCH  14  15
ENDBRANCH  13  14
ENDBRANCH  12  13
ENDBRANCH  11  12
ENDBRANCH   1  11
TORSDOF 14
ENDMDL
MODEL 2
REMARK VINA RESULT:    -3.512      3.967      6.258
REMARK INTER + INTRA:          -8.591
REMARK INTER:                  -6.206
REMARK INTRA:                  -2.385
REMARK UNBOUND:                -2.205
REMARK SMILES CCCCCCCCCCCCCCCC(=O)[O-]
REMARK SMILES IDX 9 1 10 2 11 3 12 4 13 5 14 6 15 7 16 8 17 9 18 10 8 11 7 12
REMARK SMILES IDX 6 13 5 14 4 15 3 16 2 17 1 18
REMARK H PARENT
REMARK Flexibility Score: inf
ROOT
ATOM      1  C   UNL     1       6.904   1.616  51.253  1.00  0.00     0.000 C 
ENDROOT
BRANCH   1   2
ATOM      2  C   UNL     1       5.964   2.244  52.296  1.00  0.00     0.000 C 
BRANCH   2   3
ATOM      3  C   UNL     1       4.782   1.329  52.652  1.00  0.00     0.000 C 
BRANCH   3   4
ATOM      4  C   UNL     1       3.448   1.983  52.276  1.00  0.00     0.000 C 
BRANCH   4   5
ATOM      5  C   UNL     1       3.540   2.672  50.908  1.00  0.00     0.000 C 
BRANCH   5   6
ATOM      6  C   UNL     1       2.634   1.981  49.880  1.00  0.00     0.006 C 
BRANCH   6   7
ATOM      7  C   UNL     1       2.550   0.466  50.106  1.00  0.00     0.053 C 
BRANCH   7   8
ATOM      8  C   UNL     1       1.133  -0.019  50.109  1.00  0.00     0.041 C 
ATOM      9  O   UNL     1       0.404   0.153  51.121  1.00  0.00    -0.550 OA
ATOM     10  O   UNL     1       0.604  -0.623  48.977  1.00  0.00    -0.550 OA
ENDBRANCH   7   8
ENDBRANCH   6   7
ENDBRANCH   5   6
ENDBRANCH   4   5
ENDBRANCH   3   4
ENDBRANCH   2   3
ENDBRANCH   1   2
BRANCH   1  11
ATOM     11  C   UNL     1       6.358   0.288  50.697  1.00  0.00     0.000 C 
BRANCH  11  12
ATOM     12  C   UNL     1       6.089   0.357  49.184  1.00  0.00    -0.000 C 
BRANCH  12  13
ATOM     13  C   UNL     1       7.093   1.267  48.454  1.00  0.00    -0.000 C 
BRANCH  13  14
ATOM     14  C   UNL     1       6.395   2.235  47.483  1.00  0.00    -0.000 C 
BRANCH  14  15
ATOM     15  C   UNL     1       5.778   3.464  48.187  1.00  0.00    -0.000 C 
BRANCH  15  16
ATOM     16  C   UNL     1       6.780   4.610  48.412  1.00  0.00    -0.000 C 
BRANCH  16  17
ATOM     17  C   UNL     1       6.878   5.033  49.883  1.00  0.00    -0.003 C 
ATOM     18  C   UNL     1       5.565   5.640  50.370  1.00  0.00     0.004 C 
ENDBRANCH  16  17
ENDBRANCH  15  16
ENDBRANCH  14  15
ENDBRANCH  13  14
ENDBRANCH  12  13
ENDBRANCH  11  12
ENDBRANCH   1  11
TORSDOF 14
ENDMDL
MODEL 3
REMARK VINA RESULT:    -3.475      1.250      1.886
REMARK INTER + INTRA:          -8.524
REMARK INTER:                  -6.603
REMARK INTRA:                  -1.921
REMARK UNBOUND:                -2.205
REMARK SMILES CCCCCCCCCCCCCCCC(=O)[O-]
REMARK SMILES IDX 9 1 10 2 11 3 12 4 13 5 14 6 15 7 16 8 17 9 18 10 8 11 7 12
REMARK SMILES IDX 6 13 5 14 4 15 3 16 2 17 1 18
REMARK H PARENT
REMARK Flexibility Score: inf
ROOT
ATOM      1  C   UNL     1       6.695   1.980  47.690  1.00  0.00     0.000 C 
ENDROOT
BRANCH   1   2
ATOM      2  C   UNL     1       5.822   3.221  47.943  1.00  0.00     0.000 C 
BRANCH   2   3
ATOM      3  C   UNL     1       6.651   4.460  48.313  1.00  0.00     0.000 C 
BRANCH   3   4
ATOM      4  C   UNL     1       6.616   4.714  49.825  1.00  0.00     0.000 C 
BRANCH   4   5
ATOM      5  C   UNL     1       6.336   6.191  50.126  1.00  0.00     0.000 C 
BRANCH   5   6
ATOM      6  C   UNL     1       7.642   6.993  50.222  1.00  0.00     0.006 C 
BRANCH   6   7
ATOM      7  C   UNL     1       7.485   8.422  49.689  1.00  0.00     0.053 C 
BRANCH   7   8
ATOM      8  C   UNL     1       7.147   8.438  48.231  1.00  0.00     0.041 C 
ATOM      9  O   UNL     1       7.878   7.836  47.401  1.00  0.00    -0.550 OA
ATOM     10  O   UNL     1       5.998   9.083  47.792  1.00  0.00    -0.550 OA
ENDBRANCH   7   8
ENDBRANCH   6   7
ENDBRANCH   5   6
ENDBRANCH   4   5
ENDBRANCH   3   4
ENDBRANCH   2   3
ENDBRANCH   1   2
BRANCH   1  11
ATOM     11  C   UNL     1       6.357   0.821  48.645  1.00  0.00     0.000 C 
BRANCH  11  12
ATOM     12  C   UNL     1       6.711   1.147  50.106  1.00  0.00    -0.000 C 
BRANCH  12  13
ATOM     13  C   UNL     1       6.156   0.099  51.088  1.00  0.00    -0.000 C 
BRANCH  13  14
ATOM     14  C   UNL     1       4.779  -0.430  50.650  1.00  0.00    -0.000 C 
BRANCH  14  15
ATOM     15  C   UNL     1       3.602   0.394  51.219  1.00  0.00    -0.000 C 
BRANCH  15  16
ATOM     16  C   UNL     1       2.877   1.242  50.159  1.00  0.00    -0.000 C 
BRANCH  16  17
ATOM     17  C   UNL     1       3.224   2.732  50.252  1.00  0.00    -0.003 C 
ATOM     18  C   UNL     1       3.768   3.086  51.634  1.00  0.00     0.004 C 
ENDBRANCH  16  17
ENDBRANCH  15  16
ENDBRANCH  14  15
ENDBRANCH  13  14
ENDBRANCH  12  13
ENDBRANCH  11  12
ENDBRANCH   1  11
TORSDOF 14
ENDMDL
MODEL 4
REMARK VINA RESULT:    -3.473      3.950      6.199
REMARK INTER + INTRA:          -8.521
REMARK INTER:                  -6.026
REMARK INTRA:                  -2.495
REMARK UNBOUND:                -2.205
REMARK SMILES CCCCCCCCCCCCCCCC(=O)[O-]
REMARK SMILES IDX 9 1 10 2 11 3 12 4 13 5 14 6 15 7 16 8 17 9 18 10 8 11 7 12
REMARK SMILES IDX 6 13 5 14 4 15 3 16 2 17 1 18
REMARK H PARENT
REMARK Flexibility Score: inf
ROOT
ATOM      1  C   UNL     1       6.519   5.212  49.678  1.00  0.00     0.000 C 
ENDROOT
BRANCH   1   2
ATOM      2  C   UNL     1       5.057   5.016  50.112  1.00  0.00     0.000 C 
BRANCH   2   3
ATOM      3  C   UNL     1       4.902   4.916  51.637  1.00  0.00     0.000 C 
BRANCH   3   4
ATOM      4  C   UNL     1       3.748   3.979  52.012  1.00  0.00     0.000 C 
BRANCH   4   5
ATOM      5  C   UNL     1       3.207   3.252  50.775  1.00  0.00     0.000 C 
BRANCH   5   6
ATOM      6  C   UNL     1       2.797   1.812  51.114  1.00  0.00     0.006 C 
BRANCH   6   7
ATOM      7  C   UNL     1       2.437   1.002  49.862  1.00  0.00     0.053 C 
BRANCH   7   8
ATOM      8  C   UNL     1       1.198   0.187  50.065  1.00  0.00     0.041 C 
ATOM      9  O   UNL     1       0.755  -0.538  49.135  1.00  0.00    -0.550 OA
ATOM     10  O   UNL     1       0.556   0.195  51.295  1.00  0.00    -0.550 OA
ENDBRANCH   7   8
ENDBRANCH   6   7
ENDBRANCH   5   6
ENDBRANCH   4   5
ENDBRANCH   3   4
ENDBRANCH   2   3
ENDBRANCH   1   2
BRANCH   1  11
ATOM     11  C   UNL     1       6.817   4.561  48.315  1.00  0.00     0.000 C 
BRANCH  11  12
ATOM     12  C   UNL     1       5.820   3.442  47.973  1.00  0.00    -0.000 C 
BRANCH  12  13
ATOM     13  C   UNL     1       6.501   2.064  47.871  1.00  0.00    -0.000 C 
BRANCH  13  14
ATOM     14  C   UNL     1       5.962   1.075  48.920  1.00  0.00    -0.000 C 
BRANCH  14  15
ATOM     15  C   UNL     1       6.929   0.856  50.104  1.00  0.00    -0.000 C 
BRANCH  15  16
ATOM     16  C   UNL     1       6.754   1.883  51.237  1.00  0.00    -0.000 C 
BRANCH  16  17
ATOM     17  C   UNL     1       6.400   1.231  52.579  1.00  0.00    -0.003 C 
ATOM     18  C   UNL     1       5.982  -0.225  52.391  1.00  0.00     0.004 C 
ENDBRANCH  16  17
ENDBRANCH  15  16
ENDBRANCH  14  15
ENDBRANCH  13  14
ENDBRANCH  12  13
ENDBRANCH  11  12
ENDBRANCH   1  11
TORSDOF 14
ENDMDL
MODEL 5
REMARK VINA RESULT:    -3.432      1.343      2.813
REMARK INTER + INTRA:          -8.446
REMARK INTER:                  -5.977
REMARK INTRA:                  -2.469
REMARK UNBOUND:                -2.205
REMARK SMILES CCCCCCCCCCCCCCCC(=O)[O-]
REMARK SMILES IDX 9 1 10 2 11 3 12 4 13 5 14 6 15 7 16 8 17 9 18 10 8 11 7 12
REMARK SMILES IDX 6 13 5 14 4 15 3 16 2 17 1 18
REMARK H PARENT
REMARK Flexibility Score: inf
ROOT
ATOM      1  C   UNL     1       7.196   1.979  51.139  1.00  0.00     0.000 C 
ENDROOT
BRANCH   1   2
ATOM      2  C   UNL     1       6.336   2.221  52.391  1.00  0.00     0.000 C 
BRANCH   2   3
ATOM      3  C   UNL     1       6.113   3.714  52.674  1.00  0.00     0.000 C 
BRANCH   3   4
ATOM      4  C   UNL     1       7.193   4.569  52.000  1.00  0.00     0.000 C 
BRANCH   4   5
ATOM      5  C   UNL     1       6.564   5.725  51.212  1.00  0.00     0.000 C 
BRANCH   5   6
ATOM      6  C   UNL     1       7.370   6.030  49.941  1.00  0.00     0.006 C 
BRANCH   6   7
ATOM      7  C   UNL     1       7.628   7.532  49.765  1.00  0.00     0.053 C 
BRANCH   7   8
ATOM      8  C   UNL     1       7.497   7.955  48.335  1.00  0.00     0.041 C 
ATOM      9  O   UNL     1       8.316   7.542  47.473  1.00  0.00    -0.550 OA
ATOM     10  O   UNL     1       6.444   8.772  47.947  1.00  0.00    -0.550 OA
ENDBRANCH   7   8
ENDBRANCH   6   7
ENDBRANCH   5   6
ENDBRANCH   4   5
ENDBRANCH   3   4
ENDBRANCH   2   3
ENDBRANCH   1   2
BRANCH   1  11
ATOM     11  C   UNL     1       6.682   0.799  50.295  1.00  0.00     0.000 C 
BRANCH  11  12
ATOM     12  C   UNL     1       6.714   1.103  48.787  1.00  0.00    -0.000 C 
BRANCH  12  13
ATOM     13  C   UNL     1       6.653   2.614  48.496  1.00  0.00    -0.000 C 
BRANCH  13  14
ATOM     14  C   UNL     1       5.246   3.062  48.063  1.00  0.00    -0.000 C 
BRANCH  14  15
ATOM     15  C   UNL     1       4.378   3.562  49.239  1.00  0.00    -0.000 C 
BRANCH  15  16
ATOM     16  C   UNL     1       3.359   2.522  49.737  1.00  0.00    -0.000 C 
BRANCH  16  17
ATOM     17  C   UNL     1       2.855   2.816  51.155  1.00  0.00    -0.003 C 
ATOM     18  C   UNL     1       2.717   4.318  51.390  1.00  0.00     0.004 C 
ENDBRANCH  16  17
ENDBRANCH  15  16
ENDBRANCH  14  15
ENDBRANCH  13  14
ENDBRANCH  12  13
ENDBRANCH  11  12
ENDBRANCH   1  11
TORSDOF 14
ENDMDL
MODEL 6
REMARK VINA RESULT:    -3.421      1.520      2.823
REMARK INTER + INTRA:          -8.427
REMARK INTER:                  -6.568
REMARK INTRA:                  -1.859
REMARK UNBOUND:                -2.205
REMARK SMILES CCCCCCCCCCCCCCCC(=O)[O-]
REMARK SMILES IDX 9 1 10 2 11 3 12 4 13 5 14 6 15 7 16 8 17 9 18 10 8 11 7 12
REMARK SMILES IDX 6 13 5 14 4 15 3 16 2 17 1 18
REMARK H PARENT
REMARK Flexibility Score: inf
ROOT
ATOM      1  C   UNL     1       5.011   3.461  48.666  1.00  0.00     0.000 C 
ENDROOT
BRANCH   1   2
ATOM      2  C   UNL     1       5.139   3.884  50.139  1.00  0.00     0.000 C 
BRANCH   2   3
ATOM      3  C   UNL     1       4.337   5.154  50.460  1.00  0.00     0.000 C 
BRANCH   3   4
ATOM      4  C   UNL     1       5.254   6.382  50.520  1.00  0.00     0.000 C 
BRANCH   4   5
ATOM      5  C   UNL     1       6.673   5.987  50.946  1.00  0.00     0.000 C 
BRANCH   5   6
ATOM      6  C   UNL     1       7.726   6.674  50.065  1.00  0.00     0.006 C 
BRANCH   6   7
ATOM      7  C   UNL     1       7.416   6.528  48.570  1.00  0.00     0.053 C 
BRANCH   7   8
ATOM      8  C   UNL     1       7.536   7.834  47.847  1.00  0.00     0.041 C 
ATOM      9  O   UNL     1       8.555   8.083  47.150  1.00  0.00    -0.550 OA
ATOM     10  O   UNL     1       6.503   8.759  47.909  1.00  0.00    -0.550 OA
ENDBRANCH   7   8
ENDBRANCH   6   7
ENDBRANCH   5   6
ENDBRANCH   4   5
ENDBRANCH   3   4
ENDBRANCH   2   3
ENDBRANCH   1   2
BRANCH   1  11
ATOM     11  C   UNL     1       6.379   3.185  48.015  1.00  0.00     0.000 C 
BRANCH  11  12
ATOM     12  C   UNL     1       6.610   1.686  47.758  1.00  0.00    -0.000 C 
BRANCH  12  13
ATOM     13  C   UNL     1       6.828   0.897  49.062  1.00  0.00    -0.000 C 
BRANCH  13  14
ATOM     14  C   UNL     1       5.723  -0.148  49.296  1.00  0.00    -0.000 C 
BRANCH  14  15
ATOM     15  C   UNL     1       4.822   0.180  50.508  1.00  0.00    -0.000 C 
BRANCH  15  16
ATOM     16  C   UNL     1       3.330  -0.105  50.259  1.00  0.00    -0.000 C 
BRANCH  16  17
ATOM     17  C   UNL     1       2.526   1.165  49.957  1.00  0.00    -0.003 C 
ATOM     18  C   UNL     1       2.157   1.902  51.242  1.00  0.00     0.004 C 
ENDBRANCH  16  17
ENDBRANCH  15  16
ENDBRANCH  14  15
ENDBRANCH  13  14
ENDBRANCH  12  13
ENDBRANCH  11  12
ENDBRANCH   1  11
TORSDOF 14
ENDMDL
MODEL 7
REMARK VINA RESULT:    -3.410      2.820      5.526
REMARK INTER + INTRA:          -8.407
REMARK INTER:                  -6.589
REMARK INTRA:                  -1.818
REMARK UNBOUND:                -2.205
REMARK SMILES CCCCCCCCCCCCCCCC(=O)[O-]
REMARK SMILES IDX 9 1 10 2 11 3 12 4 13 5 14 6 15 7 16 8 17 9 18 10 8 11 7 12
REMARK SMILES IDX 6 13 5 14 4 15 3 16 2 17 1 18
REMARK H PARENT
REMARK Flexibility Score: inf
ROOT
ATOM      1  C   UNL     1       7.081   1.203  48.557  1.00  0.00     0.000 C 
ENDROOT
BRANCH   1   2
ATOM      2  C   UNL     1       6.020   0.399  49.328  1.00  0.00     0.000 C 
BRANCH   2   3
ATOM      3  C   UNL     1       6.258   0.410  50.845  1.00  0.00     0.000 C 
BRANCH   3   4
ATOM      4  C   UNL     1       7.041   1.658  51.269  1.00  0.00     0.000 C 
BRANCH   4   5
ATOM      5  C   UNL     1       6.292   2.430  52.363  1.00  0.00     0.000 C 
BRANCH   5   6
ATOM      6  C   UNL     1       4.782   2.160  52.295  1.00  0.00     0.006 C 
BRANCH   6   7
ATOM      7  C   UNL     1       4.049   3.185  51.420  1.00  0.00     0.053 C 
BRANCH   7   8
ATOM      8  C   UNL     1       2.787   2.622  50.844  1.00  0.00     0.041 C 
ATOM      9  O   UNL     1       2.813   1.982  49.760  1.00  0.00    -0.550 OA
ATOM     10  O   UNL     1       1.587   2.769  51.525  1.00  0.00    -0.550 OA
ENDBRANCH   7   8
ENDBRANCH   6   7
ENDBRANCH   5   6
ENDBRANCH   4   5
ENDBRANCH   3   4
ENDBRANCH   2   3
ENDBRANCH   1   2
BRANCH   1  11
ATOM     11  C   UNL     1       6.457   2.146  47.512  1.00  0.00     0.000 C 
BRANCH  11  12
ATOM     12  C   UNL     1       5.775   3.363  48.160  1.00  0.00    -0.000 C 
BRANCH  12  13
ATOM     13  C   UNL     1       6.719   4.574  48.263  1.00  0.00    -0.000 C 
BRANCH  13  14
ATOM     14  C   UNL     1       6.939   5.012  49.722  1.00  0.00    -0.000 C 
BRANCH  14  15
ATOM     15  C   UNL     1       7.574   6.415  49.847  1.00  0.00    -0.000 C 
BRANCH  15  16
ATOM     16  C   UNL     1       7.542   7.223  48.537  1.00  0.00    -0.000 C 
BRANCH  16  17
ATOM     17  C   UNL     1       7.300   8.719  48.768  1.00  0.00    -0.003 C 
ATOM     18  C   UNL     1       6.040   9.192  48.048  1.00  0.00     0.004 C 
ENDBRANCH  16  17
ENDBRANCH  15  16
ENDBRANCH  14  15
ENDBRANCH  13  14
ENDBRANCH  12  13
ENDBRANCH  11  12
ENDBRANCH   1  11
TORSDOF 14
ENDMDL
MODEL 8
REMARK VINA RESULT:    -3.402      1.209      2.129
REMARK INTER + INTRA:          -8.393
REMARK INTER:                  -6.594
REMARK INTRA:                  -1.798
REMARK UNBOUND:                -2.205
REMARK SMILES CCCCCCCCCCCCCCCC(=O)[O-]
REMARK SMILES IDX 9 1 10 2 11 3 12 4 13 5 14 6 15 7 16 8 17 9 18 10 8 11 7 12
REMARK SMILES IDX 6 13 5 14 4 15 3 16 2 17 1 18
REMARK H PARENT
REMARK Flexibility Score: inf
ROOT
ATOM      1  C   UNL     1       5.786   3.229  48.125  1.00  0.00     0.000 C 
ENDROOT
BRANCH   1   2
ATOM      2  C   UNL     1       6.753   4.421  48.223  1.00  0.00     0.000 C 
BRANCH   2   3
ATOM      3  C   UNL     1       6.747   5.072  49.614  1.00  0.00     0.000 C 
BRANCH   3   4
ATOM      4  C   UNL     1       7.460   6.430  49.588  1.00  0.00     0.000 C 
BRANCH   4   5
ATOM      5  C   UNL     1       7.778   6.855  48.149  1.00  0.00     0.000 C 
BRANCH   5   6
ATOM      6  C   UNL     1       7.393   8.322  47.908  1.00  0.00     0.006 C 
BRANCH   6   7
ATOM      7  C   UNL     1       6.595   8.911  49.078  1.00  0.00     0.053 C 
BRANCH   7   8
ATOM      8  C   UNL     1       5.302   9.513  48.621  1.00  0.00     0.041 C 
ATOM      9  O   UNL     1       4.211   9.130  49.120  1.00  0.00    -0.550 OA
ATOM     10  O   UNL     1       5.306  10.529  47.675  1.00  0.00    -0.550 OA
ENDBRANCH   7   8
ENDBRANCH   6   7
ENDBRANCH   5   6
ENDBRANCH   4   5
ENDBRANCH   3   4
ENDBRANCH   2   3
ENDBRANCH   1   2
BRANCH   1  11
ATOM     11  C   UNL     1       6.516   1.904  47.837  1.00  0.00     0.000 C 
BRANCH  11  12
ATOM     12  C   UNL     1       6.232   0.838  48.909  1.00  0.00    -0.000 C 
BRANCH  12  13
ATOM     13  C   UNL     1       6.748   1.255  50.298  1.00  0.00    -0.000 C 
BRANCH  13  14
ATOM     14  C   UNL     1       5.609   1.367  51.327  1.00  0.00    -0.000 C 
BRANCH  14  15
ATOM     15  C   UNL     1       4.211   1.125  50.716  1.00  0.00    -0.000 C 
BRANCH  15  16
ATOM     16  C   UNL     1       3.216   2.266  50.990  1.00  0.00    -0.000 C 
BRANCH  16  17
ATOM     17  C   UNL     1       3.910   3.582  51.362  1.00  0.00    -0.003 C 
ATOM     18  C   UNL     1       3.166   4.781  50.780  1.00  0.00     0.004 C 
ENDBRANCH  16  17
ENDBRANCH  15  16
ENDBRANCH  14  15
ENDBRANCH  13  14
ENDBRANCH  12  13
ENDBRANCH  11  12
ENDBRANCH   1  11
TORSDOF 14
ENDMDL
MODEL 9
REMARK VINA RESULT:    -3.393      1.650      3.532
REMARK INTER + INTRA:          -8.375
REMARK INTER:                  -6.642
REMARK INTRA:                  -1.734
REMARK UNBOUND:                -2.205
REMARK SMILES CCCCCCCCCCCCCCCC(=O)[O-]
REMARK SMILES IDX 9 1 10 2 11 3 12 4 13 5 14 6 15 7 16 8 17 9 18 10 8 11 7 12
REMARK SMILES IDX 6 13 5 14 4 15 3 16 2 17 1 18
REMARK H PARENT
REMARK Flexibility Score: inf
ROOT
ATOM      1  C   UNL     1       6.106   5.053  51.552  1.00  0.00     0.000 C 
ENDROOT
BRANCH   1   2
ATOM      2  C   UNL     1       6.090   5.943  50.298  1.00  0.00     0.000 C 
BRANCH   2   3
ATOM      3  C   UNL     1       7.498   6.212  49.746  1.00  0.00     0.000 C 
BRANCH   3   4
ATOM      4  C   UNL     1       7.456   6.478  48.237  1.00  0.00     0.000 C 
BRANCH   4   5
ATOM      5  C   UNL     1       8.110   7.823  47.899  1.00  0.00     0.000 C 
BRANCH   5   6
ATOM      6  C   UNL     1       7.324   8.990  48.513  1.00  0.00     0.006 C 
BRANCH   6   7
ATOM      7  C   UNL     1       5.934   9.147  47.884  1.00  0.00     0.053 C 
BRANCH   7   8
ATOM      8  C   UNL     1       4.951   9.738  48.847  1.00  0.00     0.041 C 
ATOM      9  O   UNL     1       4.486   9.041  49.787  1.00  0.00    -0.550 OA
ATOM     10  O   UNL     1       4.581  11.070  48.731  1.00  0.00    -0.550 OA
ENDBRANCH   7   8
ENDBRANCH   6   7
ENDBRANCH   5   6
ENDBRANCH   4   5
ENDBRANCH   3   4
ENDBRANCH   2   3
ENDBRANCH   1   2
BRANCH   1  11
ATOM     11  C   UNL     1       7.518   4.534  51.883  1.00  0.00     0.000 C 
BRANCH  11  12
ATOM     12  C   UNL     1       7.696   3.052  51.511  1.00  0.00    -0.000 C 
BRANCH  12  13
ATOM     13  C   UNL     1       6.485   2.197  51.926  1.00  0.00    -0.000 C 
BRANCH  13  14
ATOM     14  C   UNL     1       6.394   0.893  51.114  1.00  0.00    -0.000 C 
BRANCH  14  15
ATOM     15  C   UNL     1       5.717   1.079  49.737  1.00  0.00    -0.000 C 
BRANCH  15  16
ATOM     16  C   UNL     1       6.718   1.230  48.577  1.00  0.00    -0.000 C 
BRANCH  16  17
ATOM     17  C   UNL     1       6.460   2.482  47.731  1.00  0.00    -0.003 C 
ATOM     18  C   UNL     1       5.177   3.186  48.164  1.00  0.00     0.004 C 
ENDBRANCH  16  17
ENDBRANCH  15  16
ENDBRANCH  14  15
ENDBRANCH  13  14
ENDBRANCH  12  13
ENDBRANCH  11  12
ENDBRANCH   1  11
TORSDOF 14
ENDMDL
