MODEL 1
REMARK VINA RESULT:    -6.426      0.000      0.000
REMARK INTER + INTRA:          -7.681
REMARK INTER:                  -7.553
REMARK INTRA:                  -0.128
REMARK UNBOUND:                -0.128
REMARK SMILES O=C([O-])C=Cc1ccc(O)c(O)c1
REMARK SMILES IDX 6 1 13 2 7 3 11 4 8 5 9 6 5 7 4 8 2 9 1 10 3 11 12 12 10 14
REMARK H PARENT 12 13 10 15
REMARK Flexibility Score: inf
ROOT
ATOM      1  C   UNL     1      16.549  26.816   1.219  1.00  0.00    -0.022 A 
ATOM      2  C   UNL     1      15.601  27.110   0.225  1.00  0.00     0.058 A 
ATOM      3  C   UNL     1      16.576  25.520   1.772  1.00  0.00     0.012 A 
ATOM      4  C   UNL     1      14.713  26.126  -0.231  1.00  0.00     0.157 A 
ATOM      5  C   UNL     1      15.689  24.540   1.318  1.00  0.00     0.051 A 
ATOM      6  C   UNL     1      14.758  24.838   0.316  1.00  0.00     0.157 A 
ENDROOT
BRANCH   1   7
ATOM      7  C   UNL     1      17.461  27.897   1.674  1.00  0.00     0.010 C 
ATOM      8  C   UNL     1      18.440  28.411   0.917  1.00  0.00     0.025 C 
BRANCH   8   9
ATOM      9  C   UNL     1      19.318  29.492   1.397  1.00  0.00     0.064 C 
ATOM     10  O   UNL     1      19.380  29.787   2.621  1.00  0.00    -0.545 OA
ATOM     11  O   UNL     1      20.093  30.198   0.486  1.00  0.00    -0.545 OA
ENDBRANCH   8   9
ENDBRANCH   1   7
BRANCH   4  12
ATOM     12  O   UNL     1      13.782  26.421  -1.225  1.00  0.00    -0.504 OA
ATOM     13  H   UNL     1      14.055  26.868  -2.092  1.00  0.00     0.293 HD
ENDBRANCH   4  12
BRANCH   6  14
ATOM     14  O   UNL     1      13.874  23.861  -0.141  1.00  0.00    -0.504 OA
ATOM     15  H   UNL     1      14.201  22.949  -0.438  1.00  0.00     0.293 HD
ENDBRANCH   6  14
TORSDOF 4
ENDMDL
MODEL 2
REMARK VINA RESULT:    -6.419      2.375      5.496
REMARK INTER + INTRA:          -7.672
REMARK INTER:                  -7.540
REMARK INTRA:                  -0.132
REMARK UNBOUND:                -0.128
REMARK SMILES O=C([O-])C=Cc1ccc(O)c(O)c1
REMARK SMILES IDX 6 1 13 2 7 3 11 4 8 5 9 6 5 7 4 8 2 9 1 10 3 11 12 12 10 14
REMARK H PARENT 12 13 10 15
REMARK Flexibility Score: inf
ROOT
ATOM      1  C   UNL     1      15.983  26.153   0.384  1.00  0.00    -0.022 A 
ATOM      2  C   UNL     1      15.806  27.015  -0.711  1.00  0.00     0.058 A 
ATOM      3  C   UNL     1      16.210  26.710   1.658  1.00  0.00     0.012 A 
ATOM      4  C   UNL     1      15.827  28.406  -0.538  1.00  0.00     0.157 A 
ATOM      5  C   UNL     1      16.232  28.096   1.830  1.00  0.00     0.051 A 
ATOM      6  C   UNL     1      16.039  28.948   0.736  1.00  0.00     0.157 A 
ENDROOT
BRANCH   1   7
ATOM      7  C   UNL     1      15.962  24.688   0.145  1.00  0.00     0.010 C 
ATOM      8  C   UNL     1      15.468  23.798   1.018  1.00  0.00     0.025 C 
BRANCH   8   9
ATOM      9  C   UNL     1      15.452  22.352   0.741  1.00  0.00     0.064 C 
ATOM     10  O   UNL     1      14.381  21.753   0.454  1.00  0.00    -0.545 OA
ATOM     11  O   UNL     1      16.640  21.634   0.795  1.00  0.00    -0.545 OA
ENDBRANCH   8   9
ENDBRANCH   1   7
BRANCH   4  12
ATOM     12  O   UNL     1      15.641  29.256  -1.627  1.00  0.00    -0.504 OA
ATOM     13  H   UNL     1      15.731  28.924  -2.580  1.00  0.00     0.293 HD
ENDBRANCH   4  12
BRANCH   6  14
ATOM     14  O   UNL     1      16.058  30.331   0.905  1.00  0.00    -0.504 OA
ATOM     15  H   UNL     1      15.271  30.827   1.308  1.00  0.00     0.293 HD
ENDBRANCH   6  14
TORSDOF 4
ENDMDL
MODEL 3
REMARK VINA RESULT:    -6.357      2.709      2.956
REMARK INTER + INTRA:          -7.599
REMARK INTER:                  -7.465
REMARK INTRA:                  -0.134
REMARK UNBOUND:                -0.128
REMARK SMILES O=C([O-])C=Cc1ccc(O)c(O)c1
REMARK SMILES IDX 6 1 13 2 7 3 11 4 8 5 9 6 5 7 4 8 2 9 1 10 3 11 12 12 10 14
REMARK H PARENT 12 13 10 15
REMARK Flexibility Score: inf
ROOT
ATOM      1  C   UNL     1      18.145  26.660   0.478  1.00  0.00    -0.022 A 
ATOM      2  C   UNL     1      18.462  25.942  -0.688  1.00  0.00     0.058 A 
ATOM      3  C   UNL     1      17.728  25.951   1.621  1.00  0.00     0.012 A 
ATOM      4  C   UNL     1      18.391  24.542  -0.708  1.00  0.00     0.157 A 
ATOM      5  C   UNL     1      17.656  24.556   1.600  1.00  0.00     0.051 A 
ATOM      6  C   UNL     1      17.989  23.848   0.439  1.00  0.00     0.157 A 
ENDROOT
BRANCH   1   7
ATOM      7  C   UNL     1      18.226  28.143   0.443  1.00  0.00     0.010 C 
ATOM      8  C   UNL     1      18.470  28.900   1.522  1.00  0.00     0.025 C 
BRANCH   8   9
ATOM      9  C   UNL     1      18.556  30.368   1.448  1.00  0.00     0.064 C 
ATOM     10  O   UNL     1      19.654  30.948   1.232  1.00  0.00    -0.545 OA
ATOM     11  O   UNL     1      17.406  31.129   1.617  1.00  0.00    -0.545 OA
ENDBRANCH   8   9
ENDBRANCH   1   7
BRANCH   4  12
ATOM     12  O   UNL     1      18.716  23.836  -1.864  1.00  0.00    -0.504 OA
ATOM     13  H   UNL     1      18.364  22.901  -2.031  1.00  0.00     0.293 HD
ENDBRANCH   4  12
BRANCH   6  14
ATOM     14  O   UNL     1      17.921  22.456   0.416  1.00  0.00    -0.504 OA
ATOM     15  H   UNL     1      17.034  21.968   0.462  1.00  0.00     0.293 HD
ENDBRANCH   6  14
TORSDOF 4
ENDMDL
MODEL 4
REMARK VINA RESULT:    -6.174      1.787      5.943
REMARK INTER + INTRA:          -7.385
REMARK INTER:                  -7.256
REMARK INTRA:                  -0.129
REMARK UNBOUND:                -0.128
REMARK SMILES O=C([O-])C=Cc1ccc(O)c(O)c1
REMARK SMILES IDX 6 1 13 2 7 3 11 4 8 5 9 6 5 7 4 8 2 9 1 10 3 11 12 12 10 14
REMARK H PARENT 12 13 10 15
REMARK Flexibility Score: inf
ROOT
ATOM      1  C   UNL     1      17.444  26.115   0.851  1.00  0.00    -0.022 A 
ATOM      2  C   UNL     1      18.467  25.892  -0.087  1.00  0.00     0.058 A 
ATOM      3  C   UNL     1      17.392  27.355   1.517  1.00  0.00     0.012 A 
ATOM      4  C   UNL     1      19.404  26.894  -0.376  1.00  0.00     0.157 A 
ATOM      5  C   UNL     1      18.327  28.352   1.230  1.00  0.00     0.051 A 
ATOM      6  C   UNL     1      19.333  28.127   0.282  1.00  0.00     0.157 A 
ENDROOT
BRANCH   1   7
ATOM      7  C   UNL     1      16.483  25.018   1.128  1.00  0.00     0.010 C 
ATOM      8  C   UNL     1      15.705  24.456   0.192  1.00  0.00     0.025 C 
BRANCH   8   9
ATOM      9  C   UNL     1      14.770  23.361   0.501  1.00  0.00     0.064 C 
ATOM     10  O   UNL     1      14.693  22.877   1.663  1.00  0.00    -0.545 OA
ATOM     11  O   UNL     1      13.958  22.852  -0.503  1.00  0.00    -0.545 OA
ENDBRANCH   8   9
ENDBRANCH   1   7
BRANCH   4  12
ATOM     12  O   UNL     1      20.410  26.669  -1.315  1.00  0.00    -0.504 OA
ATOM     13  H   UNL     1      20.689  25.731  -1.579  1.00  0.00     0.293 HD
ENDBRANCH   4  12
BRANCH   6  14
ATOM     14  O   UNL     1      20.266  29.121  -0.009  1.00  0.00    -0.504 OA
ATOM     15  H   UNL     1      20.126  30.081   0.285  1.00  0.00     0.293 HD
ENDBRANCH   6  14
TORSDOF 4
ENDMDL
MODEL 5
REMARK VINA RESULT:    -5.933      1.916      2.738
REMARK INTER + INTRA:          -7.102
REMARK INTER:                  -6.965
REMARK INTRA:                  -0.136
REMARK UNBOUND:                -0.128
REMARK SMILES O=C([O-])C=Cc1ccc(O)c(O)c1
REMARK SMILES IDX 6 1 13 2 7 3 11 4 8 5 9 6 5 7 4 8 2 9 1 10 3 11 12 12 10 14
REMARK H PARENT 12 13 10 15
REMARK Flexibility Score: inf
ROOT
ATOM      1  C   UNL     1      17.718  25.809   0.603  1.00  0.00    -0.022 A 
ATOM      2  C   UNL     1      18.318  24.550   0.427  1.00  0.00     0.058 A 
ATOM      3  C   UNL     1      16.325  25.876   0.800  1.00  0.00     0.012 A 
ATOM      4  C   UNL     1      17.550  23.378   0.471  1.00  0.00     0.157 A 
ATOM      5  C   UNL     1      15.560  24.708   0.843  1.00  0.00     0.051 A 
ATOM      6  C   UNL     1      16.168  23.458   0.682  1.00  0.00     0.157 A 
ENDROOT
BRANCH   1   7
ATOM      7  C   UNL     1      18.575  27.020   0.537  1.00  0.00     0.010 C 
ATOM      8  C   UNL     1      18.332  28.142   1.228  1.00  0.00     0.025 C 
BRANCH   8   9
ATOM      9  C   UNL     1      19.211  29.320   1.147  1.00  0.00     0.064 C 
ATOM     10  O   UNL     1      19.959  29.510   0.149  1.00  0.00    -0.545 OA
ATOM     11  O   UNL     1      19.217  30.242   2.186  1.00  0.00    -0.545 OA
ENDBRANCH   8   9
ENDBRANCH   1   7
BRANCH   4  12
ATOM     12  O   UNL     1      18.153  22.133   0.305  1.00  0.00    -0.504 OA
ATOM     13  H   UNL     1      17.822  21.313   0.801  1.00  0.00     0.293 HD
ENDBRANCH   4  12
BRANCH   6  14
ATOM     14  O   UNL     1      15.408  22.290   0.727  1.00  0.00    -0.504 OA
ATOM     15  H   UNL     1      14.395  22.318   0.757  1.00  0.00     0.293 HD
ENDBRANCH   6  14
TORSDOF 4
ENDMDL
MODEL 6
REMARK VINA RESULT:    -5.877      8.971     11.893
REMARK INTER + INTRA:          -7.035
REMARK INTER:                  -6.910
REMARK INTRA:                  -0.125
REMARK UNBOUND:                -0.128
REMARK SMILES O=C([O-])C=Cc1ccc(O)c(O)c1
REMARK SMILES IDX 6 1 13 2 7 3 11 4 8 5 9 6 5 7 4 8 2 9 1 10 3 11 12 12 10 14
REMARK H PARENT 12 13 10 15
REMARK Flexibility Score: inf
ROOT
ATOM      1  C   UNL     1      22.607  35.214   4.508  1.00  0.00    -0.022 A 
ATOM      2  C   UNL     1      23.223  34.055   5.009  1.00  0.00     0.058 A 
ATOM      3  C   UNL     1      22.866  36.448   5.136  1.00  0.00     0.012 A 
ATOM      4  C   UNL     1      24.103  34.126   6.098  1.00  0.00     0.157 A 
ATOM      5  C   UNL     1      23.742  36.517   6.222  1.00  0.00     0.051 A 
ATOM      6  C   UNL     1      24.364  35.360   6.705  1.00  0.00     0.157 A 
ENDROOT
BRANCH   1   7
ATOM      7  C   UNL     1      21.675  35.083   3.359  1.00  0.00     0.010 C 
ATOM      8  C   UNL     1      22.056  34.694   2.133  1.00  0.00     0.025 C 
BRANCH   8   9
ATOM      9  C   UNL     1      21.102  34.564   1.020  1.00  0.00     0.064 C 
ATOM     10  O   UNL     1      20.375  33.541   0.898  1.00  0.00    -0.545 OA
ATOM     11  O   UNL     1      20.998  35.587   0.086  1.00  0.00    -0.545 OA
ENDBRANCH   8   9
ENDBRANCH   1   7
BRANCH   4  12
ATOM     12  O   UNL     1      24.720  32.973   6.583  1.00  0.00    -0.504 OA
ATOM     13  H   UNL     1      24.975  32.210   5.968  1.00  0.00     0.293 HD
ENDBRANCH   4  12
BRANCH   6  14
ATOM     14  O   UNL     1      25.241  35.427   7.787  1.00  0.00    -0.504 OA
ATOM     15  H   UNL     1      25.974  34.739   7.917  1.00  0.00     0.293 HD
ENDBRANCH   6  14
TORSDOF 4
ENDMDL
MODEL 7
REMARK VINA RESULT:    -5.802      1.909      5.753
REMARK INTER + INTRA:          -6.947
REMARK INTER:                  -6.808
REMARK INTRA:                  -0.139
REMARK UNBOUND:                -0.128
REMARK SMILES O=C([O-])C=Cc1ccc(O)c(O)c1
REMARK SMILES IDX 6 1 13 2 7 3 11 4 8 5 9 6 5 7 4 8 2 9 1 10 3 11 12 12 10 14
REMARK H PARENT 12 13 10 15
REMARK Flexibility Score: inf
ROOT
ATOM      1  C   UNL     1      16.255  26.387   1.074  1.00  0.00    -0.022 A 
ATOM      2  C   UNL     1      17.343  27.118   1.580  1.00  0.00     0.058 A 
ATOM      3  C   UNL     1      15.167  27.086   0.516  1.00  0.00     0.012 A 
ATOM      4  C   UNL     1      17.361  28.518   1.508  1.00  0.00     0.157 A 
ATOM      5  C   UNL     1      15.184  28.481   0.446  1.00  0.00     0.051 A 
ATOM      6  C   UNL     1      16.279  29.201   0.938  1.00  0.00     0.157 A 
ENDROOT
BRANCH   1   7
ATOM      7  C   UNL     1      16.282  24.906   1.184  1.00  0.00     0.010 C 
ATOM      8  C   UNL     1      15.484  24.093   0.477  1.00  0.00     0.025 C 
BRANCH   8   9
ATOM      9  C   UNL     1      15.547  22.627   0.604  1.00  0.00     0.064 C 
ATOM     10  O   UNL     1      16.639  22.037   0.822  1.00  0.00    -0.545 OA
ATOM     11  O   UNL     1      14.382  21.881   0.483  1.00  0.00    -0.545 OA
ENDBRANCH   8   9
ENDBRANCH   1   7
BRANCH   4  12
ATOM     12  O   UNL     1      18.448  29.237   2.003  1.00  0.00    -0.504 OA
ATOM     13  H   UNL     1      18.323  30.109   2.504  1.00  0.00     0.293 HD
ENDBRANCH   4  12
BRANCH   6  14
ATOM     14  O   UNL     1      16.301  30.593   0.867  1.00  0.00    -0.504 OA
ATOM     15  H   UNL     1      16.898  31.080   0.209  1.00  0.00     0.293 HD
ENDBRANCH   6  14
TORSDOF 4
ENDMDL
MODEL 8
REMARK VINA RESULT:    -5.736      1.350      2.234
REMARK INTER + INTRA:          -6.869
REMARK INTER:                  -6.732
REMARK INTRA:                  -0.137
REMARK UNBOUND:                -0.128
REMARK SMILES O=C([O-])C=Cc1ccc(O)c(O)c1
REMARK SMILES IDX 6 1 13 2 7 3 11 4 8 5 9 6 5 7 4 8 2 9 1 10 3 11 12 12 10 14
REMARK H PARENT 12 13 10 15
REMARK Flexibility Score: inf
ROOT
ATOM      1  C   UNL     1      15.969  26.325   0.730  1.00  0.00    -0.022 A 
ATOM      2  C   UNL     1      15.948  25.052   1.326  1.00  0.00     0.058 A 
ATOM      3  C   UNL     1      15.226  26.537  -0.448  1.00  0.00     0.012 A 
ATOM      4  C   UNL     1      15.180  24.016   0.775  1.00  0.00     0.157 A 
ATOM      5  C   UNL     1      14.462  25.504  -0.997  1.00  0.00     0.051 A 
ATOM      6  C   UNL     1      14.435  24.243  -0.388  1.00  0.00     0.157 A 
ENDROOT
BRANCH   1   7
ATOM      7  C   UNL     1      16.806  27.384   1.348  1.00  0.00     0.010 C 
ATOM      8  C   UNL     1      17.213  28.485   0.699  1.00  0.00     0.025 C 
BRANCH   8   9
ATOM      9  C   UNL     1      18.033  29.521   1.348  1.00  0.00     0.064 C 
ATOM     10  O   UNL     1      19.202  29.272   1.750  1.00  0.00    -0.545 OA
ATOM     11  O   UNL     1      17.512  30.796   1.520  1.00  0.00    -0.545 OA
ENDBRANCH   8   9
ENDBRANCH   1   7
BRANCH   4  12
ATOM     12  O   UNL     1      15.156  22.759   1.376  1.00  0.00    -0.504 OA
ATOM     13  H   UNL     1      15.087  21.910   0.827  1.00  0.00     0.293 HD
ENDBRANCH   4  12
BRANCH   6  14
ATOM     14  O   UNL     1      13.672  23.212  -0.933  1.00  0.00    -0.504 OA
ATOM     15  H   UNL     1      13.730  22.972  -1.916  1.00  0.00     0.293 HD
ENDBRANCH   6  14
TORSDOF 4
ENDMDL
MODEL 9
REMARK VINA RESULT:    -5.719      1.651      5.948
REMARK INTER + INTRA:          -6.850
REMARK INTER:                  -6.723
REMARK INTRA:                  -0.127
REMARK UNBOUND:                -0.128
REMARK SMILES O=C([O-])C=Cc1ccc(O)c(O)c1
REMARK SMILES IDX 6 1 13 2 7 3 11 4 8 5 9 6 5 7 4 8 2 9 1 10 3 11 12 12 10 14
REMARK H PARENT 12 13 10 15
REMARK Flexibility Score: inf
ROOT
ATOM      1  C   UNL     1      17.686  25.914   0.513  1.00  0.00    -0.022 A 
ATOM      2  C   UNL     1      17.477  27.162   1.125  1.00  0.00     0.058 A 
ATOM      3  C   UNL     1      18.768  25.766  -0.377  1.00  0.00     0.012 A 
ATOM      4  C   UNL     1      18.343  28.235   0.876  1.00  0.00     0.157 A 
ATOM      5  C   UNL     1      19.630  26.837  -0.626  1.00  0.00     0.051 A 
ATOM      6  C   UNL     1      19.423  28.072  -0.000  1.00  0.00     0.157 A 
ENDROOT
BRANCH   1   7
ATOM      7  C   UNL     1      16.734  24.812   0.803  1.00  0.00     0.010 C 
ATOM      8  C   UNL     1      15.700  24.495   0.011  1.00  0.00     0.025 C 
BRANCH   8   9
ATOM      9  C   UNL     1      14.782  23.387   0.325  1.00  0.00     0.064 C 
ATOM     10  O   UNL     1      14.018  22.903  -0.553  1.00  0.00    -0.545 OA
ATOM     11  O   UNL     1      14.757  22.864   1.611  1.00  0.00    -0.545 OA
ENDBRANCH   8   9
ENDBRANCH   1   7
BRANCH   4  12
ATOM     12  O   UNL     1      18.135  29.468   1.493  1.00  0.00    -0.504 OA
ATOM     13  H   UNL     1      18.909  30.065   1.759  1.00  0.00     0.293 HD
ENDBRANCH   4  12
BRANCH   6  14
ATOM     14  O   UNL     1      20.283  29.142  -0.244  1.00  0.00    -0.504 OA
ATOM     15  H   UNL     1      20.122  29.787  -1.009  1.00  0.00     0.293 HD
ENDBRANCH   6  14
TORSDOF 4
ENDMDL
