MODEL 1
REMARK VINA RESULT:    -6.227      0.000      0.000
REMARK INTER + INTRA:         -14.525
REMARK INTER:                 -12.052
REMARK INTRA:                  -2.473
REMARK UNBOUND:                -2.473
REMARK SMILES CCCCCCCCCCCCCCCCCC(=O)[O-]
REMARK SMILES IDX 10 1 11 2 12 3 13 4 14 5 15 6 16 7 17 8 18 9 19 10 20 11
REMARK SMILES IDX 9 12 8 13 7 14 6 15 5 16 4 17 3 18 2 19 1 20
REMARK H PARENT
REMARK Flexibility Score: inf
ROOT
ATOM      1  C   UNL     1       9.480  71.303  -4.473  1.00  0.00     0.000 C 
ENDROOT
BRANCH   1   2
ATOM      2  C   UNL     1       9.716  71.967  -5.839  1.00  0.00     0.000 C 
BRANCH   2   3
ATOM      3  C   UNL     1       8.617  72.979  -6.202  1.00  0.00     0.000 C 
BRANCH   3   4
ATOM      4  C   UNL     1       9.134  74.429  -6.217  1.00  0.00     0.000 C 
BRANCH   4   5
ATOM      5  C   UNL     1       8.479  75.305  -5.136  1.00  0.00     0.000 C 
BRANCH   5   6
ATOM      6  C   UNL     1       7.836  74.479  -4.009  1.00  0.00     0.000 C 
BRANCH   6   7
ATOM      7  C   UNL     1       6.755  75.264  -3.245  1.00  0.00     0.006 C 
BRANCH   7   8
ATOM      8  C   UNL     1       7.002  75.288  -1.731  1.00  0.00     0.053 C 
BRANCH   8   9
ATOM      9  C   UNL     1       5.782  74.817  -1.000  1.00  0.00     0.041 C 
ATOM     10  O   UNL     1       4.792  74.374  -1.640  1.00  0.00    -0.550 OA
ATOM     11  O   UNL     1       5.719  74.918   0.384  1.00  0.00    -0.550 OA
ENDBRANCH   8   9
ENDBRANCH   7   8
ENDBRANCH   6   7
ENDBRANCH   5   6
ENDBRANCH   4   5
ENDBRANCH   3   4
ENDBRANCH   2   3
ENDBRANCH   1   2
BRANCH   1  12
ATOM     12  C   UNL     1      10.572  71.706  -3.472  1.00  0.00     0.000 C 
BRANCH  12  13
ATOM     13  C   UNL     1      10.005  72.385  -2.213  1.00  0.00    -0.000 C 
BRANCH  13  14
ATOM     14  C   UNL     1      11.108  72.882  -1.260  1.00  0.00    -0.000 C 
BRANCH  14  15
ATOM     15  C   UNL     1      12.382  72.023  -1.338  1.00  0.00    -0.000 C 
BRANCH  15  16
ATOM     16  C   UNL     1      13.666  72.869  -1.281  1.00  0.00    -0.000 C 
BRANCH  16  17
ATOM     17  C   UNL     1      13.701  73.960  -2.363  1.00  0.00    -0.000 C 
BRANCH  17  18
ATOM     18  C   UNL     1      13.878  73.386  -3.781  1.00  0.00    -0.000 C 
BRANCH  18  19
ATOM     19  C   UNL     1      12.873  73.976  -4.784  1.00  0.00    -0.003 C 
ATOM     20  C   UNL     1      12.087  75.154  -4.210  1.00  0.00     0.004 C 
ENDBRANCH  18  19
ENDBRANCH  17  18
ENDBRANCH  16  17
ENDBRANCH  15  16
ENDBRANCH  14  15
ENDBRANCH  13  14
ENDBRANCH  12  13
ENDBRANCH   1  12
TORSDOF 16
ENDMDL
MODEL 2
REMARK VINA RESULT:    -6.141      0.875      1.549
REMARK INTER + INTRA:         -14.358
REMARK INTER:                 -11.732
REMARK INTRA:                  -2.626
REMARK UNBOUND:                -2.473
REMARK SMILES CCCCCCCCCCCCCCCCCC(=O)[O-]
REMARK SMILES IDX 10 1 11 2 12 3 13 4 14 5 15 6 16 7 17 8 18 9 19 10 20 11
REMARK SMILES IDX 9 12 8 13 7 14 6 15 5 16 4 17 3 18 2 19 1 20
REMARK H PARENT
REMARK Flexibility Score: inf
ROOT
ATOM      1  C   UNL     1       9.619  71.992  -5.949  1.00  0.00     0.000 C 
ENDROOT
BRANCH   1   2
ATOM      2  C   UNL     1       8.495  72.997  -6.247  1.00  0.00     0.000 C 
BRANCH   2   3
ATOM      3  C   UNL     1       8.940  74.456  -6.057  1.00  0.00     0.000 C 
BRANCH   3   4
ATOM      4  C   UNL     1       8.442  75.055  -4.729  1.00  0.00     0.000 C 
BRANCH   4   5
ATOM      5  C   UNL     1       9.589  75.411  -3.769  1.00  0.00     0.000 C 
BRANCH   5   6
ATOM      6  C   UNL     1       9.281  75.038  -2.308  1.00  0.00     0.000 C 
BRANCH   6   7
ATOM      7  C   UNL     1       7.818  74.610  -2.106  1.00  0.00     0.006 C 
BRANCH   7   8
ATOM      8  C   UNL     1       7.065  75.524  -1.129  1.00  0.00     0.053 C 
BRANCH   8   9
ATOM      9  C   UNL     1       5.753  74.908  -0.751  1.00  0.00     0.041 C 
ATOM     10  O   UNL     1       5.404  74.853   0.458  1.00  0.00    -0.550 OA
ATOM     11  O   UNL     1       4.941  74.346  -1.729  1.00  0.00    -0.550 OA
ENDBRANCH   8   9
ENDBRANCH   7   8
ENDBRANCH   6   7
ENDBRANCH   5   6
ENDBRANCH   4   5
ENDBRANCH   3   4
ENDBRANCH   2   3
ENDBRANCH   1   2
BRANCH   1  12
ATOM     12  C   UNL     1       9.484  71.426  -4.528  1.00  0.00     0.000 C 
BRANCH  12  13
ATOM     13  C   UNL     1      10.760  71.609  -3.689  1.00  0.00    -0.000 C 
BRANCH  13  14
ATOM     14  C   UNL     1      10.465  71.765  -2.186  1.00  0.00    -0.000 C 
BRANCH  14  15
ATOM     15  C   UNL     1      11.749  71.816  -1.339  1.00  0.00    -0.000 C 
BRANCH  15  16
ATOM     16  C   UNL     1      12.396  73.212  -1.335  1.00  0.00    -0.000 C 
BRANCH  16  17
ATOM     17  C   UNL     1      13.829  73.197  -1.892  1.00  0.00    -0.000 C 
BRANCH  17  18
ATOM     18  C   UNL     1      13.869  73.208  -3.431  1.00  0.00    -0.000 C 
BRANCH  18  19
ATOM     19  C   UNL     1      13.203  74.459  -4.028  1.00  0.00    -0.003 C 
ATOM     20  C   UNL     1      12.665  74.225  -5.439  1.00  0.00     0.004 C 
ENDBRANCH  18  19
ENDBRANCH  17  18
ENDBRANCH  16  17
ENDBRANCH  15  16
ENDBRANCH  14  15
ENDBRANCH  13  14
ENDBRANCH  12  13
ENDBRANCH   1  12
TORSDOF 16
ENDMDL
MODEL 3
REMARK VINA RESULT:    -6.066      1.251      1.516
REMARK INTER + INTRA:         -14.212
REMARK INTER:                 -11.637
REMARK INTRA:                  -2.576
REMARK UNBOUND:                -2.473
REMARK SMILES CCCCCCCCCCCCCCCCCC(=O)[O-]
REMARK SMILES IDX 10 1 11 2 12 3 13 4 14 5 15 6 16 7 17 8 18 9 19 10 20 11
REMARK SMILES IDX 9 12 8 13 7 14 6 15 5 16 4 17 3 18 2 19 1 20
REMARK H PARENT
REMARK Flexibility Score: inf
ROOT
ATOM      1  C   UNL     1       9.447  71.372  -4.474  1.00  0.00     0.000 C 
ENDROOT
BRANCH   1   2
ATOM      2  C   UNL     1       9.500  71.905  -5.915  1.00  0.00     0.000 C 
BRANCH   2   3
ATOM      3  C   UNL     1       8.453  72.999  -6.180  1.00  0.00     0.000 C 
BRANCH   3   4
ATOM      4  C   UNL     1       9.069  74.409  -6.207  1.00  0.00     0.000 C 
BRANCH   4   5
ATOM      5  C   UNL     1       8.723  75.235  -4.957  1.00  0.00     0.000 C 
BRANCH   5   6
ATOM      6  C   UNL     1       7.691  74.540  -4.052  1.00  0.00     0.000 C 
BRANCH   6   7
ATOM      7  C   UNL     1       8.200  74.358  -2.612  1.00  0.00     0.006 C 
BRANCH   7   8
ATOM      8  C   UNL     1       8.826  75.637  -2.040  1.00  0.00     0.053 C 
BRANCH   8   9
ATOM      9  C   UNL     1       8.202  75.975  -0.721  1.00  0.00     0.041 C 
ATOM     10  O   UNL     1       7.037  75.579  -0.452  1.00  0.00    -0.550 OA
ATOM     11  O   UNL     1       8.886  76.774   0.187  1.00  0.00    -0.550 OA
ENDBRANCH   8   9
ENDBRANCH   7   8
ENDBRANCH   6   7
ENDBRANCH   5   6
ENDBRANCH   4   5
ENDBRANCH   3   4
ENDBRANCH   2   3
ENDBRANCH   1   2
BRANCH   1  12
ATOM     12  C   UNL     1      10.714  71.762  -3.699  1.00  0.00     0.000 C 
BRANCH  12  13
ATOM     13  C   UNL     1      10.582  71.531  -2.185  1.00  0.00    -0.000 C 
BRANCH  13  14
ATOM     14  C   UNL     1      11.359  72.571  -1.356  1.00  0.00    -0.000 C 
BRANCH  14  15
ATOM     15  C   UNL     1      12.857  72.237  -1.253  1.00  0.00    -0.000 C 
BRANCH  15  16
ATOM     16  C   UNL     1      13.753  73.396  -1.724  1.00  0.00    -0.000 C 
BRANCH  16  17
ATOM     17  C   UNL     1      14.130  73.281  -3.210  1.00  0.00    -0.000 C 
BRANCH  17  18
ATOM     18  C   UNL     1      13.992  74.615  -3.964  1.00  0.00    -0.000 C 
BRANCH  18  19
ATOM     19  C   UNL     1      12.613  74.778  -4.625  1.00  0.00    -0.003 C 
ATOM     20  C   UNL     1      12.501  74.022  -5.949  1.00  0.00     0.004 C 
ENDBRANCH  18  19
ENDBRANCH  17  18
ENDBRANCH  16  17
ENDBRANCH  15  16
ENDBRANCH  14  15
ENDBRANCH  13  14
ENDBRANCH  12  13
ENDBRANCH   1  12
TORSDOF 16
ENDMDL
MODEL 4
REMARK VINA RESULT:    -6.064      2.625      5.698
REMARK INTER + INTRA:         -14.209
REMARK INTER:                 -11.878
REMARK INTRA:                  -2.331
REMARK UNBOUND:                -2.473
REMARK SMILES CCCCCCCCCCCCCCCCCC(=O)[O-]
REMARK SMILES IDX 10 1 11 2 12 3 13 4 14 5 15 6 16 7 17 8 18 9 19 10 20 11
REMARK SMILES IDX 9 12 8 13 7 14 6 15 5 16 4 17 3 18 2 19 1 20
REMARK H PARENT
REMARK Flexibility Score: inf
ROOT
ATOM      1  C   UNL     1       9.189  73.171  -6.105  1.00  0.00     0.000 C 
ENDROOT
BRANCH   1   2
ATOM      2  C   UNL     1      10.109  74.396  -5.987  1.00  0.00     0.000 C 
BRANCH   2   3
ATOM      3  C   UNL     1      11.592  74.043  -6.189  1.00  0.00     0.000 C 
BRANCH   3   4
ATOM      4  C   UNL     1      12.458  74.425  -4.976  1.00  0.00     0.000 C 
BRANCH   4   5
ATOM      5  C   UNL     1      13.010  73.198  -4.229  1.00  0.00     0.000 C 
BRANCH   5   6
ATOM      6  C   UNL     1      14.336  73.487  -3.506  1.00  0.00     0.000 C 
BRANCH   6   7
ATOM      7  C   UNL     1      14.402  72.836  -2.114  1.00  0.00     0.006 C 
BRANCH   7   8
ATOM      8  C   UNL     1      13.188  73.183  -1.241  1.00  0.00     0.053 C 
BRANCH   8   9
ATOM      9  C   UNL     1      13.287  74.595  -0.753  1.00  0.00     0.041 C 
ATOM     10  O   UNL     1      14.028  74.876   0.226  1.00  0.00    -0.550 OA
ATOM     11  O   UNL     1      12.518  75.590  -1.344  1.00  0.00    -0.550 OA
ENDBRANCH   8   9
ENDBRANCH   7   8
ENDBRANCH   6   7
ENDBRANCH   5   6
ENDBRANCH   4   5
ENDBRANCH   3   4
ENDBRANCH   2   3
ENDBRANCH   1   2
BRANCH   1  12
ATOM     12  C   UNL     1       9.953  71.879  -5.778  1.00  0.00     0.000 C 
BRANCH  12  13
ATOM     13  C   UNL     1       9.417  71.172  -4.522  1.00  0.00    -0.000 C 
BRANCH  13  14
ATOM     14  C   UNL     1      10.254  71.478  -3.266  1.00  0.00    -0.000 C 
BRANCH  14  15
ATOM     15  C   UNL     1       9.420  72.129  -2.149  1.00  0.00    -0.000 C 
BRANCH  15  16
ATOM     16  C   UNL     1       9.583  73.659  -2.110  1.00  0.00    -0.000 C 
BRANCH  16  17
ATOM     17  C   UNL     1       8.343  74.396  -2.642  1.00  0.00    -0.000 C 
BRANCH  17  18
ATOM     18  C   UNL     1       7.106  74.202  -1.747  1.00  0.00    -0.000 C 
BRANCH  18  19
ATOM     19  C   UNL     1       6.759  75.464  -0.939  1.00  0.00    -0.003 C 
ATOM     20  C   UNL     1       5.518  75.284  -0.067  1.00  0.00     0.004 C 
ENDBRANCH  18  19
ENDBRANCH  17  18
ENDBRANCH  16  17
ENDBRANCH  15  16
ENDBRANCH  14  15
ENDBRANCH  13  14
ENDBRANCH  12  13
ENDBRANCH   1  12
TORSDOF 16
ENDMDL
MODEL 5
REMARK VINA RESULT:    -6.015      1.094      3.132
REMARK INTER + INTRA:         -14.115
REMARK INTER:                 -11.537
REMARK INTRA:                  -2.578
REMARK UNBOUND:                -2.473
REMARK SMILES CCCCCCCCCCCCCCCCCC(=O)[O-]
REMARK SMILES IDX 10 1 11 2 12 3 13 4 14 5 15 6 16 7 17 8 18 9 19 10 20 11
REMARK SMILES IDX 9 12 8 13 7 14 6 15 5 16 4 17 3 18 2 19 1 20
REMARK H PARENT
REMARK Flexibility Score: inf
ROOT
ATOM      1  C   UNL     1      10.950  71.672  -3.177  1.00  0.00     0.000 C 
ENDROOT
BRANCH   1   2
ATOM      2  C   UNL     1      10.883  72.272  -1.763  1.00  0.00     0.000 C 
BRANCH   2   3
ATOM      3  C   UNL     1       9.944  73.486  -1.681  1.00  0.00     0.000 C 
BRANCH   3   4
ATOM      4  C   UNL     1      10.453  74.681  -2.507  1.00  0.00     0.000 C 
BRANCH   4   5
ATOM      5  C   UNL     1       9.337  75.678  -2.862  1.00  0.00     0.000 C 
BRANCH   5   6
ATOM      6  C   UNL     1       8.225  75.046  -3.718  1.00  0.00     0.000 C 
BRANCH   6   7
ATOM      7  C   UNL     1       6.844  75.135  -3.047  1.00  0.00     0.006 C 
BRANCH   7   8
ATOM      8  C   UNL     1       6.924  75.057  -1.517  1.00  0.00     0.053 C 
BRANCH   8   9
ATOM      9  C   UNL     1       5.551  74.933  -0.932  1.00  0.00     0.041 C 
ATOM     10  O   UNL     1       5.279  75.483   0.168  1.00  0.00    -0.550 OA
ATOM     11  O   UNL     1       4.589  74.164  -1.575  1.00  0.00    -0.550 OA
ENDBRANCH   8   9
ENDBRANCH   7   8
ENDBRANCH   6   7
ENDBRANCH   5   6
ENDBRANCH   4   5
ENDBRANCH   3   4
ENDBRANCH   2   3
ENDBRANCH   1   2
BRANCH   1  12
ATOM     12  C   UNL     1       9.545  71.327  -3.692  1.00  0.00     0.000 C 
BRANCH  12  13
ATOM     13  C   UNL     1       9.304  71.803  -5.134  1.00  0.00    -0.000 C 
BRANCH  13  14
ATOM     14  C   UNL     1      10.598  72.270  -5.828  1.00  0.00    -0.000 C 
BRANCH  14  15
ATOM     15  C   UNL     1      10.615  73.789  -6.073  1.00  0.00    -0.000 C 
BRANCH  15  16
ATOM     16  C   UNL     1      12.024  74.392  -5.927  1.00  0.00    -0.000 C 
BRANCH  16  17
ATOM     17  C   UNL     1      12.996  73.446  -5.203  1.00  0.00    -0.000 C 
BRANCH  17  18
ATOM     18  C   UNL     1      13.667  74.103  -3.984  1.00  0.00    -0.000 C 
BRANCH  18  19
ATOM     19  C   UNL     1      14.706  73.184  -3.318  1.00  0.00    -0.003 C 
ATOM     20  C   UNL     1      14.390  72.903  -1.849  1.00  0.00     0.004 C 
ENDBRANCH  18  19
ENDBRANCH  17  18
ENDBRANCH  16  17
ENDBRANCH  15  16
ENDBRANCH  14  15
ENDBRANCH  13  14
ENDBRANCH  12  13
ENDBRANCH   1  12
TORSDOF 16
ENDMDL
MODEL 6
REMARK VINA RESULT:    -5.959      1.528      3.280
REMARK INTER + INTRA:         -14.006
REMARK INTER:                 -11.357
REMARK INTRA:                  -2.648
REMARK UNBOUND:                -2.473
REMARK SMILES CCCCCCCCCCCCCCCCCC(=O)[O-]
REMARK SMILES IDX 10 1 11 2 12 3 13 4 14 5 15 6 16 7 17 8 18 9 19 10 20 11
REMARK SMILES IDX 9 12 8 13 7 14 6 15 5 16 4 17 3 18 2 19 1 20
REMARK H PARENT
REMARK Flexibility Score: inf
ROOT
ATOM      1  C   UNL     1      10.201  71.731  -3.280  1.00  0.00     0.000 C 
ENDROOT
BRANCH   1   2
ATOM      2  C   UNL     1       9.301  72.677  -2.469  1.00  0.00     0.000 C 
BRANCH   2   3
ATOM      3  C   UNL     1       9.924  74.071  -2.285  1.00  0.00     0.000 C 
BRANCH   3   4
ATOM      4  C   UNL     1       9.053  75.188  -2.888  1.00  0.00     0.000 C 
BRANCH   4   5
ATOM      5  C   UNL     1       7.734  74.661  -3.478  1.00  0.00     0.000 C 
BRANCH   5   6
ATOM      6  C   UNL     1       6.500  75.125  -2.684  1.00  0.00     0.000 C 
BRANCH   6   7
ATOM      7  C   UNL     1       6.473  74.562  -1.254  1.00  0.00     0.006 C 
BRANCH   7   8
ATOM      8  C   UNL     1       5.870  75.546  -0.242  1.00  0.00     0.053 C 
BRANCH   8   9
ATOM      9  C   UNL     1       6.875  76.594   0.123  1.00  0.00     0.041 C 
ATOM     10  O   UNL     1       6.501  77.770   0.373  1.00  0.00    -0.550 OA
ATOM     11  O   UNL     1       8.230  76.285   0.131  1.00  0.00    -0.550 OA
ENDBRANCH   8   9
ENDBRANCH   7   8
ENDBRANCH   6   7
ENDBRANCH   5   6
ENDBRANCH   4   5
ENDBRANCH   3   4
ENDBRANCH   2   3
ENDBRANCH   1   2
BRANCH   1  12
ATOM     12  C   UNL     1       9.500  71.282  -4.571  1.00  0.00     0.000 C 
BRANCH  12  13
ATOM     13  C   UNL     1      10.130  71.891  -5.834  1.00  0.00    -0.000 C 
BRANCH  13  14
ATOM     14  C   UNL     1       9.497  73.241  -6.221  1.00  0.00    -0.000 C 
BRANCH  14  15
ATOM     15  C   UNL     1      10.527  74.384  -6.250  1.00  0.00    -0.000 C 
BRANCH  15  16
ATOM     16  C   UNL     1      11.897  73.956  -5.696  1.00  0.00    -0.000 C 
BRANCH  16  17
ATOM     17  C   UNL     1      12.453  74.954  -4.667  1.00  0.00    -0.000 C 
BRANCH  17  18
ATOM     18  C   UNL     1      13.905  74.643  -4.261  1.00  0.00    -0.000 C 
BRANCH  18  19
ATOM     19  C   UNL     1      14.054  73.251  -3.625  1.00  0.00    -0.003 C 
ATOM     20  C   UNL     1      13.471  73.182  -2.214  1.00  0.00     0.004 C 
ENDBRANCH  18  19
ENDBRANCH  17  18
ENDBRANCH  16  17
ENDBRANCH  15  16
ENDBRANCH  14  15
ENDBRANCH  13  14
ENDBRANCH  12  13
ENDBRANCH   1  12
TORSDOF 16
ENDMDL
MODEL 7
REMARK VINA RESULT:    -5.949      2.882      5.810
REMARK INTER + INTRA:         -13.987
REMARK INTER:                 -11.347
REMARK INTRA:                  -2.640
REMARK UNBOUND:                -2.473
REMARK SMILES CCCCCCCCCCCCCCCCCC(=O)[O-]
REMARK SMILES IDX 10 1 11 2 12 3 13 4 14 5 15 6 16 7 17 8 18 9 19 10 20 11
REMARK SMILES IDX 9 12 8 13 7 14 6 15 5 16 4 17 3 18 2 19 1 20
REMARK H PARENT
REMARK Flexibility Score: inf
ROOT
ATOM      1  C   UNL     1       9.464  71.157  -4.368  1.00  0.00     0.000 C 
ENDROOT
BRANCH   1   2
ATOM      2  C   UNL     1      10.177  71.759  -5.590  1.00  0.00     0.000 C 
BRANCH   2   3
ATOM      3  C   UNL     1       9.532  73.073  -6.062  1.00  0.00     0.000 C 
BRANCH   3   4
ATOM      4  C   UNL     1      10.513  74.259  -6.017  1.00  0.00     0.000 C 
BRANCH   4   5
ATOM      5  C   UNL     1      11.951  73.829  -5.683  1.00  0.00     0.000 C 
BRANCH   5   6
ATOM      6  C   UNL     1      12.841  75.008  -5.252  1.00  0.00     0.000 C 
BRANCH   6   7
ATOM      7  C   UNL     1      13.767  74.649  -4.077  1.00  0.00     0.006 C 
BRANCH   7   8
ATOM      8  C   UNL     1      13.359  73.343  -3.381  1.00  0.00     0.053 C 
BRANCH   8   9
ATOM      9  C   UNL     1      13.698  73.405  -1.924  1.00  0.00     0.041 C 
ATOM     10  O   UNL     1      14.325  72.459  -1.379  1.00  0.00    -0.550 OA
ATOM     11  O   UNL     1      13.273  74.483  -1.157  1.00  0.00    -0.550 OA
ENDBRANCH   8   9
ENDBRANCH   7   8
ENDBRANCH   6   7
ENDBRANCH   5   6
ENDBRANCH   4   5
ENDBRANCH   3   4
ENDBRANCH   2   3
ENDBRANCH   1   2
BRANCH   1  12
ATOM     12  C   UNL     1      10.142  71.605  -3.065  1.00  0.00     0.000 C 
BRANCH  12  13
ATOM     13  C   UNL     1       9.324  72.658  -2.299  1.00  0.00    -0.000 C 
BRANCH  13  14
ATOM     14  C   UNL     1       9.974  74.054  -2.331  1.00  0.00    -0.000 C 
BRANCH  14  15
ATOM     15  C   UNL     1       8.945  75.175  -2.556  1.00  0.00    -0.000 C 
BRANCH  15  16
ATOM     16  C   UNL     1       7.754  74.716  -3.416  1.00  0.00    -0.000 C 
BRANCH  16  17
ATOM     17  C   UNL     1       6.400  75.019  -2.755  1.00  0.00    -0.000 C 
BRANCH  17  18
ATOM     18  C   UNL     1       6.279  74.416  -1.343  1.00  0.00    -0.000 C 
BRANCH  18  19
ATOM     19  C   UNL     1       5.676  75.404  -0.331  1.00  0.00    -0.003 C 
ATOM     20  C   UNL     1       6.669  76.479   0.108  1.00  0.00     0.004 C 
ENDBRANCH  18  19
ENDBRANCH  17  18
ENDBRANCH  16  17
ENDBRANCH  15  16
ENDBRANCH  14  15
ENDBRANCH  13  14
ENDBRANCH  12  13
ENDBRANCH   1  12
TORSDOF 16
ENDMDL
MODEL 8
REMARK VINA RESULT:    -5.944      1.436      2.783
REMARK INTER + INTRA:         -13.977
REMARK INTER:                 -11.123
REMARK INTRA:                  -2.854
REMARK UNBOUND:                -2.473
REMARK SMILES CCCCCCCCCCCCCCCCCC(=O)[O-]
REMARK SMILES IDX 10 1 11 2 12 3 13 4 14 5 15 6 16 7 17 8 18 9 19 10 20 11
REMARK SMILES IDX 9 12 8 13 7 14 6 15 5 16 4 17 3 18 2 19 1 20
REMARK H PARENT
REMARK Flexibility Score: inf
ROOT
ATOM      1  C   UNL     1      10.037  72.180  -2.104  1.00  0.00     0.000 C 
ENDROOT
BRANCH   1   2
ATOM      2  C   UNL     1      10.588  71.782  -3.482  1.00  0.00     0.000 C 
BRANCH   2   3
ATOM      3  C   UNL     1       9.496  71.248  -4.424  1.00  0.00     0.000 C 
BRANCH   3   4
ATOM      4  C   UNL     1       9.634  71.795  -5.856  1.00  0.00     0.000 C 
BRANCH   4   5
ATOM      5  C   UNL     1      10.110  73.257  -5.891  1.00  0.00     0.000 C 
BRANCH   5   6
ATOM      6  C   UNL     1       8.991  74.238  -6.282  1.00  0.00     0.000 C 
BRANCH   6   7
ATOM      7  C   UNL     1       8.643  75.218  -5.150  1.00  0.00     0.006 C 
BRANCH   7   8
ATOM      8  C   UNL     1       7.837  74.558  -4.023  1.00  0.00     0.053 C 
BRANCH   8   9
ATOM      9  C   UNL     1       7.479  75.570  -2.980  1.00  0.00     0.041 C 
ATOM     10  O   UNL     1       7.002  75.200  -1.875  1.00  0.00    -0.550 OA
ATOM     11  O   UNL     1       7.621  76.926  -3.250  1.00  0.00    -0.550 OA
ENDBRANCH   8   9
ENDBRANCH   7   8
ENDBRANCH   6   7
ENDBRANCH   5   6
ENDBRANCH   4   5
ENDBRANCH   3   4
ENDBRANCH   2   3
ENDBRANCH   1   2
BRANCH   1  12
ATOM     12  C   UNL     1      11.088  72.957  -1.298  1.00  0.00     0.000 C 
BRANCH  12  13
ATOM     13  C   UNL     1      12.472  72.286  -1.320  1.00  0.00    -0.000 C 
BRANCH  13  14
ATOM     14  C   UNL     1      13.621  73.300  -1.466  1.00  0.00    -0.000 C 
BRANCH  14  15
ATOM     15  C   UNL     1      14.457  73.060  -2.736  1.00  0.00    -0.000 C 
BRANCH  15  16
ATOM     16  C   UNL     1      13.699  73.442  -4.020  1.00  0.00    -0.000 C 
BRANCH  16  17
ATOM     17  C   UNL     1      13.608  74.963  -4.220  1.00  0.00    -0.000 C 
BRANCH  17  18
ATOM     18  C   UNL     1      12.189  75.511  -3.984  1.00  0.00    -0.000 C 
BRANCH  18  19
ATOM     19  C   UNL     1      12.154  76.616  -2.916  1.00  0.00    -0.003 C 
ATOM     20  C   UNL     1      10.908  76.546  -2.034  1.00  0.00     0.004 C 
ENDBRANCH  18  19
ENDBRANCH  17  18
ENDBRANCH  16  17
ENDBRANCH  15  16
ENDBRANCH  14  15
ENDBRANCH  13  14
ENDBRANCH  12  13
ENDBRANCH   1  12
TORSDOF 16
ENDMDL
MODEL 9
REMARK VINA RESULT:    -5.926      1.281      3.103
REMARK INTER + INTRA:         -13.941
REMARK INTER:                 -10.914
REMARK INTRA:                  -3.027
REMARK UNBOUND:                -2.473
REMARK SMILES CCCCCCCCCCCCCCCCCC(=O)[O-]
REMARK SMILES IDX 10 1 11 2 12 3 13 4 14 5 15 6 16 7 17 8 18 9 19 10 20 11
REMARK SMILES IDX 9 12 8 13 7 14 6 15 5 16 4 17 3 18 2 19 1 20
REMARK H PARENT
REMARK Flexibility Score: inf
ROOT
ATOM      1  C   UNL     1      11.135  72.350  -1.576  1.00  0.00     0.000 C 
ENDROOT
BRANCH   1   2
ATOM      2  C   UNL     1      10.397  73.676  -1.333  1.00  0.00     0.000 C 
BRANCH   2   3
ATOM      3  C   UNL     1      11.278  74.904  -1.617  1.00  0.00     0.000 C 
BRANCH   3   4
ATOM      4  C   UNL     1      10.698  75.801  -2.725  1.00  0.00     0.000 C 
BRANCH   4   5
ATOM      5  C   UNL     1       9.205  76.108  -2.520  1.00  0.00     0.000 C 
BRANCH   5   6
ATOM      6  C   UNL     1       8.353  75.774  -3.757  1.00  0.00     0.000 C 
BRANCH   6   7
ATOM      7  C   UNL     1       6.966  75.222  -3.386  1.00  0.00     0.006 C 
BRANCH   7   8
ATOM      8  C   UNL     1       6.977  74.433  -2.070  1.00  0.00     0.053 C 
BRANCH   8   9
ATOM      9  C   UNL     1       5.847  74.874  -1.192  1.00  0.00     0.041 C 
ATOM     10  O   UNL     1       4.673  74.485  -1.428  1.00  0.00    -0.550 OA
ATOM     11  O   UNL     1       6.084  75.760  -0.147  1.00  0.00    -0.550 OA
ENDBRANCH   8   9
ENDBRANCH   7   8
ENDBRANCH   6   7
ENDBRANCH   5   6
ENDBRANCH   4   5
ENDBRANCH   3   4
ENDBRANCH   2   3
ENDBRANCH   1   2
BRANCH   1  12
ATOM     12  C   UNL     1      10.274  71.389  -2.408  1.00  0.00     0.000 C 
BRANCH  12  13
ATOM     13  C   UNL     1       9.453  72.109  -3.490  1.00  0.00    -0.000 C 
BRANCH  13  14
ATOM     14  C   UNL     1       9.414  71.333  -4.820  1.00  0.00    -0.000 C 
BRANCH  14  15
ATOM     15  C   UNL     1      10.194  72.046  -5.938  1.00  0.00    -0.000 C 
BRANCH  15  16
ATOM     16  C   UNL     1      10.564  73.493  -5.567  1.00  0.00    -0.000 C 
BRANCH  16  17
ATOM     17  C   UNL     1      12.072  73.764  -5.687  1.00  0.00    -0.000 C 
BRANCH  17  18
ATOM     18  C   UNL     1      12.877  73.185  -4.510  1.00  0.00    -0.000 C 
BRANCH  18  19
ATOM     19  C   UNL     1      14.059  74.082  -4.107  1.00  0.00    -0.003 C 
ATOM     20  C   UNL     1      13.848  75.546  -4.493  1.00  0.00     0.004 C 
ENDBRANCH  18  19
ENDBRANCH  17  18
ENDBRANCH  16  17
ENDBRANCH  15  16
ENDBRANCH  14  15
ENDBRANCH  13  14
ENDBRANCH  12  13
ENDBRANCH   1  12
TORSDOF 16
ENDMDL
