MODEL 1
REMARK VINA RESULT:    -5.575      0.000      0.000
REMARK INTER + INTRA:          -7.055
REMARK INTER:                  -6.879
REMARK INTRA:                  -0.175
REMARK UNBOUND:                -0.175
REMARK SMILES Oc1cc(O)c2cc(O)c(-c3cc(O)c(O)c(O)c3)[o+]c2c1
REMARK SMILES IDX 10 1 20 2 21 3 22 4 2 5 3 6 4 7 6 8 7 9 8 10 11 11 12 12
REMARK SMILES IDX 13 13 19 14 15 15 17 16 14 17 16 19 18 21 9 23 1 25 5 27
REMARK H PARENT 14 18 16 20 18 22 9 24 1 26 5 28
REMARK Flexibility Score: inf
ROOT
ATOM      1  C   UNL     1      -0.812  -2.999  24.326  1.00  0.00     0.402 A 
ATOM      2  O   UNL     1      -1.302  -2.314  23.296  1.00  0.00    -0.202 OA
ATOM      3  C   UNL     1      -2.435  -1.621  23.354  1.00  0.00     0.368 A 
ATOM      4  C   UNL     1      -2.868  -0.931  22.218  1.00  0.00     0.162 A 
ATOM      5  C   UNL     1      -4.051  -0.193  22.251  1.00  0.00     0.128 A 
ATOM      6  C   UNL     1      -4.809  -0.143  23.426  1.00  0.00     0.093 A 
ATOM      7  C   UNL     1      -4.397  -0.826  24.577  1.00  0.00     0.136 A 
ATOM      8  C   UNL     1      -3.196  -1.580  24.547  1.00  0.00     0.125 A 
ATOM      9  C   UNL     1      -2.712  -2.306  25.647  1.00  0.00     0.078 A 
ATOM     10  C   UNL     1      -1.520  -3.030  25.541  1.00  0.00     0.223 A 
ENDROOT
BRANCH   1  11
ATOM     11  C   UNL     1       0.467  -3.723  24.140  1.00  0.00     0.091 A 
ATOM     12  C   UNL     1       1.572  -3.480  24.972  1.00  0.00     0.068 A 
ATOM     13  C   UNL     1       2.779  -4.161  24.765  1.00  0.00     0.162 A 
ATOM     14  C   UNL     1       0.599  -4.629  23.079  1.00  0.00     0.068 A 
ATOM     15  C   UNL     1       2.901  -5.084  23.718  1.00  0.00     0.200 A 
ATOM     16  C   UNL     1       1.799  -5.316  22.861  1.00  0.00     0.162 A 
BRANCH  13  17
ATOM     17  O   UNL     1       3.869  -3.919  25.599  1.00  0.00    -0.504 OA
ATOM     18  H   UNL     1       4.760  -3.602  25.231  1.00  0.00     0.293 HD
ENDBRANCH  13  17
BRANCH  15  19
ATOM     19  O   UNL     1       4.125  -5.740  23.561  1.00  0.00    -0.502 OA
ATOM     20  H   UNL     1       4.944  -5.319  23.147  1.00  0.00     0.293 HD
ENDBRANCH  15  19
BRANCH  16  21
ATOM     21  O   UNL     1       1.851  -6.212  21.791  1.00  0.00    -0.504 OA
ATOM     22  H   UNL     1       2.485  -6.126  21.011  1.00  0.00     0.293 HD
ENDBRANCH  16  21
ENDBRANCH   1  11
BRANCH  10  23
ATOM     23  O   UNL     1      -1.065  -3.792  26.618  1.00  0.00    -0.500 OA
ATOM     24  H   UNL     1      -0.444  -4.581  26.488  1.00  0.00     0.294 HD
ENDBRANCH  10  23
BRANCH   5  25
ATOM     25  O   UNL     1      -4.467   0.489  21.108  1.00  0.00    -0.507 OA
ATOM     26  H   UNL     1      -4.168   1.438  20.919  1.00  0.00     0.293 HD
ENDBRANCH   5  25
BRANCH   7  27
ATOM     27  O   UNL     1      -5.208  -0.725  25.711  1.00  0.00    -0.507 OA
ATOM     28  H   UNL     1      -4.863  -0.580  26.648  1.00  0.00     0.293 HD
ENDBRANCH   7  27
TORSDOF 7
ENDMDL
MODEL 2
REMARK VINA RESULT:    -5.560      2.360      3.918
REMARK INTER + INTRA:          -7.036
REMARK INTER:                  -6.651
REMARK INTRA:                  -0.384
REMARK UNBOUND:                -0.175
REMARK SMILES Oc1cc(O)c2cc(O)c(-c3cc(O)c(O)c(O)c3)[o+]c2c1
REMARK SMILES IDX 10 1 20 2 21 3 22 4 2 5 3 6 4 7 6 8 7 9 8 10 11 11 12 12
REMARK SMILES IDX 13 13 19 14 15 15 17 16 14 17 16 19 18 21 9 23 1 25 5 27
REMARK H PARENT 14 18 16 20 18 22 9 24 1 26 5 28
REMARK Flexibility Score: inf
ROOT
ATOM      1  C   UNL     1      -2.890  -1.869  23.434  1.00  0.00     0.402 A 
ATOM      2  O   UNL     1      -2.595  -0.870  22.606  1.00  0.00    -0.202 OA
ATOM      3  C   UNL     1      -3.393  -0.481  21.618  1.00  0.00     0.368 A 
ATOM      4  C   UNL     1      -2.997   0.582  20.801  1.00  0.00     0.162 A 
ATOM      5  C   UNL     1      -3.816   1.013  19.758  1.00  0.00     0.128 A 
ATOM      6  C   UNL     1      -5.042   0.379  19.527  1.00  0.00     0.093 A 
ATOM      7  C   UNL     1      -5.462  -0.688  20.330  1.00  0.00     0.136 A 
ATOM      8  C   UNL     1      -4.630  -1.131  21.391  1.00  0.00     0.125 A 
ATOM      9  C   UNL     1      -4.963  -2.201  22.238  1.00  0.00     0.078 A 
ATOM     10  C   UNL     1      -4.089  -2.584  23.261  1.00  0.00     0.223 A 
ENDROOT
BRANCH   1  11
ATOM     11  C   UNL     1      -1.921  -2.201  24.505  1.00  0.00     0.091 A 
ATOM     12  C   UNL     1      -2.024  -1.633  25.784  1.00  0.00     0.068 A 
ATOM     13  C   UNL     1      -1.086  -1.944  26.776  1.00  0.00     0.162 A 
ATOM     14  C   UNL     1      -0.846  -3.055  24.222  1.00  0.00     0.068 A 
ATOM     15  C   UNL     1      -0.024  -2.817  26.499  1.00  0.00     0.200 A 
ATOM     16  C   UNL     1       0.099  -3.374  25.203  1.00  0.00     0.162 A 
BRANCH  13  17
ATOM     17  O   UNL     1      -1.199  -1.382  28.047  1.00  0.00    -0.504 OA
ATOM     18  H   UNL     1      -2.040  -1.491  28.604  1.00  0.00     0.293 HD
ENDBRANCH  13  17
BRANCH  15  19
ATOM     19  O   UNL     1       0.880  -3.098  27.526  1.00  0.00    -0.502 OA
ATOM     20  H   UNL     1       1.141  -4.031  27.811  1.00  0.00     0.293 HD
ENDBRANCH  15  19
BRANCH  16  21
ATOM     21  O   UNL     1       1.135  -4.241  24.851  1.00  0.00    -0.504 OA
ATOM     22  H   UNL     1       1.121  -5.236  25.017  1.00  0.00     0.293 HD
ENDBRANCH  16  21
ENDBRANCH   1  11
BRANCH  10  23
ATOM     23  O   UNL     1      -4.396  -3.677  24.071  1.00  0.00    -0.500 OA
ATOM     24  H   UNL     1      -3.695  -4.127  24.647  1.00  0.00     0.294 HD
ENDBRANCH  10  23
BRANCH   5  25
ATOM     25  O   UNL     1      -3.403   2.075  18.955  1.00  0.00    -0.507 OA
ATOM     26  H   UNL     1      -3.669   3.030  19.161  1.00  0.00     0.293 HD
ENDBRANCH   5  25
BRANCH   7  27
ATOM     27  O   UNL     1      -6.700  -1.267  20.038  1.00  0.00    -0.507 OA
ATOM     28  H   UNL     1      -6.821  -2.177  19.617  1.00  0.00     0.293 HD
ENDBRANCH   7  27
TORSDOF 7
ENDMDL
MODEL 3
REMARK VINA RESULT:    -5.547      1.728      7.013
REMARK INTER + INTRA:          -7.019
REMARK INTER:                  -6.658
REMARK INTRA:                  -0.362
REMARK UNBOUND:                -0.175
REMARK SMILES Oc1cc(O)c2cc(O)c(-c3cc(O)c(O)c(O)c3)[o+]c2c1
REMARK SMILES IDX 10 1 20 2 21 3 22 4 2 5 3 6 4 7 6 8 7 9 8 10 11 11 12 12
REMARK SMILES IDX 13 13 19 14 15 15 17 16 14 17 16 19 18 21 9 23 1 25 5 27
REMARK H PARENT 14 18 16 20 18 22 9 24 1 26 5 28
REMARK Flexibility Score: inf
ROOT
ATOM      1  C   UNL     1      -0.256  -3.123  24.123  1.00  0.00     0.402 A 
ATOM      2  O   UNL     1       0.433  -4.024  23.427  1.00  0.00    -0.202 OA
ATOM      3  C   UNL     1       1.612  -4.500  23.814  1.00  0.00     0.368 A 
ATOM      4  C   UNL     1       2.259  -5.446  23.015  1.00  0.00     0.162 A 
ATOM      5  C   UNL     1       3.495  -5.965  23.398  1.00  0.00     0.128 A 
ATOM      6  C   UNL     1       4.092  -5.535  24.588  1.00  0.00     0.093 A 
ATOM      7  C   UNL     1       3.465  -4.588  25.406  1.00  0.00     0.136 A 
ATOM      8  C   UNL     1       2.208  -4.056  25.019  1.00  0.00     0.125 A 
ATOM      9  C   UNL     1       1.513  -3.094  25.768  1.00  0.00     0.078 A 
ATOM     10  C   UNL     1       0.279  -2.612  25.320  1.00  0.00     0.223 A 
ENDROOT
BRANCH   1  11
ATOM     11  C   UNL     1      -1.565  -2.679  23.591  1.00  0.00     0.091 A 
ATOM     12  C   UNL     1      -1.689  -1.491  22.852  1.00  0.00     0.068 A 
ATOM     13  C   UNL     1      -2.940  -1.079  22.376  1.00  0.00     0.162 A 
ATOM     14  C   UNL     1      -2.716  -3.427  23.877  1.00  0.00     0.068 A 
ATOM     15  C   UNL     1      -4.086  -1.840  22.644  1.00  0.00     0.200 A 
ATOM     16  C   UNL     1      -3.972  -3.025  23.409  1.00  0.00     0.162 A 
BRANCH  13  17
ATOM     17  O   UNL     1      -3.054   0.098  21.637  1.00  0.00    -0.504 OA
ATOM     18  H   UNL     1      -2.694   0.981  21.984  1.00  0.00     0.293 HD
ENDBRANCH  13  17
BRANCH  15  19
ATOM     19  O   UNL     1      -5.307  -1.386  22.140  1.00  0.00    -0.502 OA
ATOM     20  H   UNL     1      -5.568  -1.427  21.165  1.00  0.00     0.293 HD
ENDBRANCH  15  19
BRANCH  16  21
ATOM     21  O   UNL     1      -5.070  -3.828  23.723  1.00  0.00    -0.504 OA
ATOM     22  H   UNL     1      -5.031  -4.833  23.808  1.00  0.00     0.293 HD
ENDBRANCH  16  21
ENDBRANCH   1  11
BRANCH  10  23
ATOM     23  O   UNL     1      -0.389  -1.620  26.039  1.00  0.00    -0.500 OA
ATOM     24  H   UNL     1      -0.061  -0.662  26.054  1.00  0.00     0.294 HD
ENDBRANCH  10  23
BRANCH   5  25
ATOM     25  O   UNL     1       4.125  -6.909  22.587  1.00  0.00    -0.507 OA
ATOM     26  H   UNL     1       4.930  -7.431  22.910  1.00  0.00     0.293 HD
ENDBRANCH   5  25
BRANCH   7  27
ATOM     27  O   UNL     1       4.125  -4.213  26.580  1.00  0.00    -0.507 OA
ATOM     28  H   UNL     1       3.887  -3.405  27.136  1.00  0.00     0.293 HD
ENDBRANCH   7  27
TORSDOF 7
ENDMDL
MODEL 4
REMARK VINA RESULT:    -5.531      3.887      5.952
REMARK INTER + INTRA:          -7.000
REMARK INTER:                  -7.384
REMARK INTRA:                   0.385
REMARK UNBOUND:                -0.175
REMARK SMILES Oc1cc(O)c2cc(O)c(-c3cc(O)c(O)c(O)c3)[o+]c2c1
REMARK SMILES IDX 10 1 20 2 21 3 22 4 2 5 3 6 4 7 6 8 7 9 8 10 11 11 12 12
REMARK SMILES IDX 13 13 19 14 15 15 17 16 14 17 16 19 18 21 9 23 1 25 5 27
REMARK H PARENT 14 18 16 20 18 22 9 24 1 26 5 28
REMARK Flexibility Score: inf
ROOT
ATOM      1  C   UNL     1       2.430  -4.300  23.031  1.00  0.00     0.402 A 
ATOM      2  O   UNL     1       1.721  -3.387  22.372  1.00  0.00    -0.202 OA
ATOM      3  C   UNL     1       1.606  -3.369  21.048  1.00  0.00     0.368 A 
ATOM      4  C   UNL     1       0.836  -2.370  20.446  1.00  0.00     0.162 A 
ATOM      5  C   UNL     1       0.695  -2.327  19.059  1.00  0.00     0.128 A 
ATOM      6  C   UNL     1       1.329  -3.290  18.265  1.00  0.00     0.093 A 
ATOM      7  C   UNL     1       2.107  -4.301  18.843  1.00  0.00     0.136 A 
ATOM      8  C   UNL     1       2.254  -4.346  20.254  1.00  0.00     0.125 A 
ATOM      9  C   UNL     1       3.023  -5.314  20.919  1.00  0.00     0.078 A 
ATOM     10  C   UNL     1       3.125  -5.291  22.314  1.00  0.00     0.223 A 
ENDROOT
BRANCH   1  11
ATOM     11  C   UNL     1       2.472  -4.221  24.510  1.00  0.00     0.091 A 
ATOM     12  C   UNL     1       3.293  -5.073  25.264  1.00  0.00     0.068 A 
ATOM     13  C   UNL     1       3.302  -4.996  26.663  1.00  0.00     0.162 A 
ATOM     14  C   UNL     1       1.634  -3.315  25.175  1.00  0.00     0.068 A 
ATOM     15  C   UNL     1       2.481  -4.074  27.326  1.00  0.00     0.200 A 
ATOM     16  C   UNL     1       1.633  -3.228  26.572  1.00  0.00     0.162 A 
BRANCH  13  17
ATOM     17  O   UNL     1       4.125  -5.841  27.405  1.00  0.00    -0.504 OA
ATOM     18  H   UNL     1       5.020  -6.160  27.048  1.00  0.00     0.293 HD
ENDBRANCH  13  17
BRANCH  15  19
ATOM     19  O   UNL     1       2.533  -4.034  28.722  1.00  0.00    -0.502 OA
ATOM     20  H   UNL     1       3.119  -4.634  29.284  1.00  0.00     0.293 HD
ENDBRANCH  15  19
BRANCH  16  21
ATOM     21  O   UNL     1       0.780  -2.293  27.165  1.00  0.00    -0.504 OA
ATOM     22  H   UNL     1       0.679  -2.171  28.161  1.00  0.00     0.293 HD
ENDBRANCH  16  21
ENDBRANCH   1  11
BRANCH  10  23
ATOM     23  O   UNL     1       3.929  -6.222  22.972  1.00  0.00    -0.500 OA
ATOM     24  H   UNL     1       4.264  -7.058  22.509  1.00  0.00     0.294 HD
ENDBRANCH  10  23
BRANCH   5  25
ATOM     25  O   UNL     1      -0.077  -1.323  18.477  1.00  0.00    -0.507 OA
ATOM     26  H   UNL     1      -1.055  -1.204  18.711  1.00  0.00     0.293 HD
ENDBRANCH   5  25
BRANCH   7  27
ATOM     27  O   UNL     1       2.704  -5.226  17.982  1.00  0.00    -0.507 OA
ATOM     28  H   UNL     1       3.699  -5.313  17.839  1.00  0.00     0.293 HD
ENDBRANCH   7  27
TORSDOF 7
ENDMDL
MODEL 5
REMARK VINA RESULT:    -5.488      3.143      6.854
REMARK INTER + INTRA:          -6.946
REMARK INTER:                  -6.564
REMARK INTRA:                  -0.383
REMARK UNBOUND:                -0.175
REMARK SMILES Oc1cc(O)c2cc(O)c(-c3cc(O)c(O)c(O)c3)[o+]c2c1
REMARK SMILES IDX 10 1 20 2 21 3 22 4 2 5 3 6 4 7 6 8 7 9 8 10 11 11 12 12
REMARK SMILES IDX 13 13 19 14 15 15 17 16 14 17 16 19 18 21 9 23 1 25 5 27
REMARK H PARENT 14 18 16 20 18 22 9 24 1 26 5 28
REMARK Flexibility Score: inf
ROOT
ATOM      1  C   UNL     1      -2.839  -0.403  22.978  1.00  0.00     0.402 A 
ATOM      2  O   UNL     1      -2.298  -1.487  23.527  1.00  0.00    -0.202 OA
ATOM      3  C   UNL     1      -1.757  -1.499  24.741  1.00  0.00     0.368 A 
ATOM      4  C   UNL     1      -1.215  -2.689  25.233  1.00  0.00     0.162 A 
ATOM      5  C   UNL     1      -0.643  -2.731  26.504  1.00  0.00     0.128 A 
ATOM      6  C   UNL     1      -0.612  -1.575  27.293  1.00  0.00     0.093 A 
ATOM      7  C   UNL     1      -1.148  -0.370  26.823  1.00  0.00     0.136 A 
ATOM      8  C   UNL     1      -1.729  -0.323  25.529  1.00  0.00     0.125 A 
ATOM      9  C   UNL     1      -2.278   0.843  24.971  1.00  0.00     0.078 A 
ATOM     10  C   UNL     1      -2.829   0.813  23.686  1.00  0.00     0.223 A 
ENDROOT
BRANCH   1  11
ATOM     11  C   UNL     1      -3.421  -0.520  21.621  1.00  0.00     0.091 A 
ATOM     12  C   UNL     1      -4.794  -0.741  21.431  1.00  0.00     0.068 A 
ATOM     13  C   UNL     1      -5.321  -0.870  20.140  1.00  0.00     0.162 A 
ATOM     14  C   UNL     1      -2.578  -0.467  20.503  1.00  0.00     0.068 A 
ATOM     15  C   UNL     1      -4.480  -0.793  19.021  1.00  0.00     0.200 A 
ATOM     16  C   UNL     1      -3.090  -0.596  19.206  1.00  0.00     0.162 A 
BRANCH  13  17
ATOM     17  O   UNL     1      -6.687  -1.082  19.959  1.00  0.00    -0.504 OA
ATOM     18  H   UNL     1      -7.377  -0.425  20.308  1.00  0.00     0.293 HD
ENDBRANCH  13  17
BRANCH  15  19
ATOM     19  O   UNL     1      -5.057  -0.922  17.756  1.00  0.00    -0.502 OA
ATOM     20  H   UNL     1      -5.048  -0.198  17.053  1.00  0.00     0.293 HD
ENDBRANCH  15  19
BRANCH  16  21
ATOM     21  O   UNL     1      -2.191  -0.520  18.141  1.00  0.00    -0.504 OA
ATOM     22  H   UNL     1      -2.166   0.237  17.473  1.00  0.00     0.293 HD
ENDBRANCH  16  21
ENDBRANCH   1  11
BRANCH  10  23
ATOM     23  O   UNL     1      -3.330   1.982  23.112  1.00  0.00    -0.500 OA
ATOM     24  H   UNL     1      -3.404   2.093  22.108  1.00  0.00     0.294 HD
ENDBRANCH  10  23
BRANCH   5  25
ATOM     25  O   UNL     1      -0.107  -3.928  26.977  1.00  0.00    -0.507 OA
ATOM     26  H   UNL     1      -0.632  -4.793  26.944  1.00  0.00     0.293 HD
ENDBRANCH   5  25
BRANCH   7  27
ATOM     27  O   UNL     1      -1.081   0.739  27.672  1.00  0.00    -0.507 OA
ATOM     28  H   UNL     1      -0.680   0.726  28.598  1.00  0.00     0.293 HD
ENDBRANCH   7  27
TORSDOF 7
ENDMDL
MODEL 6
REMARK VINA RESULT:    -5.480      2.148      4.024
REMARK INTER + INTRA:          -6.936
REMARK INTER:                  -6.796
REMARK INTRA:                  -0.140
REMARK UNBOUND:                -0.175
REMARK SMILES Oc1cc(O)c2cc(O)c(-c3cc(O)c(O)c(O)c3)[o+]c2c1
REMARK SMILES IDX 10 1 20 2 21 3 22 4 2 5 3 6 4 7 6 8 7 9 8 10 11 11 12 12
REMARK SMILES IDX 13 13 19 14 15 15 17 16 14 17 16 19 18 21 9 23 1 25 5 27
REMARK H PARENT 14 18 16 20 18 22 9 24 1 26 5 28
REMARK Flexibility Score: inf
ROOT
ATOM      1  C   UNL     1      -2.878  -1.395  22.985  1.00  0.00     0.402 A 
ATOM      2  O   UNL     1      -2.662  -1.099  21.706  1.00  0.00    -0.202 OA
ATOM      3  C   UNL     1      -3.565  -0.507  20.931  1.00  0.00     0.368 A 
ATOM      4  C   UNL     1      -3.244  -0.235  19.598  1.00  0.00     0.162 A 
ATOM      5  C   UNL     1      -4.172   0.388  18.763  1.00  0.00     0.128 A 
ATOM      6  C   UNL     1      -5.431   0.742  19.262  1.00  0.00     0.093 A 
ATOM      7  C   UNL     1      -5.777   0.479  20.593  1.00  0.00     0.136 A 
ATOM      8  C   UNL     1      -4.837  -0.156  21.445  1.00  0.00     0.125 A 
ATOM      9  C   UNL     1      -5.101  -0.470  22.788  1.00  0.00     0.078 A 
ATOM     10  C   UNL     1      -4.125  -1.102  23.566  1.00  0.00     0.223 A 
ENDROOT
BRANCH   1  11
ATOM     11  C   UNL     1      -1.786  -2.045  23.747  1.00  0.00     0.091 A 
ATOM     12  C   UNL     1      -1.246  -3.276  23.343  1.00  0.00     0.068 A 
ATOM     13  C   UNL     1      -0.228  -3.884  24.090  1.00  0.00     0.162 A 
ATOM     14  C   UNL     1      -1.320  -1.450  24.927  1.00  0.00     0.068 A 
ATOM     15  C   UNL     1       0.253  -3.276  25.257  1.00  0.00     0.200 A 
ATOM     16  C   UNL     1      -0.304  -2.047  25.683  1.00  0.00     0.162 A 
BRANCH  13  17
ATOM     17  O   UNL     1       0.308  -5.103  23.678  1.00  0.00    -0.504 OA
ATOM     18  H   UNL     1       1.289  -5.198  23.438  1.00  0.00     0.293 HD
ENDBRANCH  13  17
BRANCH  15  19
ATOM     19  O   UNL     1       1.273  -3.922  25.961  1.00  0.00    -0.502 OA
ATOM     20  H   UNL     1       2.166  -4.171  25.562  1.00  0.00     0.293 HD
ENDBRANCH  15  19
BRANCH  16  21
ATOM     21  O   UNL     1       0.117  -1.389  26.841  1.00  0.00    -0.504 OA
ATOM     22  H   UNL     1       0.864  -0.711  26.866  1.00  0.00     0.293 HD
ENDBRANCH  16  21
ENDBRANCH   1  11
BRANCH  10  23
ATOM     23  O   UNL     1      -4.404  -1.458  24.885  1.00  0.00    -0.500 OA
ATOM     24  H   UNL     1      -4.190  -0.842  25.660  1.00  0.00     0.294 HD
ENDBRANCH  10  23
BRANCH   5  25
ATOM     25  O   UNL     1      -3.833   0.651  17.437  1.00  0.00    -0.507 OA
ATOM     26  H   UNL     1      -2.869   0.670  17.130  1.00  0.00     0.293 HD
ENDBRANCH   5  25
BRANCH   7  27
ATOM     27  O   UNL     1      -7.052   0.866  21.015  1.00  0.00    -0.507 OA
ATOM     28  H   UNL     1      -7.674   1.457  20.484  1.00  0.00     0.293 HD
ENDBRANCH   7  27
TORSDOF 7
ENDMDL
MODEL 7
REMARK VINA RESULT:    -5.441      2.122      7.088
REMARK INTER + INTRA:          -6.889
REMARK INTER:                  -6.512
REMARK INTRA:                  -0.377
REMARK UNBOUND:                -0.175
REMARK SMILES Oc1cc(O)c2cc(O)c(-c3cc(O)c(O)c(O)c3)[o+]c2c1
REMARK SMILES IDX 10 1 20 2 21 3 22 4 2 5 3 6 4 7 6 8 7 9 8 10 11 11 12 12
REMARK SMILES IDX 13 13 19 14 15 15 17 16 14 17 16 19 18 21 9 23 1 25 5 27
REMARK H PARENT 14 18 16 20 18 22 9 24 1 26 5 28
REMARK Flexibility Score: inf
ROOT
ATOM      1  C   UNL     1      -2.578  -0.948  22.763  1.00  0.00     0.402 A 
ATOM      2  O   UNL     1      -1.755  -1.991  22.689  1.00  0.00    -0.202 OA
ATOM      3  C   UNL     1      -0.946  -2.354  23.680  1.00  0.00     0.368 A 
ATOM      4  C   UNL     1      -0.119  -3.467  23.508  1.00  0.00     0.162 A 
ATOM      5  C   UNL     1       0.737  -3.873  24.532  1.00  0.00     0.128 A 
ATOM      6  C   UNL     1       0.769  -3.161  25.737  1.00  0.00     0.093 A 
ATOM      7  C   UNL     1      -0.050  -2.043  25.933  1.00  0.00     0.136 A 
ATOM      8  C   UNL     1      -0.921  -1.626  24.894  1.00  0.00     0.125 A 
ATOM      9  C   UNL     1      -1.767  -0.510  24.996  1.00  0.00     0.078 A 
ATOM     10  C   UNL     1      -2.595  -0.157  23.925  1.00  0.00     0.223 A 
ENDROOT
BRANCH   1  11
ATOM     11  C   UNL     1      -3.439  -0.652  21.594  1.00  0.00     0.091 A 
ATOM     12  C   UNL     1      -3.033   0.250  20.598  1.00  0.00     0.068 A 
ATOM     13  C   UNL     1      -3.871   0.532  19.511  1.00  0.00     0.162 A 
ATOM     14  C   UNL     1      -4.709  -1.238  21.507  1.00  0.00     0.068 A 
ATOM     15  C   UNL     1      -5.131  -0.073  19.414  1.00  0.00     0.200 A 
ATOM     16  C   UNL     1      -5.557  -0.965  20.427  1.00  0.00     0.162 A 
BRANCH  13  17
ATOM     17  O   UNL     1      -3.458   1.423  18.522  1.00  0.00    -0.504 OA
ATOM     18  H   UNL     1      -4.058   2.176  18.201  1.00  0.00     0.293 HD
ENDBRANCH  13  17
BRANCH  15  19
ATOM     19  O   UNL     1      -5.925   0.238  18.307  1.00  0.00    -0.502 OA
ATOM     20  H   UNL     1      -5.887   1.118  17.812  1.00  0.00     0.293 HD
ENDBRANCH  15  19
BRANCH  16  21
ATOM     21  O   UNL     1      -6.802  -1.596  20.402  1.00  0.00    -0.504 OA
ATOM     22  H   UNL     1      -7.622  -1.250  20.878  1.00  0.00     0.293 HD
ENDBRANCH  16  21
ENDBRANCH   1  11
BRANCH  10  23
ATOM     23  O   UNL     1      -3.399   0.981  24.008  1.00  0.00    -0.500 OA
ATOM     24  H   UNL     1      -4.006   1.146  24.802  1.00  0.00     0.294 HD
ENDBRANCH  10  23
BRANCH   5  25
ATOM     25  O   UNL     1       1.555  -4.986  24.343  1.00  0.00    -0.507 OA
ATOM     26  H   UNL     1       1.251  -5.917  24.598  1.00  0.00     0.293 HD
ENDBRANCH   5  25
BRANCH   7  27
ATOM     27  O   UNL     1       0.038  -1.388  27.165  1.00  0.00    -0.507 OA
ATOM     28  H   UNL     1      -0.754  -1.159  27.747  1.00  0.00     0.293 HD
ENDBRANCH   7  27
TORSDOF 7
ENDMDL
MODEL 8
REMARK VINA RESULT:    -5.359      2.157      6.876
REMARK INTER + INTRA:          -6.788
REMARK INTER:                  -6.458
REMARK INTRA:                  -0.329
REMARK UNBOUND:                -0.175
REMARK SMILES Oc1cc(O)c2cc(O)c(-c3cc(O)c(O)c(O)c3)[o+]c2c1
REMARK SMILES IDX 10 1 20 2 21 3 22 4 2 5 3 6 4 7 6 8 7 9 8 10 11 11 12 12
REMARK SMILES IDX 13 13 19 14 15 15 17 16 14 17 16 19 18 21 9 23 1 25 5 27
REMARK H PARENT 14 18 16 20 18 22 9 24 1 26 5 28
REMARK Flexibility Score: inf
ROOT
ATOM      1  C   UNL     1       0.009  -2.514  24.723  1.00  0.00     0.402 A 
ATOM      2  O   UNL     1       0.251  -2.647  23.421  1.00  0.00    -0.202 OA
ATOM      3  C   UNL     1       1.240  -3.389  22.934  1.00  0.00     0.368 A 
ATOM      4  C   UNL     1       1.414  -3.468  21.550  1.00  0.00     0.162 A 
ATOM      5  C   UNL     1       2.441  -4.242  21.011  1.00  0.00     0.128 A 
ATOM      6  C   UNL     1       3.305  -4.943  21.861  1.00  0.00     0.093 A 
ATOM      7  C   UNL     1       3.153  -4.880  23.251  1.00  0.00     0.136 A 
ATOM      8  C   UNL     1       2.110  -4.092  23.803  1.00  0.00     0.125 A 
ATOM      9  C   UNL     1       1.890  -3.959  25.184  1.00  0.00     0.078 A 
ATOM     10  C   UNL     1       0.843  -3.160  25.654  1.00  0.00     0.223 A 
ENDROOT
BRANCH   1  11
ATOM     11  C   UNL     1      -1.131  -1.666  25.140  1.00  0.00     0.091 A 
ATOM     12  C   UNL     1      -2.313  -2.229  25.647  1.00  0.00     0.068 A 
ATOM     13  C   UNL     1      -3.388  -1.411  26.017  1.00  0.00     0.162 A 
ATOM     14  C   UNL     1      -1.055  -0.277  24.974  1.00  0.00     0.068 A 
ATOM     15  C   UNL     1      -3.301  -0.020  25.872  1.00  0.00     0.200 A 
ATOM     16  C   UNL     1      -2.121   0.553  25.339  1.00  0.00     0.162 A 
BRANCH  13  17
ATOM     17  O   UNL     1      -4.555  -1.977  26.526  1.00  0.00    -0.504 OA
ATOM     18  H   UNL     1      -4.699  -2.093  27.524  1.00  0.00     0.293 HD
ENDBRANCH  13  17
BRANCH  15  19
ATOM     19  O   UNL     1      -4.399   0.751  26.262  1.00  0.00    -0.502 OA
ATOM     20  H   UNL     1      -4.356   1.741  26.456  1.00  0.00     0.293 HD
ENDBRANCH  15  19
BRANCH  16  21
ATOM     21  O   UNL     1      -1.967   1.929  25.156  1.00  0.00    -0.504 OA
ATOM     22  H   UNL     1      -2.734   2.571  25.019  1.00  0.00     0.293 HD
ENDBRANCH  16  21
ENDBRANCH   1  11
BRANCH  10  23
ATOM     23  O   UNL     1       0.655  -2.988  27.026  1.00  0.00    -0.500 OA
ATOM     24  H   UNL     1       1.433  -2.994  27.674  1.00  0.00     0.294 HD
ENDBRANCH  10  23
BRANCH   5  25
ATOM     25  O   UNL     1       2.598  -4.309  19.628  1.00  0.00    -0.507 OA
ATOM     26  H   UNL     1       3.171  -5.022  19.193  1.00  0.00     0.293 HD
ENDBRANCH   5  25
BRANCH   7  27
ATOM     27  O   UNL     1       4.053  -5.611  24.032  1.00  0.00    -0.507 OA
ATOM     28  H   UNL     1       5.042  -5.687  23.843  1.00  0.00     0.293 HD
ENDBRANCH   7  27
TORSDOF 7
ENDMDL
MODEL 9
REMARK VINA RESULT:    -5.345      1.785      7.335
REMARK INTER + INTRA:          -6.770
REMARK INTER:                  -6.495
REMARK INTRA:                  -0.275
REMARK UNBOUND:                -0.175
REMARK SMILES Oc1cc(O)c2cc(O)c(-c3cc(O)c(O)c(O)c3)[o+]c2c1
REMARK SMILES IDX 10 1 20 2 21 3 22 4 2 5 3 6 4 7 6 8 7 9 8 10 11 11 12 12
REMARK SMILES IDX 13 13 19 14 15 15 17 16 14 17 16 19 18 21 9 23 1 25 5 27
REMARK H PARENT 14 18 16 20 18 22 9 24 1 26 5 28
REMARK Flexibility Score: inf
ROOT
ATOM      1  C   UNL     1      -0.201  -2.516  24.318  1.00  0.00     0.402 A 
ATOM      2  O   UNL     1       0.353  -2.795  25.496  1.00  0.00    -0.202 OA
ATOM      3  C   UNL     1       1.483  -3.481  25.627  1.00  0.00     0.368 A 
ATOM      4  C   UNL     1       1.988  -3.722  26.907  1.00  0.00     0.162 A 
ATOM      5  C   UNL     1       3.174  -4.437  27.075  1.00  0.00     0.128 A 
ATOM      6  C   UNL     1       3.862  -4.916  25.954  1.00  0.00     0.093 A 
ATOM      7  C   UNL     1       3.377  -4.689  24.661  1.00  0.00     0.136 A 
ATOM      8  C   UNL     1       2.170  -3.964  24.487  1.00  0.00     0.125 A 
ATOM      9  C   UNL     1       1.602  -3.700  23.230  1.00  0.00     0.078 A 
ATOM     10  C   UNL     1       0.405  -2.982  23.137  1.00  0.00     0.223 A 
ENDROOT
BRANCH   1  11
ATOM     11  C   UNL     1      -1.458  -1.733  24.303  1.00  0.00     0.091 A 
ATOM     12  C   UNL     1      -1.477  -0.375  24.658  1.00  0.00     0.068 A 
ATOM     13  C   UNL     1      -2.680   0.342  24.658  1.00  0.00     0.162 A 
ATOM     14  C   UNL     1      -2.664  -2.371  23.982  1.00  0.00     0.068 A 
ATOM     15  C   UNL     1      -3.882  -0.291  24.314  1.00  0.00     0.200 A 
ATOM     16  C   UNL     1      -3.874  -1.666  23.978  1.00  0.00     0.162 A 
BRANCH  13  17
ATOM     17  O   UNL     1      -2.690   1.692  25.005  1.00  0.00    -0.504 OA
ATOM     18  H   UNL     1      -3.346   2.061  25.685  1.00  0.00     0.293 HD
ENDBRANCH  13  17
BRANCH  15  19
ATOM     19  O   UNL     1      -5.052   0.472  24.323  1.00  0.00    -0.502 OA
ATOM     20  H   UNL     1      -5.092   1.451  24.078  1.00  0.00     0.293 HD
ENDBRANCH  15  19
BRANCH  16  21
ATOM     21  O   UNL     1      -5.033  -2.366  23.635  1.00  0.00    -0.504 OA
ATOM     22  H   UNL     1      -5.397  -3.149  24.158  1.00  0.00     0.293 HD
ENDBRANCH  16  21
ENDBRANCH   1  11
BRANCH  10  23
ATOM     23  O   UNL     1      -0.184  -2.762  21.892  1.00  0.00    -0.500 OA
ATOM     24  H   UNL     1      -1.190  -2.745  21.775  1.00  0.00     0.294 HD
ENDBRANCH  10  23
BRANCH   5  25
ATOM     25  O   UNL     1       3.662  -4.667  28.360  1.00  0.00    -0.507 OA
ATOM     26  H   UNL     1       4.611  -4.981  28.518  1.00  0.00     0.293 HD
ENDBRANCH   5  25
BRANCH   7  27
ATOM     27  O   UNL     1       4.124  -5.198  23.594  1.00  0.00    -0.507 OA
ATOM     28  H   UNL     1       4.446  -6.152  23.527  1.00  0.00     0.293 HD
ENDBRANCH   7  27
TORSDOF 7
ENDMDL
