MODEL 1
REMARK VINA RESULT:     2.168      0.000      0.000
REMARK INTER + INTRA:           3.546
REMARK INTER:                   3.942
REMARK INTRA:                  -0.396
REMARK UNBOUND:                -0.396
REMARK SMILES CCCCCCCCCCCCCCCC(=O)[O-]
REMARK SMILES IDX 9 1 10 2 11 3 12 4 13 5 14 6 15 7 16 8 17 9 18 10 8 11 7 12
REMARK SMILES IDX 6 13 5 14 4 15 3 16 2 17 1 18
REMARK H PARENT
REMARK Flexibility Score: inf
ROOT
ATOM      1  C   UNL     1     -12.772  -2.053 -13.072  1.00  0.00     0.000 C 
ENDROOT
BRANCH   1   2
ATOM      2  C   UNL     1     -12.130  -2.095 -14.473  1.00  0.00     0.000 C 
BRANCH   2   3
ATOM      3  C   UNL     1     -12.984  -1.484 -15.597  1.00  0.00     0.000 C 
BRANCH   3   4
ATOM      4  C   UNL     1     -14.303  -2.238 -15.823  1.00  0.00     0.000 C 
BRANCH   4   5
ATOM      5  C   UNL     1     -14.079  -3.754 -15.803  1.00  0.00     0.000 C 
BRANCH   5   6
ATOM      6  C   UNL     1     -14.530  -4.360 -14.466  1.00  0.00     0.006 C 
BRANCH   6   7
ATOM      7  C   UNL     1     -13.658  -5.549 -14.041  1.00  0.00     0.053 C 
BRANCH   7   8
ATOM      8  C   UNL     1     -13.967  -6.779 -14.838  1.00  0.00     0.041 C 
ATOM      9  O   UNL     1     -14.722  -7.667 -14.365  1.00  0.00    -0.550 OA
ATOM     10  O   UNL     1     -13.393  -6.958 -16.091  1.00  0.00    -0.550 OA
ENDBRANCH   7   8
ENDBRANCH   6   7
ENDBRANCH   5   6
ENDBRANCH   4   5
ENDBRANCH   3   4
ENDBRANCH   2   3
ENDBRANCH   1   2
BRANCH   1  11
ATOM     11  C   UNL     1     -11.882  -2.575 -11.926  1.00  0.00     0.000 C 
BRANCH  11  12
ATOM     12  C   UNL     1     -11.983  -1.779 -10.611  1.00  0.00    -0.000 C 
BRANCH  12  13
ATOM     13  C   UNL     1     -12.951  -2.416  -9.603  1.00  0.00    -0.000 C 
BRANCH  13  14
ATOM     14  C   UNL     1     -13.846  -3.457 -10.284  1.00  0.00    -0.000 C 
BRANCH  14  15
ATOM     15  C   UNL     1     -14.817  -4.092  -9.276  1.00  0.00    -0.000 C 
BRANCH  15  16
ATOM     16  C   UNL     1     -14.415  -5.523  -8.877  1.00  0.00    -0.000 C 
BRANCH  16  17
ATOM     17  C   UNL     1     -12.899  -5.793  -8.875  1.00  0.00    -0.003 C 
ATOM     18  C   UNL     1     -12.555  -7.268  -9.078  1.00  0.00     0.004 C 
ENDBRANCH  16  17
ENDBRANCH  15  16
ENDBRANCH  14  15
ENDBRANCH  13  14
ENDBRANCH  12  13
ENDBRANCH  11  12
ENDBRANCH   1  11
TORSDOF 14
ENDMDL
MODEL 2
REMARK VINA RESULT:     3.342     19.787     22.156
REMARK INTER + INTRA:           5.682
REMARK INTER:                   5.296
REMARK INTRA:                   0.386
REMARK UNBOUND:                -0.396
REMARK SMILES CCCCCCCCCCCCCCCC(=O)[O-]
REMARK SMILES IDX 9 1 10 2 11 3 12 4 13 5 14 6 15 7 16 8 17 9 18 10 8 11 7 12
REMARK SMILES IDX 6 13 5 14 4 15 3 16 2 17 1 18
REMARK H PARENT
REMARK Flexibility Score: inf
ROOT
ATOM      1  C   UNL     1     -30.436   2.945 -25.981  1.00  0.00     0.000 C 
ENDROOT
BRANCH   1   2
ATOM      2  C   UNL     1     -30.747   4.015 -27.046  1.00  0.00     0.000 C 
BRANCH   2   3
ATOM      3  C   UNL     1     -30.985   3.468 -28.465  1.00  0.00     0.000 C 
BRANCH   3   4
ATOM      4  C   UNL     1     -32.110   2.423 -28.521  1.00  0.00     0.000 C 
BRANCH   4   5
ATOM      5  C   UNL     1     -32.079   1.515 -27.287  1.00  0.00     0.000 C 
BRANCH   5   6
ATOM      6  C   UNL     1     -32.125   0.034 -27.691  1.00  0.00     0.006 C 
BRANCH   6   7
ATOM      7  C   UNL     1     -31.429  -0.871 -26.667  1.00  0.00     0.053 C 
BRANCH   7   8
ATOM      8  C   UNL     1     -30.755  -2.037 -27.322  1.00  0.00     0.041 C 
ATOM      9  O   UNL     1     -29.507  -2.176 -27.238  1.00  0.00    -0.550 OA
ATOM     10  O   UNL     1     -31.501  -2.953 -28.053  1.00  0.00    -0.550 OA
ENDBRANCH   7   8
ENDBRANCH   6   7
ENDBRANCH   5   6
ENDBRANCH   4   5
ENDBRANCH   3   4
ENDBRANCH   2   3
ENDBRANCH   1   2
BRANCH   1  11
ATOM     11  C   UNL     1     -30.918   3.280 -24.555  1.00  0.00     0.000 C 
BRANCH  11  12
ATOM     12  C   UNL     1     -32.086   2.416 -24.044  1.00  0.00    -0.000 C 
BRANCH  12  13
ATOM     13  C   UNL     1     -31.666   1.438 -22.938  1.00  0.00    -0.000 C 
BRANCH  13  14
ATOM     14  C   UNL     1     -31.333   0.061 -23.522  1.00  0.00    -0.000 C 
BRANCH  14  15
ATOM     15  C   UNL     1     -31.369  -1.022 -22.432  1.00  0.00    -0.000 C 
BRANCH  15  16
ATOM     16  C   UNL     1     -30.449  -0.703 -21.239  1.00  0.00    -0.000 C 
BRANCH  16  17
ATOM     17  C   UNL     1     -29.089  -1.425 -21.258  1.00  0.00    -0.003 C 
ATOM     18  C   UNL     1     -28.871  -2.319 -20.038  1.00  0.00     0.004 C 
ENDBRANCH  16  17
ENDBRANCH  15  16
ENDBRANCH  14  15
ENDBRANCH  13  14
ENDBRANCH  12  13
ENDBRANCH  11  12
ENDBRANCH   1  11
TORSDOF 14
ENDMDL
MODEL 3
REMARK VINA RESULT:     3.618      2.399      5.525
REMARK INTER + INTRA:           6.184
REMARK INTER:                   6.552
REMARK INTRA:                  -0.369
REMARK UNBOUND:                -0.396
REMARK SMILES CCCCCCCCCCCCCCCC(=O)[O-]
REMARK SMILES IDX 9 1 10 2 11 3 12 4 13 5 14 6 15 7 16 8 17 9 18 10 8 11 7 12
REMARK SMILES IDX 6 13 5 14 4 15 3 16 2 17 1 18
REMARK H PARENT
REMARK Flexibility Score: inf
ROOT
ATOM      1  C   UNL     1     -14.793  -2.161 -13.847  1.00  0.00     0.000 C 
ENDROOT
BRANCH   1   2
ATOM      2  C   UNL     1     -14.300  -2.823 -12.546  1.00  0.00     0.000 C 
BRANCH   2   3
ATOM      3  C   UNL     1     -12.918  -3.494 -12.642  1.00  0.00     0.000 C 
BRANCH   3   4
ATOM      4  C   UNL     1     -11.878  -2.855 -11.711  1.00  0.00     0.000 C 
BRANCH   4   5
ATOM      5  C   UNL     1     -12.539  -2.306 -10.442  1.00  0.00     0.000 C 
BRANCH   5   6
ATOM      6  C   UNL     1     -12.200  -3.175  -9.223  1.00  0.00     0.006 C 
BRANCH   6   7
ATOM      7  C   UNL     1     -12.441  -4.667  -9.485  1.00  0.00     0.053 C 
BRANCH   7   8
ATOM      8  C   UNL     1     -13.853  -5.064  -9.180  1.00  0.00     0.041 C 
ATOM      9  O   UNL     1     -14.188  -6.277  -9.202  1.00  0.00    -0.550 OA
ATOM     10  O   UNL     1     -14.806  -4.091  -8.904  1.00  0.00    -0.550 OA
ENDBRANCH   7   8
ENDBRANCH   6   7
ENDBRANCH   5   6
ENDBRANCH   4   5
ENDBRANCH   3   4
ENDBRANCH   2   3
ENDBRANCH   1   2
BRANCH   1  11
ATOM     11  C   UNL     1     -13.797  -1.184 -14.505  1.00  0.00     0.000 C 
BRANCH  11  12
ATOM     12  C   UNL     1     -13.618  -1.364 -16.024  1.00  0.00    -0.000 C 
BRANCH  12  13
ATOM     13  C   UNL     1     -14.190  -2.693 -16.538  1.00  0.00    -0.000 C 
BRANCH  13  14
ATOM     14  C   UNL     1     -13.527  -3.884 -15.837  1.00  0.00    -0.000 C 
BRANCH  14  15
ATOM     15  C   UNL     1     -14.482  -5.086 -15.773  1.00  0.00    -0.000 C 
BRANCH  15  16
ATOM     16  C   UNL     1     -14.387  -5.856 -14.444  1.00  0.00    -0.000 C 
BRANCH  16  17
ATOM     17  C   UNL     1     -13.822  -7.284 -14.562  1.00  0.00    -0.003 C 
ATOM     18  C   UNL     1     -13.412  -7.648 -15.988  1.00  0.00     0.004 C 
ENDBRANCH  16  17
ENDBRANCH  15  16
ENDBRANCH  14  15
ENDBRANCH  13  14
ENDBRANCH  12  13
ENDBRANCH  11  12
ENDBRANCH   1  11
TORSDOF 14
ENDMDL
MODEL 4
REMARK VINA RESULT:     3.706     19.771     22.810
REMARK INTER + INTRA:           6.344
REMARK INTER:                   6.998
REMARK INTRA:                  -0.653
REMARK UNBOUND:                -0.396
REMARK SMILES CCCCCCCCCCCCCCCC(=O)[O-]
REMARK SMILES IDX 9 1 10 2 11 3 12 4 13 5 14 6 15 7 16 8 17 9 18 10 8 11 7 12
REMARK SMILES IDX 6 13 5 14 4 15 3 16 2 17 1 18
REMARK H PARENT
REMARK Flexibility Score: inf
ROOT
ATOM      1  C   UNL     1     -30.311   3.147 -26.008  1.00  0.00     0.000 C 
ENDROOT
BRANCH   1   2
ATOM      2  C   UNL     1     -31.152   2.595 -24.840  1.00  0.00     0.000 C 
BRANCH   2   3
ATOM      3  C   UNL     1     -31.912   1.292 -25.146  1.00  0.00     0.000 C 
BRANCH   3   4
ATOM      4  C   UNL     1     -31.044   0.038 -24.965  1.00  0.00     0.000 C 
BRANCH   4   5
ATOM      5  C   UNL     1     -31.519  -0.791 -23.767  1.00  0.00     0.000 C 
BRANCH   5   6
ATOM      6  C   UNL     1     -30.755  -0.407 -22.491  1.00  0.00     0.006 C 
BRANCH   6   7
ATOM      7  C   UNL     1     -30.471  -1.618 -21.595  1.00  0.00     0.053 C 
BRANCH   7   8
ATOM      8  C   UNL     1     -29.052  -1.637 -21.116  1.00  0.00     0.041 C 
ATOM      9  O   UNL     1     -28.115  -1.339 -21.902  1.00  0.00    -0.550 OA
ATOM     10  O   UNL     1     -28.762  -2.015 -19.811  1.00  0.00    -0.550 OA
ENDBRANCH   7   8
ENDBRANCH   6   7
ENDBRANCH   5   6
ENDBRANCH   4   5
ENDBRANCH   3   4
ENDBRANCH   2   3
ENDBRANCH   1   2
BRANCH   1  11
ATOM     11  C   UNL     1     -31.038   4.155 -26.921  1.00  0.00     0.000 C 
BRANCH  11  12
ATOM     12  C   UNL     1     -30.804   3.951 -28.430  1.00  0.00    -0.000 C 
BRANCH  12  13
ATOM     13  C   UNL     1     -31.851   3.032 -29.076  1.00  0.00    -0.000 C 
BRANCH  13  14
ATOM     14  C   UNL     1     -32.125   1.808 -28.196  1.00  0.00    -0.000 C 
BRANCH  14  15
ATOM     15  C   UNL     1     -31.513   0.540 -28.812  1.00  0.00    -0.000 C 
BRANCH  15  16
ATOM     16  C   UNL     1     -32.125  -0.755 -28.249  1.00  0.00    -0.000 C 
BRANCH  16  17
ATOM     17  C   UNL     1     -31.451  -2.053 -28.733  1.00  0.00    -0.003 C 
ATOM     18  C   UNL     1     -30.549  -2.688 -27.675  1.00  0.00     0.004 C 
ENDBRANCH  16  17
ENDBRANCH  15  16
ENDBRANCH  14  15
ENDBRANCH  13  14
ENDBRANCH  12  13
ENDBRANCH  11  12
ENDBRANCH   1  11
TORSDOF 14
ENDMDL
MODEL 5
REMARK VINA RESULT:     4.040      3.295      7.304
REMARK INTER + INTRA:           6.950
REMARK INTER:                   7.341
REMARK INTRA:                  -0.391
REMARK UNBOUND:                -0.396
REMARK SMILES CCCCCCCCCCCCCCCC(=O)[O-]
REMARK SMILES IDX 9 1 10 2 11 3 12 4 13 5 14 6 15 7 16 8 17 9 18 10 8 11 7 12
REMARK SMILES IDX 6 13 5 14 4 15 3 16 2 17 1 18
REMARK H PARENT
REMARK Flexibility Score: inf
ROOT
ATOM      1  C   UNL     1     -14.566  -3.052 -13.868  1.00  0.00     0.000 C 
ENDROOT
BRANCH   1   2
ATOM      2  C   UNL     1     -14.118  -3.426 -12.442  1.00  0.00     0.000 C 
BRANCH   2   3
ATOM      3  C   UNL     1     -12.631  -3.796 -12.304  1.00  0.00     0.000 C 
BRANCH   3   4
ATOM      4  C   UNL     1     -11.875  -2.881 -11.328  1.00  0.00     0.000 C 
BRANCH   4   5
ATOM      5  C   UNL     1     -12.623  -2.764  -9.995  1.00  0.00     0.000 C 
BRANCH   5   6
ATOM      6  C   UNL     1     -11.945  -3.609  -8.906  1.00  0.00     0.006 C 
BRANCH   6   7
ATOM      7  C   UNL     1     -12.284  -5.099  -9.030  1.00  0.00     0.053 C 
BRANCH   7   8
ATOM      8  C   UNL     1     -13.762  -5.328  -9.126  1.00  0.00     0.041 C 
ATOM      9  O   UNL     1     -14.208  -6.456  -9.458  1.00  0.00    -0.550 OA
ATOM     10  O   UNL     1     -14.645  -4.283  -8.879  1.00  0.00    -0.550 OA
ENDBRANCH   7   8
ENDBRANCH   6   7
ENDBRANCH   5   6
ENDBRANCH   4   5
ENDBRANCH   3   4
ENDBRANCH   2   3
ENDBRANCH   1   2
BRANCH   1  11
ATOM     11  C   UNL     1     -13.438  -3.008 -14.919  1.00  0.00     0.000 C 
BRANCH  11  12
ATOM     12  C   UNL     1     -13.566  -1.882 -15.962  1.00  0.00    -0.000 C 
BRANCH  12  13
ATOM     13  C   UNL     1     -13.376  -0.484 -15.356  1.00  0.00    -0.000 C 
BRANCH  13  14
ATOM     14  C   UNL     1     -14.710   0.267 -15.283  1.00  0.00    -0.000 C 
BRANCH  14  15
ATOM     15  C   UNL     1     -14.917   1.142 -16.530  1.00  0.00    -0.000 C 
BRANCH  15  16
ATOM     16  C   UNL     1     -15.253   2.604 -16.186  1.00  0.00    -0.000 C 
BRANCH  16  17
ATOM     17  C   UNL     1     -16.469   3.182 -16.935  1.00  0.00    -0.003 C 
ATOM     18  C   UNL     1     -16.587   2.668 -18.369  1.00  0.00     0.004 C 
ENDBRANCH  16  17
ENDBRANCH  15  16
ENDBRANCH  14  15
ENDBRANCH  13  14
ENDBRANCH  12  13
ENDBRANCH  11  12
ENDBRANCH   1  11
TORSDOF 14
ENDMDL
MODEL 6
REMARK VINA RESULT:     4.322      4.340      5.572
REMARK INTER + INTRA:           7.463
REMARK INTER:                   8.509
REMARK INTRA:                  -1.046
REMARK UNBOUND:                -0.396
REMARK SMILES CCCCCCCCCCCCCCCC(=O)[O-]
REMARK SMILES IDX 9 1 10 2 11 3 12 4 13 5 14 6 15 7 16 8 17 9 18 10 8 11 7 12
REMARK SMILES IDX 6 13 5 14 4 15 3 16 2 17 1 18
REMARK H PARENT
REMARK Flexibility Score: inf
ROOT
ATOM      1  C   UNL     1     -14.204  -3.068 -13.818  1.00  0.00     0.000 C 
ENDROOT
BRANCH   1   2
ATOM      2  C   UNL     1     -14.031  -2.964 -15.346  1.00  0.00     0.000 C 
BRANCH   2   3
ATOM      3  C   UNL     1     -13.470  -1.621 -15.847  1.00  0.00     0.000 C 
BRANCH   3   4
ATOM      4  C   UNL     1     -14.154  -0.409 -15.196  1.00  0.00     0.000 C 
BRANCH   4   5
ATOM      5  C   UNL     1     -14.518   0.646 -16.246  1.00  0.00     0.000 C 
BRANCH   5   6
ATOM      6  C   UNL     1     -15.004   1.942 -15.580  1.00  0.00     0.006 C 
BRANCH   6   7
ATOM      7  C   UNL     1     -15.230   3.069 -16.596  1.00  0.00     0.053 C 
BRANCH   7   8
ATOM      8  C   UNL     1     -16.639   3.087 -17.103  1.00  0.00     0.041 C 
ATOM      9  O   UNL     1     -16.869   3.015 -18.338  1.00  0.00    -0.550 OA
ATOM     10  O   UNL     1     -17.698   3.219 -16.212  1.00  0.00    -0.550 OA
ENDBRANCH   7   8
ENDBRANCH   6   7
ENDBRANCH   5   6
ENDBRANCH   4   5
ENDBRANCH   3   4
ENDBRANCH   2   3
ENDBRANCH   1   2
BRANCH   1  11
ATOM     11  C   UNL     1     -13.201  -3.996 -13.105  1.00  0.00     0.000 C 
BRANCH  11  12
ATOM     12  C   UNL     1     -11.944  -3.296 -12.556  1.00  0.00    -0.000 C 
BRANCH  12  13
ATOM     13  C   UNL     1     -12.270  -2.236 -11.493  1.00  0.00    -0.000 C 
BRANCH  13  14
ATOM     14  C   UNL     1     -11.953  -2.755 -10.086  1.00  0.00    -0.000 C 
BRANCH  14  15
ATOM     15  C   UNL     1     -13.089  -2.419  -9.108  1.00  0.00    -0.000 C 
BRANCH  15  16
ATOM     16  C   UNL     1     -14.087  -3.577  -8.928  1.00  0.00    -0.000 C 
BRANCH  16  17
ATOM     17  C   UNL     1     -13.618  -4.930  -9.494  1.00  0.00    -0.003 C 
ATOM     18  C   UNL     1     -14.407  -6.116  -8.939  1.00  0.00     0.004 C 
ENDBRANCH  16  17
ENDBRANCH  15  16
ENDBRANCH  14  15
ENDBRANCH  13  14
ENDBRANCH  12  13
ENDBRANCH  11  12
ENDBRANCH   1  11
TORSDOF 14
ENDMDL
