MODEL 1
REMARK VINA RESULT:    -2.547      0.000      0.000
REMARK INTER + INTRA:          -8.231
REMARK INTER:                  -5.824
REMARK INTRA:                  -2.408
REMARK UNBOUND:                -2.408
REMARK SMILES CCCCCCCCCCCCCCCCCCCCCCCC(=O)[O-]
REMARK SMILES IDX 13 1 14 2 15 3 16 4 17 5 18 6 19 7 20 8 21 9 22 10 23 11
REMARK SMILES IDX 24 12 25 13 26 14 12 15 11 16 10 17 9 18 8 19 7 20 6 21 5 22
REMARK SMILES IDX 4 23 3 24 2 25 1 26
REMARK H PARENT
REMARK Flexibility Score: inf
ROOT
ATOM      1  C   UNL     1       4.925 -34.792  23.475  1.00  0.00     0.000 C 
ENDROOT
BRANCH   1   2
ATOM      2  C   UNL     1       5.142 -33.608  22.519  1.00  0.00     0.000 C 
BRANCH   2   3
ATOM      3  C   UNL     1       3.866 -33.220  21.757  1.00  0.00     0.000 C 
BRANCH   3   4
ATOM      4  C   UNL     1       4.072 -33.342  20.240  1.00  0.00     0.000 C 
BRANCH   4   5
ATOM      5  C   UNL     1       5.345 -34.123  19.867  1.00  0.00     0.000 C 
BRANCH   5   6
ATOM      6  C   UNL     1       5.445 -34.543  18.389  1.00  0.00     0.000 C 
BRANCH   6   7
ATOM      7  C   UNL     1       4.092 -34.485  17.658  1.00  0.00     0.000 C 
BRANCH   7   8
ATOM      8  C   UNL     1       3.872 -35.684  16.721  1.00  0.00     0.000 C 
BRANCH   8   9
ATOM      9  C   UNL     1       2.460 -35.708  16.109  1.00  0.00     0.000 C 
BRANCH   9  10
ATOM     10  C   UNL     1       2.234 -36.919  15.185  1.00  0.00     0.006 C 
BRANCH  10  11
ATOM     11  C   UNL     1       3.122 -36.934  13.930  1.00  0.00     0.053 C 
BRANCH  11  12
ATOM     12  C   UNL     1       4.271 -37.885  14.068  1.00  0.00     0.041 C 
ATOM     13  O   UNL     1       4.066 -39.085  14.389  1.00  0.00    -0.550 OA
ATOM     14  O   UNL     1       5.571 -37.437  13.875  1.00  0.00    -0.550 OA
ENDBRANCH  11  12
ENDBRANCH  10  11
ENDBRANCH   9  10
ENDBRANCH   8   9
ENDBRANCH   7   8
ENDBRANCH   6   7
ENDBRANCH   5   6
ENDBRANCH   4   5
ENDBRANCH   3   4
ENDBRANCH   2   3
ENDBRANCH   1   2
BRANCH   1  15
ATOM     15  C   UNL     1       6.124 -35.021  24.412  1.00  0.00     0.000 C 
BRANCH  15  16
ATOM     16  C   UNL     1       6.098 -36.407  25.078  1.00  0.00     0.000 C 
BRANCH  16  17
ATOM     17  C   UNL     1       4.672 -36.883  25.401  1.00  0.00     0.000 C 
BRANCH  17  18
ATOM     18  C   UNL     1       4.258 -38.127  24.592  1.00  0.00    -0.000 C 
BRANCH  18  19
ATOM     19  C   UNL     1       5.412 -38.857  23.882  1.00  0.00    -0.000 C 
BRANCH  19  20
ATOM     20  C   UNL     1       5.015 -39.622  22.605  1.00  0.00    -0.000 C 
BRANCH  20  21
ATOM     21  C   UNL     1       5.418 -38.904  21.300  1.00  0.00    -0.000 C 
BRANCH  21  22
ATOM     22  C   UNL     1       4.916 -37.453  21.247  1.00  0.00    -0.000 C 
BRANCH  22  23
ATOM     23  C   UNL     1       4.118 -37.192  19.964  1.00  0.00    -0.000 C 
BRANCH  23  24
ATOM     24  C   UNL     1       2.704 -37.785  20.066  1.00  0.00    -0.000 C 
BRANCH  24  25
ATOM     25  C   UNL     1       2.010 -37.899  18.700  1.00  0.00    -0.003 C 
ATOM     26  C   UNL     1       0.495 -37.718  18.790  1.00  0.00     0.004 C 
ENDBRANCH  24  25
ENDBRANCH  23  24
ENDBRANCH  22  23
ENDBRANCH  21  22
ENDBRANCH  20  21
ENDBRANCH  19  20
ENDBRANCH  18  19
ENDBRANCH  17  18
ENDBRANCH  16  17
ENDBRANCH  15  16
ENDBRANCH   1  15
TORSDOF 22
ENDMDL
MODEL 2
REMARK VINA RESULT:    -2.170      0.820      1.368
REMARK INTER + INTRA:          -7.369
REMARK INTER:                  -5.648
REMARK INTRA:                  -1.721
REMARK UNBOUND:                -2.408
REMARK SMILES CCCCCCCCCCCCCCCCCCCCCCCC(=O)[O-]
REMARK SMILES IDX 13 1 14 2 15 3 16 4 17 5 18 6 19 7 20 8 21 9 22 10 23 11
REMARK SMILES IDX 24 12 25 13 26 14 12 15 11 16 10 17 9 18 8 19 7 20 6 21 5 22
REMARK SMILES IDX 4 23 3 24 2 25 1 26
REMARK H PARENT
REMARK Flexibility Score: inf
ROOT
ATOM      1  C   UNL     1       6.125 -35.353  23.579  1.00  0.00     0.000 C 
ENDROOT
BRANCH   1   2
ATOM      2  C   UNL     1       6.067 -33.821  23.703  1.00  0.00     0.000 C 
BRANCH   2   3
ATOM      3  C   UNL     1       5.303 -33.162  22.544  1.00  0.00     0.000 C 
BRANCH   3   4
ATOM      4  C   UNL     1       4.176 -34.075  22.039  1.00  0.00     0.000 C 
BRANCH   4   5
ATOM      5  C   UNL     1       3.925 -33.940  20.526  1.00  0.00     0.000 C 
BRANCH   5   6
ATOM      6  C   UNL     1       5.126 -34.291  19.629  1.00  0.00     0.000 C 
BRANCH   6   7
ATOM      7  C   UNL     1       4.790 -34.226  18.128  1.00  0.00     0.000 C 
BRANCH   7   8
ATOM      8  C   UNL     1       3.896 -35.390  17.670  1.00  0.00     0.000 C 
BRANCH   8   9
ATOM      9  C   UNL     1       3.306 -35.167  16.266  1.00  0.00     0.000 C 
BRANCH   9  10
ATOM     10  C   UNL     1       2.372 -36.310  15.826  1.00  0.00     0.006 C 
BRANCH  10  11
ATOM     11  C   UNL     1       2.566 -36.762  14.369  1.00  0.00     0.053 C 
BRANCH  11  12
ATOM     12  C   UNL     1       3.890 -37.430  14.162  1.00  0.00     0.041 C 
ATOM     13  O   UNL     1       4.908 -36.746  13.877  1.00  0.00    -0.550 OA
ATOM     14  O   UNL     1       3.993 -38.813  14.249  1.00  0.00    -0.550 OA
ENDBRANCH  11  12
ENDBRANCH  10  11
ENDBRANCH   9  10
ENDBRANCH   8   9
ENDBRANCH   7   8
ENDBRANCH   6   7
ENDBRANCH   5   6
ENDBRANCH   4   5
ENDBRANCH   3   4
ENDBRANCH   2   3
ENDBRANCH   1   2
BRANCH   1  15
ATOM     15  C   UNL     1       5.934 -36.062  24.932  1.00  0.00     0.000 C 
BRANCH  15  16
ATOM     16  C   UNL     1       4.634 -36.880  24.992  1.00  0.00     0.000 C 
BRANCH  16  17
ATOM     17  C   UNL     1       4.883 -38.396  24.908  1.00  0.00     0.000 C 
BRANCH  17  18
ATOM     18  C   UNL     1       4.142 -39.060  23.733  1.00  0.00    -0.000 C 
BRANCH  18  19
ATOM     19  C   UNL     1       5.045 -39.788  22.720  1.00  0.00    -0.000 C 
BRANCH  19  20
ATOM     20  C   UNL     1       5.918 -38.870  21.844  1.00  0.00    -0.000 C 
BRANCH  20  21
ATOM     21  C   UNL     1       5.655 -39.020  20.331  1.00  0.00    -0.000 C 
BRANCH  21  22
ATOM     22  C   UNL     1       4.967 -37.787  19.727  1.00  0.00    -0.000 C 
BRANCH  22  23
ATOM     23  C   UNL     1       3.548 -37.620  20.284  1.00  0.00    -0.000 C 
BRANCH  23  24
ATOM     24  C   UNL     1       2.562 -37.239  19.170  1.00  0.00    -0.000 C 
BRANCH  24  25
ATOM     25  C   UNL     1       1.331 -38.159  19.129  1.00  0.00    -0.003 C 
ATOM     26  C   UNL     1       0.129 -37.508  18.444  1.00  0.00     0.004 C 
ENDBRANCH  24  25
ENDBRANCH  23  24
ENDBRANCH  22  23
ENDBRANCH  21  22
ENDBRANCH  20  21
ENDBRANCH  19  20
ENDBRANCH  18  19
ENDBRANCH  17  18
ENDBRANCH  16  17
ENDBRANCH  15  16
ENDBRANCH   1  15
TORSDOF 22
ENDMDL
MODEL 3
REMARK VINA RESULT:    -1.850      1.929      5.806
REMARK INTER + INTRA:          -6.636
REMARK INTER:                  -4.971
REMARK INTRA:                  -1.665
REMARK UNBOUND:                -2.408
REMARK SMILES CCCCCCCCCCCCCCCCCCCCCCCC(=O)[O-]
REMARK SMILES IDX 13 1 14 2 15 3 16 4 17 5 18 6 19 7 20 8 21 9 22 10 23 11
REMARK SMILES IDX 24 12 25 13 26 14 12 15 11 16 10 17 9 18 8 19 7 20 6 21 5 22
REMARK SMILES IDX 4 23 3 24 2 25 1 26
REMARK H PARENT
REMARK Flexibility Score: inf
ROOT
ATOM      1  C   UNL     1       6.115 -34.581  22.355  1.00  0.00     0.000 C 
ENDROOT
BRANCH   1   2
ATOM      2  C   UNL     1       6.125 -35.623  23.485  1.00  0.00     0.000 C 
BRANCH   2   3
ATOM      3  C   UNL     1       4.739 -35.825  24.117  1.00  0.00     0.000 C 
BRANCH   3   4
ATOM      4  C   UNL     1       4.765 -36.968  25.144  1.00  0.00     0.000 C 
BRANCH   4   5
ATOM      5  C   UNL     1       4.105 -38.258  24.624  1.00  0.00     0.000 C 
BRANCH   5   6
ATOM      6  C   UNL     1       4.962 -39.084  23.647  1.00  0.00     0.000 C 
BRANCH   6   7
ATOM      7  C   UNL     1       4.378 -39.120  22.223  1.00  0.00     0.000 C 
BRANCH   7   8
ATOM      8  C   UNL     1       5.402 -38.710  21.153  1.00  0.00     0.000 C 
BRANCH   8   9
ATOM      9  C   UNL     1       4.793 -37.810  20.064  1.00  0.00     0.000 C 
BRANCH   9  10
ATOM     10  C   UNL     1       3.272 -37.627  20.225  1.00  0.00     0.006 C 
BRANCH  10  11
ATOM     11  C   UNL     1       2.440 -38.182  19.056  1.00  0.00     0.053 C 
BRANCH  11  12
ATOM     12  C   UNL     1       1.069 -37.582  19.011  1.00  0.00     0.041 C 
ATOM     13  O   UNL     1       0.457 -37.315  20.078  1.00  0.00    -0.550 OA
ATOM     14  O   UNL     1       0.453 -37.349  17.787  1.00  0.00    -0.550 OA
ENDBRANCH  11  12
ENDBRANCH  10  11
ENDBRANCH   9  10
ENDBRANCH   8   9
ENDBRANCH   7   8
ENDBRANCH   6   7
ENDBRANCH   5   6
ENDBRANCH   4   5
ENDBRANCH   3   4
ENDBRANCH   2   3
ENDBRANCH   1   2
BRANCH   1  15
ATOM     15  C   UNL     1       4.987 -33.546  22.517  1.00  0.00     0.000 C 
BRANCH  15  16
ATOM     16  C   UNL     1       4.024 -33.528  21.318  1.00  0.00     0.000 C 
BRANCH  16  17
ATOM     17  C   UNL     1       4.384 -34.578  20.253  1.00  0.00     0.000 C 
BRANCH  17  18
ATOM     18  C   UNL     1       5.060 -33.965  19.012  1.00  0.00    -0.000 C 
BRANCH  18  19
ATOM     19  C   UNL     1       4.840 -34.739  17.699  1.00  0.00    -0.000 C 
BRANCH  19  20
ATOM     20  C   UNL     1       3.564 -35.599  17.654  1.00  0.00    -0.000 C 
BRANCH  20  21
ATOM     21  C   UNL     1       3.467 -36.503  16.406  1.00  0.00    -0.000 C 
BRANCH  21  22
ATOM     22  C   UNL     1       2.897 -35.763  15.187  1.00  0.00    -0.000 C 
BRANCH  22  23
ATOM     23  C   UNL     1       3.440 -36.354  13.880  1.00  0.00    -0.000 C 
BRANCH  23  24
ATOM     24  C   UNL     1       3.502 -37.887  13.955  1.00  0.00    -0.000 C 
BRANCH  24  25
ATOM     25  C   UNL     1       4.939 -38.425  13.875  1.00  0.00    -0.003 C 
ATOM     26  C   UNL     1       5.000 -39.953  13.876  1.00  0.00     0.004 C 
ENDBRANCH  24  25
ENDBRANCH  23  24
ENDBRANCH  22  23
ENDBRANCH  21  22
ENDBRANCH  20  21
ENDBRANCH  19  20
ENDBRANCH  18  19
ENDBRANCH  17  18
ENDBRANCH  16  17
ENDBRANCH  15  16
ENDBRANCH   1  15
TORSDOF 22
ENDMDL
MODEL 4
REMARK VINA RESULT:    -1.759      3.493      6.996
REMARK INTER + INTRA:          -6.429
REMARK INTER:                  -6.440
REMARK INTRA:                   0.011
REMARK UNBOUND:                -2.408
REMARK SMILES CCCCCCCCCCCCCCCCCCCCCCCC(=O)[O-]
REMARK SMILES IDX 13 1 14 2 15 3 16 4 17 5 18 6 19 7 20 8 21 9 22 10 23 11
REMARK SMILES IDX 24 12 25 13 26 14 12 15 11 16 10 17 9 18 8 19 7 20 6 21 5 22
REMARK SMILES IDX 4 23 3 24 2 25 1 26
REMARK H PARENT
REMARK Flexibility Score: inf
ROOT
ATOM      1  C   UNL     1       4.229 -33.515  22.203  1.00  0.00     0.000 C 
ENDROOT
BRANCH   1   2
ATOM      2  C   UNL     1       5.533 -33.243  22.971  1.00  0.00     0.000 C 
BRANCH   2   3
ATOM      3  C   UNL     1       5.940 -34.414  23.880  1.00  0.00     0.000 C 
BRANCH   3   4
ATOM      4  C   UNL     1       5.216 -35.705  23.470  1.00  0.00     0.000 C 
BRANCH   4   5
ATOM      5  C   UNL     1       5.914 -36.444  22.314  1.00  0.00     0.000 C 
BRANCH   5   6
ATOM      6  C   UNL     1       4.968 -37.134  21.314  1.00  0.00     0.000 C 
BRANCH   6   7
ATOM      7  C   UNL     1       5.590 -38.387  20.670  1.00  0.00     0.000 C 
BRANCH   7   8
ATOM      8  C   UNL     1       5.685 -39.570  21.647  1.00  0.00     0.000 C 
BRANCH   8   9
ATOM      9  C   UNL     1       4.533 -39.592  22.666  1.00  0.00     0.000 C 
BRANCH   9  10
ATOM     10  C   UNL     1       4.975 -39.147  24.073  1.00  0.00     0.006 C 
BRANCH  10  11
ATOM     11  C   UNL     1       3.817 -38.772  25.013  1.00  0.00     0.053 C 
BRANCH  11  12
ATOM     12  C   UNL     1       4.162 -37.609  25.890  1.00  0.00     0.041 C 
ATOM     13  O   UNL     1       5.361 -37.252  26.028  1.00  0.00    -0.550 OA
ATOM     14  O   UNL     1       3.161 -36.941  26.584  1.00  0.00    -0.550 OA
ENDBRANCH  11  12
ENDBRANCH  10  11
ENDBRANCH   9  10
ENDBRANCH   8   9
ENDBRANCH   7   8
ENDBRANCH   6   7
ENDBRANCH   5   6
ENDBRANCH   4   5
ENDBRANCH   3   4
ENDBRANCH   2   3
ENDBRANCH   1   2
BRANCH   1  15
ATOM     15  C   UNL     1       4.429 -33.500  20.677  1.00  0.00     0.000 C 
BRANCH  15  16
ATOM     16  C   UNL     1       5.846 -33.930  20.263  1.00  0.00     0.000 C 
BRANCH  16  17
ATOM     17  C   UNL     1       5.885 -34.575  18.867  1.00  0.00     0.000 C 
BRANCH  17  18
ATOM     18  C   UNL     1       4.700 -34.152  17.978  1.00  0.00    -0.000 C 
BRANCH  18  19
ATOM     19  C   UNL     1       3.901 -35.314  17.359  1.00  0.00    -0.000 C 
BRANCH  19  20
ATOM     20  C   UNL     1       3.511 -36.435  18.339  1.00  0.00    -0.000 C 
BRANCH  20  21
ATOM     21  C   UNL     1       2.416 -37.380  17.800  1.00  0.00    -0.000 C 
BRANCH  21  22
ATOM     22  C   UNL     1       1.369 -36.643  16.951  1.00  0.00    -0.000 C 
BRANCH  22  23
ATOM     23  C   UNL     1       1.671 -36.788  15.455  1.00  0.00    -0.000 C 
BRANCH  23  24
ATOM     24  C   UNL     1       3.151 -36.497  15.162  1.00  0.00    -0.000 C 
BRANCH  24  25
ATOM     25  C   UNL     1       3.652 -37.201  13.893  1.00  0.00    -0.003 C 
ATOM     26  C   UNL     1       4.268 -38.571  14.181  1.00  0.00     0.004 C 
ENDBRANCH  24  25
ENDBRANCH  23  24
ENDBRANCH  22  23
ENDBRANCH  21  22
ENDBRANCH  20  21
ENDBRANCH  19  20
ENDBRANCH  18  19
ENDBRANCH  17  18
ENDBRANCH  16  17
ENDBRANCH  15  16
ENDBRANCH   1  15
TORSDOF 22
ENDMDL
MODEL 5
REMARK VINA RESULT:    -1.207      3.874      7.595
REMARK INTER + INTRA:          -5.168
REMARK INTER:                  -4.082
REMARK INTRA:                  -1.085
REMARK UNBOUND:                -2.408
REMARK SMILES CCCCCCCCCCCCCCCCCCCCCCCC(=O)[O-]
REMARK SMILES IDX 13 1 14 2 15 3 16 4 17 5 18 6 19 7 20 8 21 9 22 10 23 11
REMARK SMILES IDX 24 12 25 13 26 14 12 15 11 16 10 17 9 18 8 19 7 20 6 21 5 22
REMARK SMILES IDX 4 23 3 24 2 25 1 26
REMARK H PARENT
REMARK Flexibility Score: inf
ROOT
ATOM      1  C   UNL     1       5.487 -34.964  23.048  1.00  0.00     0.000 C 
ENDROOT
BRANCH   1   2
ATOM      2  C   UNL     1       6.012 -36.023  22.065  1.00  0.00     0.000 C 
BRANCH   2   3
ATOM      3  C   UNL     1       4.888 -36.883  21.465  1.00  0.00     0.000 C 
BRANCH   3   4
ATOM      4  C   UNL     1       5.385 -37.653  20.231  1.00  0.00     0.000 C 
BRANCH   4   5
ATOM      5  C   UNL     1       5.794 -39.102  20.551  1.00  0.00     0.000 C 
BRANCH   5   6
ATOM      6  C   UNL     1       5.709 -39.493  22.038  1.00  0.00     0.000 C 
BRANCH   6   7
ATOM      7  C   UNL     1       4.282 -39.387  22.604  1.00  0.00     0.000 C 
BRANCH   7   8
ATOM      8  C   UNL     1       4.259 -39.268  24.136  1.00  0.00     0.000 C 
BRANCH   8   9
ATOM      9  C   UNL     1       5.069 -38.065  24.650  1.00  0.00     0.000 C 
BRANCH   9  10
ATOM     10  C   UNL     1       4.236 -37.125  25.541  1.00  0.00     0.006 C 
BRANCH  10  11
ATOM     11  C   UNL     1       3.715 -37.773  26.835  1.00  0.00     0.053 C 
BRANCH  11  12
ATOM     12  C   UNL     1       2.332 -37.312  27.175  1.00  0.00     0.041 C 
ATOM     13  O   UNL     1       2.151 -36.183  27.702  1.00  0.00    -0.550 OA
ATOM     14  O   UNL     1       1.244 -38.144  26.942  1.00  0.00    -0.550 OA
ENDBRANCH  11  12
ENDBRANCH  10  11
ENDBRANCH   9  10
ENDBRANCH   8   9
ENDBRANCH   7   8
ENDBRANCH   6   7
ENDBRANCH   5   6
ENDBRANCH   4   5
ENDBRANCH   3   4
ENDBRANCH   2   3
ENDBRANCH   1   2
BRANCH   1  15
ATOM     15  C   UNL     1       5.262 -33.597  22.378  1.00  0.00     0.000 C 
BRANCH  15  16
ATOM     16  C   UNL     1       3.843 -33.446  21.806  1.00  0.00     0.000 C 
BRANCH  16  17
ATOM     17  C   UNL     1       3.760 -33.822  20.317  1.00  0.00     0.000 C 
BRANCH  17  18
ATOM     18  C   UNL     1       5.138 -33.854  19.630  1.00  0.00    -0.000 C 
BRANCH  18  19
ATOM     19  C   UNL     1       5.188 -34.636  18.304  1.00  0.00    -0.000 C 
BRANCH  19  20
ATOM     20  C   UNL     1       3.820 -35.081  17.755  1.00  0.00    -0.000 C 
BRANCH  20  21
ATOM     21  C   UNL     1       3.519 -36.578  17.973  1.00  0.00    -0.000 C 
BRANCH  21  22
ATOM     22  C   UNL     1       2.378 -37.086  17.080  1.00  0.00    -0.000 C 
BRANCH  22  23
ATOM     23  C   UNL     1       1.974 -36.027  16.046  1.00  0.00    -0.000 C 
BRANCH  23  24
ATOM     24  C   UNL     1       2.271 -36.512  14.619  1.00  0.00    -0.000 C 
BRANCH  24  25
ATOM     25  C   UNL     1       3.758 -36.829  14.399  1.00  0.00    -0.003 C 
ATOM     26  C   UNL     1       4.030 -38.328  14.265  1.00  0.00     0.004 C 
ENDBRANCH  24  25
ENDBRANCH  23  24
ENDBRANCH  22  23
ENDBRANCH  21  22
ENDBRANCH  20  21
ENDBRANCH  19  20
ENDBRANCH  18  19
ENDBRANCH  17  18
ENDBRANCH  16  17
ENDBRANCH  15  16
ENDBRANCH   1  15
TORSDOF 22
ENDMDL
MODEL 6
REMARK VINA RESULT:    -1.127      3.887      8.333
REMARK INTER + INTRA:          -4.985
REMARK INTER:                  -3.028
REMARK INTRA:                  -1.957
REMARK UNBOUND:                -2.408
REMARK SMILES CCCCCCCCCCCCCCCCCCCCCCCC(=O)[O-]
REMARK SMILES IDX 13 1 14 2 15 3 16 4 17 5 18 6 19 7 20 8 21 9 22 10 23 11
REMARK SMILES IDX 24 12 25 13 26 14 12 15 11 16 10 17 9 18 8 19 7 20 6 21 5 22
REMARK SMILES IDX 4 23 3 24 2 25 1 26
REMARK H PARENT
REMARK Flexibility Score: inf
ROOT
ATOM      1  C   UNL     1       2.944 -37.283  19.881  1.00  0.00     0.000 C 
ENDROOT
BRANCH   1   2
ATOM      2  C   UNL     1       4.189 -37.970  19.295  1.00  0.00     0.000 C 
BRANCH   2   3
ATOM      3  C   UNL     1       5.406 -37.886  20.230  1.00  0.00     0.000 C 
BRANCH   3   4
ATOM      4  C   UNL     1       6.052 -39.268  20.416  1.00  0.00     0.000 C 
BRANCH   4   5
ATOM      5  C   UNL     1       5.723 -39.907  21.778  1.00  0.00     0.000 C 
BRANCH   5   6
ATOM      6  C   UNL     1       4.420 -39.416  22.434  1.00  0.00     0.000 C 
BRANCH   6   7
ATOM      7  C   UNL     1       4.659 -38.699  23.775  1.00  0.00     0.000 C 
BRANCH   7   8
ATOM      8  C   UNL     1       5.088 -37.233  23.594  1.00  0.00     0.000 C 
BRANCH   8   9
ATOM      9  C   UNL     1       5.659 -36.620  24.885  1.00  0.00     0.000 C 
BRANCH   9  10
ATOM     10  C   UNL     1       4.584 -36.404  25.967  1.00  0.00     0.006 C 
BRANCH  10  11
ATOM     11  C   UNL     1       3.739 -37.650  26.278  1.00  0.00     0.053 C 
BRANCH  11  12
ATOM     12  C   UNL     1       2.472 -37.302  26.997  1.00  0.00     0.041 C 
ATOM     13  O   UNL     1       2.367 -36.203  27.602  1.00  0.00    -0.550 OA
ATOM     14  O   UNL     1       1.419 -38.208  27.028  1.00  0.00    -0.550 OA
ENDBRANCH  11  12
ENDBRANCH  10  11
ENDBRANCH   9  10
ENDBRANCH   8   9
ENDBRANCH   7   8
ENDBRANCH   6   7
ENDBRANCH   5   6
ENDBRANCH   4   5
ENDBRANCH   3   4
ENDBRANCH   2   3
ENDBRANCH   1   2
BRANCH   1  15
ATOM     15  C   UNL     1       1.659 -37.640  19.112  1.00  0.00     0.000 C 
BRANCH  15  16
ATOM     16  C   UNL     1       1.899 -37.801  17.602  1.00  0.00     0.000 C 
BRANCH  16  17
ATOM     17  C   UNL     1       1.675 -36.493  16.823  1.00  0.00     0.000 C 
BRANCH  17  18
ATOM     18  C   UNL     1       2.845 -36.148  15.884  1.00  0.00    -0.000 C 
BRANCH  18  19
ATOM     19  C   UNL     1       4.092 -35.569  16.579  1.00  0.00    -0.000 C 
BRANCH  19  20
ATOM     20  C   UNL     1       3.820 -34.845  17.911  1.00  0.00    -0.000 C 
BRANCH  20  21
ATOM     21  C   UNL     1       5.000 -33.976  18.398  1.00  0.00    -0.000 C 
BRANCH  21  22
ATOM     22  C   UNL     1       6.037 -34.784  19.192  1.00  0.00    -0.000 C 
BRANCH  22  23
ATOM     23  C   UNL     1       6.048 -34.366  20.668  1.00  0.00    -0.000 C 
BRANCH  23  24
ATOM     24  C   UNL     1       4.622 -34.116  21.179  1.00  0.00    -0.000 C 
BRANCH  24  25
ATOM     25  C   UNL     1       4.580 -33.793  22.681  1.00  0.00    -0.003 C 
ATOM     26  C   UNL     1       5.949 -33.406  23.241  1.00  0.00     0.004 C 
ENDBRANCH  24  25
ENDBRANCH  23  24
ENDBRANCH  22  23
ENDBRANCH  21  22
ENDBRANCH  20  21
ENDBRANCH  19  20
ENDBRANCH  18  19
ENDBRANCH  17  18
ENDBRANCH  16  17
ENDBRANCH  15  16
ENDBRANCH   1  15
TORSDOF 22
ENDMDL
