MODEL 1
REMARK VINA RESULT:     9.102      0.000      0.000
REMARK INTER + INTRA:          21.581
REMARK INTER:                  13.359
REMARK INTRA:                   8.223
REMARK UNBOUND:                 8.223
REMARK SMILES O=c1c(O[C@@H]2O[C@@H](CO)[C@@H](O)[C@H](O)[C@@H]2O)c(-c2ccc(O)c(O)c2)oc2cc(O)cc(O)c12
REMARK SMILES IDX 4 1 3 2 16 3 25 4 2 5 26 6 1 7 33 8 27 9 31 10 28 11 30 12
REMARK SMILES IDX 17 13 18 14 19 15 20 16 24 17 22 18 21 19 23 21 32 23 29 25
REMARK SMILES IDX 5 27 14 28 6 29 12 30 7 31 10 32 15 33 13 35 8 37 9 38 11 40
REMARK H PARENT 21 20 23 22 32 24 29 26 15 34 13 36 9 39 11 41
REMARK Flexibility Score: inf
ROOT
ATOM      1  O   UNL     1     -32.236 -20.076 -31.634  1.00  0.00    -0.454 OA
ENDROOT
BRANCH   1   2
ATOM      2  C   UNL     1     -32.351 -20.744 -32.870  1.00  0.00     0.214 A 
ATOM      3  C   UNL     1     -31.916 -22.083 -32.949  1.00  0.00     0.180 A 
ATOM      4  O   UNL     1     -31.962 -22.735 -34.105  1.00  0.00    -0.452 OA
ATOM      5  C   UNL     1     -32.857 -20.137 -34.043  1.00  0.00     0.239 A 
ATOM      6  C   UNL     1     -32.425 -22.201 -35.227  1.00  0.00     0.146 A 
ATOM      7  O   UNL     1     -33.256 -18.944 -34.021  1.00  0.00    -0.285 OA
ATOM      8  C   UNL     1     -32.896 -20.869 -35.248  1.00  0.00     0.111 A 
ATOM      9  C   UNL     1     -32.448 -22.975 -36.390  1.00  0.00     0.094 A 
ATOM     10  C   UNL     1     -33.377 -20.326 -36.467  1.00  0.00     0.134 A 
ATOM     11  C   UNL     1     -32.931 -22.436 -37.588  1.00  0.00     0.123 A 
ATOM     12  C   UNL     1     -33.389 -21.118 -37.623  1.00  0.00     0.093 A 
BRANCH   3  13
ATOM     13  C   UNL     1     -31.405 -22.807 -31.764  1.00  0.00     0.025 A 
ATOM     14  C   UNL     1     -30.344 -22.291 -31.004  1.00  0.00     0.016 A 
ATOM     15  C   UNL     1     -29.880 -22.976 -29.878  1.00  0.00     0.051 A 
ATOM     16  C   UNL     1     -30.486 -24.175 -29.483  1.00  0.00     0.157 A 
ATOM     17  C   UNL     1     -32.028 -23.996 -31.349  1.00  0.00     0.062 A 
ATOM     18  C   UNL     1     -31.571 -24.683 -30.217  1.00  0.00     0.158 A 
BRANCH  16  19
ATOM     19  O   UNL     1     -30.014 -24.858 -28.362  1.00  0.00    -0.504 OA
ATOM     20  H   UNL     1     -30.652 -25.216 -27.657  1.00  0.00     0.293 HD
ENDBRANCH  16  19
BRANCH  18  21
ATOM     21  O   UNL     1     -32.203 -25.867 -29.843  1.00  0.00    -0.504 OA
ATOM     22  H   UNL     1     -32.162 -26.220 -28.894  1.00  0.00     0.293 HD
ENDBRANCH  18  21
ENDBRANCH   3  13
BRANCH  10  23
ATOM     23  O   UNL     1     -33.843 -19.013 -36.536  1.00  0.00    -0.507 OA
ATOM     24  H   UNL     1     -34.388 -18.600 -35.789  1.00  0.00     0.293 HD
ENDBRANCH  10  23
BRANCH  11  25
ATOM     25  O   UNL     1     -32.961 -23.204 -38.750  1.00  0.00    -0.508 OA
ATOM     26  H   UNL     1     -32.699 -24.184 -38.745  1.00  0.00     0.293 HD
ENDBRANCH  11  25
ENDBRANCH   1   2
BRANCH   1  27
ATOM     27  C   UNL     1     -31.389 -18.962 -31.335  1.00  0.00     0.339 C 
ATOM     28  C   UNL     1     -31.108 -18.875 -29.818  1.00  0.00     0.214 C 
ATOM     29  O   UNL     1     -30.185 -19.007 -32.090  1.00  0.00    -0.332 OA
ATOM     30  C   UNL     1     -30.145 -19.983 -29.355  1.00  0.00     0.180 C 
ATOM     31  C   UNL     1     -29.396 -20.136 -31.752  1.00  0.00     0.179 C 
ATOM     32  C   UNL     1     -28.920 -20.039 -30.285  1.00  0.00     0.177 C 
BRANCH  28  33
ATOM     33  O   UNL     1     -32.303 -18.947 -29.082  1.00  0.00    -0.384 OA
ATOM     34  H   UNL     1     -32.943 -19.465 -29.633  1.00  0.00     0.211 HD
ENDBRANCH  28  33
BRANCH  30  35
ATOM     35  O   UNL     1     -30.804 -21.228 -29.342  1.00  0.00    -0.387 OA
ATOM     36  H   UNL     1     -31.586 -21.133 -28.739  1.00  0.00     0.211 HD
ENDBRANCH  30  35
BRANCH  31  37
ATOM     37  C   UNL     1     -28.203 -20.198 -32.716  1.00  0.00     0.191 C 
BRANCH  37  38
ATOM     38  O   UNL     1     -28.031 -18.962 -33.357  1.00  0.00    -0.394 OA
ATOM     39  H   UNL     1     -27.283 -19.076 -34.000  1.00  0.00     0.210 HD
ENDBRANCH  37  38
ENDBRANCH  31  37
BRANCH  32  40
ATOM     40  O   UNL     1     -28.147 -18.875 -30.113  1.00  0.00    -0.387 OA
ATOM     41  H   UNL     1     -27.227 -19.088 -30.420  1.00  0.00     0.211 HD
ENDBRANCH  32  40
ENDBRANCH   1  27
TORSDOF 12
ENDMDL
