MODEL 1
REMARK VINA RESULT:    -2.593      0.000      0.000
REMARK INTER + INTRA:          -5.244
REMARK INTER:                  -4.109
REMARK INTRA:                  -1.135
REMARK UNBOUND:                -1.135
REMARK SMILES CCCCCCCCCCCC(=O)[O-]
REMARK SMILES IDX 7 1 8 2 9 3 10 4 11 5 12 6 13 7 14 8 6 9 5 10 4 11 3 12 2 13
REMARK SMILES IDX 1 14
REMARK H PARENT
REMARK Flexibility Score: inf
ROOT
ATOM      1  C   UNL     1     -11.875  -3.708 -11.423  1.00  0.00     0.000 C 
ENDROOT
BRANCH   1   2
ATOM      2  C   UNL     1     -12.612  -3.794 -12.768  1.00  0.00     0.000 C 
BRANCH   2   3
ATOM      3  C   UNL     1     -14.128  -3.589 -12.625  1.00  0.00     0.000 C 
BRANCH   3   4
ATOM      4  C   UNL     1     -14.721  -2.742 -13.767  1.00  0.00     0.006 C 
BRANCH   4   5
ATOM      5  C   UNL     1     -13.634  -2.034 -14.586  1.00  0.00     0.053 C 
BRANCH   5   6
ATOM      6  C   UNL     1     -13.813  -2.260 -16.056  1.00  0.00     0.041 C 
ATOM      7  O   UNL     1     -14.470  -3.251 -16.470  1.00  0.00    -0.550 OA
ATOM      8  O   UNL     1     -13.285  -1.356 -16.968  1.00  0.00    -0.550 OA
ENDBRANCH   5   6
ENDBRANCH   4   5
ENDBRANCH   3   4
ENDBRANCH   2   3
ENDBRANCH   1   2
BRANCH   1   9
ATOM      9  C   UNL     1     -11.920  -2.281 -10.863  1.00  0.00     0.000 C 
BRANCH   9  10
ATOM     10  C   UNL     1     -12.365  -2.280  -9.393  1.00  0.00    -0.000 C 
BRANCH  10  11
ATOM     11  C   UNL     1     -12.784  -3.674  -8.898  1.00  0.00    -0.000 C 
BRANCH  11  12
ATOM     12  C   UNL     1     -14.310  -3.864  -8.888  1.00  0.00    -0.000 C 
BRANCH  12  13
ATOM     13  C   UNL     1     -14.719  -5.345  -8.875  1.00  0.00    -0.003 C 
ATOM     14  C   UNL     1     -13.587  -6.276  -9.309  1.00  0.00     0.004 C 
ENDBRANCH  12  13
ENDBRANCH  11  12
ENDBRANCH  10  11
ENDBRANCH   9  10
ENDBRANCH   1   9
TORSDOF 10
ENDMDL
MODEL 2
REMARK VINA RESULT:    -2.148     22.449     24.267
REMARK INTER + INTRA:          -4.538
REMARK INTER:                  -4.295
REMARK INTRA:                  -0.243
REMARK UNBOUND:                -1.135
REMARK SMILES CCCCCCCCCCCC(=O)[O-]
REMARK SMILES IDX 7 1 8 2 9 3 10 4 11 5 12 6 13 7 14 8 6 9 5 10 4 11 3 12 2 13
REMARK SMILES IDX 1 14
REMARK H PARENT
REMARK Flexibility Score: inf
ROOT
ATOM      1  C   UNL     1     -31.263   1.597 -25.756  1.00  0.00     0.000 C 
ENDROOT
BRANCH   1   2
ATOM      2  C   UNL     1     -31.255   0.618 -24.573  1.00  0.00     0.000 C 
BRANCH   2   3
ATOM      3  C   UNL     1     -31.023  -0.837 -25.012  1.00  0.00     0.000 C 
BRANCH   3   4
ATOM      4  C   UNL     1     -31.188  -1.030 -26.531  1.00  0.00     0.006 C 
BRANCH   4   5
ATOM      5  C   UNL     1     -31.490  -2.488 -26.899  1.00  0.00     0.053 C 
BRANCH   5   6
ATOM      6  C   UNL     1     -31.647  -2.665 -28.378  1.00  0.00     0.041 C 
ATOM      7  O   UNL     1     -31.882  -1.671 -29.114  1.00  0.00    -0.550 OA
ATOM      8  O   UNL     1     -31.498  -3.922 -28.948  1.00  0.00    -0.550 OA
ENDBRANCH   5   6
ENDBRANCH   4   5
ENDBRANCH   3   4
ENDBRANCH   2   3
ENDBRANCH   1   2
BRANCH   1   9
ATOM      9  C   UNL     1     -30.426   2.844 -25.443  1.00  0.00     0.000 C 
BRANCH   9  10
ATOM     10  C   UNL     1     -30.981   4.077 -26.172  1.00  0.00    -0.000 C 
BRANCH  10  11
ATOM     11  C   UNL     1     -32.125   3.731 -27.138  1.00  0.00    -0.000 C 
BRANCH  11  12
ATOM     12  C   UNL     1     -31.623   3.396 -28.553  1.00  0.00    -0.000 C 
BRANCH  12  13
ATOM     13  C   UNL     1     -30.701   4.485 -29.124  1.00  0.00    -0.003 C 
ATOM     14  C   UNL     1     -31.249   5.896 -28.913  1.00  0.00     0.004 C 
ENDBRANCH  12  13
ENDBRANCH  11  12
ENDBRANCH  10  11
ENDBRANCH   9  10
ENDBRANCH   1   9
TORSDOF 10
ENDMDL
MODEL 3
REMARK VINA RESULT:    -2.082      3.236      6.233
REMARK INTER + INTRA:          -4.434
REMARK INTER:                  -4.196
REMARK INTRA:                  -0.239
REMARK UNBOUND:                -1.135
REMARK SMILES CCCCCCCCCCCC(=O)[O-]
REMARK SMILES IDX 7 1 8 2 9 3 10 4 11 5 12 6 13 7 14 8 6 9 5 10 4 11 3 12 2 13
REMARK SMILES IDX 1 14
REMARK H PARENT
REMARK Flexibility Score: inf
ROOT
ATOM      1  C   UNL     1     -12.964  -4.113 -12.351  1.00  0.00     0.000 C 
ENDROOT
BRANCH   1   2
ATOM      2  C   UNL     1     -11.875  -3.542 -11.431  1.00  0.00     0.000 C 
BRANCH   2   3
ATOM      3  C   UNL     1     -12.435  -2.546 -10.402  1.00  0.00     0.000 C 
BRANCH   3   4
ATOM      4  C   UNL     1     -12.413  -3.102  -8.967  1.00  0.00     0.006 C 
BRANCH   4   5
ATOM      5  C   UNL     1     -12.337  -4.635  -8.942  1.00  0.00     0.053 C 
BRANCH   5   6
ATOM      6  C   UNL     1     -13.697  -5.258  -9.021  1.00  0.00     0.041 C 
ATOM      7  O   UNL     1     -14.729  -4.551  -8.875  1.00  0.00    -0.550 OA
ATOM      8  O   UNL     1     -13.826  -6.614  -9.290  1.00  0.00    -0.550 OA
ENDBRANCH   5   6
ENDBRANCH   4   5
ENDBRANCH   3   4
ENDBRANCH   2   3
ENDBRANCH   1   2
BRANCH   1   9
ATOM      9  C   UNL     1     -14.277  -3.336 -12.196  1.00  0.00     0.000 C 
BRANCH   9  10
ATOM     10  C   UNL     1     -15.022  -3.240 -13.536  1.00  0.00    -0.000 C 
BRANCH  10  11
ATOM     11  C   UNL     1     -14.072  -3.218 -14.744  1.00  0.00    -0.000 C 
BRANCH  11  12
ATOM     12  C   UNL     1     -12.995  -2.124 -14.630  1.00  0.00    -0.000 C 
BRANCH  12  13
ATOM     13  C   UNL     1     -13.159  -1.023 -15.690  1.00  0.00    -0.003 C 
ATOM     14  C   UNL     1     -13.628  -1.566 -17.040  1.00  0.00     0.004 C 
ENDBRANCH  12  13
ENDBRANCH  11  12
ENDBRANCH  10  11
ENDBRANCH   9  10
ENDBRANCH   1   9
TORSDOF 10
ENDMDL
MODEL 4
REMARK VINA RESULT:    -1.643     22.592     24.218
REMARK INTER + INTRA:          -3.739
REMARK INTER:                  -3.170
REMARK INTRA:                  -0.568
REMARK UNBOUND:                -1.135
REMARK SMILES CCCCCCCCCCCC(=O)[O-]
REMARK SMILES IDX 7 1 8 2 9 3 10 4 11 5 12 6 13 7 14 8 6 9 5 10 4 11 3 12 2 13
REMARK SMILES IDX 1 14
REMARK H PARENT
REMARK Flexibility Score: inf
ROOT
ATOM      1  C   UNL     1     -31.209   0.169 -26.168  1.00  0.00     0.000 C 
ENDROOT
BRANCH   1   2
ATOM      2  C   UNL     1     -30.499   1.208 -25.287  1.00  0.00     0.000 C 
BRANCH   2   3
ATOM      3  C   UNL     1     -31.375   2.440 -25.006  1.00  0.00     0.000 C 
BRANCH   3   4
ATOM      4  C   UNL     1     -32.124   2.932 -26.258  1.00  0.00     0.006 C 
BRANCH   4   5
ATOM      5  C   UNL     1     -31.736   4.367 -26.636  1.00  0.00     0.053 C 
BRANCH   5   6
ATOM      6  C   UNL     1     -31.582   4.527 -28.118  1.00  0.00     0.041 C 
ATOM      7  O   UNL     1     -31.242   3.545 -28.829  1.00  0.00    -0.550 OA
ATOM      8  O   UNL     1     -31.848   5.751 -28.717  1.00  0.00    -0.550 OA
ENDBRANCH   5   6
ENDBRANCH   4   5
ENDBRANCH   3   4
ENDBRANCH   2   3
ENDBRANCH   1   2
BRANCH   1   9
ATOM      9  C   UNL     1     -31.116  -1.231 -25.550  1.00  0.00     0.000 C 
BRANCH   9  10
ATOM     10  C   UNL     1     -31.500  -2.311 -26.572  1.00  0.00    -0.000 C 
BRANCH  10  11
ATOM     11  C   UNL     1     -32.125  -1.726 -27.849  1.00  0.00    -0.000 C 
BRANCH  11  12
ATOM     12  C   UNL     1     -31.759  -2.529 -29.109  1.00  0.00    -0.000 C 
BRANCH  12  13
ATOM     13  C   UNL     1     -31.024  -3.838 -28.780  1.00  0.00    -0.003 C 
ATOM     14  C   UNL     1     -31.845  -5.081 -29.125  1.00  0.00     0.004 C 
ENDBRANCH  12  13
ENDBRANCH  11  12
ENDBRANCH  10  11
ENDBRANCH   9  10
ENDBRANCH   1   9
TORSDOF 10
ENDMDL
MODEL 5
REMARK VINA RESULT:    -0.902      3.365      6.367
REMARK INTER + INTRA:          -2.564
REMARK INTER:                  -2.503
REMARK INTRA:                  -0.061
REMARK UNBOUND:                -1.135
REMARK SMILES CCCCCCCCCCCC(=O)[O-]
REMARK SMILES IDX 7 1 8 2 9 3 10 4 11 5 12 6 13 7 14 8 6 9 5 10 4 11 3 12 2 13
REMARK SMILES IDX 1 14
REMARK H PARENT
REMARK Flexibility Score: inf
ROOT
ATOM      1  C   UNL     1     -13.646  -3.629 -11.881  1.00  0.00     0.000 C 
ENDROOT
BRANCH   1   2
ATOM      2  C   UNL     1     -12.247  -3.193 -11.421  1.00  0.00     0.000 C 
BRANCH   2   3
ATOM      3  C   UNL     1     -12.278  -2.417 -10.094  1.00  0.00     0.000 C 
BRANCH   3   4
ATOM      4  C   UNL     1     -12.725  -3.291  -8.908  1.00  0.00     0.006 C 
BRANCH   4   5
ATOM      5  C   UNL     1     -11.995  -4.640  -8.876  1.00  0.00     0.053 C 
BRANCH   5   6
ATOM      6  C   UNL     1     -12.954  -5.790  -8.915  1.00  0.00     0.041 C 
ATOM      7  O   UNL     1     -12.526  -6.974  -8.875  1.00  0.00    -0.550 OA
ATOM      8  O   UNL     1     -14.321  -5.554  -8.961  1.00  0.00    -0.550 OA
ENDBRANCH   5   6
ENDBRANCH   4   5
ENDBRANCH   3   4
ENDBRANCH   2   3
ENDBRANCH   1   2
BRANCH   1   9
ATOM      9  C   UNL     1     -13.970  -3.058 -13.267  1.00  0.00     0.000 C 
BRANCH   9  10
ATOM     10  C   UNL     1     -12.710  -2.488 -13.936  1.00  0.00    -0.000 C 
BRANCH  10  11
ATOM     11  C   UNL     1     -12.994  -1.218 -14.754  1.00  0.00    -0.000 C 
BRANCH  11  12
ATOM     12  C   UNL     1     -13.165  -1.507 -16.255  1.00  0.00    -0.000 C 
BRANCH  12  13
ATOM     13  C   UNL     1     -14.406  -2.364 -16.552  1.00  0.00    -0.003 C 
ATOM     14  C   UNL     1     -14.119  -3.864 -16.485  1.00  0.00     0.004 C 
ENDBRANCH  12  13
ENDBRANCH  11  12
ENDBRANCH  10  11
ENDBRANCH   9  10
ENDBRANCH   1   9
TORSDOF 10
ENDMDL
MODEL 6
REMARK VINA RESULT:     0.129      3.685      5.969
REMARK INTER + INTRA:          -0.931
REMARK INTER:                  -0.169
REMARK INTRA:                  -0.762
REMARK UNBOUND:                -1.135
REMARK SMILES CCCCCCCCCCCC(=O)[O-]
REMARK SMILES IDX 7 1 8 2 9 3 10 4 11 5 12 6 13 7 14 8 6 9 5 10 4 11 3 12 2 13
REMARK SMILES IDX 1 14
REMARK H PARENT
REMARK Flexibility Score: inf
ROOT
ATOM      1  C   UNL     1     -12.950  -2.210 -14.061  1.00  0.00     0.000 C 
ENDROOT
BRANCH   1   2
ATOM      2  C   UNL     1     -12.097  -2.895 -12.983  1.00  0.00     0.000 C 
BRANCH   2   3
ATOM      3  C   UNL     1     -12.950  -3.585 -11.906  1.00  0.00     0.000 C 
BRANCH   3   4
ATOM      4  C   UNL     1     -12.437  -3.312 -10.480  1.00  0.00     0.006 C 
BRANCH   4   5
ATOM      5  C   UNL     1     -12.522  -4.556  -9.587  1.00  0.00     0.053 C 
BRANCH   5   6
ATOM      6  C   UNL     1     -13.939  -4.888  -9.232  1.00  0.00     0.041 C 
ATOM      7  O   UNL     1     -14.327  -6.086  -9.224  1.00  0.00    -0.550 OA
ATOM      8  O   UNL     1     -14.822  -3.877  -8.876  1.00  0.00    -0.550 OA
ENDBRANCH   5   6
ENDBRANCH   4   5
ENDBRANCH   3   4
ENDBRANCH   2   3
ENDBRANCH   1   2
BRANCH   1   9
ATOM      9  C   UNL     1     -14.228  -3.011 -14.341  1.00  0.00     0.000 C 
BRANCH   9  10
ATOM     10  C   UNL     1     -14.324  -3.392 -15.826  1.00  0.00    -0.000 C 
BRANCH  10  11
ATOM     11  C   UNL     1     -14.241  -4.909 -16.057  1.00  0.00    -0.000 C 
BRANCH  11  12
ATOM     12  C   UNL     1     -14.065  -5.698 -14.748  1.00  0.00    -0.000 C 
BRANCH  12  13
ATOM     13  C   UNL     1     -14.132  -7.218 -14.963  1.00  0.00    -0.003 C 
ATOM     14  C   UNL     1     -13.463  -7.662 -16.264  1.00  0.00     0.004 C 
ENDBRANCH  12  13
ENDBRANCH  11  12
ENDBRANCH  10  11
ENDBRANCH   9  10
ENDBRANCH   1   9
TORSDOF 10
ENDMDL
MODEL 7
REMARK VINA RESULT:     0.329     15.594     18.432
REMARK INTER + INTRA:          -0.613
REMARK INTER:                  -0.121
REMARK INTRA:                  -0.493
REMARK UNBOUND:                -1.135
REMARK SMILES CCCCCCCCCCCC(=O)[O-]
REMARK SMILES IDX 7 1 8 2 9 3 10 4 11 5 12 6 13 7 14 8 6 9 5 10 4 11 3 12 2 13
REMARK SMILES IDX 1 14
REMARK H PARENT
REMARK Flexibility Score: inf
ROOT
ATOM      1  C   UNL     1     -20.736   3.544 -27.205  1.00  0.00     0.000 C 
ENDROOT
BRANCH   1   2
ATOM      2  C   UNL     1     -22.208   3.126 -27.345  1.00  0.00     0.000 C 
BRANCH   2   3
ATOM      3  C   UNL     1     -22.366   1.675 -27.827  1.00  0.00     0.000 C 
BRANCH   3   4
ATOM      4  C   UNL     1     -22.131   0.649 -26.703  1.00  0.00     0.006 C 
BRANCH   4   5
ATOM      5  C   UNL     1     -22.793   1.073 -25.386  1.00  0.00     0.053 C 
BRANCH   5   6
ATOM      6  C   UNL     1     -21.801   1.145 -24.265  1.00  0.00     0.041 C 
ATOM      7  O   UNL     1     -20.986   2.103 -24.200  1.00  0.00    -0.550 OA
ATOM      8  O   UNL     1     -21.799   0.173 -23.274  1.00  0.00    -0.550 OA
ENDBRANCH   5   6
ENDBRANCH   4   5
ENDBRANCH   3   4
ENDBRANCH   2   3
ENDBRANCH   1   2
BRANCH   1   9
ATOM      9  C   UNL     1     -20.444   4.807 -28.024  1.00  0.00     0.000 C 
BRANCH   9  10
ATOM     10  C   UNL     1     -19.875   5.921 -27.132  1.00  0.00    -0.000 C 
BRANCH  10  11
ATOM     11  C   UNL     1     -18.358   6.102 -27.302  1.00  0.00    -0.000 C 
BRANCH  11  12
ATOM     12  C   UNL     1     -17.909   5.983 -28.768  1.00  0.00    -0.000 C 
BRANCH  12  13
ATOM     13  C   UNL     1     -16.387   6.123 -28.931  1.00  0.00    -0.003 C 
ATOM     14  C   UNL     1     -15.641   4.813 -28.676  1.00  0.00     0.004 C 
ENDBRANCH  12  13
ENDBRANCH  11  12
ENDBRANCH  10  11
ENDBRANCH   9  10
ENDBRANCH   1   9
TORSDOF 10
ENDMDL
