MODEL 1
REMARK VINA RESULT:    -6.790      0.000      0.000
REMARK INTER + INTRA:         -13.070
REMARK INTER:                 -11.157
REMARK INTRA:                  -1.913
REMARK UNBOUND:                -1.913
REMARK SMILES C[C@H]1O[C@H](OC[C@H]2O[C@H](Oc3c(-c4ccc(O)c(O)c4)oc4cc(O)cc(O)c4c3=O)[C@@H](O)[C@H](O)[C@H]2O)[C@@H](O)[C@@H](O)[C@@H]1O
REMARK SMILES IDX 7 1 36 2 34 3 32 4 9 5 8 6 6 7 5 8 4 9 1 10 2 11 42 12 3 13
REMARK SMILES IDX 40 14 38 15 43 16 41 18 39 20 37 22 35 24 10 26 11 27 12 28
REMARK SMILES IDX 30 29 21 30 29 31 31 32 22 33 27 34 23 35 26 36 24 37 13 38
REMARK SMILES IDX 20 39 14 40 18 41 15 42 16 43 19 44 17 46 28 48 25 50 33 52
REMARK H PARENT 43 17 41 19 39 21 37 23 35 25 19 45 17 47 28 49 25 51 33 53
REMARK Flexibility Score: inf
ROOT
ATOM      1  C   UNL     1      -6.131  88.767  -8.519  1.00  0.00     0.180 C 
ATOM      2  C   UNL     1      -4.862  88.915  -7.644  1.00  0.00     0.177 C 
ATOM      3  C   UNL     1      -4.589  87.610  -6.872  1.00  0.00     0.180 C 
ATOM      4  C   UNL     1      -4.689  86.371  -7.794  1.00  0.00     0.214 C 
ATOM      5  C   UNL     1      -5.944  86.436  -8.694  1.00  0.00     0.339 C 
ATOM      6  O   UNL     1      -6.011  87.664  -9.402  1.00  0.00    -0.332 OA
ENDROOT
BRANCH   1   7
ATOM      7  C   UNL     1      -6.389  90.028  -9.351  1.00  0.00     0.198 C 
BRANCH   7   8
ATOM      8  O   UNL     1      -5.756  89.902 -10.608  1.00  0.00    -0.347 OA
BRANCH   8   9
ATOM      9  C   UNL     1      -6.487  90.578 -11.623  1.00  0.00     0.281 C 
ATOM     10  C   UNL     1      -3.915  93.004 -12.657  1.00  0.00     0.041 C 
ATOM     11  C   UNL     1      -4.530  91.625 -12.414  1.00  0.00     0.150 C 
ATOM     12  C   UNL     1      -4.510  90.784 -13.716  1.00  0.00     0.174 C 
ATOM     13  O   UNL     1      -5.859  91.809 -11.947  1.00  0.00    -0.344 OA
ATOM     14  C   UNL     1      -5.228  89.442 -13.492  1.00  0.00     0.179 C 
ATOM     15  C   UNL     1      -6.619  89.684 -12.872  1.00  0.00     0.202 C 
BRANCH  12  16
ATOM     16  O   UNL     1      -3.192  90.567 -14.162  1.00  0.00    -0.388 OA
ATOM     17  H   UNL     1      -3.075  91.062 -15.014  1.00  0.00     0.211 HD
ENDBRANCH  12  16
BRANCH  14  18
ATOM     18  O   UNL     1      -5.341  88.759 -14.714  1.00  0.00    -0.387 OA
ATOM     19  H   UNL     1      -5.690  87.854 -14.501  1.00  0.00     0.211 HD
ENDBRANCH  14  18
BRANCH  15  20
ATOM     20  O   UNL     1      -7.471  90.312 -13.797  1.00  0.00    -0.385 OA
ATOM     21  H   UNL     1      -8.213  90.719 -13.279  1.00  0.00     0.211 HD
ENDBRANCH  15  20
ENDBRANCH   8   9
ENDBRANCH   7   8
ENDBRANCH   1   7
BRANCH   2  22
ATOM     22  O   UNL     1      -3.750  89.228  -8.449  1.00  0.00    -0.387 OA
ATOM     23  H   UNL     1      -3.447  88.387  -8.884  1.00  0.00     0.211 HD
ENDBRANCH   2  22
BRANCH   3  24
ATOM     24  O   UNL     1      -5.515  87.499  -5.820  1.00  0.00    -0.387 OA
ATOM     25  H   UNL     1      -5.007  87.219  -5.016  1.00  0.00     0.211 HD
ENDBRANCH   3  24
BRANCH   5  26
ATOM     26  O   UNL     1      -7.126  86.230  -7.913  1.00  0.00    -0.454 OA
BRANCH  26  27
ATOM     27  C   UNL     1      -8.167  85.394  -8.327  1.00  0.00     0.214 A 
ATOM     28  C   UNL     1      -7.983  84.006  -8.479  1.00  0.00     0.180 A 
ATOM     29  C   UNL     1      -9.427  85.944  -8.583  1.00  0.00     0.239 A 
ATOM     30  O   UNL     1      -9.018  83.234  -8.798  1.00  0.00    -0.452 OA
ATOM     31  C   UNL     1     -10.497  85.099  -8.940  1.00  0.00     0.111 A 
ATOM     32  O   UNL     1      -9.587  87.190  -8.476  1.00  0.00    -0.285 OA
ATOM     33  C   UNL     1     -10.238  83.710  -9.025  1.00  0.00     0.146 A 
ATOM     34  C   UNL     1     -11.804  85.574  -9.201  1.00  0.00     0.134 A 
ATOM     35  C   UNL     1     -11.263  82.822  -9.360  1.00  0.00     0.094 A 
ATOM     36  C   UNL     1     -12.820  84.666  -9.537  1.00  0.00     0.093 A 
ATOM     37  C   UNL     1     -12.554  83.297  -9.617  1.00  0.00     0.123 A 
BRANCH  28  38
ATOM     38  C   UNL     1      -6.660  83.366  -8.311  1.00  0.00     0.025 A 
ATOM     39  C   UNL     1      -5.869  83.095  -9.437  1.00  0.00     0.062 A 
ATOM     40  C   UNL     1      -6.152  83.084  -7.034  1.00  0.00     0.016 A 
ATOM     41  C   UNL     1      -4.603  82.512  -9.302  1.00  0.00     0.158 A 
ATOM     42  C   UNL     1      -4.894  82.497  -6.890  1.00  0.00     0.051 A 
ATOM     43  C   UNL     1      -4.115  82.196  -8.011  1.00  0.00     0.157 A 
BRANCH  41  44
ATOM     44  O   UNL     1      -3.867  82.272 -10.466  1.00  0.00    -0.504 OA
ATOM     45  H   UNL     1      -4.110  82.647 -11.371  1.00  0.00     0.293 HD
ENDBRANCH  41  44
BRANCH  43  46
ATOM     46  O   UNL     1      -2.875  81.589  -7.801  1.00  0.00    -0.504 OA
ATOM     47  H   UNL     1      -2.486  80.878  -8.404  1.00  0.00     0.293 HD
ENDBRANCH  43  46
ENDBRANCH  28  38
BRANCH  34  48
ATOM     48  O   UNL     1     -12.102  86.935  -9.129  1.00  0.00    -0.507 OA
ATOM     49  H   UNL     1     -12.421  87.454  -9.939  1.00  0.00     0.293 HD
ENDBRANCH  34  48
BRANCH  37  50
ATOM     50  O   UNL     1     -13.581  82.417  -9.952  1.00  0.00    -0.508 OA
ATOM     51  H   UNL     1     -14.192  82.591 -10.742  1.00  0.00     0.293 HD
ENDBRANCH  37  50
ENDBRANCH  26  27
ENDBRANCH   5  26
BRANCH   4  52
ATOM     52  O   UNL     1      -3.517  86.216  -8.558  1.00  0.00    -0.384 OA
ATOM     53  H   UNL     1      -3.065  87.094  -8.618  1.00  0.00     0.211 HD
ENDBRANCH   4  52
TORSDOF 16
ENDMDL
MODEL 2
REMARK VINA RESULT:    -6.560      3.738      7.871
REMARK INTER + INTRA:         -12.691
REMARK INTER:                 -10.249
REMARK INTRA:                  -2.442
REMARK UNBOUND:                -1.913
REMARK SMILES C[C@H]1O[C@H](OC[C@H]2O[C@H](Oc3c(-c4ccc(O)c(O)c4)oc4cc(O)cc(O)c4c3=O)[C@@H](O)[C@H](O)[C@H]2O)[C@@H](O)[C@@H](O)[C@@H]1O
REMARK SMILES IDX 7 1 36 2 34 3 32 4 9 5 8 6 6 7 5 8 4 9 1 10 2 11 42 12 3 13
REMARK SMILES IDX 40 14 38 15 43 16 41 18 39 20 37 22 35 24 10 26 11 27 12 28
REMARK SMILES IDX 30 29 21 30 29 31 31 32 22 33 27 34 23 35 26 36 24 37 13 38
REMARK SMILES IDX 20 39 14 40 18 41 15 42 16 43 19 44 17 46 28 48 25 50 33 52
REMARK H PARENT 43 17 41 19 39 21 37 23 35 25 19 45 17 47 28 49 25 51 33 53
REMARK Flexibility Score: inf
ROOT
ATOM      1  C   UNL     1      -7.753  91.562 -13.209  1.00  0.00     0.180 C 
ATOM      2  C   UNL     1      -8.968  90.827 -13.825  1.00  0.00     0.177 C 
ATOM      3  C   UNL     1      -9.213  89.492 -13.095  1.00  0.00     0.180 C 
ATOM      4  C   UNL     1      -9.180  89.669 -11.558  1.00  0.00     0.214 C 
ATOM      5  C   UNL     1      -7.978  90.533 -11.114  1.00  0.00     0.339 C 
ATOM      6  O   UNL     1      -7.936  91.764 -11.817  1.00  0.00    -0.332 OA
ENDROOT
BRANCH   1   7
ATOM      7  C   UNL     1      -7.527  92.926 -13.870  1.00  0.00     0.198 C 
BRANCH   7   8
ATOM      8  O   UNL     1      -7.475  92.767 -15.273  1.00  0.00    -0.347 OA
BRANCH   8   9
ATOM      9  C   UNL     1      -6.371  93.469 -15.831  1.00  0.00     0.281 C 
ATOM     10  C   UNL     1      -4.429  90.591 -17.062  1.00  0.00     0.041 C 
ATOM     11  C   UNL     1      -5.630  91.532 -16.948  1.00  0.00     0.150 C 
ATOM     12  C   UNL     1      -6.019  92.089 -18.342  1.00  0.00     0.174 C 
ATOM     13  O   UNL     1      -5.285  92.582 -16.057  1.00  0.00    -0.344 OA
ATOM     14  C   UNL     1      -7.155  93.116 -18.203  1.00  0.00     0.179 C 
ATOM     15  C   UNL     1      -6.788  94.170 -17.138  1.00  0.00     0.202 C 
BRANCH  12  16
ATOM     16  O   UNL     1      -6.397  91.052 -19.217  1.00  0.00    -0.388 OA
ATOM     17  H   UNL     1      -6.437  91.430 -20.134  1.00  0.00     0.211 HD
ENDBRANCH  12  16
BRANCH  14  18
ATOM     18  O   UNL     1      -7.390  93.727 -19.446  1.00  0.00    -0.387 OA
ATOM     19  H   UNL     1      -7.946  94.530 -19.265  1.00  0.00     0.211 HD
ENDBRANCH  14  18
BRANCH  15  20
ATOM     20  O   UNL     1      -5.727  94.977 -17.585  1.00  0.00    -0.385 OA
ATOM     21  H   UNL     1      -6.109  95.866 -17.802  1.00  0.00     0.211 HD
ENDBRANCH  15  20
ENDBRANCH   8   9
ENDBRANCH   7   8
ENDBRANCH   1   7
BRANCH   2  22
ATOM     22  O   UNL     1     -10.120  91.632 -13.735  1.00  0.00    -0.387 OA
ATOM     23  H   UNL     1     -10.589  91.393 -12.891  1.00  0.00     0.211 HD
ENDBRANCH   2  22
BRANCH   3  24
ATOM     24  O   UNL     1      -8.230  88.569 -13.491  1.00  0.00    -0.387 OA
ATOM     25  H   UNL     1      -8.339  87.766 -12.918  1.00  0.00     0.211 HD
ENDBRANCH   3  24
BRANCH   5  26
ATOM     26  O   UNL     1      -6.756  89.805 -11.282  1.00  0.00    -0.454 OA
BRANCH  26  27
ATOM     27  C   UNL     1      -5.942  89.440 -10.205  1.00  0.00     0.214 A 
ATOM     28  C   UNL     1      -4.973  90.320  -9.682  1.00  0.00     0.180 A 
ATOM     29  C   UNL     1      -6.098  88.178  -9.623  1.00  0.00     0.239 A 
ATOM     30  O   UNL     1      -4.273  89.966  -8.607  1.00  0.00    -0.452 OA
ATOM     31  C   UNL     1      -5.325  87.828  -8.498  1.00  0.00     0.111 A 
ATOM     32  O   UNL     1      -6.944  87.379 -10.109  1.00  0.00    -0.285 OA
ATOM     33  C   UNL     1      -4.408  88.788  -8.006  1.00  0.00     0.146 A 
ATOM     34  C   UNL     1      -5.434  86.579  -7.843  1.00  0.00     0.134 A 
ATOM     35  C   UNL     1      -3.624  88.503  -6.885  1.00  0.00     0.094 A 
ATOM     36  C   UNL     1      -4.636  86.311  -6.720  1.00  0.00     0.093 A 
ATOM     37  C   UNL     1      -3.736  87.266  -6.241  1.00  0.00     0.123 A 
BRANCH  28  38
ATOM     38  C   UNL     1      -4.690  91.634 -10.299  1.00  0.00     0.025 A 
ATOM     39  C   UNL     1      -4.356  91.707 -11.658  1.00  0.00     0.062 A 
ATOM     40  C   UNL     1      -4.814  92.819  -9.560  1.00  0.00     0.016 A 
ATOM     41  C   UNL     1      -4.107  92.941 -12.272  1.00  0.00     0.158 A 
ATOM     42  C   UNL     1      -4.562  94.054 -10.160  1.00  0.00     0.051 A 
ATOM     43  C   UNL     1      -4.198  94.130 -11.509  1.00  0.00     0.157 A 
BRANCH  41  44
ATOM     44  O   UNL     1      -3.783  92.941 -13.631  1.00  0.00    -0.504 OA
ATOM     45  H   UNL     1      -3.608  92.104 -14.168  1.00  0.00     0.293 HD
ENDBRANCH  41  44
BRANCH  43  46
ATOM     46  O   UNL     1      -3.937  95.392 -12.044  1.00  0.00    -0.504 OA
ATOM     47  H   UNL     1      -4.303  96.253 -11.663  1.00  0.00     0.293 HD
ENDBRANCH  43  46
ENDBRANCH  28  38
BRANCH  34  48
ATOM     48  O   UNL     1      -6.323  85.605  -8.296  1.00  0.00    -0.507 OA
ATOM     49  H   UNL     1      -7.321  85.775  -8.343  1.00  0.00     0.293 HD
ENDBRANCH  34  48
BRANCH  37  50
ATOM     50  O   UNL     1      -2.957  86.975  -5.124  1.00  0.00    -0.508 OA
ATOM     51  H   UNL     1      -3.345  86.993  -4.187  1.00  0.00     0.293 HD
ENDBRANCH  37  50
ENDBRANCH  26  27
ENDBRANCH   5  26
BRANCH   4  52
ATOM     52  O   UNL     1     -10.395  90.200 -11.086  1.00  0.00    -0.384 OA
ATOM     53  H   UNL     1     -10.279  91.174 -10.953  1.00  0.00     0.211 HD
ENDBRANCH   4  52
TORSDOF 16
ENDMDL
MODEL 3
REMARK VINA RESULT:    -6.456      3.871      7.546
REMARK INTER + INTRA:         -12.520
REMARK INTER:                 -10.506
REMARK INTRA:                  -2.014
REMARK UNBOUND:                -1.913
REMARK SMILES C[C@H]1O[C@H](OC[C@H]2O[C@H](Oc3c(-c4ccc(O)c(O)c4)oc4cc(O)cc(O)c4c3=O)[C@@H](O)[C@H](O)[C@H]2O)[C@@H](O)[C@@H](O)[C@@H]1O
REMARK SMILES IDX 7 1 36 2 34 3 32 4 9 5 8 6 6 7 5 8 4 9 1 10 2 11 42 12 3 13
REMARK SMILES IDX 40 14 38 15 43 16 41 18 39 20 37 22 35 24 10 26 11 27 12 28
REMARK SMILES IDX 30 29 21 30 29 31 31 32 22 33 27 34 23 35 26 36 24 37 13 38
REMARK SMILES IDX 20 39 14 40 18 41 15 42 16 43 19 44 17 46 28 48 25 50 33 52
REMARK H PARENT 43 17 41 19 39 21 37 23 35 25 19 45 17 47 28 49 25 51 33 53
REMARK Flexibility Score: inf
ROOT
ATOM      1  C   UNL     1      -8.004  85.003  -6.948  1.00  0.00     0.180 C 
ATOM      2  C   UNL     1      -7.985  86.353  -7.707  1.00  0.00     0.177 C 
ATOM      3  C   UNL     1      -9.267  86.514  -8.545  1.00  0.00     0.180 C 
ATOM      4  C   UNL     1     -10.532  86.168  -7.723  1.00  0.00     0.214 C 
ATOM      5  C   UNL     1     -10.345  84.859  -6.923  1.00  0.00     0.339 C 
ATOM      6  O   UNL     1      -9.164  84.895  -6.138  1.00  0.00    -0.332 OA
ENDROOT
BRANCH   1   7
ATOM      7  C   UNL     1      -6.771  84.845  -6.051  1.00  0.00     0.198 C 
BRANCH   7   8
ATOM      8  O   UNL     1      -5.907  83.875  -6.605  1.00  0.00    -0.347 OA
BRANCH   8   9
ATOM      9  C   UNL     1      -4.610  84.411  -6.837  1.00  0.00     0.281 C 
ATOM     10  C   UNL     1      -2.919  81.345  -7.979  1.00  0.00     0.041 C 
ATOM     11  C   UNL     1      -3.953  82.472  -8.001  1.00  0.00     0.150 C 
ATOM     12  C   UNL     1      -3.930  83.204  -9.369  1.00  0.00     0.174 C 
ATOM     13  O   UNL     1      -3.654  83.367  -6.940  1.00  0.00    -0.344 OA
ATOM     14  C   UNL     1      -4.893  84.403  -9.344  1.00  0.00     0.179 C 
ATOM     15  C   UNL     1      -4.611  85.282  -8.108  1.00  0.00     0.202 C 
BRANCH  12  16
ATOM     16  O   UNL     1      -4.262  82.328 -10.421  1.00  0.00    -0.388 OA
ATOM     17  H   UNL     1      -4.968  82.764 -10.965  1.00  0.00     0.211 HD
ENDBRANCH  12  16
BRANCH  14  18
ATOM     18  O   UNL     1      -4.747  85.147 -10.526  1.00  0.00    -0.387 OA
ATOM     19  H   UNL     1      -3.789  85.403 -10.583  1.00  0.00     0.211 HD
ENDBRANCH  14  18
BRANCH  15  20
ATOM     20  O   UNL     1      -3.364  85.920  -8.228  1.00  0.00    -0.385 OA
ATOM     21  H   UNL     1      -3.307  86.278  -9.151  1.00  0.00     0.211 HD
ENDBRANCH  15  20
ENDBRANCH   8   9
ENDBRANCH   7   8
ENDBRANCH   1   7
BRANCH   2  22
ATOM     22  O   UNL     1      -7.879  87.422  -6.796  1.00  0.00    -0.387 OA
ATOM     23  H   UNL     1      -6.947  87.430  -6.449  1.00  0.00     0.211 HD
ENDBRANCH   2  22
BRANCH   3  24
ATOM     24  O   UNL     1      -9.184  85.678  -9.672  1.00  0.00    -0.387 OA
ATOM     25  H   UNL     1      -9.748  86.088 -10.378  1.00  0.00     0.211 HD
ENDBRANCH   3  24
BRANCH   5  26
ATOM     26  O   UNL     1     -10.337  83.733  -7.809  1.00  0.00    -0.454 OA
BRANCH  26  27
ATOM     27  C   UNL     1     -11.113  82.592  -7.585  1.00  0.00     0.214 A 
ATOM     28  C   UNL     1     -12.459  82.524  -7.996  1.00  0.00     0.180 A 
ATOM     29  C   UNL     1     -10.540  81.486  -6.951  1.00  0.00     0.239 A 
ATOM     30  O   UNL     1     -13.141  81.393  -7.837  1.00  0.00    -0.452 OA
ATOM     31  C   UNL     1     -11.299  80.310  -6.780  1.00  0.00     0.111 A 
ATOM     32  O   UNL     1      -9.345  81.555  -6.556  1.00  0.00    -0.285 OA
ATOM     33  C   UNL     1     -12.629  80.309  -7.264  1.00  0.00     0.146 A 
ATOM     34  C   UNL     1     -10.789  79.143  -6.162  1.00  0.00     0.134 A 
ATOM     35  C   UNL     1     -13.424  79.168  -7.135  1.00  0.00     0.094 A 
ATOM     36  C   UNL     1     -11.604  78.008  -6.041  1.00  0.00     0.093 A 
ATOM     37  C   UNL     1     -12.915  78.016  -6.524  1.00  0.00     0.123 A 
BRANCH  28  38
ATOM     38  C   UNL     1     -13.158  83.684  -8.593  1.00  0.00     0.025 A 
ATOM     39  C   UNL     1     -13.925  84.528  -7.779  1.00  0.00     0.062 A 
ATOM     40  C   UNL     1     -13.013  83.990  -9.954  1.00  0.00     0.016 A 
ATOM     41  C   UNL     1     -14.577  85.646  -8.316  1.00  0.00     0.158 A 
ATOM     42  C   UNL     1     -13.663  85.098 -10.500  1.00  0.00     0.051 A 
ATOM     43  C   UNL     1     -14.455  85.927  -9.698  1.00  0.00     0.157 A 
BRANCH  41  44
ATOM     44  O   UNL     1     -15.321  86.448  -7.447  1.00  0.00    -0.504 OA
ATOM     45  H   UNL     1     -15.137  87.427  -7.287  1.00  0.00     0.293 HD
ENDBRANCH  41  44
BRANCH  43  46
ATOM     46  O   UNL     1     -15.097  87.006 -10.308  1.00  0.00    -0.504 OA
ATOM     47  H   UNL     1     -14.827  87.390 -11.203  1.00  0.00     0.293 HD
ENDBRANCH  43  46
ENDBRANCH  28  38
BRANCH  34  48
ATOM     48  O   UNL     1      -9.484  79.102  -5.670  1.00  0.00    -0.507 OA
ATOM     49  H   UNL     1      -9.087  78.254  -5.284  1.00  0.00     0.293 HD
ENDBRANCH  34  48
BRANCH  37  50
ATOM     50  O   UNL     1     -13.702  76.875  -6.391  1.00  0.00    -0.508 OA
ATOM     51  H   UNL     1     -14.346  76.762  -5.616  1.00  0.00     0.293 HD
ENDBRANCH  37  50
ENDBRANCH  26  27
ENDBRANCH   5  26
BRANCH   4  52
ATOM     52  O   UNL     1     -10.895  87.236  -6.882  1.00  0.00    -0.384 OA
ATOM     53  H   UNL     1     -10.882  88.071  -7.414  1.00  0.00     0.211 HD
ENDBRANCH   4  52
TORSDOF 16
ENDMDL
MODEL 4
REMARK VINA RESULT:    -6.400      1.932      3.074
REMARK INTER + INTRA:         -12.428
REMARK INTER:                 -10.333
REMARK INTRA:                  -2.095
REMARK UNBOUND:                -1.913
REMARK SMILES C[C@H]1O[C@H](OC[C@H]2O[C@H](Oc3c(-c4ccc(O)c(O)c4)oc4cc(O)cc(O)c4c3=O)[C@@H](O)[C@H](O)[C@H]2O)[C@@H](O)[C@@H](O)[C@@H]1O
REMARK SMILES IDX 7 1 36 2 34 3 32 4 9 5 8 6 6 7 5 8 4 9 1 10 2 11 42 12 3 13
REMARK SMILES IDX 40 14 38 15 43 16 41 18 39 20 37 22 35 24 10 26 11 27 12 28
REMARK SMILES IDX 30 29 21 30 29 31 31 32 22 33 27 34 23 35 26 36 24 37 13 38
REMARK SMILES IDX 20 39 14 40 18 41 15 42 16 43 19 44 17 46 28 48 25 50 33 52
REMARK H PARENT 43 17 41 19 39 21 37 23 35 25 19 45 17 47 28 49 25 51 33 53
REMARK Flexibility Score: inf
ROOT
ATOM      1  C   UNL     1      -7.699  88.035 -10.510  1.00  0.00     0.180 C 
ATOM      2  C   UNL     1      -8.766  89.144 -10.337  1.00  0.00     0.177 C 
ATOM      3  C   UNL     1      -9.996  88.591  -9.591  1.00  0.00     0.180 C 
ATOM      4  C   UNL     1      -9.586  87.783  -8.337  1.00  0.00     0.214 C 
ATOM      5  C   UNL     1      -8.424  86.811  -8.646  1.00  0.00     0.339 C 
ATOM      6  O   UNL     1      -7.334  87.483  -9.256  1.00  0.00    -0.332 OA
ENDROOT
BRANCH   1   7
ATOM      7  C   UNL     1      -6.435  88.574 -11.189  1.00  0.00     0.198 C 
BRANCH   7   8
ATOM      8  O   UNL     1      -6.746  89.757 -11.896  1.00  0.00    -0.347 OA
BRANCH   8   9
ATOM      9  C   UNL     1      -6.751  89.532 -13.301  1.00  0.00     0.281 C 
ATOM     10  C   UNL     1      -7.234  93.003 -14.433  1.00  0.00     0.041 C 
ATOM     11  C   UNL     1      -6.536  91.838 -13.728  1.00  0.00     0.150 C 
ATOM     12  C   UNL     1      -5.079  91.690 -14.236  1.00  0.00     0.174 C 
ATOM     13  O   UNL     1      -7.285  90.658 -13.980  1.00  0.00    -0.344 OA
ATOM     14  C   UNL     1      -4.421  90.451 -13.605  1.00  0.00     0.179 C 
ATOM     15  C   UNL     1      -5.326  89.217 -13.796  1.00  0.00     0.202 C 
BRANCH  12  16
ATOM     16  O   UNL     1      -4.322  92.844 -13.956  1.00  0.00    -0.388 OA
ATOM     17  H   UNL     1      -3.365  92.584 -13.947  1.00  0.00     0.211 HD
ENDBRANCH  12  16
BRANCH  14  18
ATOM     18  O   UNL     1      -3.162  90.238 -14.189  1.00  0.00    -0.387 OA
ATOM     19  H   UNL     1      -2.803  91.134 -14.423  1.00  0.00     0.211 HD
ENDBRANCH  14  18
BRANCH  15  20
ATOM     20  O   UNL     1      -5.383  88.850 -15.153  1.00  0.00    -0.385 OA
ATOM     21  H   UNL     1      -4.463  88.929 -15.515  1.00  0.00     0.211 HD
ENDBRANCH  15  20
ENDBRANCH   8   9
ENDBRANCH   7   8
ENDBRANCH   1   7
BRANCH   2  22
ATOM     22  O   UNL     1      -8.227  90.229  -9.619  1.00  0.00    -0.387 OA
ATOM     23  H   UNL     1      -8.514  90.135  -8.672  1.00  0.00     0.211 HD
ENDBRANCH   2  22
BRANCH   3  24
ATOM     24  O   UNL     1     -10.732  87.775 -10.468  1.00  0.00    -0.387 OA
ATOM     25  H   UNL     1     -11.309  87.195  -9.907  1.00  0.00     0.211 HD
ENDBRANCH   3  24
BRANCH   5  26
ATOM     26  O   UNL     1      -8.885  85.733  -9.468  1.00  0.00    -0.454 OA
BRANCH  26  27
ATOM     27  C   UNL     1      -9.390  84.542  -8.937  1.00  0.00     0.214 A 
ATOM     28  C   UNL     1      -8.539  83.553  -8.405  1.00  0.00     0.180 A 
ATOM     29  C   UNL     1     -10.772  84.331  -8.919  1.00  0.00     0.239 A 
ATOM     30  O   UNL     1      -9.062  82.470  -7.837  1.00  0.00    -0.452 OA
ATOM     31  C   UNL     1     -11.291  83.161  -8.327  1.00  0.00     0.111 A 
ATOM     32  O   UNL     1     -11.533  85.202  -9.421  1.00  0.00    -0.285 OA
ATOM     33  C   UNL     1     -10.369  82.240  -7.774  1.00  0.00     0.146 A 
ATOM     34  C   UNL     1     -12.676  82.880  -8.256  1.00  0.00     0.134 A 
ATOM     35  C   UNL     1     -10.826  81.070  -7.162  1.00  0.00     0.094 A 
ATOM     36  C   UNL     1     -13.114  81.698  -7.638  1.00  0.00     0.093 A 
ATOM     37  C   UNL     1     -12.197  80.796  -7.093  1.00  0.00     0.123 A 
BRANCH  28  38
ATOM     38  C   UNL     1      -7.066  83.667  -8.468  1.00  0.00     0.025 A 
ATOM     39  C   UNL     1      -6.376  83.167  -9.582  1.00  0.00     0.062 A 
ATOM     40  C   UNL     1      -6.350  84.327  -7.458  1.00  0.00     0.016 A 
ATOM     41  C   UNL     1      -4.984  83.284  -9.676  1.00  0.00     0.158 A 
ATOM     42  C   UNL     1      -4.961  84.443  -7.540  1.00  0.00     0.051 A 
ATOM     43  C   UNL     1      -4.265  83.919  -8.635  1.00  0.00     0.157 A 
BRANCH  41  44
ATOM     44  O   UNL     1      -4.361  82.768 -10.816  1.00  0.00    -0.504 OA
ATOM     45  H   UNL     1      -4.044  83.334 -11.589  1.00  0.00     0.293 HD
ENDBRANCH  41  44
BRANCH  43  46
ATOM     46  O   UNL     1      -2.875  84.048  -8.647  1.00  0.00    -0.504 OA
ATOM     47  H   UNL     1      -2.385  84.891  -8.384  1.00  0.00     0.293 HD
ENDBRANCH  43  46
ENDBRANCH  28  38
BRANCH  34  48
ATOM     48  O   UNL     1     -13.617  83.760  -8.790  1.00  0.00    -0.507 OA
ATOM     49  H   UNL     1     -14.045  83.598  -9.694  1.00  0.00     0.293 HD
ENDBRANCH  34  48
BRANCH  37  50
ATOM     50  O   UNL     1     -12.659  79.632  -6.485  1.00  0.00    -0.508 OA
ATOM     51  H   UNL     1     -12.608  79.501  -5.482  1.00  0.00     0.293 HD
ENDBRANCH  37  50
ENDBRANCH  26  27
ENDBRANCH   5  26
BRANCH   4  52
ATOM     52  O   UNL     1      -9.267  88.639  -7.267  1.00  0.00    -0.384 OA
ATOM     53  H   UNL     1      -8.855  88.099  -6.547  1.00  0.00     0.211 HD
ENDBRANCH   4  52
TORSDOF 16
ENDMDL
MODEL 5
REMARK VINA RESULT:    -6.381      3.868      6.509
REMARK INTER + INTRA:         -12.397
REMARK INTER:                 -10.246
REMARK INTRA:                  -2.151
REMARK UNBOUND:                -1.913
REMARK SMILES C[C@H]1O[C@H](OC[C@H]2O[C@H](Oc3c(-c4ccc(O)c(O)c4)oc4cc(O)cc(O)c4c3=O)[C@@H](O)[C@H](O)[C@H]2O)[C@@H](O)[C@@H](O)[C@@H]1O
REMARK SMILES IDX 7 1 36 2 34 3 32 4 9 5 8 6 6 7 5 8 4 9 1 10 2 11 42 12 3 13
REMARK SMILES IDX 40 14 38 15 43 16 41 18 39 20 37 22 35 24 10 26 11 27 12 28
REMARK SMILES IDX 30 29 21 30 29 31 31 32 22 33 27 34 23 35 26 36 24 37 13 38
REMARK SMILES IDX 20 39 14 40 18 41 15 42 16 43 19 44 17 46 28 48 25 50 33 52
REMARK H PARENT 43 17 41 19 39 21 37 23 35 25 19 45 17 47 28 49 25 51 33 53
REMARK Flexibility Score: inf
ROOT
ATOM      1  C   UNL     1      -5.406  92.507 -14.117  1.00  0.00     0.180 C 
ATOM      2  C   UNL     1      -4.015  91.995 -13.668  1.00  0.00     0.177 C 
ATOM      3  C   UNL     1      -4.170  90.803 -12.704  1.00  0.00     0.180 C 
ATOM      4  C   UNL     1      -5.182  89.763 -13.241  1.00  0.00     0.214 C 
ATOM      5  C   UNL     1      -6.466  90.444 -13.768  1.00  0.00     0.339 C 
ATOM      6  O   UNL     1      -6.164  91.464 -14.707  1.00  0.00    -0.332 OA
ENDROOT
BRANCH   1   7
ATOM      7  C   UNL     1      -5.283  93.650 -15.130  1.00  0.00     0.198 C 
BRANCH   7   8
ATOM      8  O   UNL     1      -4.885  93.130 -16.382  1.00  0.00    -0.347 OA
BRANCH   8   9
ATOM      9  C   UNL     1      -5.594  93.750 -17.447  1.00  0.00     0.281 C 
ATOM     10  C   UNL     1      -2.875  93.909 -19.927  1.00  0.00     0.041 C 
ATOM     11  C   UNL     1      -3.866  93.248 -18.967  1.00  0.00     0.150 C 
ATOM     12  C   UNL     1      -4.719  92.188 -19.711  1.00  0.00     0.174 C 
ATOM     13  O   UNL     1      -4.688  94.264 -18.411  1.00  0.00    -0.344 OA
ATOM     14  C   UNL     1      -5.785  91.608 -18.766  1.00  0.00     0.179 C 
ATOM     15  C   UNL     1      -6.573  92.749 -18.092  1.00  0.00     0.202 C 
BRANCH  12  16
ATOM     16  O   UNL     1      -3.911  91.158 -20.231  1.00  0.00    -0.388 OA
ATOM     17  H   UNL     1      -3.012  91.241 -19.818  1.00  0.00     0.211 HD
ENDBRANCH  12  16
BRANCH  14  18
ATOM     18  O   UNL     1      -6.648  90.768 -19.489  1.00  0.00    -0.387 OA
ATOM     19  H   UNL     1      -6.668  91.117 -20.419  1.00  0.00     0.211 HD
ENDBRANCH  14  18
BRANCH  15  20
ATOM     20  O   UNL     1      -7.366  93.427 -19.035  1.00  0.00    -0.385 OA
ATOM     21  H   UNL     1      -6.956  93.272 -19.926  1.00  0.00     0.211 HD
ENDBRANCH  15  20
ENDBRANCH   8   9
ENDBRANCH   7   8
ENDBRANCH   1   7
BRANCH   2  22
ATOM     22  O   UNL     1      -3.258  91.601 -14.788  1.00  0.00    -0.387 OA
ATOM     23  H   UNL     1      -3.606  92.097 -15.575  1.00  0.00     0.211 HD
ENDBRANCH   2  22
BRANCH   3  24
ATOM     24  O   UNL     1      -4.593  91.281 -11.452  1.00  0.00    -0.387 OA
ATOM     25  H   UNL     1      -4.201  90.681 -10.765  1.00  0.00     0.211 HD
ENDBRANCH   3  24
BRANCH   5  26
ATOM     26  O   UNL     1      -7.235  90.964 -12.678  1.00  0.00    -0.454 OA
BRANCH  26  27
ATOM     27  C   UNL     1      -8.522  90.508 -12.378  1.00  0.00     0.214 A 
ATOM     28  C   UNL     1      -8.757  89.608 -11.319  1.00  0.00     0.180 A 
ATOM     29  C   UNL     1      -9.605  90.963 -13.135  1.00  0.00     0.239 A 
ATOM     30  O   UNL     1     -10.004  89.259 -11.015  1.00  0.00    -0.452 OA
ATOM     31  C   UNL     1     -10.912  90.557 -12.798  1.00  0.00     0.111 A 
ATOM     32  O   UNL     1      -9.393  91.745 -14.102  1.00  0.00    -0.285 OA
ATOM     33  C   UNL     1     -11.065  89.688 -11.690  1.00  0.00     0.146 A 
ATOM     34  C   UNL     1     -12.061  90.984 -13.504  1.00  0.00     0.134 A 
ATOM     35  C   UNL     1     -12.337  89.263 -11.300  1.00  0.00     0.094 A 
ATOM     36  C   UNL     1     -13.330  90.544 -13.097  1.00  0.00     0.093 A 
ATOM     37  C   UNL     1     -13.471  89.688 -12.002  1.00  0.00     0.123 A 
BRANCH  28  38
ATOM     38  C   UNL     1      -7.654  89.016 -10.531  1.00  0.00     0.025 A 
ATOM     39  C   UNL     1      -7.188  87.731 -10.843  1.00  0.00     0.062 A 
ATOM     40  C   UNL     1      -7.020  89.748  -9.516  1.00  0.00     0.016 A 
ATOM     41  C   UNL     1      -6.129  87.158 -10.127  1.00  0.00     0.158 A 
ATOM     42  C   UNL     1      -5.968  89.183  -8.793  1.00  0.00     0.051 A 
ATOM     43  C   UNL     1      -5.519  87.889  -9.079  1.00  0.00     0.157 A 
BRANCH  41  44
ATOM     44  O   UNL     1      -5.712  85.876 -10.493  1.00  0.00    -0.504 OA
ATOM     45  H   UNL     1      -5.579  85.578 -11.448  1.00  0.00     0.293 HD
ENDBRANCH  41  44
BRANCH  43  46
ATOM     46  O   UNL     1      -4.478  87.373  -8.305  1.00  0.00    -0.504 OA
ATOM     47  H   UNL     1      -4.558  87.164  -7.320  1.00  0.00     0.293 HD
ENDBRANCH  43  46
ENDBRANCH  28  38
BRANCH  34  48
ATOM     48  O   UNL     1     -11.955  91.838 -14.602  1.00  0.00    -0.507 OA
ATOM     49  H   UNL     1     -11.356  91.621 -15.390  1.00  0.00     0.293 HD
ENDBRANCH  34  48
BRANCH  37  50
ATOM     50  O   UNL     1     -14.742  89.267 -11.619  1.00  0.00    -0.508 OA
ATOM     51  H   UNL     1     -15.556  89.443 -12.198  1.00  0.00     0.293 HD
ENDBRANCH  37  50
ENDBRANCH  26  27
ENDBRANCH   5  26
BRANCH   4  52
ATOM     52  O   UNL     1      -4.593  88.948 -14.225  1.00  0.00    -0.384 OA
ATOM     53  H   UNL     1      -4.925  89.239 -15.111  1.00  0.00     0.211 HD
ENDBRANCH   4  52
TORSDOF 16
ENDMDL
MODEL 6
REMARK VINA RESULT:    -6.306      3.855      8.332
REMARK INTER + INTRA:         -12.273
REMARK INTER:                 -10.117
REMARK INTRA:                  -2.156
REMARK UNBOUND:                -1.913
REMARK SMILES C[C@H]1O[C@H](OC[C@H]2O[C@H](Oc3c(-c4ccc(O)c(O)c4)oc4cc(O)cc(O)c4c3=O)[C@@H](O)[C@H](O)[C@H]2O)[C@@H](O)[C@@H](O)[C@@H]1O
REMARK SMILES IDX 7 1 36 2 34 3 32 4 9 5 8 6 6 7 5 8 4 9 1 10 2 11 42 12 3 13
REMARK SMILES IDX 40 14 38 15 43 16 41 18 39 20 37 22 35 24 10 26 11 27 12 28
REMARK SMILES IDX 30 29 21 30 29 31 31 32 22 33 27 34 23 35 26 36 24 37 13 38
REMARK SMILES IDX 20 39 14 40 18 41 15 42 16 43 19 44 17 46 28 48 25 50 33 52
REMARK H PARENT 43 17 41 19 39 21 37 23 35 25 19 45 17 47 28 49 25 51 33 53
REMARK Flexibility Score: inf
ROOT
ATOM      1  C   UNL     1     -10.012  83.771  -8.486  1.00  0.00     0.180 C 
ATOM      2  C   UNL     1      -9.335  82.508  -9.074  1.00  0.00     0.177 C 
ATOM      3  C   UNL     1     -10.336  81.339  -9.124  1.00  0.00     0.180 C 
ATOM      4  C   UNL     1     -11.693  81.776  -9.727  1.00  0.00     0.214 C 
ATOM      5  C   UNL     1     -12.170  83.119  -9.129  1.00  0.00     0.339 C 
ATOM      6  O   UNL     1     -11.169  84.118  -9.230  1.00  0.00    -0.332 OA
ENDROOT
BRANCH   1   7
ATOM      7  C   UNL     1      -9.058  84.971  -8.487  1.00  0.00     0.198 C 
BRANCH   7   8
ATOM      8  O   UNL     1      -7.777  84.556  -8.060  1.00  0.00    -0.347 OA
BRANCH   8   9
ATOM      9  C   UNL     1      -6.755  85.361  -8.636  1.00  0.00     0.281 C 
ATOM     10  C   UNL     1      -4.134  84.856  -6.098  1.00  0.00     0.041 C 
ATOM     11  C   UNL     1      -5.142  84.456  -7.177  1.00  0.00     0.150 C 
ATOM     12  C   UNL     1      -4.438  83.670  -8.313  1.00  0.00     0.174 C 
ATOM     13  O   UNL     1      -5.747  85.640  -7.676  1.00  0.00    -0.344 OA
ATOM     14  C   UNL     1      -5.435  83.368  -9.444  1.00  0.00     0.179 C 
ATOM     15  C   UNL     1      -6.157  84.662  -9.872  1.00  0.00     0.202 C 
BRANCH  12  16
ATOM     16  O   UNL     1      -3.868  82.476  -7.829  1.00  0.00    -0.388 OA
ATOM     17  H   UNL     1      -3.153  82.722  -7.186  1.00  0.00     0.211 HD
ENDBRANCH  12  16
BRANCH  14  18
ATOM     18  O   UNL     1      -4.754  82.797 -10.532  1.00  0.00    -0.387 OA
ATOM     19  H   UNL     1      -5.203  81.933 -10.725  1.00  0.00     0.211 HD
ENDBRANCH  14  18
BRANCH  15  20
ATOM     20  O   UNL     1      -5.263  85.542 -10.508  1.00  0.00    -0.385 OA
ATOM     21  H   UNL     1      -4.603  84.984 -10.995  1.00  0.00     0.211 HD
ENDBRANCH  15  20
ENDBRANCH   8   9
ENDBRANCH   7   8
ENDBRANCH   1   7
BRANCH   2  22
ATOM     22  O   UNL     1      -8.853  82.773 -10.370  1.00  0.00    -0.387 OA
ATOM     23  H   UNL     1      -9.253  83.632 -10.670  1.00  0.00     0.211 HD
ENDBRANCH   2  22
BRANCH   3  24
ATOM     24  O   UNL     1     -10.528  80.845  -7.822  1.00  0.00    -0.387 OA
ATOM     25  H   UNL     1     -11.240  81.397  -7.406  1.00  0.00     0.211 HD
ENDBRANCH   3  24
BRANCH   5  26
ATOM     26  O   UNL     1     -12.577  82.938  -7.767  1.00  0.00    -0.454 OA
BRANCH  26  27
ATOM     27  C   UNL     1     -13.871  82.543  -7.413  1.00  0.00     0.214 A 
ATOM     28  C   UNL     1     -14.935  83.465  -7.357  1.00  0.00     0.180 A 
ATOM     29  C   UNL     1     -14.121  81.199  -7.119  1.00  0.00     0.239 A 
ATOM     30  O   UNL     1     -16.166  83.037  -7.094  1.00  0.00    -0.452 OA
ATOM     31  C   UNL     1     -15.435  80.783  -6.824  1.00  0.00     0.111 A 
ATOM     32  O   UNL     1     -13.165  80.377  -7.140  1.00  0.00    -0.285 OA
ATOM     33  C   UNL     1     -16.454  81.766  -6.835  1.00  0.00     0.146 A 
ATOM     34  C   UNL     1     -15.774  79.441  -6.531  1.00  0.00     0.134 A 
ATOM     35  C   UNL     1     -17.778  81.410  -6.563  1.00  0.00     0.094 A 
ATOM     36  C   UNL     1     -17.109  79.104  -6.259  1.00  0.00     0.093 A 
ATOM     37  C   UNL     1     -18.108  80.081  -6.274  1.00  0.00     0.123 A 
BRANCH  28  38
ATOM     38  C   UNL     1     -14.729  84.915  -7.569  1.00  0.00     0.025 A 
ATOM     39  C   UNL     1     -14.895  85.462  -8.849  1.00  0.00     0.062 A 
ATOM     40  C   UNL     1     -14.432  85.766  -6.494  1.00  0.00     0.016 A 
ATOM     41  C   UNL     1     -14.729  86.835  -9.071  1.00  0.00     0.158 A 
ATOM     42  C   UNL     1     -14.259  87.134  -6.706  1.00  0.00     0.051 A 
ATOM     43  C   UNL     1     -14.393  87.680  -7.987  1.00  0.00     0.157 A 
BRANCH  41  44
ATOM     44  O   UNL     1     -14.913  87.313 -10.371  1.00  0.00    -0.504 OA
ATOM     45  H   UNL     1     -15.646  86.995 -10.989  1.00  0.00     0.293 HD
ENDBRANCH  41  44
BRANCH  43  46
ATOM     46  O   UNL     1     -14.185  89.053  -8.136  1.00  0.00    -0.504 OA
ATOM     47  H   UNL     1     -13.571  89.598  -7.547  1.00  0.00     0.293 HD
ENDBRANCH  43  46
ENDBRANCH  28  38
BRANCH  34  48
ATOM     48  O   UNL     1     -14.800  78.442  -6.508  1.00  0.00    -0.507 OA
ATOM     49  H   UNL     1     -14.971  77.523  -6.898  1.00  0.00     0.293 HD
ENDBRANCH  34  48
BRANCH  37  50
ATOM     50  O   UNL     1     -19.425  79.720  -6.002  1.00  0.00    -0.508 OA
ATOM     51  H   UNL     1     -20.079  79.501  -6.744  1.00  0.00     0.293 HD
ENDBRANCH  37  50
ENDBRANCH  26  27
ENDBRANCH   5  26
BRANCH   4  52
ATOM     52  O   UNL     1     -11.625  81.836 -11.131  1.00  0.00    -0.384 OA
ATOM     53  H   UNL     1     -12.535  82.006 -11.481  1.00  0.00     0.211 HD
ENDBRANCH   4  52
TORSDOF 16
ENDMDL
MODEL 7
REMARK VINA RESULT:    -6.224      3.678      6.954
REMARK INTER + INTRA:         -12.140
REMARK INTER:                  -8.697
REMARK INTRA:                  -3.442
REMARK UNBOUND:                -1.913
REMARK SMILES C[C@H]1O[C@H](OC[C@H]2O[C@H](Oc3c(-c4ccc(O)c(O)c4)oc4cc(O)cc(O)c4c3=O)[C@@H](O)[C@H](O)[C@H]2O)[C@@H](O)[C@@H](O)[C@@H]1O
REMARK SMILES IDX 7 1 36 2 34 3 32 4 9 5 8 6 6 7 5 8 4 9 1 10 2 11 42 12 3 13
REMARK SMILES IDX 40 14 38 15 43 16 41 18 39 20 37 22 35 24 10 26 11 27 12 28
REMARK SMILES IDX 30 29 21 30 29 31 31 32 22 33 27 34 23 35 26 36 24 37 13 38
REMARK SMILES IDX 20 39 14 40 18 41 15 42 16 43 19 44 17 46 28 48 25 50 33 52
REMARK H PARENT 43 17 41 19 39 21 37 23 35 25 19 45 17 47 28 49 25 51 33 53
REMARK Flexibility Score: inf
ROOT
ATOM      1  C   UNL     1      -8.971  86.142  -8.014  1.00  0.00     0.180 C 
ATOM      2  C   UNL     1      -7.502  85.702  -8.233  1.00  0.00     0.177 C 
ATOM      3  C   UNL     1      -7.400  84.165  -8.242  1.00  0.00     0.180 C 
ATOM      4  C   UNL     1      -8.486  83.527  -9.142  1.00  0.00     0.214 C 
ATOM      5  C   UNL     1      -9.872  84.164  -8.892  1.00  0.00     0.339 C 
ATOM      6  O   UNL     1      -9.821  85.577  -8.999  1.00  0.00    -0.332 OA
ENDROOT
BRANCH   1   7
ATOM      7  C   UNL     1      -9.113  87.667  -8.068  1.00  0.00     0.198 C 
BRANCH   7   8
ATOM      8  O   UNL     1      -9.297  88.077  -9.408  1.00  0.00    -0.347 OA
BRANCH   8   9
ATOM      9  C   UNL     1      -9.677  89.446  -9.481  1.00  0.00     0.281 C 
ATOM     10  C   UNL     1     -10.551  89.604 -13.056  1.00  0.00     0.041 C 
ATOM     11  C   UNL     1     -10.641  89.123 -11.606  1.00  0.00     0.150 C 
ATOM     12  C   UNL     1     -12.084  89.292 -11.065  1.00  0.00     0.174 C 
ATOM     13  O   UNL     1      -9.717  89.876 -10.833  1.00  0.00    -0.344 OA
ATOM     14  C   UNL     1     -12.140  88.910  -9.577  1.00  0.00     0.179 C 
ATOM     15  C   UNL     1     -11.041  89.659  -8.797  1.00  0.00     0.202 C 
BRANCH  12  16
ATOM     16  O   UNL     1     -12.999  88.518 -11.806  1.00  0.00    -0.388 OA
ATOM     17  H   UNL     1     -13.912  88.840 -11.590  1.00  0.00     0.211 HD
ENDBRANCH  12  16
BRANCH  14  18
ATOM     18  O   UNL     1     -13.411  89.215  -9.061  1.00  0.00    -0.387 OA
ATOM     19  H   UNL     1     -13.311  90.057  -8.544  1.00  0.00     0.211 HD
ENDBRANCH  14  18
BRANCH  15  20
ATOM     20  O   UNL     1     -11.319  91.037  -8.748  1.00  0.00    -0.385 OA
ATOM     21  H   UNL     1     -12.293  91.131  -8.584  1.00  0.00     0.211 HD
ENDBRANCH  15  20
ENDBRANCH   8   9
ENDBRANCH   7   8
ENDBRANCH   1   7
BRANCH   2  22
ATOM     22  O   UNL     1      -7.018  86.215  -9.452  1.00  0.00    -0.387 OA
ATOM     23  H   UNL     1      -6.048  86.003  -9.503  1.00  0.00     0.211 HD
ENDBRANCH   2  22
BRANCH   3  24
ATOM     24  O   UNL     1      -7.531  83.691  -6.926  1.00  0.00    -0.387 OA
ATOM     25  H   UNL     1      -8.488  83.466  -6.793  1.00  0.00     0.211 HD
ENDBRANCH   3  24
BRANCH   5  26
ATOM     26  O   UNL     1     -10.378  83.765  -7.613  1.00  0.00    -0.454 OA
BRANCH  26  27
ATOM     27  C   UNL     1     -11.157  82.617  -7.435  1.00  0.00     0.214 A 
ATOM     28  C   UNL     1     -12.482  82.544  -7.908  1.00  0.00     0.180 A 
ATOM     29  C   UNL     1     -10.606  81.509  -6.784  1.00  0.00     0.239 A 
ATOM     30  O   UNL     1     -13.163  81.408  -7.790  1.00  0.00    -0.452 OA
ATOM     31  C   UNL     1     -11.364  80.327  -6.657  1.00  0.00     0.111 A 
ATOM     32  O   UNL     1      -9.431  81.583  -6.333  1.00  0.00    -0.285 OA
ATOM     33  C   UNL     1     -12.671  80.323  -7.202  1.00  0.00     0.146 A 
ATOM     34  C   UNL     1     -10.875  79.159  -6.026  1.00  0.00     0.134 A 
ATOM     35  C   UNL     1     -13.463  79.175  -7.119  1.00  0.00     0.094 A 
ATOM     36  C   UNL     1     -11.688  78.018  -5.951  1.00  0.00     0.093 A 
ATOM     37  C   UNL     1     -12.975  78.022  -6.494  1.00  0.00     0.123 A 
BRANCH  28  38
ATOM     38  C   UNL     1     -13.159  83.704  -8.528  1.00  0.00     0.025 A 
ATOM     39  C   UNL     1     -13.604  84.762  -7.722  1.00  0.00     0.062 A 
ATOM     40  C   UNL     1     -13.308  83.794  -9.920  1.00  0.00     0.016 A 
ATOM     41  C   UNL     1     -14.228  85.882  -8.287  1.00  0.00     0.158 A 
ATOM     42  C   UNL     1     -13.933  84.903 -10.492  1.00  0.00     0.051 A 
ATOM     43  C   UNL     1     -14.406  85.947  -9.690  1.00  0.00     0.157 A 
BRANCH  41  44
ATOM     44  O   UNL     1     -14.643  86.901  -7.426  1.00  0.00    -0.504 OA
ATOM     45  H   UNL     1     -15.079  86.738  -6.530  1.00  0.00     0.293 HD
ENDBRANCH  41  44
BRANCH  43  46
ATOM     46  O   UNL     1     -15.042  87.018 -10.321  1.00  0.00    -0.504 OA
ATOM     47  H   UNL     1     -14.660  87.512 -11.114  1.00  0.00     0.293 HD
ENDBRANCH  43  46
ENDBRANCH  28  38
BRANCH  34  48
ATOM     48  O   UNL     1      -9.594  79.122  -5.474  1.00  0.00    -0.507 OA
ATOM     49  H   UNL     1      -9.436  78.848  -4.512  1.00  0.00     0.293 HD
ENDBRANCH  34  48
BRANCH  37  50
ATOM     50  O   UNL     1     -13.760  76.875  -6.406  1.00  0.00    -0.508 OA
ATOM     51  H   UNL     1     -14.294  76.660  -5.572  1.00  0.00     0.293 HD
ENDBRANCH  37  50
ENDBRANCH  26  27
ENDBRANCH   5  26
BRANCH   4  52
ATOM     52  O   UNL     1      -8.124  83.604 -10.500  1.00  0.00    -0.384 OA
ATOM     53  H   UNL     1      -7.937  82.687 -10.825  1.00  0.00     0.211 HD
ENDBRANCH   4  52
TORSDOF 16
ENDMDL
MODEL 8
REMARK VINA RESULT:    -6.220      2.954      9.087
REMARK INTER + INTRA:         -12.133
REMARK INTER:                  -9.812
REMARK INTRA:                  -2.321
REMARK UNBOUND:                -1.913
REMARK SMILES C[C@H]1O[C@H](OC[C@H]2O[C@H](Oc3c(-c4ccc(O)c(O)c4)oc4cc(O)cc(O)c4c3=O)[C@@H](O)[C@H](O)[C@H]2O)[C@@H](O)[C@@H](O)[C@@H]1O
REMARK SMILES IDX 7 1 36 2 34 3 32 4 9 5 8 6 6 7 5 8 4 9 1 10 2 11 42 12 3 13
REMARK SMILES IDX 40 14 38 15 43 16 41 18 39 20 37 22 35 24 10 26 11 27 12 28
REMARK SMILES IDX 30 29 21 30 29 31 31 32 22 33 27 34 23 35 26 36 24 37 13 38
REMARK SMILES IDX 20 39 14 40 18 41 15 42 16 43 19 44 17 46 28 48 25 50 33 52
REMARK H PARENT 43 17 41 19 39 21 37 23 35 25 19 45 17 47 28 49 25 51 33 53
REMARK Flexibility Score: inf
ROOT
ATOM      1  C   UNL     1      -7.391  88.851  -8.678  1.00  0.00     0.180 C 
ATOM      2  C   UNL     1      -8.629  88.599  -7.781  1.00  0.00     0.177 C 
ATOM      3  C   UNL     1      -9.909  89.086  -8.487  1.00  0.00     0.180 C 
ATOM      4  C   UNL     1      -9.971  88.598  -9.954  1.00  0.00     0.214 C 
ATOM      5  C   UNL     1      -8.619  88.802 -10.675  1.00  0.00     0.339 C 
ATOM      6  O   UNL     1      -7.548  88.229  -9.943  1.00  0.00    -0.332 OA
ENDROOT
BRANCH   1   7
ATOM      7  C   UNL     1      -6.110  88.315  -8.030  1.00  0.00     0.198 C 
BRANCH   7   8
ATOM      8  O   UNL     1      -5.751  87.091  -8.636  1.00  0.00    -0.347 OA
BRANCH   8   9
ATOM      9  C   UNL     1      -5.695  86.039  -7.681  1.00  0.00     0.281 C 
ATOM     10  C   UNL     1      -7.772  83.558  -9.441  1.00  0.00     0.041 C 
ATOM     11  C   UNL     1      -6.591  84.507  -9.230  1.00  0.00     0.150 C 
ATOM     12  C   UNL     1      -5.248  83.745  -9.375  1.00  0.00     0.174 C 
ATOM     13  O   UNL     1      -6.712  85.083  -7.938  1.00  0.00    -0.344 OA
ATOM     14  C   UNL     1      -4.071  84.680  -9.053  1.00  0.00     0.179 C 
ATOM     15  C   UNL     1      -4.303  85.376  -7.697  1.00  0.00     0.202 C 
BRANCH  12  16
ATOM     16  O   UNL     1      -5.107  83.203 -10.667  1.00  0.00    -0.388 OA
ATOM     17  H   UNL     1      -5.506  82.295 -10.660  1.00  0.00     0.211 HD
ENDBRANCH  12  16
BRANCH  14  18
ATOM     18  O   UNL     1      -2.876  83.942  -9.034  1.00  0.00    -0.387 OA
ATOM     19  H   UNL     1      -3.135  82.984  -9.024  1.00  0.00     0.211 HD
ENDBRANCH  14  18
BRANCH  15  20
ATOM     20  O   UNL     1      -4.226  84.448  -6.643  1.00  0.00    -0.385 OA
ATOM     21  H   UNL     1      -4.259  83.543  -7.050  1.00  0.00     0.211 HD
ENDBRANCH  15  20
ENDBRANCH   8   9
ENDBRANCH   7   8
ENDBRANCH   1   7
BRANCH   2  22
ATOM     22  O   UNL     1      -8.744  87.227  -7.486  1.00  0.00    -0.387 OA
ATOM     23  H   UNL     1      -7.996  86.986  -6.878  1.00  0.00     0.211 HD
ENDBRANCH   2  22
BRANCH   3  24
ATOM     24  O   UNL     1      -9.946  90.490  -8.448  1.00  0.00    -0.387 OA
ATOM     25  H   UNL     1      -9.020  90.809  -8.602  1.00  0.00     0.211 HD
ENDBRANCH   3  24
BRANCH   5  26
ATOM     26  O   UNL     1      -8.389  90.196 -10.911  1.00  0.00    -0.454 OA
BRANCH  26  27
ATOM     27  C   UNL     1      -7.820  90.677 -12.095  1.00  0.00     0.214 A 
ATOM     28  C   UNL     1      -8.602  90.931 -13.239  1.00  0.00     0.180 A 
ATOM     29  C   UNL     1      -6.445  90.925 -12.144  1.00  0.00     0.239 A 
ATOM     30  O   UNL     1      -8.037  91.462 -14.320  1.00  0.00    -0.452 OA
ATOM     31  C   UNL     1      -5.876  91.469 -13.313  1.00  0.00     0.111 A 
ATOM     32  O   UNL     1      -5.739  90.670 -11.131  1.00  0.00    -0.285 OA
ATOM     33  C   UNL     1      -6.740  91.739 -14.401  1.00  0.00     0.146 A 
ATOM     34  C   UNL     1      -4.497  91.763 -13.437  1.00  0.00     0.134 A 
ATOM     35  C   UNL     1      -6.235  92.292 -15.581  1.00  0.00     0.094 A 
ATOM     36  C   UNL     1      -4.010  92.316 -14.631  1.00  0.00     0.093 A 
ATOM     37  C   UNL     1      -4.871  92.581 -15.699  1.00  0.00     0.123 A 
BRANCH  28  38
ATOM     38  C   UNL     1     -10.046  90.611 -13.291  1.00  0.00     0.025 A 
ATOM     39  C   UNL     1     -10.985  91.560 -12.863  1.00  0.00     0.062 A 
ATOM     40  C   UNL     1     -10.496  89.393 -13.822  1.00  0.00     0.016 A 
ATOM     41  C   UNL     1     -12.358  91.290 -12.924  1.00  0.00     0.158 A 
ATOM     42  C   UNL     1     -11.862  89.112 -13.881  1.00  0.00     0.051 A 
ATOM     43  C   UNL     1     -12.802  90.043 -13.427  1.00  0.00     0.157 A 
BRANCH  41  44
ATOM     44  O   UNL     1     -13.239  92.282 -12.485  1.00  0.00    -0.504 OA
ATOM     45  H   UNL     1     -13.966  92.683 -13.060  1.00  0.00     0.293 HD
ENDBRANCH  41  44
BRANCH  43  46
ATOM     46  O   UNL     1     -14.151  89.693 -13.492  1.00  0.00    -0.504 OA
ATOM     47  H   UNL     1     -14.541  88.866 -13.061  1.00  0.00     0.293 HD
ENDBRANCH  43  46
ENDBRANCH  28  38
BRANCH  34  48
ATOM     48  O   UNL     1      -3.611  91.511 -12.390  1.00  0.00    -0.507 OA
ATOM     49  H   UNL     1      -3.061  90.662 -12.350  1.00  0.00     0.293 HD
ENDBRANCH  34  48
BRANCH  37  50
ATOM     50  O   UNL     1      -4.361  93.131 -16.872  1.00  0.00    -0.508 OA
ATOM     51  H   UNL     1      -3.847  94.005 -16.868  1.00  0.00     0.293 HD
ENDBRANCH  37  50
ENDBRANCH  26  27
ENDBRANCH   5  26
BRANCH   4  52
ATOM     52  O   UNL     1     -10.390  87.256 -10.022  1.00  0.00    -0.384 OA
ATOM     53  H   UNL     1     -10.955  87.146 -10.828  1.00  0.00     0.211 HD
ENDBRANCH   4  52
TORSDOF 16
ENDMDL
MODEL 9
REMARK VINA RESULT:    -6.190      5.212      8.501
REMARK INTER + INTRA:         -12.083
REMARK INTER:                  -9.114
REMARK INTRA:                  -2.968
REMARK UNBOUND:                -1.913
REMARK SMILES C[C@H]1O[C@H](OC[C@H]2O[C@H](Oc3c(-c4ccc(O)c(O)c4)oc4cc(O)cc(O)c4c3=O)[C@@H](O)[C@H](O)[C@H]2O)[C@@H](O)[C@@H](O)[C@@H]1O
REMARK SMILES IDX 7 1 36 2 34 3 32 4 9 5 8 6 6 7 5 8 4 9 1 10 2 11 42 12 3 13
REMARK SMILES IDX 40 14 38 15 43 16 41 18 39 20 37 22 35 24 10 26 11 27 12 28
REMARK SMILES IDX 30 29 21 30 29 31 31 32 22 33 27 34 23 35 26 36 24 37 13 38
REMARK SMILES IDX 20 39 14 40 18 41 15 42 16 43 19 44 17 46 28 48 25 50 33 52
REMARK H PARENT 43 17 41 19 39 21 37 23 35 25 19 45 17 47 28 49 25 51 33 53
REMARK Flexibility Score: inf
ROOT
ATOM      1  C   UNL     1      -5.484  92.522 -14.090  1.00  0.00     0.180 C 
ATOM      2  C   UNL     1      -4.125  91.919 -13.657  1.00  0.00     0.177 C 
ATOM      3  C   UNL     1      -4.346  90.736 -12.695  1.00  0.00     0.180 C 
ATOM      4  C   UNL     1      -5.429  89.766 -13.226  1.00  0.00     0.214 C 
ATOM      5  C   UNL     1      -6.671  90.531 -13.738  1.00  0.00     0.339 C 
ATOM      6  O   UNL     1      -6.313  91.532 -14.677  1.00  0.00    -0.332 OA
ENDROOT
BRANCH   1   7
ATOM      7  C   UNL     1      -5.297  93.659 -15.101  1.00  0.00     0.198 C 
BRANCH   7   8
ATOM      8  O   UNL     1      -4.920  93.121 -16.352  1.00  0.00    -0.347 OA
BRANCH   8   9
ATOM      9  C   UNL     1      -5.621  93.751 -17.417  1.00  0.00     0.281 C 
ATOM     10  C   UNL     1      -2.875  93.960 -19.863  1.00  0.00     0.041 C 
ATOM     11  C   UNL     1      -3.873  93.280 -18.923  1.00  0.00     0.150 C 
ATOM     12  C   UNL     1      -4.711  92.225 -19.691  1.00  0.00     0.174 C 
ATOM     13  O   UNL     1      -4.707  94.283 -18.363  1.00  0.00    -0.344 OA
ATOM     14  C   UNL     1      -5.783  91.626 -18.766  1.00  0.00     0.179 C 
ATOM     15  C   UNL     1      -6.586  92.753 -18.087  1.00  0.00     0.202 C 
BRANCH  12  16
ATOM     16  O   UNL     1      -3.891  91.207 -20.216  1.00  0.00    -0.388 OA
ATOM     17  H   UNL     1      -3.114  91.642 -20.656  1.00  0.00     0.211 HD
ENDBRANCH  12  16
BRANCH  14  18
ATOM     18  O   UNL     1      -6.633  90.791 -19.511  1.00  0.00    -0.387 OA
ATOM     19  H   UNL     1      -6.299  90.808 -20.446  1.00  0.00     0.211 HD
ENDBRANCH  14  18
BRANCH  15  20
ATOM     20  O   UNL     1      -7.373  93.439 -19.029  1.00  0.00    -0.385 OA
ATOM     21  H   UNL     1      -7.113  93.102 -19.925  1.00  0.00     0.211 HD
ENDBRANCH  15  20
ENDBRANCH   8   9
ENDBRANCH   7   8
ENDBRANCH   1   7
BRANCH   2  22
ATOM     22  O   UNL     1      -3.405  91.482 -14.786  1.00  0.00    -0.387 OA
ATOM     23  H   UNL     1      -2.481  91.270 -14.489  1.00  0.00     0.211 HD
ENDBRANCH   2  22
BRANCH   3  24
ATOM     24  O   UNL     1      -4.726  91.235 -11.438  1.00  0.00    -0.387 OA
ATOM     25  H   UNL     1      -4.935  90.452 -10.867  1.00  0.00     0.211 HD
ENDBRANCH   3  24
BRANCH   5  26
ATOM     26  O   UNL     1      -7.394  91.095 -12.638  1.00  0.00    -0.454 OA
BRANCH  26  27
ATOM     27  C   UNL     1      -8.768  90.903 -12.461  1.00  0.00     0.214 A 
ATOM     28  C   UNL     1      -9.715  91.771 -13.038  1.00  0.00     0.180 A 
ATOM     29  C   UNL     1      -9.216  89.816 -11.704  1.00  0.00     0.239 A 
ATOM     30  O   UNL     1     -11.013  91.509 -12.913  1.00  0.00    -0.452 OA
ATOM     31  C   UNL     1     -10.599  89.579 -11.574  1.00  0.00     0.111 A 
ATOM     32  O   UNL     1      -8.369  89.054 -11.162  1.00  0.00    -0.285 OA
ATOM     33  C   UNL     1     -11.483  90.473 -12.225  1.00  0.00     0.146 A 
ATOM     34  C   UNL     1     -11.133  88.494 -10.839  1.00  0.00     0.134 A 
ATOM     35  C   UNL     1     -12.864  90.281 -12.144  1.00  0.00     0.094 A 
ATOM     36  C   UNL     1     -12.523  88.320 -10.767  1.00  0.00     0.093 A 
ATOM     37  C   UNL     1     -13.387  89.206 -11.415  1.00  0.00     0.123 A 
BRANCH  28  38
ATOM     38  C   UNL     1      -9.316  92.989 -13.777  1.00  0.00     0.025 A 
ATOM     39  C   UNL     1      -9.578  93.087 -15.151  1.00  0.00     0.062 A 
ATOM     40  C   UNL     1      -8.736  94.078 -13.112  1.00  0.00     0.016 A 
ATOM     41  C   UNL     1      -9.231  94.239 -15.869  1.00  0.00     0.158 A 
ATOM     42  C   UNL     1      -8.381  95.228 -13.819  1.00  0.00     0.051 A 
ATOM     43  C   UNL     1      -8.612  95.319 -15.195  1.00  0.00     0.157 A 
BRANCH  41  44
ATOM     44  O   UNL     1      -9.525  94.270 -17.234  1.00  0.00    -0.504 OA
ATOM     45  H   UNL     1      -9.566  93.449 -17.820  1.00  0.00     0.293 HD
ENDBRANCH  41  44
BRANCH  43  46
ATOM     46  O   UNL     1      -8.214  96.487 -15.849  1.00  0.00    -0.504 OA
ATOM     47  H   UNL     1      -8.235  96.607 -16.852  1.00  0.00     0.293 HD
ENDBRANCH  43  46
ENDBRANCH  28  38
BRANCH  34  48
ATOM     48  O   UNL     1     -10.297  87.591 -10.181  1.00  0.00    -0.507 OA
ATOM     49  H   UNL     1      -9.762  86.896 -10.686  1.00  0.00     0.293 HD
ENDBRANCH  34  48
BRANCH  37  50
ATOM     50  O   UNL     1     -14.763  89.010 -11.329  1.00  0.00    -0.508 OA
ATOM     51  H   UNL     1     -15.264  89.139 -10.457  1.00  0.00     0.293 HD
ENDBRANCH  37  50
ENDBRANCH  26  27
ENDBRANCH   5  26
BRANCH   4  52
ATOM     52  O   UNL     1      -4.904  88.918 -14.219  1.00  0.00    -0.384 OA
ATOM     53  H   UNL     1      -4.938  89.394 -15.086  1.00  0.00     0.211 HD
ENDBRANCH   4  52
TORSDOF 16
ENDMDL
