MODEL 1
REMARK VINA RESULT:    -4.758      0.000      0.000
REMARK INTER + INTRA:         -15.781
REMARK INTER:                 -11.991
REMARK INTRA:                  -3.790
REMARK UNBOUND:                -3.790
REMARK SMILES CCCCCCCCCCCCCCCCCCCCCCCCCCCC(=O)[O-]
REMARK SMILES IDX 15 1 16 2 17 3 18 4 19 5 20 6 21 7 22 8 23 9 24 10 25 11
REMARK SMILES IDX 26 12 27 13 28 14 29 15 30 16 14 17 13 18 12 19 11 20 10 21
REMARK SMILES IDX 9 22 8 23 7 24 6 25 5 26 4 27 3 28 2 29 1 30
REMARK H PARENT
REMARK Flexibility Score: inf
ROOT
ATOM      1  C   UNL     1      59.067  -3.901  20.212  1.00  0.00     0.000 C 
ENDROOT
BRANCH   1   2
ATOM      2  C   UNL     1      58.957  -4.619  21.574  1.00  0.00     0.000 C 
BRANCH   2   3
ATOM      3  C   UNL     1      59.905  -4.072  22.659  1.00  0.00     0.000 C 
BRANCH   3   4
ATOM      4  C   UNL     1      60.197  -5.031  23.826  1.00  0.00     0.000 C 
BRANCH   4   5
ATOM      5  C   UNL     1      60.741  -4.310  25.071  1.00  0.00     0.000 C 
BRANCH   5   6
ATOM      6  C   UNL     1      61.420  -5.269  26.065  1.00  0.00     0.000 C 
BRANCH   6   7
ATOM      7  C   UNL     1      61.349  -6.760  25.684  1.00  0.00     0.000 C 
BRANCH   7   8
ATOM      8  C   UNL     1      62.731  -7.436  25.664  1.00  0.00     0.000 C 
BRANCH   8   9
ATOM      9  C   UNL     1      63.881  -6.447  25.920  1.00  0.00     0.000 C 
BRANCH   9  10
ATOM     10  C   UNL     1      64.767  -6.240  24.677  1.00  0.00     0.000 C 
BRANCH  10  11
ATOM     11  C   UNL     1      64.434  -7.225  23.544  1.00  0.00     0.000 C 
BRANCH  11  12
ATOM     12  C   UNL     1      64.059  -6.509  22.233  1.00  0.00     0.006 C 
BRANCH  12  13
ATOM     13  C   UNL     1      63.725  -5.028  22.457  1.00  0.00     0.053 C 
BRANCH  13  14
ATOM     14  C   UNL     1      63.638  -4.276  21.164  1.00  0.00     0.041 C 
ATOM     15  O   UNL     1      64.462  -3.356  20.909  1.00  0.00    -0.550 OA
ATOM     16  O   UNL     1      62.634  -4.572  20.251  1.00  0.00    -0.550 OA
ENDBRANCH  13  14
ENDBRANCH  12  13
ENDBRANCH  11  12
ENDBRANCH  10  11
ENDBRANCH   9  10
ENDBRANCH   8   9
ENDBRANCH   7   8
ENDBRANCH   6   7
ENDBRANCH   5   6
ENDBRANCH   4   5
ENDBRANCH   3   4
ENDBRANCH   2   3
ENDBRANCH   1   2
BRANCH   1  17
ATOM     17  C   UNL     1      58.132  -2.682  20.106  1.00  0.00     0.000 C 
BRANCH  17  18
ATOM     18  C   UNL     1      56.805  -2.890  20.854  1.00  0.00     0.000 C 
BRANCH  18  19
ATOM     19  C   UNL     1      56.354  -1.629  21.614  1.00  0.00     0.000 C 
BRANCH  19  20
ATOM     20  C   UNL     1      57.420  -1.107  22.593  1.00  0.00     0.000 C 
BRANCH  20  21
ATOM     21  C   UNL     1      57.779   0.378  22.385  1.00  0.00     0.000 C 
BRANCH  21  22
ATOM     22  C   UNL     1      59.108   0.557  21.631  1.00  0.00    -0.000 C 
BRANCH  22  23
ATOM     23  C   UNL     1      58.902   0.810  20.128  1.00  0.00    -0.000 C 
BRANCH  23  24
ATOM     24  C   UNL     1      57.463   1.246  19.797  1.00  0.00    -0.000 C 
BRANCH  24  25
ATOM     25  C   UNL     1      57.031   0.816  18.386  1.00  0.00    -0.000 C 
BRANCH  25  26
ATOM     26  C   UNL     1      55.791  -0.094  18.403  1.00  0.00    -0.000 C 
BRANCH  26  27
ATOM     27  C   UNL     1      55.621  -0.889  17.097  1.00  0.00    -0.000 C 
BRANCH  27  28
ATOM     28  C   UNL     1      56.863  -0.913  16.184  1.00  0.00    -0.000 C 
BRANCH  28  29
ATOM     29  C   UNL     1      56.584  -1.291  14.719  1.00  0.00    -0.003 C 
ATOM     30  C   UNL     1      56.924  -2.748  14.404  1.00  0.00     0.004 C 
ENDBRANCH  28  29
ENDBRANCH  27  28
ENDBRANCH  26  27
ENDBRANCH  25  26
ENDBRANCH  24  25
ENDBRANCH  23  24
ENDBRANCH  22  23
ENDBRANCH  21  22
ENDBRANCH  20  21
ENDBRANCH  19  20
ENDBRANCH  18  19
ENDBRANCH  17  18
ENDBRANCH   1  17
TORSDOF 26
ENDMDL
MODEL 2
REMARK VINA RESULT:    -4.727      3.408      8.027
REMARK INTER + INTRA:         -15.703
REMARK INTER:                 -12.698
REMARK INTRA:                  -3.004
REMARK UNBOUND:                -3.790
REMARK SMILES CCCCCCCCCCCCCCCCCCCCCCCCCCCC(=O)[O-]
REMARK SMILES IDX 15 1 16 2 17 3 18 4 19 5 20 6 21 7 22 8 23 9 24 10 25 11
REMARK SMILES IDX 26 12 27 13 28 14 29 15 30 16 14 17 13 18 12 19 11 20 10 21
REMARK SMILES IDX 9 22 8 23 7 24 6 25 5 26 4 27 3 28 2 29 1 30
REMARK H PARENT
REMARK Flexibility Score: inf
ROOT
ATOM      1  C   UNL     1      57.204  -2.375  14.501  1.00  0.00     0.000 C 
ENDROOT
BRANCH   1   2
ATOM      2  C   UNL     1      56.388  -1.122  14.883  1.00  0.00     0.000 C 
BRANCH   2   3
ATOM      3  C   UNL     1      56.321  -0.846  16.399  1.00  0.00     0.000 C 
BRANCH   3   4
ATOM      4  C   UNL     1      57.040   0.428  16.871  1.00  0.00     0.000 C 
BRANCH   4   5
ATOM      5  C   UNL     1      57.744   0.251  18.228  1.00  0.00     0.000 C 
BRANCH   5   6
ATOM      6  C   UNL     1      57.260  -0.994  18.991  1.00  0.00     0.000 C 
BRANCH   6   7
ATOM      7  C   UNL     1      57.363  -0.899  20.525  1.00  0.00     0.000 C 
BRANCH   7   8
ATOM      8  C   UNL     1      58.458  -1.811  21.105  1.00  0.00     0.000 C 
BRANCH   8   9
ATOM      9  C   UNL     1      58.022  -3.283  21.193  1.00  0.00     0.000 C 
BRANCH   9  10
ATOM     10  C   UNL     1      59.062  -4.242  20.587  1.00  0.00     0.000 C 
BRANCH  10  11
ATOM     11  C   UNL     1      60.503  -3.725  20.741  1.00  0.00     0.000 C 
BRANCH  11  12
ATOM     12  C   UNL     1      61.147  -4.163  22.069  1.00  0.00     0.006 C 
BRANCH  12  13
ATOM     13  C   UNL     1      62.317  -3.256  22.472  1.00  0.00     0.053 C 
BRANCH  13  14
ATOM     14  C   UNL     1      63.641  -3.888  22.167  1.00  0.00     0.041 C 
ATOM     15  O   UNL     1      64.084  -4.817  22.895  1.00  0.00    -0.550 OA
ATOM     16  O   UNL     1      64.398  -3.435  21.094  1.00  0.00    -0.550 OA
ENDBRANCH  13  14
ENDBRANCH  12  13
ENDBRANCH  11  12
ENDBRANCH  10  11
ENDBRANCH   9  10
ENDBRANCH   8   9
ENDBRANCH   7   8
ENDBRANCH   6   7
ENDBRANCH   5   6
ENDBRANCH   4   5
ENDBRANCH   3   4
ENDBRANCH   2   3
ENDBRANCH   1   2
BRANCH   1  17
ATOM     17  C   UNL     1      56.332  -3.487  13.890  1.00  0.00     0.000 C 
BRANCH  17  18
ATOM     18  C   UNL     1      54.872  -3.050  13.690  1.00  0.00     0.000 C 
BRANCH  18  19
ATOM     19  C   UNL     1      54.018  -4.141  13.020  1.00  0.00     0.000 C 
BRANCH  19  20
ATOM     20  C   UNL     1      52.532  -3.758  12.913  1.00  0.00     0.000 C 
BRANCH  20  21
ATOM     21  C   UNL     1      51.991  -3.765  11.469  1.00  0.00     0.000 C 
BRANCH  21  22
ATOM     22  C   UNL     1      53.117  -3.701  10.424  1.00  0.00    -0.000 C 
BRANCH  22  23
ATOM     23  C   UNL     1      53.120  -2.377   9.642  1.00  0.00    -0.000 C 
BRANCH  23  24
ATOM     24  C   UNL     1      51.870  -1.525   9.925  1.00  0.00    -0.000 C 
BRANCH  24  25
ATOM     25  C   UNL     1      52.220  -0.143  10.500  1.00  0.00    -0.000 C 
BRANCH  25  26
ATOM     26  C   UNL     1      51.999  -0.067  12.021  1.00  0.00    -0.000 C 
BRANCH  26  27
ATOM     27  C   UNL     1      53.318   0.009  12.809  1.00  0.00    -0.000 C 
BRANCH  27  28
ATOM     28  C   UNL     1      54.068   1.352  12.695  1.00  0.00    -0.000 C 
BRANCH  28  29
ATOM     29  C   UNL     1      54.541   1.947  14.032  1.00  0.00    -0.003 C 
ATOM     30  C   UNL     1      53.639   1.566  15.206  1.00  0.00     0.004 C 
ENDBRANCH  28  29
ENDBRANCH  27  28
ENDBRANCH  26  27
ENDBRANCH  25  26
ENDBRANCH  24  25
ENDBRANCH  23  24
ENDBRANCH  22  23
ENDBRANCH  21  22
ENDBRANCH  20  21
ENDBRANCH  19  20
ENDBRANCH  18  19
ENDBRANCH  17  18
ENDBRANCH   1  17
TORSDOF 26
ENDMDL
MODEL 3
REMARK VINA RESULT:    -4.717      4.137      9.430
REMARK INTER + INTRA:         -15.678
REMARK INTER:                 -12.263
REMARK INTRA:                  -3.415
REMARK UNBOUND:                -3.790
REMARK SMILES CCCCCCCCCCCCCCCCCCCCCCCCCCCC(=O)[O-]
REMARK SMILES IDX 15 1 16 2 17 3 18 4 19 5 20 6 21 7 22 8 23 9 24 10 25 11
REMARK SMILES IDX 26 12 27 13 28 14 29 15 30 16 14 17 13 18 12 19 11 20 10 21
REMARK SMILES IDX 9 22 8 23 7 24 6 25 5 26 4 27 3 28 2 29 1 30
REMARK H PARENT
REMARK Flexibility Score: inf
ROOT
ATOM      1  C   UNL     1      53.622  -3.882  13.004  1.00  0.00     0.000 C 
ENDROOT
BRANCH   1   2
ATOM      2  C   UNL     1      54.563  -2.681  12.773  1.00  0.00     0.000 C 
BRANCH   2   3
ATOM      3  C   UNL     1      54.464  -1.581  13.848  1.00  0.00     0.000 C 
BRANCH   3   4
ATOM      4  C   UNL     1      55.443  -1.718  15.026  1.00  0.00     0.000 C 
BRANCH   4   5
ATOM      5  C   UNL     1      56.858  -2.126  14.585  1.00  0.00     0.000 C 
BRANCH   5   6
ATOM      6  C   UNL     1      57.958  -1.512  15.469  1.00  0.00     0.000 C 
BRANCH   6   7
ATOM      7  C   UNL     1      57.486  -1.025  16.852  1.00  0.00     0.000 C 
BRANCH   7   8
ATOM      8  C   UNL     1      58.311  -1.620  18.006  1.00  0.00     0.000 C 
BRANCH   8   9
ATOM      9  C   UNL     1      58.044  -0.922  19.350  1.00  0.00     0.000 C 
BRANCH   9  10
ATOM     10  C   UNL     1      58.482  -1.776  20.553  1.00  0.00     0.000 C 
BRANCH  10  11
ATOM     11  C   UNL     1      57.811  -3.159  20.573  1.00  0.00     0.000 C 
BRANCH  11  12
ATOM     12  C   UNL     1      58.792  -4.285  20.948  1.00  0.00     0.006 C 
BRANCH  12  13
ATOM     13  C   UNL     1      59.734  -3.876  22.088  1.00  0.00     0.053 C 
BRANCH  13  14
ATOM     14  C   UNL     1      61.174  -4.002  21.692  1.00  0.00     0.041 C 
ATOM     15  O   UNL     1      61.483  -4.271  20.500  1.00  0.00    -0.550 OA
ATOM     16  O   UNL     1      62.174  -3.849  22.644  1.00  0.00    -0.550 OA
ENDBRANCH  13  14
ENDBRANCH  12  13
ENDBRANCH  11  12
ENDBRANCH  10  11
ENDBRANCH   9  10
ENDBRANCH   8   9
ENDBRANCH   7   8
ENDBRANCH   6   7
ENDBRANCH   5   6
ENDBRANCH   4   5
ENDBRANCH   3   4
ENDBRANCH   2   3
ENDBRANCH   1   2
BRANCH   1  17
ATOM     17  C   UNL     1      52.134  -3.503  12.880  1.00  0.00     0.000 C 
BRANCH  17  18
ATOM     18  C   UNL     1      51.446  -4.190  11.690  1.00  0.00     0.000 C 
BRANCH  18  19
ATOM     19  C   UNL     1      52.453  -4.846  10.728  1.00  0.00     0.000 C 
BRANCH  19  20
ATOM     20  C   UNL     1      52.445  -4.210   9.327  1.00  0.00     0.000 C 
BRANCH  20  21
ATOM     21  C   UNL     1      51.714  -2.854   9.264  1.00  0.00     0.000 C 
BRANCH  21  22
ATOM     22  C   UNL     1      52.682  -1.664   9.372  1.00  0.00    -0.000 C 
BRANCH  22  23
ATOM     23  C   UNL     1      51.981  -0.376   9.837  1.00  0.00    -0.000 C 
BRANCH  23  24
ATOM     24  C   UNL     1      52.738   0.324  10.981  1.00  0.00    -0.000 C 
BRANCH  24  25
ATOM     25  C   UNL     1      51.969   0.272  12.311  1.00  0.00    -0.000 C 
BRANCH  25  26
ATOM     26  C   UNL     1      51.904   1.644  13.005  1.00  0.00    -0.000 C 
BRANCH  26  27
ATOM     27  C   UNL     1      53.290   2.289  13.172  1.00  0.00    -0.000 C 
BRANCH  27  28
ATOM     28  C   UNL     1      53.805   2.360  14.623  1.00  0.00    -0.000 C 
BRANCH  28  29
ATOM     29  C   UNL     1      55.285   1.982  14.807  1.00  0.00    -0.003 C 
ATOM     30  C   UNL     1      56.007   1.742  13.481  1.00  0.00     0.004 C 
ENDBRANCH  28  29
ENDBRANCH  27  28
ENDBRANCH  26  27
ENDBRANCH  25  26
ENDBRANCH  24  25
ENDBRANCH  23  24
ENDBRANCH  22  23
ENDBRANCH  21  22
ENDBRANCH  20  21
ENDBRANCH  19  20
ENDBRANCH  18  19
ENDBRANCH  17  18
ENDBRANCH   1  17
TORSDOF 26
ENDMDL
MODEL 4
REMARK VINA RESULT:    -4.684      5.815     10.415
REMARK INTER + INTRA:         -15.593
REMARK INTER:                 -10.866
REMARK INTRA:                  -4.728
REMARK UNBOUND:                -3.790
REMARK SMILES CCCCCCCCCCCCCCCCCCCCCCCCCCCC(=O)[O-]
REMARK SMILES IDX 15 1 16 2 17 3 18 4 19 5 20 6 21 7 22 8 23 9 24 10 25 11
REMARK SMILES IDX 26 12 27 13 28 14 29 15 30 16 14 17 13 18 12 19 11 20 10 21
REMARK SMILES IDX 9 22 8 23 7 24 6 25 5 26 4 27 3 28 2 29 1 30
REMARK H PARENT
REMARK Flexibility Score: inf
ROOT
ATOM      1  C   UNL     1      54.606   2.380  14.394  1.00  0.00     0.000 C 
ENDROOT
BRANCH   1   2
ATOM      2  C   UNL     1      53.806   1.315  15.175  1.00  0.00     0.000 C 
BRANCH   2   3
ATOM      3  C   UNL     1      54.331   1.045  16.599  1.00  0.00     0.000 C 
BRANCH   3   4
ATOM      4  C   UNL     1      54.414  -0.436  17.003  1.00  0.00     0.000 C 
BRANCH   4   5
ATOM      5  C   UNL     1      55.783  -0.823  17.587  1.00  0.00     0.000 C 
BRANCH   5   6
ATOM      6  C   UNL     1      56.958  -0.348  16.715  1.00  0.00     0.000 C 
BRANCH   6   7
ATOM      7  C   UNL     1      57.669  -1.458  15.918  1.00  0.00     0.000 C 
BRANCH   7   8
ATOM      8  C   UNL     1      57.083  -1.646  14.508  1.00  0.00     0.000 C 
BRANCH   8   9
ATOM      9  C   UNL     1      56.834  -3.123  14.159  1.00  0.00     0.000 C 
BRANCH   9  10
ATOM     10  C   UNL     1      55.397  -3.377  13.668  1.00  0.00     0.000 C 
BRANCH  10  11
ATOM     11  C   UNL     1      54.528  -2.109  13.700  1.00  0.00     0.000 C 
BRANCH  11  12
ATOM     12  C   UNL     1      53.326  -2.194  12.743  1.00  0.00     0.006 C 
BRANCH  12  13
ATOM     13  C   UNL     1      53.555  -3.208  11.614  1.00  0.00     0.053 C 
BRANCH  13  14
ATOM     14  C   UNL     1      52.415  -4.174  11.494  1.00  0.00     0.041 C 
ATOM     15  O   UNL     1      51.438  -4.103  12.286  1.00  0.00    -0.550 OA
ATOM     16  O   UNL     1      52.444  -5.169  10.526  1.00  0.00    -0.550 OA
ENDBRANCH  13  14
ENDBRANCH  12  13
ENDBRANCH  11  12
ENDBRANCH  10  11
ENDBRANCH   9  10
ENDBRANCH   8   9
ENDBRANCH   7   8
ENDBRANCH   6   7
ENDBRANCH   5   6
ENDBRANCH   4   5
ENDBRANCH   3   4
ENDBRANCH   2   3
ENDBRANCH   1   2
BRANCH   1  17
ATOM     17  C   UNL     1      55.286   1.807  13.136  1.00  0.00     0.000 C 
BRANCH  17  18
ATOM     18  C   UNL     1      56.659   2.442  12.866  1.00  0.00     0.000 C 
BRANCH  18  19
ATOM     19  C   UNL     1      57.616   2.305  14.063  1.00  0.00     0.000 C 
BRANCH  19  20
ATOM     20  C   UNL     1      58.332   3.622  14.412  1.00  0.00     0.000 C 
BRANCH  20  21
ATOM     21  C   UNL     1      58.419   3.898  15.927  1.00  0.00     0.000 C 
BRANCH  21  22
ATOM     22  C   UNL     1      57.430   3.041  16.735  1.00  0.00    -0.000 C 
BRANCH  22  23
ATOM     23  C   UNL     1      57.759   3.020  18.237  1.00  0.00    -0.000 C 
BRANCH  23  24
ATOM     24  C   UNL     1      56.513   2.779  19.108  1.00  0.00    -0.000 C 
BRANCH  24  25
ATOM     25  C   UNL     1      56.692   1.594  20.071  1.00  0.00    -0.000 C 
BRANCH  25  26
ATOM     26  C   UNL     1      57.884   1.788  21.025  1.00  0.00    -0.000 C 
BRANCH  26  27
ATOM     27  C   UNL     1      58.871   0.609  20.985  1.00  0.00    -0.000 C 
BRANCH  27  28
ATOM     28  C   UNL     1      58.658  -0.380  19.822  1.00  0.00    -0.000 C 
BRANCH  28  29
ATOM     29  C   UNL     1      58.142  -1.769  20.237  1.00  0.00    -0.003 C 
ATOM     30  C   UNL     1      59.052  -2.906  19.772  1.00  0.00     0.004 C 
ENDBRANCH  28  29
ENDBRANCH  27  28
ENDBRANCH  26  27
ENDBRANCH  25  26
ENDBRANCH  24  25
ENDBRANCH  23  24
ENDBRANCH  22  23
ENDBRANCH  21  22
ENDBRANCH  20  21
ENDBRANCH  19  20
ENDBRANCH  18  19
ENDBRANCH  17  18
ENDBRANCH   1  17
TORSDOF 26
ENDMDL
MODEL 5
REMARK VINA RESULT:    -4.670      4.698      9.427
REMARK INTER + INTRA:         -15.558
REMARK INTER:                 -11.113
REMARK INTRA:                  -4.446
REMARK UNBOUND:                -3.790
REMARK SMILES CCCCCCCCCCCCCCCCCCCCCCCCCCCC(=O)[O-]
REMARK SMILES IDX 15 1 16 2 17 3 18 4 19 5 20 6 21 7 22 8 23 9 24 10 25 11
REMARK SMILES IDX 26 12 27 13 28 14 29 15 30 16 14 17 13 18 12 19 11 20 10 21
REMARK SMILES IDX 9 22 8 23 7 24 6 25 5 26 4 27 3 28 2 29 1 30
REMARK H PARENT
REMARK Flexibility Score: inf
ROOT
ATOM      1  C   UNL     1      55.986  -3.440  13.578  1.00  0.00     0.000 C 
ENDROOT
BRANCH   1   2
ATOM      2  C   UNL     1      56.890  -2.582  14.488  1.00  0.00     0.000 C 
BRANCH   2   3
ATOM      3  C   UNL     1      56.509  -1.089  14.535  1.00  0.00     0.000 C 
BRANCH   3   4
ATOM      4  C   UNL     1      56.391  -0.480  15.942  1.00  0.00     0.000 C 
BRANCH   4   5
ATOM      5  C   UNL     1      55.086  -0.872  16.656  1.00  0.00     0.000 C 
BRANCH   5   6
ATOM      6  C   UNL     1      54.764   0.042  17.852  1.00  0.00     0.000 C 
BRANCH   6   7
ATOM      7  C   UNL     1      54.438   1.502  17.487  1.00  0.00     0.000 C 
BRANCH   7   8
ATOM      8  C   UNL     1      55.614   2.458  17.749  1.00  0.00     0.000 C 
BRANCH   8   9
ATOM      9  C   UNL     1      56.548   1.961  18.866  1.00  0.00     0.000 C 
BRANCH   9  10
ATOM     10  C   UNL     1      58.029   1.984  18.447  1.00  0.00     0.000 C 
BRANCH  10  11
ATOM     11  C   UNL     1      58.826   0.804  19.031  1.00  0.00     0.000 C 
BRANCH  11  12
ATOM     12  C   UNL     1      57.923  -0.380  19.422  1.00  0.00     0.006 C 
BRANCH  12  13
ATOM     13  C   UNL     1      58.408  -1.703  18.815  1.00  0.00     0.053 C 
BRANCH  13  14
ATOM     14  C   UNL     1      59.025  -2.596  19.849  1.00  0.00     0.041 C 
ATOM     15  O   UNL     1      59.333  -3.783  19.559  1.00  0.00    -0.550 OA
ATOM     16  O   UNL     1      59.236  -2.127  21.139  1.00  0.00    -0.550 OA
ENDBRANCH  13  14
ENDBRANCH  12  13
ENDBRANCH  11  12
ENDBRANCH  10  11
ENDBRANCH   9  10
ENDBRANCH   8   9
ENDBRANCH   7   8
ENDBRANCH   6   7
ENDBRANCH   5   6
ENDBRANCH   4   5
ENDBRANCH   3   4
ENDBRANCH   2   3
ENDBRANCH   1   2
BRANCH   1  17
ATOM     17  C   UNL     1      54.494  -3.089  13.723  1.00  0.00     0.000 C 
BRANCH  17  18
ATOM     18  C   UNL     1      53.619  -3.776  12.662  1.00  0.00     0.000 C 
BRANCH  18  19
ATOM     19  C   UNL     1      52.115  -3.584  12.926  1.00  0.00     0.000 C 
BRANCH  19  20
ATOM     20  C   UNL     1      51.422  -2.728  11.853  1.00  0.00     0.000 C 
BRANCH  20  21
ATOM     21  C   UNL     1      52.397  -2.087  10.844  1.00  0.00     0.000 C 
BRANCH  21  22
ATOM     22  C   UNL     1      52.283  -0.553  10.816  1.00  0.00    -0.000 C 
BRANCH  22  23
ATOM     23  C   UNL     1      52.119   0.051  12.220  1.00  0.00    -0.000 C 
BRANCH  23  24
ATOM     24  C   UNL     1      53.470   0.368  12.885  1.00  0.00    -0.000 C 
BRANCH  24  25
ATOM     25  C   UNL     1      53.372   1.530  13.887  1.00  0.00    -0.000 C 
BRANCH  25  26
ATOM     26  C   UNL     1      54.706   2.279  14.050  1.00  0.00    -0.000 C 
BRANCH  26  27
ATOM     27  C   UNL     1      55.201   2.902  12.734  1.00  0.00    -0.000 C 
BRANCH  27  28
ATOM     28  C   UNL     1      56.671   2.598  12.383  1.00  0.00    -0.000 C 
BRANCH  28  29
ATOM     29  C   UNL     1      57.608   2.436  13.592  1.00  0.00    -0.003 C 
ATOM     30  C   UNL     1      58.256   3.751  14.025  1.00  0.00     0.004 C 
ENDBRANCH  28  29
ENDBRANCH  27  28
ENDBRANCH  26  27
ENDBRANCH  25  26
ENDBRANCH  24  25
ENDBRANCH  23  24
ENDBRANCH  22  23
ENDBRANCH  21  22
ENDBRANCH  20  21
ENDBRANCH  19  20
ENDBRANCH  18  19
ENDBRANCH  17  18
ENDBRANCH   1  17
TORSDOF 26
ENDMDL
MODEL 6
REMARK VINA RESULT:    -4.646      4.913     10.867
REMARK INTER + INTRA:         -15.497
REMARK INTER:                 -12.229
REMARK INTRA:                  -3.268
REMARK UNBOUND:                -3.790
REMARK SMILES CCCCCCCCCCCCCCCCCCCCCCCCCCCC(=O)[O-]
REMARK SMILES IDX 15 1 16 2 17 3 18 4 19 5 20 6 21 7 22 8 23 9 24 10 25 11
REMARK SMILES IDX 26 12 27 13 28 14 29 15 30 16 14 17 13 18 12 19 11 20 10 21
REMARK SMILES IDX 9 22 8 23 7 24 6 25 5 26 4 27 3 28 2 29 1 30
REMARK H PARENT
REMARK Flexibility Score: inf
ROOT
ATOM      1  C   UNL     1      52.647  -3.965  11.516  1.00  0.00     0.000 C 
ENDROOT
BRANCH   1   2
ATOM      2  C   UNL     1      52.764  -3.546  12.997  1.00  0.00     0.000 C 
BRANCH   2   3
ATOM      3  C   UNL     1      54.112  -2.899  13.369  1.00  0.00     0.000 C 
BRANCH   3   4
ATOM      4  C   UNL     1      55.246  -3.881  13.708  1.00  0.00     0.000 C 
BRANCH   4   5
ATOM      5  C   UNL     1      56.545  -3.175  14.130  1.00  0.00     0.000 C 
BRANCH   5   6
ATOM      6  C   UNL     1      56.325  -1.699  14.507  1.00  0.00     0.000 C 
BRANCH   6   7
ATOM      7  C   UNL     1      57.529  -1.012  15.179  1.00  0.00     0.000 C 
BRANCH   7   8
ATOM      8  C   UNL     1      57.664  -1.374  16.669  1.00  0.00     0.000 C 
BRANCH   8   9
ATOM      9  C   UNL     1      57.038  -0.318  17.597  1.00  0.00     0.000 C 
BRANCH   9  10
ATOM     10  C   UNL     1      55.845  -0.872  18.397  1.00  0.00     0.000 C 
BRANCH  10  11
ATOM     11  C   UNL     1      56.050  -0.760  19.917  1.00  0.00     0.000 C 
BRANCH  11  12
ATOM     12  C   UNL     1      56.113  -2.136  20.605  1.00  0.00     0.006 C 
BRANCH  12  13
ATOM     13  C   UNL     1      57.441  -2.355  21.343  1.00  0.00     0.053 C 
BRANCH  13  14
ATOM     14  C   UNL     1      58.447  -3.056  20.482  1.00  0.00     0.041 C 
ATOM     15  O   UNL     1      59.205  -2.393  19.724  1.00  0.00    -0.550 OA
ATOM     16  O   UNL     1      58.531  -4.443  20.497  1.00  0.00    -0.550 OA
ENDBRANCH  13  14
ENDBRANCH  12  13
ENDBRANCH  11  12
ENDBRANCH  10  11
ENDBRANCH   9  10
ENDBRANCH   8   9
ENDBRANCH   7   8
ENDBRANCH   6   7
ENDBRANCH   5   6
ENDBRANCH   4   5
ENDBRANCH   3   4
ENDBRANCH   2   3
ENDBRANCH   1   2
BRANCH   1  17
ATOM     17  C   UNL     1      53.817  -3.447  10.659  1.00  0.00     0.000 C 
BRANCH  17  18
ATOM     18  C   UNL     1      53.788  -3.998   9.224  1.00  0.00     0.000 C 
BRANCH  18  19
ATOM     19  C   UNL     1      52.415  -4.582   8.847  1.00  0.00     0.000 C 
BRANCH  19  20
ATOM     20  C   UNL     1      51.771  -3.872   7.644  1.00  0.00     0.000 C 
BRANCH  20  21
ATOM     21  C   UNL     1      50.846  -2.702   8.036  1.00  0.00     0.000 C 
BRANCH  21  22
ATOM     22  C   UNL     1      51.272  -1.377   7.380  1.00  0.00    -0.000 C 
BRANCH  22  23
ATOM     23  C   UNL     1      51.563  -0.276   8.413  1.00  0.00    -0.000 C 
BRANCH  23  24
ATOM     24  C   UNL     1      51.658  -0.826   9.848  1.00  0.00    -0.000 C 
BRANCH  24  25
ATOM     25  C   UNL     1      52.476   0.088  10.773  1.00  0.00    -0.000 C 
BRANCH  25  26
ATOM     26  C   UNL     1      52.037  -0.020  12.244  1.00  0.00    -0.000 C 
BRANCH  26  27
ATOM     27  C   UNL     1      52.764   0.984  13.155  1.00  0.00    -0.000 C 
BRANCH  27  28
ATOM     28  C   UNL     1      54.301   0.979  13.034  1.00  0.00    -0.000 C 
BRANCH  28  29
ATOM     29  C   UNL     1      54.912   2.273  12.468  1.00  0.00    -0.003 C 
ATOM     30  C   UNL     1      53.889   3.401  12.324  1.00  0.00     0.004 C 
ENDBRANCH  28  29
ENDBRANCH  27  28
ENDBRANCH  26  27
ENDBRANCH  25  26
ENDBRANCH  24  25
ENDBRANCH  23  24
ENDBRANCH  22  23
ENDBRANCH  21  22
ENDBRANCH  20  21
ENDBRANCH  19  20
ENDBRANCH  18  19
ENDBRANCH  17  18
ENDBRANCH   1  17
TORSDOF 26
ENDMDL
MODEL 7
REMARK VINA RESULT:    -4.631      7.796     13.098
REMARK INTER + INTRA:         -15.459
REMARK INTER:                 -10.643
REMARK INTRA:                  -4.816
REMARK UNBOUND:                -3.790
REMARK SMILES CCCCCCCCCCCCCCCCCCCCCCCCCCCC(=O)[O-]
REMARK SMILES IDX 15 1 16 2 17 3 18 4 19 5 20 6 21 7 22 8 23 9 24 10 25 11
REMARK SMILES IDX 26 12 27 13 28 14 29 15 30 16 14 17 13 18 12 19 11 20 10 21
REMARK SMILES IDX 9 22 8 23 7 24 6 25 5 26 4 27 3 28 2 29 1 30
REMARK H PARENT
REMARK Flexibility Score: inf
ROOT
ATOM      1  C   UNL     1      57.253   2.487  12.853  1.00  0.00     0.000 C 
ENDROOT
BRANCH   1   2
ATOM      2  C   UNL     1      56.303   2.749  11.664  1.00  0.00     0.000 C 
BRANCH   2   3
ATOM      3  C   UNL     1      55.326   3.922  11.878  1.00  0.00     0.000 C 
BRANCH   3   4
ATOM      4  C   UNL     1      54.597   4.413  10.617  1.00  0.00     0.000 C 
BRANCH   4   5
ATOM      5  C   UNL     1      53.074   4.203  10.684  1.00  0.00     0.000 C 
BRANCH   5   6
ATOM      6  C   UNL     1      52.644   3.352  11.892  1.00  0.00     0.000 C 
BRANCH   6   7
ATOM      7  C   UNL     1      51.964   2.016  11.537  1.00  0.00     0.000 C 
BRANCH   7   8
ATOM      8  C   UNL     1      52.824   1.137  10.612  1.00  0.00     0.000 C 
BRANCH   8   9
ATOM      9  C   UNL     1      52.350  -0.325  10.571  1.00  0.00     0.000 C 
BRANCH   9  10
ATOM     10  C   UNL     1      51.980  -0.863  11.965  1.00  0.00     0.000 C 
BRANCH  10  11
ATOM     11  C   UNL     1      52.508  -2.287  12.209  1.00  0.00     0.000 C 
BRANCH  11  12
ATOM     12  C   UNL     1      51.565  -3.368  11.651  1.00  0.00     0.006 C 
BRANCH  12  13
ATOM     13  C   UNL     1      52.333  -4.527  11.000  1.00  0.00     0.053 C 
BRANCH  13  14
ATOM     14  C   UNL     1      52.506  -4.322   9.526  1.00  0.00     0.041 C 
ATOM     15  O   UNL     1      51.561  -3.856   8.836  1.00  0.00    -0.550 OA
ATOM     16  O   UNL     1      53.701  -4.669   8.910  1.00  0.00    -0.550 OA
ENDBRANCH  13  14
ENDBRANCH  12  13
ENDBRANCH  11  12
ENDBRANCH  10  11
ENDBRANCH   9  10
ENDBRANCH   8   9
ENDBRANCH   7   8
ENDBRANCH   6   7
ENDBRANCH   5   6
ENDBRANCH   4   5
ENDBRANCH   3   4
ENDBRANCH   2   3
ENDBRANCH   1   2
BRANCH   1  17
ATOM     17  C   UNL     1      57.919   3.774  13.374  1.00  0.00     0.000 C 
BRANCH  17  18
ATOM     18  C   UNL     1      57.904   3.867  14.908  1.00  0.00     0.000 C 
BRANCH  18  19
ATOM     19  C   UNL     1      57.258   2.635  15.566  1.00  0.00     0.000 C 
BRANCH  19  20
ATOM     20  C   UNL     1      56.362   2.995  16.763  1.00  0.00     0.000 C 
BRANCH  20  21
ATOM     21  C   UNL     1      54.931   2.431  16.660  1.00  0.00     0.000 C 
BRANCH  21  22
ATOM     22  C   UNL     1      54.339   2.597  15.250  1.00  0.00    -0.000 C 
BRANCH  22  23
ATOM     23  C   UNL     1      53.618   1.329  14.762  1.00  0.00    -0.000 C 
BRANCH  23  24
ATOM     24  C   UNL     1      54.576   0.335  14.080  1.00  0.00    -0.000 C 
BRANCH  24  25
ATOM     25  C   UNL     1      54.800  -0.933  14.920  1.00  0.00    -0.000 C 
BRANCH  25  26
ATOM     26  C   UNL     1      55.612  -2.000  14.166  1.00  0.00    -0.000 C 
BRANCH  26  27
ATOM     27  C   UNL     1      57.025  -2.189  14.745  1.00  0.00    -0.000 C 
BRANCH  27  28
ATOM     28  C   UNL     1      57.551  -1.002  15.577  1.00  0.00    -0.000 C 
BRANCH  28  29
ATOM     29  C   UNL     1      57.785  -1.306  17.066  1.00  0.00    -0.003 C 
ATOM     30  C   UNL     1      56.823  -0.554  17.987  1.00  0.00     0.004 C 
ENDBRANCH  28  29
ENDBRANCH  27  28
ENDBRANCH  26  27
ENDBRANCH  25  26
ENDBRANCH  24  25
ENDBRANCH  23  24
ENDBRANCH  22  23
ENDBRANCH  21  22
ENDBRANCH  20  21
ENDBRANCH  19  20
ENDBRANCH  18  19
ENDBRANCH  17  18
ENDBRANCH   1  17
TORSDOF 26
ENDMDL
MODEL 8
REMARK VINA RESULT:    -4.602      3.973      9.577
REMARK INTER + INTRA:         -15.388
REMARK INTER:                 -11.851
REMARK INTRA:                  -3.537
REMARK UNBOUND:                -3.790
REMARK SMILES CCCCCCCCCCCCCCCCCCCCCCCCCCCC(=O)[O-]
REMARK SMILES IDX 15 1 16 2 17 3 18 4 19 5 20 6 21 7 22 8 23 9 24 10 25 11
REMARK SMILES IDX 26 12 27 13 28 14 29 15 30 16 14 17 13 18 12 19 11 20 10 21
REMARK SMILES IDX 9 22 8 23 7 24 6 25 5 26 4 27 3 28 2 29 1 30
REMARK H PARENT
REMARK Flexibility Score: inf
ROOT
ATOM      1  C   UNL     1      56.753  -3.492  13.724  1.00  0.00     0.000 C 
ENDROOT
BRANCH   1   2
ATOM      2  C   UNL     1      57.333  -2.280  14.484  1.00  0.00     0.000 C 
BRANCH   2   3
ATOM      3  C   UNL     1      56.288  -1.466  15.273  1.00  0.00     0.000 C 
BRANCH   3   4
ATOM      4  C   UNL     1      56.247   0.039  14.956  1.00  0.00     0.000 C 
BRANCH   4   5
ATOM      5  C   UNL     1      54.815   0.590  14.853  1.00  0.00     0.000 C 
BRANCH   5   6
ATOM      6  C   UNL     1      54.283   1.120  16.197  1.00  0.00     0.000 C 
BRANCH   6   7
ATOM      7  C   UNL     1      55.365   1.453  17.240  1.00  0.00     0.000 C 
BRANCH   7   8
ATOM      8  C   UNL     1      55.112   0.774  18.598  1.00  0.00     0.000 C 
BRANCH   8   9
ATOM      9  C   UNL     1      55.979  -0.479  18.807  1.00  0.00     0.000 C 
BRANCH   9  10
ATOM     10  C   UNL     1      57.480  -0.194  18.619  1.00  0.00     0.000 C 
BRANCH  10  11
ATOM     11  C   UNL     1      58.301  -1.474  18.391  1.00  0.00     0.000 C 
BRANCH  11  12
ATOM     12  C   UNL     1      59.031  -1.941  19.663  1.00  0.00     0.006 C 
BRANCH  12  13
ATOM     13  C   UNL     1      59.128  -3.470  19.748  1.00  0.00     0.053 C 
BRANCH  13  14
ATOM     14  C   UNL     1      59.948  -3.912  20.921  1.00  0.00     0.041 C 
ATOM     15  O   UNL     1      61.198  -4.035  20.811  1.00  0.00    -0.550 OA
ATOM     16  O   UNL     1      59.331  -4.213  22.128  1.00  0.00    -0.550 OA
ENDBRANCH  13  14
ENDBRANCH  12  13
ENDBRANCH  11  12
ENDBRANCH  10  11
ENDBRANCH   9  10
ENDBRANCH   8   9
ENDBRANCH   7   8
ENDBRANCH   6   7
ENDBRANCH   5   6
ENDBRANCH   4   5
ENDBRANCH   3   4
ENDBRANCH   2   3
ENDBRANCH   1   2
BRANCH   1  17
ATOM     17  C   UNL     1      55.224  -3.602  13.862  1.00  0.00     0.000 C 
BRANCH  17  18
ATOM     18  C   UNL     1      54.500  -3.508  12.510  1.00  0.00     0.000 C 
BRANCH  18  19
ATOM     19  C   UNL     1      53.058  -4.044  12.575  1.00  0.00     0.000 C 
BRANCH  19  20
ATOM     20  C   UNL     1      52.289  -3.860  11.256  1.00  0.00     0.000 C 
BRANCH  20  21
ATOM     21  C   UNL     1      51.565  -2.504  11.143  1.00  0.00     0.000 C 
BRANCH  21  22
ATOM     22  C   UNL     1      52.251  -1.557  10.143  1.00  0.00    -0.000 C 
BRANCH  22  23
ATOM     23  C   UNL     1      52.313  -0.108  10.653  1.00  0.00    -0.000 C 
BRANCH  23  24
ATOM     24  C   UNL     1      52.399  -0.028  12.188  1.00  0.00    -0.000 C 
BRANCH  24  25
ATOM     25  C   UNL     1      51.881   1.312  12.735  1.00  0.00    -0.000 C 
BRANCH  25  26
ATOM     26  C   UNL     1      51.741   2.380  11.636  1.00  0.00    -0.000 C 
BRANCH  26  27
ATOM     27  C   UNL     1      52.561   3.647  11.934  1.00  0.00    -0.000 C 
BRANCH  27  28
ATOM     28  C   UNL     1      53.997   3.390  12.434  1.00  0.00    -0.000 C 
BRANCH  28  29
ATOM     29  C   UNL     1      54.988   2.925  11.353  1.00  0.00    -0.003 C 
ATOM     30  C   UNL     1      56.408   2.738  11.888  1.00  0.00     0.004 C 
ENDBRANCH  28  29
ENDBRANCH  27  28
ENDBRANCH  26  27
ENDBRANCH  25  26
ENDBRANCH  24  25
ENDBRANCH  23  24
ENDBRANCH  22  23
ENDBRANCH  21  22
ENDBRANCH  20  21
ENDBRANCH  19  20
ENDBRANCH  18  19
ENDBRANCH  17  18
ENDBRANCH   1  17
TORSDOF 26
ENDMDL
MODEL 9
REMARK VINA RESULT:    -4.577      6.326     10.553
REMARK INTER + INTRA:         -15.323
REMARK INTER:                 -10.893
REMARK INTRA:                  -4.430
REMARK UNBOUND:                -3.790
REMARK SMILES CCCCCCCCCCCCCCCCCCCCCCCCCCCC(=O)[O-]
REMARK SMILES IDX 15 1 16 2 17 3 18 4 19 5 20 6 21 7 22 8 23 9 24 10 25 11
REMARK SMILES IDX 26 12 27 13 28 14 29 15 30 16 14 17 13 18 12 19 11 20 10 21
REMARK SMILES IDX 9 22 8 23 7 24 6 25 5 26 4 27 3 28 2 29 1 30
REMARK H PARENT
REMARK Flexibility Score: inf
ROOT
ATOM      1  C   UNL     1      55.742   0.708  14.533  1.00  0.00     0.000 C 
ENDROOT
BRANCH   1   2
ATOM      2  C   UNL     1      55.446   2.179  14.170  1.00  0.00     0.000 C 
BRANCH   2   3
ATOM      3  C   UNL     1      56.336   2.746  13.046  1.00  0.00     0.000 C 
BRANCH   3   4
ATOM      4  C   UNL     1      56.710   4.232  13.187  1.00  0.00     0.000 C 
BRANCH   4   5
ATOM      5  C   UNL     1      58.219   4.453  13.387  1.00  0.00     0.000 C 
BRANCH   5   6
ATOM      6  C   UNL     1      58.746   3.821  14.688  1.00  0.00     0.000 C 
BRANCH   6   7
ATOM      7  C   UNL     1      58.264   4.500  15.984  1.00  0.00     0.000 C 
BRANCH   7   8
ATOM      8  C   UNL     1      57.460   3.550  16.889  1.00  0.00     0.000 C 
BRANCH   8   9
ATOM      9  C   UNL     1      58.340   2.482  17.561  1.00  0.00     0.000 C 
BRANCH   9  10
ATOM     10  C   UNL     1      57.525   1.517  18.440  1.00  0.00     0.000 C 
BRANCH  10  11
ATOM     11  C   UNL     1      56.021   1.554  18.121  1.00  0.00     0.000 C 
BRANCH  11  12
ATOM     12  C   UNL     1      55.358   0.170  18.247  1.00  0.00     0.006 C 
BRANCH  12  13
ATOM     13  C   UNL     1      56.351  -0.910  18.697  1.00  0.00     0.053 C 
BRANCH  13  14
ATOM     14  C   UNL     1      56.135  -1.302  20.127  1.00  0.00     0.041 C 
ATOM     15  O   UNL     1      56.412  -2.469  20.513  1.00  0.00    -0.550 OA
ATOM     16  O   UNL     1      55.605  -0.387  21.028  1.00  0.00    -0.550 OA
ENDBRANCH  13  14
ENDBRANCH  12  13
ENDBRANCH  11  12
ENDBRANCH  10  11
ENDBRANCH   9  10
ENDBRANCH   8   9
ENDBRANCH   7   8
ENDBRANCH   6   7
ENDBRANCH   5   6
ENDBRANCH   4   5
ENDBRANCH   3   4
ENDBRANCH   2   3
ENDBRANCH   1   2
BRANCH   1  17
ATOM     17  C   UNL     1      57.243   0.440  14.748  1.00  0.00     0.000 C 
BRANCH  17  18
ATOM     18  C   UNL     1      57.527  -1.000  15.204  1.00  0.00     0.000 C 
BRANCH  18  19
ATOM     19  C   UNL     1      56.311  -1.925  15.022  1.00  0.00     0.000 C 
BRANCH  19  20
ATOM     20  C   UNL     1      56.604  -3.130  14.112  1.00  0.00     0.000 C 
BRANCH  20  21
ATOM     21  C   UNL     1      55.357  -3.971  13.774  1.00  0.00     0.000 C 
BRANCH  21  22
ATOM     22  C   UNL     1      54.290  -3.156  13.022  1.00  0.00    -0.000 C 
BRANCH  22  23
ATOM     23  C   UNL     1      52.944  -3.894  12.928  1.00  0.00    -0.000 C 
BRANCH  23  24
ATOM     24  C   UNL     1      52.266  -3.707  11.559  1.00  0.00    -0.000 C 
BRANCH  24  25
ATOM     25  C   UNL     1      51.553  -2.350  11.439  1.00  0.00    -0.000 C 
BRANCH  25  26
ATOM     26  C   UNL     1      52.217  -1.429  10.401  1.00  0.00    -0.000 C 
BRANCH  26  27
ATOM     27  C   UNL     1      52.197   0.050  10.823  1.00  0.00    -0.000 C 
BRANCH  27  28
ATOM     28  C   UNL     1      52.764   0.333  12.229  1.00  0.00    -0.000 C 
BRANCH  28  29
ATOM     29  C   UNL     1      51.989   1.385  13.042  1.00  0.00    -0.003 C 
ATOM     30  C   UNL     1      52.165   2.804  12.501  1.00  0.00     0.004 C 
ENDBRANCH  28  29
ENDBRANCH  27  28
ENDBRANCH  26  27
ENDBRANCH  25  26
ENDBRANCH  24  25
ENDBRANCH  23  24
ENDBRANCH  22  23
ENDBRANCH  21  22
ENDBRANCH  20  21
ENDBRANCH  19  20
ENDBRANCH  18  19
ENDBRANCH  17  18
ENDBRANCH   1  17
TORSDOF 26
ENDMDL
