MODEL 1
REMARK VINA RESULT:    -4.139      0.000      0.000
REMARK INTER + INTRA:         -14.541
REMARK INTER:                 -10.914
REMARK INTRA:                  -3.627
REMARK UNBOUND:                -3.627
REMARK SMILES CCCCCCCCCCCCCCCCCCCCCCCCCCCCCC(=O)[O-]
REMARK SMILES IDX 16 1 17 2 18 3 19 4 20 5 21 6 22 7 23 8 24 9 25 10 26 11
REMARK SMILES IDX 27 12 28 13 29 14 30 15 31 16 32 17 15 18 14 19 13 20 12 21
REMARK SMILES IDX 11 22 10 23 9 24 8 25 7 26 6 27 5 28 4 29 3 30 2 31 1 32
REMARK H PARENT
REMARK Flexibility Score: inf
ROOT
ATOM      1  C   UNL     1       3.236   3.539   7.853  1.00  0.00     0.000 C 
ENDROOT
BRANCH   1   2
ATOM      2  C   UNL     1       2.275   4.228   8.832  1.00  0.00     0.000 C 
BRANCH   2   3
ATOM      3  C   UNL     1       2.983   5.346   9.611  1.00  0.00     0.000 C 
BRANCH   3   4
ATOM      4  C   UNL     1       4.266   5.841   8.922  1.00  0.00     0.000 C 
BRANCH   4   5
ATOM      5  C   UNL     1       4.818   7.192   9.424  1.00  0.00     0.000 C 
BRANCH   5   6
ATOM      6  C   UNL     1       3.776   8.327   9.483  1.00  0.00     0.000 C 
BRANCH   6   7
ATOM      7  C   UNL     1       4.407   9.718   9.683  1.00  0.00     0.000 C 
BRANCH   7   8
ATOM      8  C   UNL     1       5.543  10.003   8.686  1.00  0.00     0.000 C 
BRANCH   8   9
ATOM      9  C   UNL     1       5.091  10.273   7.236  1.00  0.00     0.000 C 
BRANCH   9  10
ATOM     10  C   UNL     1       4.076  11.429   7.102  1.00  0.00     0.000 C 
BRANCH  10  11
ATOM     11  C   UNL     1       4.566  12.524   6.140  1.00  0.00     0.000 C 
BRANCH  11  12
ATOM     12  C   UNL     1       4.535  13.923   6.774  1.00  0.00     0.000 C 
BRANCH  12  13
ATOM     13  C   UNL     1       5.939  14.418   7.160  1.00  0.00     0.006 C 
BRANCH  13  14
ATOM     14  C   UNL     1       6.476  13.721   8.418  1.00  0.00     0.053 C 
BRANCH  14  15
ATOM     15  C   UNL     1       7.796  13.051   8.178  1.00  0.00     0.041 C 
ATOM     16  O   UNL     1       7.975  12.337   7.156  1.00  0.00    -0.550 OA
ATOM     17  O   UNL     1       8.842  13.242   9.073  1.00  0.00    -0.550 OA
ENDBRANCH  14  15
ENDBRANCH  13  14
ENDBRANCH  12  13
ENDBRANCH  11  12
ENDBRANCH  10  11
ENDBRANCH   9  10
ENDBRANCH   8   9
ENDBRANCH   7   8
ENDBRANCH   6   7
ENDBRANCH   5   6
ENDBRANCH   4   5
ENDBRANCH   3   4
ENDBRANCH   2   3
ENDBRANCH   1   2
BRANCH   1  18
ATOM     18  C   UNL     1       3.459   2.071   8.249  1.00  0.00     0.000 C 
BRANCH  18  19
ATOM     19  C   UNL     1       4.587   1.895   9.280  1.00  0.00     0.000 C 
BRANCH  19  20
ATOM     20  C   UNL     1       6.004   1.805   8.680  1.00  0.00     0.000 C 
BRANCH  20  21
ATOM     21  C   UNL     1       6.965   2.908   9.177  1.00  0.00     0.000 C 
BRANCH  21  22
ATOM     22  C   UNL     1       7.237   3.972   8.100  1.00  0.00     0.000 C 
BRANCH  22  23
ATOM     23  C   UNL     1       6.746   3.548   6.708  1.00  0.00     0.000 C 
BRANCH  23  24
ATOM     24  C   UNL     1       7.884   3.479   5.673  1.00  0.00    -0.000 C 
BRANCH  24  25
ATOM     25  C   UNL     1       8.653   2.150   5.725  1.00  0.00    -0.000 C 
BRANCH  25  26
ATOM     26  C   UNL     1       8.012   1.056   4.852  1.00  0.00    -0.000 C 
BRANCH  26  27
ATOM     27  C   UNL     1       7.565  -0.175   5.662  1.00  0.00    -0.000 C 
BRANCH  27  28
ATOM     28  C   UNL     1       7.144  -1.397   4.825  1.00  0.00    -0.000 C 
BRANCH  28  29
ATOM     29  C   UNL     1       7.153  -2.707   5.628  1.00  0.00    -0.000 C 
BRANCH  29  30
ATOM     30  C   UNL     1       6.890  -2.489   7.130  1.00  0.00    -0.000 C 
BRANCH  30  31
ATOM     31  C   UNL     1       5.441  -2.747   7.582  1.00  0.00    -0.003 C 
ATOM     32  C   UNL     1       4.578  -1.486   7.583  1.00  0.00     0.004 C 
ENDBRANCH  30  31
ENDBRANCH  29  30
ENDBRANCH  28  29
ENDBRANCH  27  28
ENDBRANCH  26  27
ENDBRANCH  25  26
ENDBRANCH  24  25
ENDBRANCH  23  24
ENDBRANCH  22  23
ENDBRANCH  21  22
ENDBRANCH  20  21
ENDBRANCH  19  20
ENDBRANCH  18  19
ENDBRANCH   1  18
TORSDOF 28
ENDMDL
MODEL 2
REMARK VINA RESULT:    -3.993      1.299      2.414
REMARK INTER + INTRA:         -14.156
REMARK INTER:                 -10.854
REMARK INTRA:                  -3.302
REMARK UNBOUND:                -3.627
REMARK SMILES CCCCCCCCCCCCCCCCCCCCCCCCCCCCCC(=O)[O-]
REMARK SMILES IDX 16 1 17 2 18 3 19 4 20 5 21 6 22 7 23 8 24 9 25 10 26 11
REMARK SMILES IDX 27 12 28 13 29 14 30 15 31 16 32 17 15 18 14 19 13 20 12 21
REMARK SMILES IDX 11 22 10 23 9 24 8 25 7 26 6 27 5 28 4 29 3 30 2 31 1 32
REMARK H PARENT
REMARK Flexibility Score: inf
ROOT
ATOM      1  C   UNL     1       3.264   3.500   7.453  1.00  0.00     0.000 C 
ENDROOT
BRANCH   1   2
ATOM      2  C   UNL     1       2.706   4.861   7.888  1.00  0.00     0.000 C 
BRANCH   2   3
ATOM      3  C   UNL     1       3.382   5.351   9.177  1.00  0.00     0.000 C 
BRANCH   3   4
ATOM      4  C   UNL     1       4.093   6.704   9.009  1.00  0.00     0.000 C 
BRANCH   4   5
ATOM      5  C   UNL     1       3.775   7.767  10.082  1.00  0.00     0.000 C 
BRANCH   5   6
ATOM      6  C   UNL     1       4.417   9.146   9.827  1.00  0.00     0.000 C 
BRANCH   6   7
ATOM      7  C   UNL     1       3.989   9.774   8.489  1.00  0.00     0.000 C 
BRANCH   7   8
ATOM      8  C   UNL     1       5.160   9.923   7.501  1.00  0.00     0.000 C 
BRANCH   8   9
ATOM      9  C   UNL     1       4.946  10.964   6.384  1.00  0.00     0.000 C 
BRANCH   9  10
ATOM     10  C   UNL     1       4.001  12.119   6.777  1.00  0.00     0.000 C 
BRANCH  10  11
ATOM     11  C   UNL     1       4.516  13.483   6.288  1.00  0.00     0.000 C 
BRANCH  11  12
ATOM     12  C   UNL     1       4.922  14.409   7.446  1.00  0.00     0.000 C 
BRANCH  12  13
ATOM     13  C   UNL     1       6.447  14.591   7.537  1.00  0.00     0.006 C 
BRANCH  13  14
ATOM     14  C   UNL     1       6.991  14.240   8.929  1.00  0.00     0.053 C 
BRANCH  14  15
ATOM     15  C   UNL     1       6.978  12.762   9.188  1.00  0.00     0.041 C 
ATOM     16  O   UNL     1       7.804  12.005   8.614  1.00  0.00    -0.550 OA
ATOM     17  O   UNL     1       6.069  12.227  10.092  1.00  0.00    -0.550 OA
ENDBRANCH  14  15
ENDBRANCH  13  14
ENDBRANCH  12  13
ENDBRANCH  11  12
ENDBRANCH  10  11
ENDBRANCH   9  10
ENDBRANCH   8   9
ENDBRANCH   7   8
ENDBRANCH   6   7
ENDBRANCH   5   6
ENDBRANCH   4   5
ENDBRANCH   3   4
ENDBRANCH   2   3
ENDBRANCH   1   2
BRANCH   1  18
ATOM     18  C   UNL     1       3.502   2.593   8.671  1.00  0.00     0.000 C 
BRANCH  18  19
ATOM     19  C   UNL     1       4.608   1.552   8.433  1.00  0.00     0.000 C 
BRANCH  19  20
ATOM     20  C   UNL     1       6.045   2.082   8.607  1.00  0.00     0.000 C 
BRANCH  20  21
ATOM     21  C   UNL     1       7.044   1.537   7.563  1.00  0.00     0.000 C 
BRANCH  21  22
ATOM     22  C   UNL     1       7.629   0.174   7.973  1.00  0.00     0.000 C 
BRANCH  22  23
ATOM     23  C   UNL     1       8.247  -0.586   6.790  1.00  0.00     0.000 C 
BRANCH  23  24
ATOM     24  C   UNL     1       7.314  -0.641   5.567  1.00  0.00    -0.000 C 
BRANCH  24  25
ATOM     25  C   UNL     1       6.951  -2.078   5.161  1.00  0.00    -0.000 C 
BRANCH  25  26
ATOM     26  C   UNL     1       7.566  -3.134   6.097  1.00  0.00    -0.000 C 
BRANCH  26  27
ATOM     27  C   UNL     1       6.626  -4.323   6.363  1.00  0.00    -0.000 C 
BRANCH  27  28
ATOM     28  C   UNL     1       6.146  -4.470   7.819  1.00  0.00    -0.000 C 
BRANCH  28  29
ATOM     29  C   UNL     1       6.436  -3.226   8.675  1.00  0.00    -0.000 C 
BRANCH  29  30
ATOM     30  C   UNL     1       5.162  -2.444   9.043  1.00  0.00    -0.000 C 
BRANCH  30  31
ATOM     31  C   UNL     1       4.247  -2.092   7.856  1.00  0.00    -0.003 C 
ATOM     32  C   UNL     1       2.907  -2.826   7.893  1.00  0.00     0.004 C 
ENDBRANCH  30  31
ENDBRANCH  29  30
ENDBRANCH  28  29
ENDBRANCH  27  28
ENDBRANCH  26  27
ENDBRANCH  25  26
ENDBRANCH  24  25
ENDBRANCH  23  24
ENDBRANCH  22  23
ENDBRANCH  21  22
ENDBRANCH  20  21
ENDBRANCH  19  20
ENDBRANCH  18  19
ENDBRANCH   1  18
TORSDOF 28
ENDMDL
MODEL 3
REMARK VINA RESULT:    -3.870      1.866      4.530
REMARK INTER + INTRA:         -13.833
REMARK INTER:                 -10.332
REMARK INTRA:                  -3.501
REMARK UNBOUND:                -3.627
REMARK SMILES CCCCCCCCCCCCCCCCCCCCCCCCCCCCCC(=O)[O-]
REMARK SMILES IDX 16 1 17 2 18 3 19 4 20 5 21 6 22 7 23 8 24 9 25 10 26 11
REMARK SMILES IDX 27 12 28 13 29 14 30 15 31 16 32 17 15 18 14 19 13 20 12 21
REMARK SMILES IDX 11 22 10 23 9 24 8 25 7 26 6 27 5 28 4 29 3 30 2 31 1 32
REMARK H PARENT
REMARK Flexibility Score: inf
ROOT
ATOM      1  C   UNL     1       4.111   7.485   8.838  1.00  0.00     0.000 C 
ENDROOT
BRANCH   1   2
ATOM      2  C   UNL     1       3.921   8.983   9.115  1.00  0.00     0.000 C 
BRANCH   2   3
ATOM      3  C   UNL     1       5.186   9.596   9.734  1.00  0.00     0.000 C 
BRANCH   3   4
ATOM      4  C   UNL     1       6.456   9.318   8.912  1.00  0.00     0.000 C 
BRANCH   4   5
ATOM      5  C   UNL     1       7.597  10.344   9.073  1.00  0.00     0.000 C 
BRANCH   5   6
ATOM      6  C   UNL     1       8.547  10.440   7.862  1.00  0.00     0.000 C 
BRANCH   6   7
ATOM      7  C   UNL     1       9.473  11.670   7.915  1.00  0.00     0.000 C 
BRANCH   7   8
ATOM      8  C   UNL     1       9.142  12.709   6.830  1.00  0.00     0.000 C 
BRANCH   8   9
ATOM      9  C   UNL     1       8.862  14.133   7.350  1.00  0.00     0.000 C 
BRANCH   9  10
ATOM     10  C   UNL     1       8.432  14.185   8.832  1.00  0.00     0.000 C 
BRANCH  10  11
ATOM     11  C   UNL     1       6.918  13.980   9.006  1.00  0.00     0.000 C 
BRANCH  11  12
ATOM     12  C   UNL     1       6.091  14.856   8.052  1.00  0.00     0.000 C 
BRANCH  12  13
ATOM     13  C   UNL     1       5.046  14.041   7.272  1.00  0.00     0.006 C 
BRANCH  13  14
ATOM     14  C   UNL     1       5.382  12.543   7.243  1.00  0.00     0.053 C 
BRANCH  14  15
ATOM     15  C   UNL     1       4.350  11.742   6.505  1.00  0.00     0.041 C 
ATOM     16  O   UNL     1       3.157  11.713   6.905  1.00  0.00    -0.550 OA
ATOM     17  O   UNL     1       4.706  11.050   5.353  1.00  0.00    -0.550 OA
ENDBRANCH  14  15
ENDBRANCH  13  14
ENDBRANCH  12  13
ENDBRANCH  11  12
ENDBRANCH  10  11
ENDBRANCH   9  10
ENDBRANCH   8   9
ENDBRANCH   7   8
ENDBRANCH   6   7
ENDBRANCH   5   6
ENDBRANCH   4   5
ENDBRANCH   3   4
ENDBRANCH   2   3
ENDBRANCH   1   2
BRANCH   1  18
ATOM     18  C   UNL     1       3.700   6.648  10.059  1.00  0.00     0.000 C 
BRANCH  18  19
ATOM     19  C   UNL     1       3.289   5.213   9.689  1.00  0.00     0.000 C 
BRANCH  19  20
ATOM     20  C   UNL     1       2.909   5.010   8.210  1.00  0.00     0.000 C 
BRANCH  20  21
ATOM     21  C   UNL     1       3.608   3.803   7.545  1.00  0.00     0.000 C 
BRANCH  21  22
ATOM     22  C   UNL     1       5.137   3.973   7.491  1.00  0.00     0.000 C 
BRANCH  22  23
ATOM     23  C   UNL     1       5.872   3.043   8.467  1.00  0.00     0.000 C 
BRANCH  23  24
ATOM     24  C   UNL     1       5.193   1.668   8.603  1.00  0.00    -0.000 C 
BRANCH  24  25
ATOM     25  C   UNL     1       6.203   0.521   8.769  1.00  0.00    -0.000 C 
BRANCH  25  26
ATOM     26  C   UNL     1       6.194  -0.456   7.581  1.00  0.00    -0.000 C 
BRANCH  26  27
ATOM     27  C   UNL     1       7.454  -0.349   6.703  1.00  0.00    -0.000 C 
BRANCH  27  28
ATOM     28  C   UNL     1       8.586   0.520   7.283  1.00  0.00    -0.000 C 
BRANCH  28  29
ATOM     29  C   UNL     1       8.737   1.869   6.561  1.00  0.00    -0.000 C 
BRANCH  29  30
ATOM     30  C   UNL     1       8.163   1.849   5.132  1.00  0.00    -0.000 C 
BRANCH  30  31
ATOM     31  C   UNL     1       8.624   3.007   4.227  1.00  0.00    -0.003 C 
ATOM     32  C   UNL     1       9.798   3.792   4.809  1.00  0.00     0.004 C 
ENDBRANCH  30  31
ENDBRANCH  29  30
ENDBRANCH  28  29
ENDBRANCH  27  28
ENDBRANCH  26  27
ENDBRANCH  25  26
ENDBRANCH  24  25
ENDBRANCH  23  24
ENDBRANCH  22  23
ENDBRANCH  21  22
ENDBRANCH  20  21
ENDBRANCH  19  20
ENDBRANCH  18  19
ENDBRANCH   1  18
TORSDOF 28
ENDMDL
MODEL 4
REMARK VINA RESULT:    -3.848      1.347      2.805
REMARK INTER + INTRA:         -13.773
REMARK INTER:                 -10.452
REMARK INTRA:                  -3.321
REMARK UNBOUND:                -3.627
REMARK SMILES CCCCCCCCCCCCCCCCCCCCCCCCCCCCCC(=O)[O-]
REMARK SMILES IDX 16 1 17 2 18 3 19 4 20 5 21 6 22 7 23 8 24 9 25 10 26 11
REMARK SMILES IDX 27 12 28 13 29 14 30 15 31 16 32 17 15 18 14 19 13 20 12 21
REMARK SMILES IDX 11 22 10 23 9 24 8 25 7 26 6 27 5 28 4 29 3 30 2 31 1 32
REMARK H PARENT
REMARK Flexibility Score: inf
ROOT
ATOM      1  C   UNL     1       3.818   4.769   9.210  1.00  0.00     0.000 C 
ENDROOT
BRANCH   1   2
ATOM      2  C   UNL     1       3.774   6.226   8.732  1.00  0.00     0.000 C 
BRANCH   2   3
ATOM      3  C   UNL     1       4.130   7.194   9.870  1.00  0.00     0.000 C 
BRANCH   3   4
ATOM      4  C   UNL     1       5.000   8.375   9.407  1.00  0.00     0.000 C 
BRANCH   4   5
ATOM      5  C   UNL     1       4.488   9.139   8.168  1.00  0.00     0.000 C 
BRANCH   5   6
ATOM      6  C   UNL     1       4.467  10.674   8.326  1.00  0.00     0.000 C 
BRANCH   6   7
ATOM      7  C   UNL     1       3.779  11.394   7.152  1.00  0.00     0.000 C 
BRANCH   7   8
ATOM      8  C   UNL     1       4.782  11.945   6.124  1.00  0.00     0.000 C 
BRANCH   8   9
ATOM      9  C   UNL     1       4.756  13.476   5.939  1.00  0.00     0.000 C 
BRANCH   9  10
ATOM     10  C   UNL     1       4.694  14.266   7.264  1.00  0.00     0.000 C 
BRANCH  10  11
ATOM     11  C   UNL     1       5.966  14.082   8.110  1.00  0.00     0.000 C 
BRANCH  11  12
ATOM     12  C   UNL     1       7.241  14.489   7.353  1.00  0.00     0.000 C 
BRANCH  12  13
ATOM     13  C   UNL     1       8.395  13.498   7.583  1.00  0.00     0.006 C 
BRANCH  13  14
ATOM     14  C   UNL     1       7.930  12.221   8.297  1.00  0.00     0.053 C 
BRANCH  14  15
ATOM     15  C   UNL     1       8.172  10.990   7.475  1.00  0.00     0.041 C 
ATOM     16  O   UNL     1       8.231   9.857   8.022  1.00  0.00    -0.550 OA
ATOM     17  O   UNL     1       8.303  11.094   6.095  1.00  0.00    -0.550 OA
ENDBRANCH  14  15
ENDBRANCH  13  14
ENDBRANCH  12  13
ENDBRANCH  11  12
ENDBRANCH  10  11
ENDBRANCH   9  10
ENDBRANCH   8   9
ENDBRANCH   7   8
ENDBRANCH   6   7
ENDBRANCH   5   6
ENDBRANCH   4   5
ENDBRANCH   3   4
ENDBRANCH   2   3
ENDBRANCH   1   2
BRANCH   1  18
ATOM     18  C   UNL     1       5.219   4.170   9.006  1.00  0.00     0.000 C 
BRANCH  18  19
ATOM     19  C   UNL     1       5.459   3.691   7.564  1.00  0.00     0.000 C 
BRANCH  19  20
ATOM     20  C   UNL     1       6.941   3.536   7.172  1.00  0.00     0.000 C 
BRANCH  20  21
ATOM     21  C   UNL     1       7.185   3.502   5.647  1.00  0.00     0.000 C 
BRANCH  21  22
ATOM     22  C   UNL     1       8.027   2.287   5.218  1.00  0.00     0.000 C 
BRANCH  22  23
ATOM     23  C   UNL     1       8.627   1.530   6.412  1.00  0.00     0.000 C 
BRANCH  23  24
ATOM     24  C   UNL     1       8.209   0.048   6.445  1.00  0.00    -0.000 C 
BRANCH  24  25
ATOM     25  C   UNL     1       7.062  -0.267   5.473  1.00  0.00    -0.000 C 
BRANCH  25  26
ATOM     26  C   UNL     1       7.088  -1.722   4.973  1.00  0.00    -0.000 C 
BRANCH  26  27
ATOM     27  C   UNL     1       7.293  -2.744   6.106  1.00  0.00    -0.000 C 
BRANCH  27  28
ATOM     28  C   UNL     1       6.050  -3.024   6.972  1.00  0.00    -0.000 C 
BRANCH  28  29
ATOM     29  C   UNL     1       6.243  -2.625   8.444  1.00  0.00    -0.000 C 
BRANCH  29  30
ATOM     30  C   UNL     1       5.630  -1.251   8.775  1.00  0.00    -0.000 C 
BRANCH  30  31
ATOM     31  C   UNL     1       4.350  -0.903   7.994  1.00  0.00    -0.003 C 
ATOM     32  C   UNL     1       3.729   0.427   8.421  1.00  0.00     0.004 C 
ENDBRANCH  30  31
ENDBRANCH  29  30
ENDBRANCH  28  29
ENDBRANCH  27  28
ENDBRANCH  26  27
ENDBRANCH  25  26
ENDBRANCH  24  25
ENDBRANCH  23  24
ENDBRANCH  22  23
ENDBRANCH  21  22
ENDBRANCH  20  21
ENDBRANCH  19  20
ENDBRANCH  18  19
ENDBRANCH   1  18
TORSDOF 28
ENDMDL
MODEL 5
REMARK VINA RESULT:    -3.817     14.212     18.312
REMARK INTER + INTRA:         -13.692
REMARK INTER:                  -9.113
REMARK INTRA:                  -4.578
REMARK UNBOUND:                -3.627
REMARK SMILES CCCCCCCCCCCCCCCCCCCCCCCCCCCCCC(=O)[O-]
REMARK SMILES IDX 16 1 17 2 18 3 19 4 20 5 21 6 22 7 23 8 24 9 25 10 26 11
REMARK SMILES IDX 27 12 28 13 29 14 30 15 31 16 32 17 15 18 14 19 13 20 12 21
REMARK SMILES IDX 11 22 10 23 9 24 8 25 7 26 6 27 5 28 4 29 3 30 2 31 1 32
REMARK H PARENT
REMARK Flexibility Score: inf
ROOT
ATOM      1  C   UNL     1       1.869   6.586  -9.004  1.00  0.00     0.000 C 
ENDROOT
BRANCH   1   2
ATOM      2  C   UNL     1       1.869   5.278  -9.806  1.00  0.00     0.000 C 
BRANCH   2   3
ATOM      3  C   UNL     1       3.019   4.359  -9.370  1.00  0.00     0.000 C 
BRANCH   3   4
ATOM      4  C   UNL     1       4.405   4.903  -9.755  1.00  0.00     0.000 C 
BRANCH   4   5
ATOM      5  C   UNL     1       5.300   5.352  -8.581  1.00  0.00     0.000 C 
BRANCH   5   6
ATOM      6  C   UNL     1       6.547   6.159  -8.998  1.00  0.00     0.000 C 
BRANCH   6   7
ATOM      7  C   UNL     1       7.447   6.540  -7.808  1.00  0.00     0.000 C 
BRANCH   7   8
ATOM      8  C   UNL     1       8.635   5.579  -7.631  1.00  0.00     0.000 C 
BRANCH   8   9
ATOM      9  C   UNL     1       8.288   4.216  -7.000  1.00  0.00     0.000 C 
BRANCH   9  10
ATOM     10  C   UNL     1       8.780   3.004  -7.819  1.00  0.00     0.000 C 
BRANCH  10  11
ATOM     11  C   UNL     1       7.877   2.718  -9.031  1.00  0.00     0.000 C 
BRANCH  11  12
ATOM     12  C   UNL     1       7.045   1.437  -8.858  1.00  0.00     0.000 C 
BRANCH  12  13
ATOM     13  C   UNL     1       5.601   1.736  -8.424  1.00  0.00     0.006 C 
BRANCH  13  14
ATOM     14  C   UNL     1       4.992   0.591  -7.602  1.00  0.00     0.053 C 
BRANCH  14  15
ATOM     15  C   UNL     1       4.656   1.012  -6.202  1.00  0.00     0.041 C 
ATOM     16  O   UNL     1       3.626   0.566  -5.630  1.00  0.00    -0.550 OA
ATOM     17  O   UNL     1       5.501   1.877  -5.517  1.00  0.00    -0.550 OA
ENDBRANCH  14  15
ENDBRANCH  13  14
ENDBRANCH  12  13
ENDBRANCH  11  12
ENDBRANCH  10  11
ENDBRANCH   9  10
ENDBRANCH   8   9
ENDBRANCH   7   8
ENDBRANCH   6   7
ENDBRANCH   5   6
ENDBRANCH   4   5
ENDBRANCH   3   4
ENDBRANCH   2   3
ENDBRANCH   1   2
BRANCH   1  18
ATOM     18  C   UNL     1       2.064   7.795  -9.932  1.00  0.00     0.000 C 
BRANCH  18  19
ATOM     19  C   UNL     1       3.320   8.614  -9.590  1.00  0.00     0.000 C 
BRANCH  19  20
ATOM     20  C   UNL     1       3.731   8.580  -8.106  1.00  0.00     0.000 C 
BRANCH  20  21
ATOM     21  C   UNL     1       5.023   9.369  -7.796  1.00  0.00     0.000 C 
BRANCH  21  22
ATOM     22  C   UNL     1       5.475  10.235  -8.985  1.00  0.00     0.000 C 
BRANCH  22  23
ATOM     23  C   UNL     1       5.416  11.739  -8.680  1.00  0.00     0.000 C 
BRANCH  23  24
ATOM     24  C   UNL     1       4.783  12.043  -7.309  1.00  0.00    -0.000 C 
BRANCH  24  25
ATOM     25  C   UNL     1       5.178  13.425  -6.766  1.00  0.00    -0.000 C 
BRANCH  25  26
ATOM     26  C   UNL     1       6.447  13.986  -7.432  1.00  0.00    -0.000 C 
BRANCH  26  27
ATOM     27  C   UNL     1       7.712  13.787  -6.579  1.00  0.00    -0.000 C 
BRANCH  27  28
ATOM     28  C   UNL     1       7.469  13.256  -5.154  1.00  0.00    -0.000 C 
BRANCH  28  29
ATOM     29  C   UNL     1       8.100  11.875  -4.912  1.00  0.00    -0.000 C 
BRANCH  29  30
ATOM     30  C   UNL     1       8.046  10.968  -6.156  1.00  0.00    -0.000 C 
BRANCH  30  31
ATOM     31  C   UNL     1       8.434   9.498  -5.909  1.00  0.00    -0.003 C 
ATOM     32  C   UNL     1       7.998   8.985  -4.537  1.00  0.00     0.004 C 
ENDBRANCH  30  31
ENDBRANCH  29  30
ENDBRANCH  28  29
ENDBRANCH  27  28
ENDBRANCH  26  27
ENDBRANCH  25  26
ENDBRANCH  24  25
ENDBRANCH  23  24
ENDBRANCH  22  23
ENDBRANCH  21  22
ENDBRANCH  20  21
ENDBRANCH  19  20
ENDBRANCH  18  19
ENDBRANCH   1  18
TORSDOF 28
ENDMDL
MODEL 6
REMARK VINA RESULT:    -3.810      1.615      3.632
REMARK INTER + INTRA:         -13.673
REMARK INTER:                 -10.684
REMARK INTRA:                  -2.988
REMARK UNBOUND:                -3.627
REMARK SMILES CCCCCCCCCCCCCCCCCCCCCCCCCCCCCC(=O)[O-]
REMARK SMILES IDX 16 1 17 2 18 3 19 4 20 5 21 6 22 7 23 8 24 9 25 10 26 11
REMARK SMILES IDX 27 12 28 13 29 14 30 15 31 16 32 17 15 18 14 19 13 20 12 21
REMARK SMILES IDX 11 22 10 23 9 24 8 25 7 26 6 27 5 28 4 29 3 30 2 31 1 32
REMARK H PARENT
REMARK Flexibility Score: inf
ROOT
ATOM      1  C   UNL     1       2.648   4.235   7.933  1.00  0.00     0.000 C 
ENDROOT
BRANCH   1   2
ATOM      2  C   UNL     1       3.568   5.460   8.029  1.00  0.00     0.000 C 
BRANCH   2   3
ATOM      3  C   UNL     1       4.235   5.546   9.409  1.00  0.00     0.000 C 
BRANCH   3   4
ATOM      4  C   UNL     1       4.182   6.957  10.019  1.00  0.00     0.000 C 
BRANCH   4   5
ATOM      5  C   UNL     1       4.185   8.124   9.009  1.00  0.00     0.000 C 
BRANCH   5   6
ATOM      6  C   UNL     1       4.065   9.523   9.648  1.00  0.00     0.000 C 
BRANCH   6   7
ATOM      7  C   UNL     1       5.224  10.463   9.267  1.00  0.00     0.000 C 
BRANCH   7   8
ATOM      8  C   UNL     1       6.261   9.787   8.354  1.00  0.00     0.000 C 
BRANCH   8   9
ATOM      9  C   UNL     1       7.363  10.720   7.811  1.00  0.00     0.000 C 
BRANCH   9  10
ATOM     10  C   UNL     1       7.445  12.080   8.536  1.00  0.00     0.000 C 
BRANCH  10  11
ATOM     11  C   UNL     1       7.363  13.265   7.559  1.00  0.00     0.000 C 
BRANCH  11  12
ATOM     12  C   UNL     1       6.382  14.351   8.030  1.00  0.00     0.000 C 
BRANCH  12  13
ATOM     13  C   UNL     1       4.954  14.108   7.513  1.00  0.00     0.006 C 
BRANCH  13  14
ATOM     14  C   UNL     1       4.943  13.489   6.108  1.00  0.00     0.053 C 
BRANCH  14  15
ATOM     15  C   UNL     1       4.332  12.119   6.094  1.00  0.00     0.041 C 
ATOM     16  O   UNL     1       4.791  11.222   5.339  1.00  0.00    -0.550 OA
ATOM     17  O   UNL     1       3.271  11.826   6.942  1.00  0.00    -0.550 OA
ENDBRANCH  14  15
ENDBRANCH  13  14
ENDBRANCH  12  13
ENDBRANCH  11  12
ENDBRANCH  10  11
ENDBRANCH   9  10
ENDBRANCH   8   9
ENDBRANCH   7   8
ENDBRANCH   6   7
ENDBRANCH   5   6
ENDBRANCH   4   5
ENDBRANCH   3   4
ENDBRANCH   2   3
ENDBRANCH   1   2
BRANCH   1  18
ATOM     18  C   UNL     1       1.757   4.124   9.180  1.00  0.00     0.000 C 
BRANCH  18  19
ATOM     19  C   UNL     1       1.842   2.745   9.855  1.00  0.00     0.000 C 
BRANCH  19  20
ATOM     20  C   UNL     1       3.186   2.015   9.667  1.00  0.00     0.000 C 
BRANCH  20  21
ATOM     21  C   UNL     1       3.060   0.643   8.968  1.00  0.00     0.000 C 
BRANCH  21  22
ATOM     22  C   UNL     1       4.201  -0.314   9.353  1.00  0.00     0.000 C 
BRANCH  22  23
ATOM     23  C   UNL     1       4.303  -1.526   8.414  1.00  0.00     0.000 C 
BRANCH  23  24
ATOM     24  C   UNL     1       4.885  -1.161   7.036  1.00  0.00    -0.000 C 
BRANCH  24  25
ATOM     25  C   UNL     1       6.325  -1.664   6.848  1.00  0.00    -0.000 C 
BRANCH  25  26
ATOM     26  C   UNL     1       6.716  -1.812   5.367  1.00  0.00    -0.000 C 
BRANCH  26  27
ATOM     27  C   UNL     1       7.451  -0.578   4.812  1.00  0.00    -0.000 C 
BRANCH  27  28
ATOM     28  C   UNL     1       7.959   0.417   5.873  1.00  0.00    -0.000 C 
BRANCH  28  29
ATOM     29  C   UNL     1       7.833   1.884   5.429  1.00  0.00    -0.000 C 
BRANCH  29  30
ATOM     30  C   UNL     1       8.485   2.865   6.420  1.00  0.00    -0.000 C 
BRANCH  30  31
ATOM     31  C   UNL     1       7.578   3.325   7.576  1.00  0.00    -0.003 C 
ATOM     32  C   UNL     1       6.159   2.764   7.484  1.00  0.00     0.004 C 
ENDBRANCH  30  31
ENDBRANCH  29  30
ENDBRANCH  28  29
ENDBRANCH  27  28
ENDBRANCH  26  27
ENDBRANCH  25  26
ENDBRANCH  24  25
ENDBRANCH  23  24
ENDBRANCH  22  23
ENDBRANCH  21  22
ENDBRANCH  20  21
ENDBRANCH  19  20
ENDBRANCH  18  19
ENDBRANCH   1  18
TORSDOF 28
ENDMDL
MODEL 7
REMARK VINA RESULT:    -3.766      1.550      3.996
REMARK INTER + INTRA:         -13.559
REMARK INTER:                 -10.678
REMARK INTRA:                  -2.881
REMARK UNBOUND:                -3.627
REMARK SMILES CCCCCCCCCCCCCCCCCCCCCCCCCCCCCC(=O)[O-]
REMARK SMILES IDX 16 1 17 2 18 3 19 4 20 5 21 6 22 7 23 8 24 9 25 10 26 11
REMARK SMILES IDX 27 12 28 13 29 14 30 15 31 16 32 17 15 18 14 19 13 20 12 21
REMARK SMILES IDX 11 22 10 23 9 24 8 25 7 26 6 27 5 28 4 29 3 30 2 31 1 32
REMARK H PARENT
REMARK Flexibility Score: inf
ROOT
ATOM      1  C   UNL     1       3.229   5.047   9.742  1.00  0.00     0.000 C 
ENDROOT
BRANCH   1   2
ATOM      2  C   UNL     1       4.103   6.253  10.111  1.00  0.00     0.000 C 
BRANCH   2   3
ATOM      3  C   UNL     1       4.158   7.269   8.961  1.00  0.00     0.000 C 
BRANCH   3   4
ATOM      4  C   UNL     1       4.391   8.712   9.441  1.00  0.00     0.000 C 
BRANCH   4   5
ATOM      5  C   UNL     1       3.734   9.817   8.587  1.00  0.00     0.000 C 
BRANCH   5   6
ATOM      6  C   UNL     1       4.730  10.706   7.814  1.00  0.00     0.000 C 
BRANCH   6   7
ATOM      7  C   UNL     1       6.198  10.292   8.022  1.00  0.00     0.000 C 
BRANCH   7   8
ATOM      8  C   UNL     1       7.159  11.007   7.057  1.00  0.00     0.000 C 
BRANCH   8   9
ATOM      9  C   UNL     1       8.476  11.501   7.689  1.00  0.00     0.000 C 
BRANCH   9  10
ATOM     10  C   UNL     1       9.412  12.228   6.700  1.00  0.00     0.000 C 
BRANCH  10  11
ATOM     11  C   UNL     1       9.494  13.738   6.981  1.00  0.00     0.000 C 
BRANCH  11  12
ATOM     12  C   UNL     1       8.983  14.105   8.384  1.00  0.00     0.000 C 
BRANCH  12  13
ATOM     13  C   UNL     1       7.786  15.070   8.332  1.00  0.00     0.006 C 
BRANCH  13  14
ATOM     14  C   UNL     1       6.950  14.890   7.057  1.00  0.00     0.053 C 
BRANCH  14  15
ATOM     15  C   UNL     1       5.596  14.311   7.341  1.00  0.00     0.041 C 
ATOM     16  O   UNL     1       5.222  14.110   8.527  1.00  0.00    -0.550 OA
ATOM     17  O   UNL     1       4.734  14.020   6.291  1.00  0.00    -0.550 OA
ENDBRANCH  14  15
ENDBRANCH  13  14
ENDBRANCH  12  13
ENDBRANCH  11  12
ENDBRANCH  10  11
ENDBRANCH   9  10
ENDBRANCH   8   9
ENDBRANCH   7   8
ENDBRANCH   6   7
ENDBRANCH   5   6
ENDBRANCH   4   5
ENDBRANCH   3   4
ENDBRANCH   2   3
ENDBRANCH   1   2
BRANCH   1  18
ATOM     18  C   UNL     1       2.935   5.027   8.234  1.00  0.00     0.000 C 
BRANCH  18  19
ATOM     19  C   UNL     1       3.464   3.761   7.539  1.00  0.00     0.000 C 
BRANCH  19  20
ATOM     20  C   UNL     1       4.916   3.386   7.893  1.00  0.00     0.000 C 
BRANCH  20  21
ATOM     21  C   UNL     1       5.062   1.994   8.546  1.00  0.00     0.000 C 
BRANCH  21  22
ATOM     22  C   UNL     1       3.706   1.406   8.974  1.00  0.00     0.000 C 
BRANCH  22  23
ATOM     23  C   UNL     1       3.571  -0.086   8.635  1.00  0.00     0.000 C 
BRANCH  23  24
ATOM     24  C   UNL     1       4.929  -0.755   8.352  1.00  0.00    -0.000 C 
BRANCH  24  25
ATOM     25  C   UNL     1       4.903  -1.641   7.096  1.00  0.00    -0.000 C 
BRANCH  25  26
ATOM     26  C   UNL     1       6.269  -2.280   6.791  1.00  0.00    -0.000 C 
BRANCH  26  27
ATOM     27  C   UNL     1       7.076  -1.502   5.736  1.00  0.00    -0.000 C 
BRANCH  27  28
ATOM     28  C   UNL     1       7.868  -0.295   6.272  1.00  0.00    -0.000 C 
BRANCH  28  29
ATOM     29  C   UNL     1       7.886   0.893   5.296  1.00  0.00    -0.000 C 
BRANCH  29  30
ATOM     30  C   UNL     1       7.937   2.255   6.014  1.00  0.00    -0.000 C 
BRANCH  30  31
ATOM     31  C   UNL     1       7.647   3.475   5.120  1.00  0.00    -0.003 C 
ATOM     32  C   UNL     1       8.808   3.830   4.193  1.00  0.00     0.004 C 
ENDBRANCH  30  31
ENDBRANCH  29  30
ENDBRANCH  28  29
ENDBRANCH  27  28
ENDBRANCH  26  27
ENDBRANCH  25  26
ENDBRANCH  24  25
ENDBRANCH  23  24
ENDBRANCH  22  23
ENDBRANCH  21  22
ENDBRANCH  20  21
ENDBRANCH  19  20
ENDBRANCH  18  19
ENDBRANCH   1  18
TORSDOF 28
ENDMDL
MODEL 8
REMARK VINA RESULT:    -3.706      1.508      3.931
REMARK INTER + INTRA:         -13.399
REMARK INTER:                 -10.064
REMARK INTRA:                  -3.335
REMARK UNBOUND:                -3.627
REMARK SMILES CCCCCCCCCCCCCCCCCCCCCCCCCCCCCC(=O)[O-]
REMARK SMILES IDX 16 1 17 2 18 3 19 4 20 5 21 6 22 7 23 8 24 9 25 10 26 11
REMARK SMILES IDX 27 12 28 13 29 14 30 15 31 16 32 17 15 18 14 19 13 20 12 21
REMARK SMILES IDX 11 22 10 23 9 24 8 25 7 26 6 27 5 28 4 29 3 30 2 31 1 32
REMARK H PARENT
REMARK Flexibility Score: inf
ROOT
ATOM      1  C   UNL     1       2.973   4.764   9.087  1.00  0.00     0.000 C 
ENDROOT
BRANCH   1   2
ATOM      2  C   UNL     1       3.402   6.055   9.797  1.00  0.00     0.000 C 
BRANCH   2   3
ATOM      3  C   UNL     1       4.144   6.996   8.836  1.00  0.00     0.000 C 
BRANCH   3   4
ATOM      4  C   UNL     1       4.531   8.336   9.483  1.00  0.00     0.000 C 
BRANCH   4   5
ATOM      5  C   UNL     1       3.776   9.576   8.960  1.00  0.00     0.000 C 
BRANCH   5   6
ATOM      6  C   UNL     1       4.631  10.534   8.105  1.00  0.00     0.000 C 
BRANCH   6   7
ATOM      7  C   UNL     1       3.794  11.398   7.144  1.00  0.00     0.000 C 
BRANCH   7   8
ATOM      8  C   UNL     1       4.661  12.187   6.147  1.00  0.00     0.000 C 
BRANCH   8   9
ATOM      9  C   UNL     1       4.531  13.721   6.236  1.00  0.00     0.000 C 
BRANCH   9  10
ATOM     10  C   UNL     1       5.121  14.325   7.528  1.00  0.00     0.000 C 
BRANCH  10  11
ATOM     11  C   UNL     1       6.658  14.356   7.507  1.00  0.00     0.000 C 
BRANCH  11  12
ATOM     12  C   UNL     1       7.282  13.250   8.373  1.00  0.00     0.000 C 
BRANCH  12  13
ATOM     13  C   UNL     1       8.501  12.599   7.697  1.00  0.00     0.006 C 
BRANCH  13  14
ATOM     14  C   UNL     1       8.267  11.115   7.384  1.00  0.00     0.053 C 
BRANCH  14  15
ATOM     15  C   UNL     1       8.951  10.211   8.366  1.00  0.00     0.041 C 
ATOM     16  O   UNL     1       8.995  10.511   9.589  1.00  0.00    -0.550 OA
ATOM     17  O   UNL     1       9.515   9.018   7.932  1.00  0.00    -0.550 OA
ENDBRANCH  14  15
ENDBRANCH  13  14
ENDBRANCH  12  13
ENDBRANCH  11  12
ENDBRANCH  10  11
ENDBRANCH   9  10
ENDBRANCH   8   9
ENDBRANCH   7   8
ENDBRANCH   6   7
ENDBRANCH   5   6
ENDBRANCH   4   5
ENDBRANCH   3   4
ENDBRANCH   2   3
ENDBRANCH   1   2
BRANCH   1  18
ATOM     18  C   UNL     1       4.058   4.294   8.107  1.00  0.00     0.000 C 
BRANCH  18  19
ATOM     19  C   UNL     1       4.971   3.208   8.702  1.00  0.00     0.000 C 
BRANCH  19  20
ATOM     20  C   UNL     1       4.637   1.770   8.262  1.00  0.00     0.000 C 
BRANCH  20  21
ATOM     21  C   UNL     1       4.612   0.751   9.422  1.00  0.00     0.000 C 
BRANCH  21  22
ATOM     22  C   UNL     1       4.093  -0.628   8.976  1.00  0.00     0.000 C 
BRANCH  22  23
ATOM     23  C   UNL     1       4.549  -1.003   7.558  1.00  0.00     0.000 C 
BRANCH  23  24
ATOM     24  C   UNL     1       5.849  -1.829   7.551  1.00  0.00    -0.000 C 
BRANCH  24  25
ATOM     25  C   UNL     1       6.792  -1.441   6.402  1.00  0.00    -0.000 C 
BRANCH  25  26
ATOM     26  C   UNL     1       7.417  -0.047   6.589  1.00  0.00    -0.000 C 
BRANCH  26  27
ATOM     27  C   UNL     1       8.032   0.154   7.985  1.00  0.00    -0.000 C 
BRANCH  27  28
ATOM     28  C   UNL     1       8.448   1.598   8.320  1.00  0.00    -0.000 C 
BRANCH  28  29
ATOM     29  C   UNL     1       8.922   2.387   7.088  1.00  0.00    -0.000 C 
BRANCH  29  30
ATOM     30  C   UNL     1       7.979   3.547   6.722  1.00  0.00    -0.000 C 
BRANCH  30  31
ATOM     31  C   UNL     1       7.489   3.555   5.263  1.00  0.00    -0.003 C 
ATOM     32  C   UNL     1       8.630   3.553   4.247  1.00  0.00     0.004 C 
ENDBRANCH  30  31
ENDBRANCH  29  30
ENDBRANCH  28  29
ENDBRANCH  27  28
ENDBRANCH  26  27
ENDBRANCH  25  26
ENDBRANCH  24  25
ENDBRANCH  23  24
ENDBRANCH  22  23
ENDBRANCH  21  22
ENDBRANCH  20  21
ENDBRANCH  19  20
ENDBRANCH  18  19
ENDBRANCH   1  18
TORSDOF 28
ENDMDL
MODEL 9
REMARK VINA RESULT:    -3.688      1.753      3.826
REMARK INTER + INTRA:         -13.351
REMARK INTER:                  -9.068
REMARK INTRA:                  -4.283
REMARK UNBOUND:                -3.627
REMARK SMILES CCCCCCCCCCCCCCCCCCCCCCCCCCCCCC(=O)[O-]
REMARK SMILES IDX 16 1 17 2 18 3 19 4 20 5 21 6 22 7 23 8 24 9 25 10 26 11
REMARK SMILES IDX 27 12 28 13 29 14 30 15 31 16 32 17 15 18 14 19 13 20 12 21
REMARK SMILES IDX 11 22 10 23 9 24 8 25 7 26 6 27 5 28 4 29 3 30 2 31 1 32
REMARK H PARENT
REMARK Flexibility Score: inf
ROOT
ATOM      1  C   UNL     1       2.634   4.008   8.110  1.00  0.00     0.000 C 
ENDROOT
BRANCH   1   2
ATOM      2  C   UNL     1       3.320   5.371   8.275  1.00  0.00     0.000 C 
BRANCH   2   3
ATOM      3  C   UNL     1       3.674   5.639   9.745  1.00  0.00     0.000 C 
BRANCH   3   4
ATOM      4  C   UNL     1       4.495   6.924   9.943  1.00  0.00     0.000 C 
BRANCH   4   5
ATOM      5  C   UNL     1       4.199   8.069   8.951  1.00  0.00     0.000 C 
BRANCH   5   6
ATOM      6  C   UNL     1       4.105   9.467   9.596  1.00  0.00     0.000 C 
BRANCH   6   7
ATOM      7  C   UNL     1       5.406  10.281   9.468  1.00  0.00     0.000 C 
BRANCH   7   8
ATOM      8  C   UNL     1       6.280   9.822   8.288  1.00  0.00     0.000 C 
BRANCH   8   9
ATOM      9  C   UNL     1       7.269  10.878   7.755  1.00  0.00     0.000 C 
BRANCH   9  10
ATOM     10  C   UNL     1       7.692  11.927   8.807  1.00  0.00     0.000 C 
BRANCH  10  11
ATOM     11  C   UNL     1       7.697  13.354   8.235  1.00  0.00     0.000 C 
BRANCH  11  12
ATOM     12  C   UNL     1       6.310  14.015   8.286  1.00  0.00     0.000 C 
BRANCH  12  13
ATOM     13  C   UNL     1       5.731  14.260   6.883  1.00  0.00     0.006 C 
BRANCH  13  14
ATOM     14  C   UNL     1       4.262  13.826   6.777  1.00  0.00     0.053 C 
BRANCH  14  15
ATOM     15  C   UNL     1       4.122  12.365   6.463  1.00  0.00     0.041 C 
ATOM     16  O   UNL     1       3.341  11.639   7.131  1.00  0.00    -0.550 OA
ATOM     17  O   UNL     1       4.837  11.814   5.406  1.00  0.00    -0.550 OA
ENDBRANCH  14  15
ENDBRANCH  13  14
ENDBRANCH  12  13
ENDBRANCH  11  12
ENDBRANCH  10  11
ENDBRANCH   9  10
ENDBRANCH   8   9
ENDBRANCH   7   8
ENDBRANCH   6   7
ENDBRANCH   5   6
ENDBRANCH   4   5
ENDBRANCH   3   4
ENDBRANCH   2   3
ENDBRANCH   1   2
BRANCH   1  18
ATOM     18  C   UNL     1       2.076   3.513   9.453  1.00  0.00     0.000 C 
BRANCH  18  19
ATOM     19  C   UNL     1       2.390   2.031   9.721  1.00  0.00     0.000 C 
BRANCH  19  20
ATOM     20  C   UNL     1       3.879   1.652   9.595  1.00  0.00     0.000 C 
BRANCH  20  21
ATOM     21  C   UNL     1       4.131   0.369   8.773  1.00  0.00     0.000 C 
BRANCH  21  22
ATOM     22  C   UNL     1       5.628   0.036   8.659  1.00  0.00     0.000 C 
BRANCH  22  23
ATOM     23  C   UNL     1       5.989  -0.628   7.321  1.00  0.00     0.000 C 
BRANCH  23  24
ATOM     24  C   UNL     1       7.458  -0.398   6.922  1.00  0.00    -0.000 C 
BRANCH  24  25
ATOM     25  C   UNL     1       8.393  -0.291   8.136  1.00  0.00    -0.000 C 
BRANCH  25  26
ATOM     26  C   UNL     1       9.381   0.884   8.026  1.00  0.00    -0.000 C 
BRANCH  26  27
ATOM     27  C   UNL     1       9.514   1.683   9.334  1.00  0.00    -0.000 C 
BRANCH  27  28
ATOM     28  C   UNL     1       8.953   3.117   9.290  1.00  0.00    -0.000 C 
BRANCH  28  29
ATOM     29  C   UNL     1       7.434   3.174   9.517  1.00  0.00    -0.000 C 
BRANCH  29  30
ATOM     30  C   UNL     1       6.698   3.978   8.430  1.00  0.00    -0.000 C 
BRANCH  30  31
ATOM     31  C   UNL     1       6.405   3.203   7.131  1.00  0.00    -0.003 C 
ATOM     32  C   UNL     1       7.418   3.487   6.023  1.00  0.00     0.004 C 
ENDBRANCH  30  31
ENDBRANCH  29  30
ENDBRANCH  28  29
ENDBRANCH  27  28
ENDBRANCH  26  27
ENDBRANCH  25  26
ENDBRANCH  24  25
ENDBRANCH  23  24
ENDBRANCH  22  23
ENDBRANCH  21  22
ENDBRANCH  20  21
ENDBRANCH  19  20
ENDBRANCH  18  19
ENDBRANCH   1  18
TORSDOF 28
ENDMDL
