MODEL 1
REMARK VINA RESULT:    -5.298      0.000      0.000
REMARK INTER + INTRA:         -19.183
REMARK INTER:                 -13.970
REMARK INTRA:                  -5.213
REMARK UNBOUND:                -5.213
REMARK SMILES CCCCCCCCCCCCCCCCCCCCCCCCCCCCCC(=O)[O-]
REMARK SMILES IDX 16 1 17 2 18 3 19 4 20 5 21 6 22 7 23 8 24 9 25 10 26 11
REMARK SMILES IDX 27 12 28 13 29 14 30 15 31 16 32 17 15 18 14 19 13 20 12 21
REMARK SMILES IDX 11 22 10 23 9 24 8 25 7 26 6 27 5 28 4 29 3 30 2 31 1 32
REMARK H PARENT
REMARK Flexibility Score: inf
ROOT
ATOM      1  C   UNL     1      14.124 -29.015  22.447  1.00  0.00     0.000 C 
ENDROOT
BRANCH   1   2
ATOM      2  C   UNL     1      15.599 -29.203  22.053  1.00  0.00     0.000 C 
BRANCH   2   3
ATOM      3  C   UNL     1      16.377 -30.069  23.068  1.00  0.00     0.000 C 
BRANCH   3   4
ATOM      4  C   UNL     1      17.613 -30.765  22.470  1.00  0.00     0.000 C 
BRANCH   4   5
ATOM      5  C   UNL     1      17.546 -31.014  20.953  1.00  0.00     0.000 C 
BRANCH   5   6
ATOM      6  C   UNL     1      18.409 -32.210  20.508  1.00  0.00     0.000 C 
BRANCH   6   7
ATOM      7  C   UNL     1      19.554 -32.540  21.487  1.00  0.00     0.000 C 
BRANCH   7   8
ATOM      8  C   UNL     1      20.876 -31.801  21.200  1.00  0.00     0.000 C 
BRANCH   8   9
ATOM      9  C   UNL     1      21.351 -30.824  22.295  1.00  0.00     0.000 C 
BRANCH   9  10
ATOM     10  C   UNL     1      21.051 -29.335  22.037  1.00  0.00     0.000 C 
BRANCH  10  11
ATOM     11  C   UNL     1      20.549 -28.997  20.616  1.00  0.00     0.000 C 
BRANCH  11  12
ATOM     12  C   UNL     1      19.789 -27.658  20.518  1.00  0.00     0.000 C 
BRANCH  12  13
ATOM     13  C   UNL     1      20.461 -26.525  21.311  1.00  0.00     0.006 C 
BRANCH  13  14
ATOM     14  C   UNL     1      20.948 -25.415  20.371  1.00  0.00     0.053 C 
BRANCH  14  15
ATOM     15  C   UNL     1      22.438 -25.427  20.251  1.00  0.00     0.041 C 
ATOM     16  O   UNL     1      23.062 -24.367  19.975  1.00  0.00    -0.550 OA
ATOM     17  O   UNL     1      23.140 -26.608  20.451  1.00  0.00    -0.550 OA
ENDBRANCH  14  15
ENDBRANCH  13  14
ENDBRANCH  12  13
ENDBRANCH  11  12
ENDBRANCH  10  11
ENDBRANCH   9  10
ENDBRANCH   8   9
ENDBRANCH   7   8
ENDBRANCH   6   7
ENDBRANCH   5   6
ENDBRANCH   4   5
ENDBRANCH   3   4
ENDBRANCH   2   3
ENDBRANCH   1   2
BRANCH   1  18
ATOM     18  C   UNL     1      13.644 -30.078  23.449  1.00  0.00     0.000 C 
BRANCH  18  19
ATOM     19  C   UNL     1      13.014 -31.302  22.761  1.00  0.00     0.000 C 
BRANCH  19  20
ATOM     20  C   UNL     1      12.486 -30.979  21.353  1.00  0.00     0.000 C 
BRANCH  20  21
ATOM     21  C   UNL     1      13.272 -31.706  20.247  1.00  0.00     0.000 C 
BRANCH  21  22
ATOM     22  C   UNL     1      14.211 -32.790  20.795  1.00  0.00     0.000 C 
BRANCH  22  23
ATOM     23  C   UNL     1      14.668 -33.778  19.710  1.00  0.00     0.000 C 
BRANCH  23  24
ATOM     24  C   UNL     1      15.751 -34.724  20.240  1.00  0.00    -0.000 C 
BRANCH  24  25
ATOM     25  C   UNL     1      16.702 -35.150  19.113  1.00  0.00    -0.000 C 
BRANCH  25  26
ATOM     26  C   UNL     1      17.617 -36.327  19.518  1.00  0.00    -0.000 C 
BRANCH  26  27
ATOM     27  C   UNL     1      17.589 -36.637  21.026  1.00  0.00    -0.000 C 
BRANCH  27  28
ATOM     28  C   UNL     1      18.788 -36.084  21.822  1.00  0.00    -0.000 C 
BRANCH  28  29
ATOM     29  C   UNL     1      18.601 -36.011  23.353  1.00  0.00    -0.000 C 
BRANCH  29  30
ATOM     30  C   UNL     1      17.222 -35.519  23.842  1.00  0.00    -0.000 C 
BRANCH  30  31
ATOM     31  C   UNL     1      16.929 -34.037  23.547  1.00  0.00    -0.003 C 
ATOM     32  C   UNL     1      15.601 -33.544  24.123  1.00  0.00     0.004 C 
ENDBRANCH  30  31
ENDBRANCH  29  30
ENDBRANCH  28  29
ENDBRANCH  27  28
ENDBRANCH  26  27
ENDBRANCH  25  26
ENDBRANCH  24  25
ENDBRANCH  23  24
ENDBRANCH  22  23
ENDBRANCH  21  22
ENDBRANCH  20  21
ENDBRANCH  19  20
ENDBRANCH  18  19
ENDBRANCH   1  18
TORSDOF 28
ENDMDL
MODEL 2
REMARK VINA RESULT:    -5.172      1.697      2.851
REMARK INTER + INTRA:         -18.852
REMARK INTER:                 -13.327
REMARK INTRA:                  -5.525
REMARK UNBOUND:                -5.213
REMARK SMILES CCCCCCCCCCCCCCCCCCCCCCCCCCCCCC(=O)[O-]
REMARK SMILES IDX 16 1 17 2 18 3 19 4 20 5 21 6 22 7 23 8 24 9 25 10 26 11
REMARK SMILES IDX 27 12 28 13 29 14 30 15 31 16 32 17 15 18 14 19 13 20 12 21
REMARK SMILES IDX 11 22 10 23 9 24 8 25 7 26 6 27 5 28 4 29 3 30 2 31 1 32
REMARK H PARENT
REMARK Flexibility Score: inf
ROOT
ATOM      1  C   UNL     1      14.888 -30.811  23.058  1.00  0.00     0.000 C 
ENDROOT
BRANCH   1   2
ATOM      2  C   UNL     1      16.418 -30.652  23.037  1.00  0.00     0.000 C 
BRANCH   2   3
ATOM      3  C   UNL     1      16.915 -29.862  21.807  1.00  0.00     0.000 C 
BRANCH   3   4
ATOM      4  C   UNL     1      17.567 -30.744  20.726  1.00  0.00     0.000 C 
BRANCH   4   5
ATOM      5  C   UNL     1      18.073 -32.110  21.222  1.00  0.00     0.000 C 
BRANCH   5   6
ATOM      6  C   UNL     1      19.376 -32.550  20.528  1.00  0.00     0.000 C 
BRANCH   6   7
ATOM      7  C   UNL     1      20.483 -32.977  21.513  1.00  0.00     0.000 C 
BRANCH   7   8
ATOM      8  C   UNL     1      20.062 -32.963  22.996  1.00  0.00     0.000 C 
BRANCH   8   9
ATOM      9  C   UNL     1      20.767 -31.917  23.884  1.00  0.00     0.000 C 
BRANCH   9  10
ATOM     10  C   UNL     1      22.088 -31.352  23.329  1.00  0.00     0.000 C 
BRANCH  10  11
ATOM     11  C   UNL     1      22.059 -29.859  22.936  1.00  0.00     0.000 C 
BRANCH  11  12
ATOM     12  C   UNL     1      20.708 -29.386  22.359  1.00  0.00     0.000 C 
BRANCH  12  13
ATOM     13  C   UNL     1      20.797 -28.974  20.880  1.00  0.00     0.006 C 
BRANCH  13  14
ATOM     14  C   UNL     1      19.857 -27.798  20.583  1.00  0.00     0.053 C 
BRANCH  14  15
ATOM     15  C   UNL     1      20.597 -26.500  20.607  1.00  0.00     0.041 C 
ATOM     16  O   UNL     1      21.857 -26.487  20.647  1.00  0.00    -0.550 OA
ATOM     17  O   UNL     1      19.895 -25.302  20.579  1.00  0.00    -0.550 OA
ENDBRANCH  14  15
ENDBRANCH  13  14
ENDBRANCH  12  13
ENDBRANCH  11  12
ENDBRANCH  10  11
ENDBRANCH   9  10
ENDBRANCH   8   9
ENDBRANCH   7   8
ENDBRANCH   6   7
ENDBRANCH   5   6
ENDBRANCH   4   5
ENDBRANCH   3   4
ENDBRANCH   2   3
ENDBRANCH   1   2
BRANCH   1  18
ATOM     18  C   UNL     1      14.446 -32.265  22.824  1.00  0.00     0.000 C 
BRANCH  18  19
ATOM     19  C   UNL     1      14.305 -32.609  21.331  1.00  0.00     0.000 C 
BRANCH  19  20
ATOM     20  C   UNL     1      14.962 -33.952  20.971  1.00  0.00     0.000 C 
BRANCH  20  21
ATOM     21  C   UNL     1      15.358 -34.036  19.485  1.00  0.00     0.000 C 
BRANCH  21  22
ATOM     22  C   UNL     1      16.649 -34.838  19.256  1.00  0.00     0.000 C 
BRANCH  22  23
ATOM     23  C   UNL     1      16.457 -36.344  19.500  1.00  0.00     0.000 C 
BRANCH  23  24
ATOM     24  C   UNL     1      17.603 -36.920  20.340  1.00  0.00    -0.000 C 
BRANCH  24  25
ATOM     25  C   UNL     1      18.172 -35.855  21.288  1.00  0.00    -0.000 C 
BRANCH  25  26
ATOM     26  C   UNL     1      17.939 -36.197  22.776  1.00  0.00    -0.000 C 
BRANCH  26  27
ATOM     27  C   UNL     1      17.150 -35.117  23.540  1.00  0.00    -0.000 C 
BRANCH  27  28
ATOM     28  C   UNL     1      17.307 -35.163  25.072  1.00  0.00    -0.000 C 
BRANCH  28  29
ATOM     29  C   UNL     1      18.442 -36.063  25.605  1.00  0.00    -0.000 C 
BRANCH  29  30
ATOM     30  C   UNL     1      17.997 -37.318  26.386  1.00  0.00    -0.000 C 
BRANCH  30  31
ATOM     31  C   UNL     1      16.473 -37.471  26.541  1.00  0.00    -0.003 C 
ATOM     32  C   UNL     1      16.003 -37.528  27.994  1.00  0.00     0.004 C 
ENDBRANCH  30  31
ENDBRANCH  29  30
ENDBRANCH  28  29
ENDBRANCH  27  28
ENDBRANCH  26  27
ENDBRANCH  25  26
ENDBRANCH  24  25
ENDBRANCH  23  24
ENDBRANCH  22  23
ENDBRANCH  21  22
ENDBRANCH  20  21
ENDBRANCH  19  20
ENDBRANCH  18  19
ENDBRANCH   1  18
TORSDOF 28
ENDMDL
MODEL 3
REMARK VINA RESULT:    -5.128      1.265      3.004
REMARK INTER + INTRA:         -18.734
REMARK INTER:                 -13.839
REMARK INTRA:                  -4.895
REMARK UNBOUND:                -5.213
REMARK SMILES CCCCCCCCCCCCCCCCCCCCCCCCCCCCCC(=O)[O-]
REMARK SMILES IDX 16 1 17 2 18 3 19 4 20 5 21 6 22 7 23 8 24 9 25 10 26 11
REMARK SMILES IDX 27 12 28 13 29 14 30 15 31 16 32 17 15 18 14 19 13 20 12 21
REMARK SMILES IDX 11 22 10 23 9 24 8 25 7 26 6 27 5 28 4 29 3 30 2 31 1 32
REMARK H PARENT
REMARK Flexibility Score: inf
ROOT
ATOM      1  C   UNL     1      14.974 -32.648  24.006  1.00  0.00     0.000 C 
ENDROOT
BRANCH   1   2
ATOM      2  C   UNL     1      13.504 -32.208  23.896  1.00  0.00     0.000 C 
BRANCH   2   3
ATOM      3  C   UNL     1      13.354 -30.777  23.336  1.00  0.00     0.000 C 
BRANCH   3   4
ATOM      4  C   UNL     1      13.035 -30.730  21.831  1.00  0.00     0.000 C 
BRANCH   4   5
ATOM      5  C   UNL     1      14.212 -30.312  20.931  1.00  0.00     0.000 C 
BRANCH   5   6
ATOM      6  C   UNL     1      15.464 -29.917  21.736  1.00  0.00     0.000 C 
BRANCH   6   7
ATOM      7  C   UNL     1      16.784 -30.378  21.083  1.00  0.00     0.000 C 
BRANCH   7   8
ATOM      8  C   UNL     1      17.928 -30.658  22.078  1.00  0.00     0.000 C 
BRANCH   8   9
ATOM      9  C   UNL     1      18.903 -31.785  21.680  1.00  0.00     0.000 C 
BRANCH   9  10
ATOM     10  C   UNL     1      20.141 -31.343  20.878  1.00  0.00     0.000 C 
BRANCH  10  11
ATOM     11  C   UNL     1      20.929 -30.157  21.475  1.00  0.00     0.000 C 
BRANCH  11  12
ATOM     12  C   UNL     1      20.624 -28.799  20.811  1.00  0.00     0.000 C 
BRANCH  12  13
ATOM     13  C   UNL     1      21.568 -27.677  21.273  1.00  0.00     0.006 C 
BRANCH  13  14
ATOM     14  C   UNL     1      21.408 -26.430  20.393  1.00  0.00     0.053 C 
BRANCH  14  15
ATOM     15  C   UNL     1      22.708 -26.043  19.767  1.00  0.00     0.041 C 
ATOM     16  O   UNL     1      23.700 -26.818  19.832  1.00  0.00    -0.550 OA
ATOM     17  O   UNL     1      22.824 -24.826  19.107  1.00  0.00    -0.550 OA
ENDBRANCH  14  15
ENDBRANCH  13  14
ENDBRANCH  12  13
ENDBRANCH  11  12
ENDBRANCH  10  11
ENDBRANCH   9  10
ENDBRANCH   8   9
ENDBRANCH   7   8
ENDBRANCH   6   7
ENDBRANCH   5   6
ENDBRANCH   4   5
ENDBRANCH   3   4
ENDBRANCH   2   3
ENDBRANCH   1   2
BRANCH   1  18
ATOM     18  C   UNL     1      15.241 -33.987  23.299  1.00  0.00     0.000 C 
BRANCH  18  19
ATOM     19  C   UNL     1      15.872 -33.808  21.907  1.00  0.00     0.000 C 
BRANCH  19  20
ATOM     20  C   UNL     1      14.833 -33.885  20.775  1.00  0.00     0.000 C 
BRANCH  20  21
ATOM     21  C   UNL     1      15.478 -34.126  19.398  1.00  0.00     0.000 C 
BRANCH  21  22
ATOM     22  C   UNL     1      16.955 -33.708  19.348  1.00  0.00     0.000 C 
BRANCH  22  23
ATOM     23  C   UNL     1      17.892 -34.890  19.054  1.00  0.00     0.000 C 
BRANCH  23  24
ATOM     24  C   UNL     1      17.111 -36.206  18.955  1.00  0.00    -0.000 C 
BRANCH  24  25
ATOM     25  C   UNL     1      17.727 -37.275  19.869  1.00  0.00    -0.000 C 
BRANCH  25  26
ATOM     26  C   UNL     1      17.651 -36.897  21.364  1.00  0.00    -0.000 C 
BRANCH  26  27
ATOM     27  C   UNL     1      19.029 -36.680  22.015  1.00  0.00    -0.000 C 
BRANCH  27  28
ATOM     28  C   UNL     1      19.173 -35.362  22.802  1.00  0.00    -0.000 C 
BRANCH  28  29
ATOM     29  C   UNL     1      18.805 -35.430  24.300  1.00  0.00    -0.000 C 
BRANCH  29  30
ATOM     30  C   UNL     1      19.167 -36.744  25.025  1.00  0.00    -0.000 C 
BRANCH  30  31
ATOM     31  C   UNL     1      18.006 -37.389  25.802  1.00  0.00    -0.003 C 
ATOM     32  C   UNL     1      16.769 -36.498  25.917  1.00  0.00     0.004 C 
ENDBRANCH  30  31
ENDBRANCH  29  30
ENDBRANCH  28  29
ENDBRANCH  27  28
ENDBRANCH  26  27
ENDBRANCH  25  26
ENDBRANCH  24  25
ENDBRANCH  23  24
ENDBRANCH  22  23
ENDBRANCH  21  22
ENDBRANCH  20  21
ENDBRANCH  19  20
ENDBRANCH  18  19
ENDBRANCH   1  18
TORSDOF 28
ENDMDL
MODEL 4
REMARK VINA RESULT:    -5.107      2.665      6.910
REMARK INTER + INTRA:         -18.678
REMARK INTER:                 -13.665
REMARK INTRA:                  -5.013
REMARK UNBOUND:                -5.213
REMARK SMILES CCCCCCCCCCCCCCCCCCCCCCCCCCCCCC(=O)[O-]
REMARK SMILES IDX 16 1 17 2 18 3 19 4 20 5 21 6 22 7 23 8 24 9 25 10 26 11
REMARK SMILES IDX 27 12 28 13 29 14 30 15 31 16 32 17 15 18 14 19 13 20 12 21
REMARK SMILES IDX 11 22 10 23 9 24 8 25 7 26 6 27 5 28 4 29 3 30 2 31 1 32
REMARK H PARENT
REMARK Flexibility Score: inf
ROOT
ATOM      1  C   UNL     1      14.256 -32.747  21.216  1.00  0.00     0.000 C 
ENDROOT
BRANCH   1   2
ATOM      2  C   UNL     1      14.979 -34.026  20.760  1.00  0.00     0.000 C 
BRANCH   2   3
ATOM      3  C   UNL     1      15.609 -33.883  19.358  1.00  0.00     0.000 C 
BRANCH   3   4
ATOM      4  C   UNL     1      16.872 -34.740  19.155  1.00  0.00     0.000 C 
BRANCH   4   5
ATOM      5  C   UNL     1      16.667 -36.253  19.349  1.00  0.00     0.000 C 
BRANCH   5   6
ATOM      6  C   UNL     1      17.611 -36.851  20.409  1.00  0.00     0.000 C 
BRANCH   6   7
ATOM      7  C   UNL     1      18.288 -35.788  21.297  1.00  0.00     0.000 C 
BRANCH   7   8
ATOM      8  C   UNL     1      18.010 -35.941  22.806  1.00  0.00     0.000 C 
BRANCH   8   9
ATOM      9  C   UNL     1      16.965 -34.974  23.398  1.00  0.00     0.000 C 
BRANCH   9  10
ATOM     10  C   UNL     1      17.087 -34.703  24.909  1.00  0.00     0.000 C 
BRANCH  10  11
ATOM     11  C   UNL     1      17.711 -33.342  25.290  1.00  0.00     0.000 C 
BRANCH  11  12
ATOM     12  C   UNL     1      19.229 -33.250  25.031  1.00  0.00     0.000 C 
BRANCH  12  13
ATOM     13  C   UNL     1      19.788 -31.831  25.221  1.00  0.00     0.006 C 
BRANCH  13  14
ATOM     14  C   UNL     1      19.260 -31.204  26.518  1.00  0.00     0.053 C 
BRANCH  14  15
ATOM     15  C   UNL     1      20.323 -30.410  27.204  1.00  0.00     0.041 C 
ATOM     16  O   UNL     1      21.535 -30.736  27.086  1.00  0.00    -0.550 OA
ATOM     17  O   UNL     1      19.977 -29.304  27.970  1.00  0.00    -0.550 OA
ENDBRANCH  14  15
ENDBRANCH  13  14
ENDBRANCH  12  13
ENDBRANCH  11  12
ENDBRANCH  10  11
ENDBRANCH   9  10
ENDBRANCH   8   9
ENDBRANCH   7   8
ENDBRANCH   6   7
ENDBRANCH   5   6
ENDBRANCH   4   5
ENDBRANCH   3   4
ENDBRANCH   2   3
ENDBRANCH   1   2
BRANCH   1  18
ATOM     18  C   UNL     1      14.311 -32.553  22.741  1.00  0.00     0.000 C 
BRANCH  18  19
ATOM     19  C   UNL     1      14.721 -31.126  23.144  1.00  0.00     0.000 C 
BRANCH  19  20
ATOM     20  C   UNL     1      16.241 -30.907  23.071  1.00  0.00     0.000 C 
BRANCH  20  21
ATOM     21  C   UNL     1      16.653 -30.016  21.884  1.00  0.00     0.000 C 
BRANCH  21  22
ATOM     22  C   UNL     1      17.432 -30.782  20.804  1.00  0.00     0.000 C 
BRANCH  22  23
ATOM     23  C   UNL     1      18.386 -31.831  21.399  1.00  0.00     0.000 C 
BRANCH  23  24
ATOM     24  C   UNL     1      19.758 -31.781  20.718  1.00  0.00    -0.000 C 
BRANCH  24  25
ATOM     25  C   UNL     1      20.852 -31.400  21.726  1.00  0.00    -0.000 C 
BRANCH  25  26
ATOM     26  C   UNL     1      20.913 -29.881  21.995  1.00  0.00    -0.000 C 
BRANCH  26  27
ATOM     27  C   UNL     1      20.946 -29.029  20.712  1.00  0.00    -0.000 C 
BRANCH  27  28
ATOM     28  C   UNL     1      19.760 -28.058  20.549  1.00  0.00    -0.000 C 
BRANCH  28  29
ATOM     29  C   UNL     1      19.865 -26.732  21.334  1.00  0.00    -0.000 C 
BRANCH  29  30
ATOM     30  C   UNL     1      20.235 -25.485  20.504  1.00  0.00    -0.000 C 
BRANCH  30  31
ATOM     31  C   UNL     1      21.633 -25.533  19.861  1.00  0.00    -0.003 C 
ATOM     32  C   UNL     1      22.778 -25.549  20.873  1.00  0.00     0.004 C 
ENDBRANCH  30  31
ENDBRANCH  29  30
ENDBRANCH  28  29
ENDBRANCH  27  28
ENDBRANCH  26  27
ENDBRANCH  25  26
ENDBRANCH  24  25
ENDBRANCH  23  24
ENDBRANCH  22  23
ENDBRANCH  21  22
ENDBRANCH  20  21
ENDBRANCH  19  20
ENDBRANCH  18  19
ENDBRANCH   1  18
TORSDOF 28
ENDMDL
MODEL 5
REMARK VINA RESULT:    -5.096      3.452      7.982
REMARK INTER + INTRA:         -18.649
REMARK INTER:                 -14.004
REMARK INTRA:                  -4.645
REMARK UNBOUND:                -5.213
REMARK SMILES CCCCCCCCCCCCCCCCCCCCCCCCCCCCCC(=O)[O-]
REMARK SMILES IDX 16 1 17 2 18 3 19 4 20 5 21 6 22 7 23 8 24 9 25 10 26 11
REMARK SMILES IDX 27 12 28 13 29 14 30 15 31 16 32 17 15 18 14 19 13 20 12 21
REMARK SMILES IDX 11 22 10 23 9 24 8 25 7 26 6 27 5 28 4 29 3 30 2 31 1 32
REMARK H PARENT
REMARK Flexibility Score: inf
ROOT
ATOM      1  C   UNL     1      14.185 -32.729  20.842  1.00  0.00     0.000 C 
ENDROOT
BRANCH   1   2
ATOM      2  C   UNL     1      13.155 -31.745  20.261  1.00  0.00     0.000 C 
BRANCH   2   3
ATOM      3  C   UNL     1      12.461 -30.901  21.353  1.00  0.00     0.000 C 
BRANCH   3   4
ATOM      4  C   UNL     1      12.886 -31.270  22.786  1.00  0.00     0.000 C 
BRANCH   4   5
ATOM      5  C   UNL     1      13.148 -30.070  23.713  1.00  0.00     0.000 C 
BRANCH   5   6
ATOM      6  C   UNL     1      13.334 -28.751  22.941  1.00  0.00     0.000 C 
BRANCH   6   7
ATOM      7  C   UNL     1      14.812 -28.357  22.745  1.00  0.00     0.000 C 
BRANCH   7   8
ATOM      8  C   UNL     1      15.477 -28.964  21.493  1.00  0.00     0.000 C 
BRANCH   8   9
ATOM      9  C   UNL     1      16.507 -30.081  21.755  1.00  0.00     0.000 C 
BRANCH   9  10
ATOM     10  C   UNL     1      16.831 -30.356  23.236  1.00  0.00     0.000 C 
BRANCH  10  11
ATOM     11  C   UNL     1      17.256 -31.804  23.564  1.00  0.00     0.000 C 
BRANCH  11  12
ATOM     12  C   UNL     1      16.078 -32.790  23.703  1.00  0.00     0.000 C 
BRANCH  12  13
ATOM     13  C   UNL     1      16.399 -33.988  24.613  1.00  0.00     0.006 C 
BRANCH  13  14
ATOM     14  C   UNL     1      17.360 -34.960  23.917  1.00  0.00     0.053 C 
BRANCH  14  15
ATOM     15  C   UNL     1      17.585 -36.181  24.749  1.00  0.00     0.041 C 
ATOM     16  O   UNL     1      18.503 -36.992  24.451  1.00  0.00    -0.550 OA
ATOM     17  O   UNL     1      16.784 -36.422  25.858  1.00  0.00    -0.550 OA
ENDBRANCH  14  15
ENDBRANCH  13  14
ENDBRANCH  12  13
ENDBRANCH  11  12
ENDBRANCH  10  11
ENDBRANCH   9  10
ENDBRANCH   8   9
ENDBRANCH   7   8
ENDBRANCH   6   7
ENDBRANCH   5   6
ENDBRANCH   4   5
ENDBRANCH   3   4
ENDBRANCH   2   3
ENDBRANCH   1   2
BRANCH   1  18
ATOM     18  C   UNL     1      14.679 -33.745  19.798  1.00  0.00     0.000 C 
BRANCH  18  19
ATOM     19  C   UNL     1      15.886 -34.562  20.290  1.00  0.00     0.000 C 
BRANCH  19  20
ATOM     20  C   UNL     1      16.825 -34.974  19.143  1.00  0.00     0.000 C 
BRANCH  20  21
ATOM     21  C   UNL     1      18.108 -34.125  19.097  1.00  0.00     0.000 C 
BRANCH  21  22
ATOM     22  C   UNL     1      18.138 -33.029  20.173  1.00  0.00     0.000 C 
BRANCH  22  23
ATOM     23  C   UNL     1      19.492 -32.952  20.897  1.00  0.00     0.000 C 
BRANCH  23  24
ATOM     24  C   UNL     1      20.252 -31.676  20.519  1.00  0.00    -0.000 C 
BRANCH  24  25
ATOM     25  C   UNL     1      20.764 -30.955  21.773  1.00  0.00    -0.000 C 
BRANCH  25  26
ATOM     26  C   UNL     1      20.119 -29.564  21.966  1.00  0.00    -0.000 C 
BRANCH  26  27
ATOM     27  C   UNL     1      20.423 -28.581  20.821  1.00  0.00    -0.000 C 
BRANCH  27  28
ATOM     28  C   UNL     1      19.607 -27.274  20.856  1.00  0.00    -0.000 C 
BRANCH  28  29
ATOM     29  C   UNL     1      20.303 -26.031  20.260  1.00  0.00    -0.000 C 
BRANCH  29  30
ATOM     30  C   UNL     1      21.832 -26.135  20.079  1.00  0.00    -0.000 C 
BRANCH  30  31
ATOM     31  C   UNL     1      22.645 -25.104  20.882  1.00  0.00    -0.003 C 
ATOM     32  C   UNL     1      23.400 -24.100  20.011  1.00  0.00     0.004 C 
ENDBRANCH  30  31
ENDBRANCH  29  30
ENDBRANCH  28  29
ENDBRANCH  27  28
ENDBRANCH  26  27
ENDBRANCH  25  26
ENDBRANCH  24  25
ENDBRANCH  23  24
ENDBRANCH  22  23
ENDBRANCH  21  22
ENDBRANCH  20  21
ENDBRANCH  19  20
ENDBRANCH  18  19
ENDBRANCH   1  18
TORSDOF 28
ENDMDL
MODEL 6
REMARK VINA RESULT:    -5.043      2.222      5.930
REMARK INTER + INTRA:         -18.511
REMARK INTER:                 -13.000
REMARK INTRA:                  -5.511
REMARK UNBOUND:                -5.213
REMARK SMILES CCCCCCCCCCCCCCCCCCCCCCCCCCCCCC(=O)[O-]
REMARK SMILES IDX 16 1 17 2 18 3 19 4 20 5 21 6 22 7 23 8 24 9 25 10 26 11
REMARK SMILES IDX 27 12 28 13 29 14 30 15 31 16 32 17 15 18 14 19 13 20 12 21
REMARK SMILES IDX 11 22 10 23 9 24 8 25 7 26 6 27 5 28 4 29 3 30 2 31 1 32
REMARK H PARENT
REMARK Flexibility Score: inf
ROOT
ATOM      1  C   UNL     1      16.801 -33.879  19.004  1.00  0.00     0.000 C 
ENDROOT
BRANCH   1   2
ATOM      2  C   UNL     1      15.351 -34.225  19.383  1.00  0.00     0.000 C 
BRANCH   2   3
ATOM      3  C   UNL     1      14.857 -33.439  20.617  1.00  0.00     0.000 C 
BRANCH   3   4
ATOM      4  C   UNL     1      15.533 -33.864  21.934  1.00  0.00     0.000 C 
BRANCH   4   5
ATOM      5  C   UNL     1      14.747 -33.512  23.209  1.00  0.00     0.000 C 
BRANCH   5   6
ATOM      6  C   UNL     1      14.766 -32.004  23.522  1.00  0.00     0.000 C 
BRANCH   6   7
ATOM      7  C   UNL     1      13.380 -31.337  23.412  1.00  0.00     0.000 C 
BRANCH   7   8
ATOM      8  C   UNL     1      13.374 -29.990  22.662  1.00  0.00     0.000 C 
BRANCH   8   9
ATOM      9  C   UNL     1      14.677 -29.169  22.746  1.00  0.00     0.000 C 
BRANCH   9  10
ATOM     10  C   UNL     1      15.536 -29.148  21.467  1.00  0.00     0.000 C 
BRANCH  10  11
ATOM     11  C   UNL     1      17.015 -29.551  21.656  1.00  0.00     0.000 C 
BRANCH  11  12
ATOM     12  C   UNL     1      17.439 -30.791  20.842  1.00  0.00     0.000 C 
BRANCH  12  13
ATOM     13  C   UNL     1      18.517 -31.633  21.545  1.00  0.00     0.006 C 
BRANCH  13  14
ATOM     14  C   UNL     1      19.858 -31.530  20.808  1.00  0.00     0.053 C 
BRANCH  14  15
ATOM     15  C   UNL     1      20.617 -30.317  21.241  1.00  0.00     0.041 C 
ATOM     16  O   UNL     1      20.775 -29.350  20.447  1.00  0.00    -0.550 OA
ATOM     17  O   UNL     1      21.146 -30.251  22.523  1.00  0.00    -0.550 OA
ENDBRANCH  14  15
ENDBRANCH  13  14
ENDBRANCH  12  13
ENDBRANCH  11  12
ENDBRANCH  10  11
ENDBRANCH   9  10
ENDBRANCH   8   9
ENDBRANCH   7   8
ENDBRANCH   6   7
ENDBRANCH   5   6
ENDBRANCH   4   5
ENDBRANCH   3   4
ENDBRANCH   2   3
ENDBRANCH   1   2
BRANCH   1  18
ATOM     18  C   UNL     1      17.786 -35.001  19.371  1.00  0.00     0.000 C 
BRANCH  18  19
ATOM     19  C   UNL     1      17.126 -36.391  19.383  1.00  0.00     0.000 C 
BRANCH  19  20
ATOM     20  C   UNL     1      17.687 -37.300  20.490  1.00  0.00     0.000 C 
BRANCH  20  21
ATOM     21  C   UNL     1      18.377 -36.504  21.613  1.00  0.00     0.000 C 
BRANCH  21  22
ATOM     22  C   UNL     1      18.995 -37.407  22.692  1.00  0.00     0.000 C 
BRANCH  22  23
ATOM     23  C   UNL     1      18.744 -36.881  24.114  1.00  0.00     0.000 C 
BRANCH  23  24
ATOM     24  C   UNL     1      17.679 -35.779  24.119  1.00  0.00    -0.000 C 
BRANCH  24  25
ATOM     25  C   UNL     1      17.724 -34.983  25.431  1.00  0.00    -0.000 C 
BRANCH  25  26
ATOM     26  C   UNL     1      17.670 -33.457  25.204  1.00  0.00    -0.000 C 
BRANCH  26  27
ATOM     27  C   UNL     1      18.933 -32.718  25.683  1.00  0.00    -0.000 C 
BRANCH  27  28
ATOM     28  C   UNL     1      20.062 -32.622  24.639  1.00  0.00    -0.000 C 
BRANCH  28  29
ATOM     29  C   UNL     1      20.874 -33.914  24.405  1.00  0.00    -0.000 C 
BRANCH  29  30
ATOM     30  C   UNL     1      21.216 -34.240  22.936  1.00  0.00    -0.000 C 
BRANCH  30  31
ATOM     31  C   UNL     1      22.722 -34.292  22.624  1.00  0.00    -0.003 C 
ATOM     32  C   UNL     1      23.314 -32.945  22.208  1.00  0.00     0.004 C 
ENDBRANCH  30  31
ENDBRANCH  29  30
ENDBRANCH  28  29
ENDBRANCH  27  28
ENDBRANCH  26  27
ENDBRANCH  25  26
ENDBRANCH  24  25
ENDBRANCH  23  24
ENDBRANCH  22  23
ENDBRANCH  21  22
ENDBRANCH  20  21
ENDBRANCH  19  20
ENDBRANCH  18  19
ENDBRANCH   1  18
TORSDOF 28
ENDMDL
MODEL 7
REMARK VINA RESULT:    -4.965      1.732      3.857
REMARK INTER + INTRA:         -18.305
REMARK INTER:                 -13.030
REMARK INTRA:                  -5.275
REMARK UNBOUND:                -5.213
REMARK SMILES CCCCCCCCCCCCCCCCCCCCCCCCCCCCCC(=O)[O-]
REMARK SMILES IDX 16 1 17 2 18 3 19 4 20 5 21 6 22 7 23 8 24 9 25 10 26 11
REMARK SMILES IDX 27 12 28 13 29 14 30 15 31 16 32 17 15 18 14 19 13 20 12 21
REMARK SMILES IDX 11 22 10 23 9 24 8 25 7 26 6 27 5 28 4 29 3 30 2 31 1 32
REMARK H PARENT
REMARK Flexibility Score: inf
ROOT
ATOM      1  C   UNL     1      13.495 -32.163  20.145  1.00  0.00     0.000 C 
ENDROOT
BRANCH   1   2
ATOM      2  C   UNL     1      12.920 -31.027  21.008  1.00  0.00     0.000 C 
BRANCH   2   3
ATOM      3  C   UNL     1      13.113 -31.275  22.519  1.00  0.00     0.000 C 
BRANCH   3   4
ATOM      4  C   UNL     1      13.892 -30.157  23.237  1.00  0.00     0.000 C 
BRANCH   4   5
ATOM      5  C   UNL     1      14.759 -29.279  22.318  1.00  0.00     0.000 C 
BRANCH   5   6
ATOM      6  C   UNL     1      16.183 -29.836  22.133  1.00  0.00     0.000 C 
BRANCH   6   7
ATOM      7  C   UNL     1      16.656 -30.715  23.309  1.00  0.00     0.000 C 
BRANCH   7   8
ATOM      8  C   UNL     1      17.652 -31.826  22.919  1.00  0.00     0.000 C 
BRANCH   8   9
ATOM      9  C   UNL     1      18.010 -31.911  21.421  1.00  0.00     0.000 C 
BRANCH   9  10
ATOM     10  C   UNL     1      19.515 -31.956  21.097  1.00  0.00     0.000 C 
BRANCH  10  11
ATOM     11  C   UNL     1      20.233 -30.588  21.093  1.00  0.00     0.000 C 
BRANCH  11  12
ATOM     12  C   UNL     1      19.298 -29.386  20.844  1.00  0.00     0.000 C 
BRANCH  12  13
ATOM     13  C   UNL     1      19.949 -28.036  21.187  1.00  0.00     0.006 C 
BRANCH  13  14
ATOM     14  C   UNL     1      21.457 -28.199  21.415  1.00  0.00     0.053 C 
BRANCH  14  15
ATOM     15  C   UNL     1      22.215 -27.042  20.848  1.00  0.00     0.041 C 
ATOM     16  O   UNL     1      21.661 -26.259  20.029  1.00  0.00    -0.550 OA
ATOM     17  O   UNL     1      23.532 -26.822  21.228  1.00  0.00    -0.550 OA
ENDBRANCH  14  15
ENDBRANCH  13  14
ENDBRANCH  12  13
ENDBRANCH  11  12
ENDBRANCH  10  11
ENDBRANCH   9  10
ENDBRANCH   8   9
ENDBRANCH   7   8
ENDBRANCH   6   7
ENDBRANCH   5   6
ENDBRANCH   4   5
ENDBRANCH   3   4
ENDBRANCH   2   3
ENDBRANCH   1   2
BRANCH   1  18
ATOM     18  C   UNL     1      14.501 -33.034  20.916  1.00  0.00     0.000 C 
BRANCH  18  19
ATOM     19  C   UNL     1      14.987 -34.244  20.100  1.00  0.00     0.000 C 
BRANCH  19  20
ATOM     20  C   UNL     1      16.081 -33.870  19.086  1.00  0.00     0.000 C 
BRANCH  20  21
ATOM     21  C   UNL     1      17.214 -34.910  19.029  1.00  0.00     0.000 C 
BRANCH  21  22
ATOM     22  C   UNL     1      16.762 -36.311  19.468  1.00  0.00     0.000 C 
BRANCH  22  23
ATOM     23  C   UNL     1      17.620 -36.876  20.612  1.00  0.00     0.000 C 
BRANCH  23  24
ATOM     24  C   UNL     1      18.241 -35.750  21.447  1.00  0.00    -0.000 C 
BRANCH  24  25
ATOM     25  C   UNL     1      17.383 -35.452  22.684  1.00  0.00    -0.000 C 
BRANCH  25  26
ATOM     26  C   UNL     1      18.211 -35.411  23.988  1.00  0.00    -0.000 C 
BRANCH  26  27
ATOM     27  C   UNL     1      19.643 -34.881  23.790  1.00  0.00    -0.000 C 
BRANCH  27  28
ATOM     28  C   UNL     1      20.121 -33.888  24.868  1.00  0.00    -0.000 C 
BRANCH  28  29
ATOM     29  C   UNL     1      21.036 -32.748  24.373  1.00  0.00    -0.000 C 
BRANCH  29  30
ATOM     30  C   UNL     1      20.680 -31.332  24.874  1.00  0.00    -0.000 C 
BRANCH  30  31
ATOM     31  C   UNL     1      19.837 -31.300  26.161  1.00  0.00    -0.003 C 
ATOM     32  C   UNL     1      20.631 -30.921  27.411  1.00  0.00     0.004 C 
ENDBRANCH  30  31
ENDBRANCH  29  30
ENDBRANCH  28  29
ENDBRANCH  27  28
ENDBRANCH  26  27
ENDBRANCH  25  26
ENDBRANCH  24  25
ENDBRANCH  23  24
ENDBRANCH  22  23
ENDBRANCH  21  22
ENDBRANCH  20  21
ENDBRANCH  19  20
ENDBRANCH  18  19
ENDBRANCH   1  18
TORSDOF 28
ENDMDL
MODEL 8
REMARK VINA RESULT:    -4.934      1.151      2.121
REMARK INTER + INTRA:         -18.222
REMARK INTER:                 -13.850
REMARK INTRA:                  -4.371
REMARK UNBOUND:                -5.213
REMARK SMILES CCCCCCCCCCCCCCCCCCCCCCCCCCCCCC(=O)[O-]
REMARK SMILES IDX 16 1 17 2 18 3 19 4 20 5 21 6 22 7 23 8 24 9 25 10 26 11
REMARK SMILES IDX 27 12 28 13 29 14 30 15 31 16 32 17 15 18 14 19 13 20 12 21
REMARK SMILES IDX 11 22 10 23 9 24 8 25 7 26 6 27 5 28 4 29 3 30 2 31 1 32
REMARK H PARENT
REMARK Flexibility Score: inf
ROOT
ATOM      1  C   UNL     1      13.822 -31.790  22.870  1.00  0.00     0.000 C 
ENDROOT
BRANCH   1   2
ATOM      2  C   UNL     1      14.346 -30.350  22.994  1.00  0.00     0.000 C 
BRANCH   2   3
ATOM      3  C   UNL     1      15.015 -29.849  21.696  1.00  0.00     0.000 C 
BRANCH   3   4
ATOM      4  C   UNL     1      16.553 -29.903  21.729  1.00  0.00     0.000 C 
BRANCH   4   5
ATOM      5  C   UNL     1      17.182 -30.989  20.837  1.00  0.00     0.000 C 
BRANCH   5   6
ATOM      6  C   UNL     1      18.129 -31.922  21.615  1.00  0.00     0.000 C 
BRANCH   6   7
ATOM      7  C   UNL     1      19.358 -32.369  20.797  1.00  0.00     0.000 C 
BRANCH   7   8
ATOM      8  C   UNL     1      20.675 -31.666  21.183  1.00  0.00     0.000 C 
BRANCH   8   9
ATOM      9  C   UNL     1      20.529 -30.264  21.808  1.00  0.00     0.000 C 
BRANCH   9  10
ATOM     10  C   UNL     1      20.592 -29.083  20.821  1.00  0.00     0.000 C 
BRANCH  10  11
ATOM     11  C   UNL     1      21.725 -28.065  21.075  1.00  0.00     0.000 C 
BRANCH  11  12
ATOM     12  C   UNL     1      21.350 -26.938  22.059  1.00  0.00     0.000 C 
BRANCH  12  13
ATOM     13  C   UNL     1      20.315 -25.957  21.485  1.00  0.00     0.006 C 
BRANCH  13  14
ATOM     14  C   UNL     1      20.726 -25.485  20.085  1.00  0.00     0.053 C 
BRANCH  14  15
ATOM     15  C   UNL     1      22.096 -24.890  20.099  1.00  0.00     0.041 C 
ATOM     16  O   UNL     1      22.942 -25.221  19.223  1.00  0.00    -0.550 OA
ATOM     17  O   UNL     1      22.441 -23.965  21.075  1.00  0.00    -0.550 OA
ENDBRANCH  14  15
ENDBRANCH  13  14
ENDBRANCH  12  13
ENDBRANCH  11  12
ENDBRANCH  10  11
ENDBRANCH   9  10
ENDBRANCH   8   9
ENDBRANCH   7   8
ENDBRANCH   6   7
ENDBRANCH   5   6
ENDBRANCH   4   5
ENDBRANCH   3   4
ENDBRANCH   2   3
ENDBRANCH   1   2
BRANCH   1  18
ATOM     18  C   UNL     1      14.856 -32.833  23.326  1.00  0.00     0.000 C 
BRANCH  18  19
ATOM     19  C   UNL     1      15.152 -33.888  22.246  1.00  0.00     0.000 C 
BRANCH  19  20
ATOM     20  C   UNL     1      14.615 -33.482  20.863  1.00  0.00     0.000 C 
BRANCH  20  21
ATOM     21  C   UNL     1      15.042 -34.461  19.754  1.00  0.00     0.000 C 
BRANCH  21  22
ATOM     22  C   UNL     1      16.313 -34.011  19.017  1.00  0.00     0.000 C 
BRANCH  22  23
ATOM     23  C   UNL     1      17.471 -35.009  19.179  1.00  0.00     0.000 C 
BRANCH  23  24
ATOM     24  C   UNL     1      16.950 -36.417  19.490  1.00  0.00    -0.000 C 
BRANCH  24  25
ATOM     25  C   UNL     1      17.603 -36.970  20.765  1.00  0.00    -0.000 C 
BRANCH  25  26
ATOM     26  C   UNL     1      18.483 -35.925  21.486  1.00  0.00    -0.000 C 
BRANCH  26  27
ATOM     27  C   UNL     1      19.580 -36.548  22.370  1.00  0.00    -0.000 C 
BRANCH  27  28
ATOM     28  C   UNL     1      19.513 -36.154  23.858  1.00  0.00    -0.000 C 
BRANCH  28  29
ATOM     29  C   UNL     1      18.240 -36.595  24.614  1.00  0.00    -0.000 C 
BRANCH  29  30
ATOM     30  C   UNL     1      17.114 -35.544  24.710  1.00  0.00    -0.000 C 
BRANCH  30  31
ATOM     31  C   UNL     1      17.370 -34.421  25.731  1.00  0.00    -0.003 C 
ATOM     32  C   UNL     1      17.979 -33.158  25.122  1.00  0.00     0.004 C 
ENDBRANCH  30  31
ENDBRANCH  29  30
ENDBRANCH  28  29
ENDBRANCH  27  28
ENDBRANCH  26  27
ENDBRANCH  25  26
ENDBRANCH  24  25
ENDBRANCH  23  24
ENDBRANCH  22  23
ENDBRANCH  21  22
ENDBRANCH  20  21
ENDBRANCH  19  20
ENDBRANCH  18  19
ENDBRANCH   1  18
TORSDOF 28
ENDMDL
MODEL 9
REMARK VINA RESULT:    -4.911      3.510      6.023
REMARK INTER + INTRA:         -18.164
REMARK INTER:                 -12.880
REMARK INTRA:                  -5.283
REMARK UNBOUND:                -5.213
REMARK SMILES CCCCCCCCCCCCCCCCCCCCCCCCCCCCCC(=O)[O-]
REMARK SMILES IDX 16 1 17 2 18 3 19 4 20 5 21 6 22 7 23 8 24 9 25 10 26 11
REMARK SMILES IDX 27 12 28 13 29 14 30 15 31 16 32 17 15 18 14 19 13 20 12 21
REMARK SMILES IDX 11 22 10 23 9 24 8 25 7 26 6 27 5 28 4 29 3 30 2 31 1 32
REMARK H PARENT
REMARK Flexibility Score: inf
ROOT
ATOM      1  C   UNL     1      18.929 -31.998  20.500  1.00  0.00     0.000 C 
ENDROOT
BRANCH   1   2
ATOM      2  C   UNL     1      19.131 -33.469  20.097  1.00  0.00     0.000 C 
BRANCH   2   3
ATOM      3  C   UNL     1      18.171 -33.912  18.971  1.00  0.00     0.000 C 
BRANCH   3   4
ATOM      4  C   UNL     1      16.690 -33.936  19.392  1.00  0.00     0.000 C 
BRANCH   4   5
ATOM      5  C   UNL     1      16.170 -35.309  19.854  1.00  0.00     0.000 C 
BRANCH   5   6
ATOM      6  C   UNL     1      16.933 -36.482  19.209  1.00  0.00     0.000 C 
BRANCH   6   7
ATOM      7  C   UNL     1      17.656 -37.381  20.232  1.00  0.00     0.000 C 
BRANCH   7   8
ATOM      8  C   UNL     1      18.186 -36.640  21.475  1.00  0.00     0.000 C 
BRANCH   8   9
ATOM      9  C   UNL     1      19.158 -37.437  22.369  1.00  0.00     0.000 C 
BRANCH   9  10
ATOM     10  C   UNL     1      20.425 -36.683  22.815  1.00  0.00     0.000 C 
BRANCH  10  11
ATOM     11  C   UNL     1      20.226 -35.187  23.142  1.00  0.00     0.000 C 
BRANCH  11  12
ATOM     12  C   UNL     1      21.107 -34.671  24.298  1.00  0.00     0.000 C 
BRANCH  12  13
ATOM     13  C   UNL     1      20.578 -33.371  24.925  1.00  0.00     0.006 C 
BRANCH  13  14
ATOM     14  C   UNL     1      21.651 -32.275  24.899  1.00  0.00     0.053 C 
BRANCH  14  15
ATOM     15  C   UNL     1      22.626 -32.451  26.018  1.00  0.00     0.041 C 
ATOM     16  O   UNL     1      22.302 -32.143  27.197  1.00  0.00    -0.550 OA
ATOM     17  O   UNL     1      23.892 -32.961  25.762  1.00  0.00    -0.550 OA
ENDBRANCH  14  15
ENDBRANCH  13  14
ENDBRANCH  12  13
ENDBRANCH  11  12
ENDBRANCH  10  11
ENDBRANCH   9  10
ENDBRANCH   8   9
ENDBRANCH   7   8
ENDBRANCH   6   7
ENDBRANCH   5   6
ENDBRANCH   4   5
ENDBRANCH   3   4
ENDBRANCH   2   3
ENDBRANCH   1   2
BRANCH   1  18
ATOM     18  C   UNL     1      19.268 -31.742  21.978  1.00  0.00     0.000 C 
BRANCH  18  19
ATOM     19  C   UNL     1      18.139 -31.016  22.730  1.00  0.00     0.000 C 
BRANCH  19  20
ATOM     20  C   UNL     1      16.841 -30.937  21.909  1.00  0.00     0.000 C 
BRANCH  20  21
ATOM     21  C   UNL     1      15.638 -30.471  22.750  1.00  0.00     0.000 C 
BRANCH  21  22
ATOM     22  C   UNL     1      14.349 -31.241  22.427  1.00  0.00     0.000 C 
BRANCH  22  23
ATOM     23  C   UNL     1      14.607 -32.732  22.153  1.00  0.00     0.000 C 
BRANCH  23  24
ATOM     24  C   UNL     1      14.682 -33.531  23.459  1.00  0.00    -0.000 C 
BRANCH  24  25
ATOM     25  C   UNL     1      15.931 -34.423  23.481  1.00  0.00    -0.000 C 
BRANCH  25  26
ATOM     26  C   UNL     1      16.973 -33.964  24.524  1.00  0.00    -0.000 C 
BRANCH  26  27
ATOM     27  C   UNL     1      17.126 -34.935  25.710  1.00  0.00    -0.000 C 
BRANCH  27  28
ATOM     28  C   UNL     1      17.503 -36.378  25.320  1.00  0.00    -0.000 C 
BRANCH  28  29
ATOM     29  C   UNL     1      17.375 -37.432  26.441  1.00  0.00    -0.000 C 
BRANCH  29  30
ATOM     30  C   UNL     1      15.935 -37.819  26.841  1.00  0.00    -0.000 C 
BRANCH  30  31
ATOM     31  C   UNL     1      15.742 -38.110  28.340  1.00  0.00    -0.003 C 
ATOM     32  C   UNL     1      16.939 -37.714  29.205  1.00  0.00     0.004 C 
ENDBRANCH  30  31
ENDBRANCH  29  30
ENDBRANCH  28  29
ENDBRANCH  27  28
ENDBRANCH  26  27
ENDBRANCH  25  26
ENDBRANCH  24  25
ENDBRANCH  23  24
ENDBRANCH  22  23
ENDBRANCH  21  22
ENDBRANCH  20  21
ENDBRANCH  19  20
ENDBRANCH  18  19
ENDBRANCH   1  18
TORSDOF 28
ENDMDL
