MODEL 1
REMARK VINA RESULT:    -5.097      0.000      0.000
REMARK INTER + INTRA:         -11.098
REMARK INTER:                  -9.865
REMARK INTRA:                  -1.233
REMARK UNBOUND:                -1.233
REMARK SMILES CCCCCCCCCCCCCCCCCC(=O)[O-]
REMARK SMILES IDX 10 1 11 2 12 3 13 4 14 5 15 6 16 7 17 8 18 9 19 10 20 11
REMARK SMILES IDX 9 12 8 13 7 14 6 15 5 16 4 17 3 18 2 19 1 20
REMARK H PARENT
REMARK Flexibility Score: inf
ROOT
ATOM      1  C   UNL     1      48.105  63.933  92.569  1.00  0.00     0.000 C 
ENDROOT
BRANCH   1   2
ATOM      2  C   UNL     1      48.344  65.411  92.923  1.00  0.00     0.000 C 
BRANCH   2   3
ATOM      3  C   UNL     1      47.404  66.363  92.162  1.00  0.00     0.000 C 
BRANCH   3   4
ATOM      4  C   UNL     1      47.965  66.922  90.838  1.00  0.00     0.000 C 
BRANCH   4   5
ATOM      5  C   UNL     1      49.112  67.937  90.987  1.00  0.00     0.000 C 
BRANCH   5   6
ATOM      6  C   UNL     1      50.474  67.366  90.554  1.00  0.00     0.000 C 
BRANCH   6   7
ATOM      7  C   UNL     1      51.380  67.023  91.747  1.00  0.00     0.006 C 
BRANCH   7   8
ATOM      8  C   UNL     1      51.279  68.048  92.884  1.00  0.00     0.053 C 
BRANCH   8   9
ATOM      9  C   UNL     1      52.301  67.759  93.940  1.00  0.00     0.041 C 
ATOM     10  O   UNL     1      53.457  67.375  93.617  1.00  0.00    -0.550 OA
ATOM     11  O   UNL     1      51.989  67.952  95.280  1.00  0.00    -0.550 OA
ENDBRANCH   8   9
ENDBRANCH   7   8
ENDBRANCH   6   7
ENDBRANCH   5   6
ENDBRANCH   4   5
ENDBRANCH   3   4
ENDBRANCH   2   3
ENDBRANCH   1   2
BRANCH   1  12
ATOM     12  C   UNL     1      49.061  62.980  93.306  1.00  0.00     0.000 C 
BRANCH  12  13
ATOM     13  C   UNL     1      48.839  61.505  92.925  1.00  0.00    -0.000 C 
BRANCH  13  14
ATOM     14  C   UNL     1      49.973  60.592  93.422  1.00  0.00    -0.000 C 
BRANCH  14  15
ATOM     15  C   UNL     1      49.781  60.162  94.887  1.00  0.00    -0.000 C 
BRANCH  15  16
ATOM     16  C   UNL     1      49.806  58.635  95.069  1.00  0.00    -0.000 C 
BRANCH  16  17
ATOM     17  C   UNL     1      50.652  57.900  94.006  1.00  0.00    -0.000 C 
BRANCH  17  18
ATOM     18  C   UNL     1      52.002  57.423  94.567  1.00  0.00    -0.000 C 
BRANCH  18  19
ATOM     19  C   UNL     1      53.201  58.068  93.858  1.00  0.00    -0.003 C 
ATOM     20  C   UNL     1      52.908  58.409  92.397  1.00  0.00     0.004 C 
ENDBRANCH  18  19
ENDBRANCH  17  18
ENDBRANCH  16  17
ENDBRANCH  15  16
ENDBRANCH  14  15
ENDBRANCH  13  14
ENDBRANCH  12  13
ENDBRANCH   1  12
TORSDOF 16
ENDMDL
MODEL 2
REMARK VINA RESULT:    -4.999      3.061      8.303
REMARK INTER + INTRA:         -10.907
REMARK INTER:                  -9.660
REMARK INTRA:                  -1.247
REMARK UNBOUND:                -1.233
REMARK SMILES CCCCCCCCCCCCCCCCCC(=O)[O-]
REMARK SMILES IDX 10 1 11 2 12 3 13 4 14 5 15 6 16 7 17 8 18 9 19 10 20 11
REMARK SMILES IDX 9 12 8 13 7 14 6 15 5 16 4 17 3 18 2 19 1 20
REMARK H PARENT
REMARK Flexibility Score: inf
ROOT
ATOM      1  C   UNL     1      47.719  63.507  92.402  1.00  0.00     0.000 C 
ENDROOT
BRANCH   1   2
ATOM      2  C   UNL     1      48.252  62.085  92.652  1.00  0.00     0.000 C 
BRANCH   2   3
ATOM      3  C   UNL     1      49.464  62.063  93.600  1.00  0.00     0.000 C 
BRANCH   3   4
ATOM      4  C   UNL     1      50.182  60.702  93.718  1.00  0.00     0.000 C 
BRANCH   4   5
ATOM      5  C   UNL     1      49.693  59.800  94.866  1.00  0.00     0.000 C 
BRANCH   5   6
ATOM      6  C   UNL     1      50.060  58.320  94.658  1.00  0.00     0.000 C 
BRANCH   6   7
ATOM      7  C   UNL     1      50.185  57.942  93.173  1.00  0.00     0.006 C 
BRANCH   7   8
ATOM      8  C   UNL     1      51.426  57.087  92.880  1.00  0.00     0.053 C 
BRANCH   8   9
ATOM      9  C   UNL     1      52.646  57.950  92.795  1.00  0.00     0.041 C 
ATOM     10  O   UNL     1      52.799  58.741  91.827  1.00  0.00    -0.550 OA
ATOM     11  O   UNL     1      53.598  57.908  93.807  1.00  0.00    -0.550 OA
ENDBRANCH   8   9
ENDBRANCH   7   8
ENDBRANCH   6   7
ENDBRANCH   5   6
ENDBRANCH   4   5
ENDBRANCH   3   4
ENDBRANCH   2   3
ENDBRANCH   1   2
BRANCH   1  12
ATOM     12  C   UNL     1      48.637  64.598  92.978  1.00  0.00     0.000 C 
BRANCH  12  13
ATOM     13  C   UNL     1      47.951  65.974  93.049  1.00  0.00    -0.000 C 
BRANCH  13  14
ATOM     14  C   UNL     1      47.207  66.327  91.750  1.00  0.00    -0.000 C 
BRANCH  14  15
ATOM     15  C   UNL     1      48.164  66.735  90.617  1.00  0.00    -0.000 C 
BRANCH  15  16
ATOM     16  C   UNL     1      49.052  67.935  90.989  1.00  0.00    -0.000 C 
BRANCH  16  17
ATOM     17  C   UNL     1      50.559  67.678  90.773  1.00  0.00    -0.000 C 
BRANCH  17  18
ATOM     18  C   UNL     1      51.225  67.058  92.013  1.00  0.00    -0.000 C 
BRANCH  18  19
ATOM     19  C   UNL     1      52.290  67.972  92.634  1.00  0.00    -0.003 C 
ATOM     20  C   UNL     1      53.025  67.315  93.802  1.00  0.00     0.004 C 
ENDBRANCH  18  19
ENDBRANCH  17  18
ENDBRANCH  16  17
ENDBRANCH  15  16
ENDBRANCH  14  15
ENDBRANCH  13  14
ENDBRANCH  12  13
ENDBRANCH   1  12
TORSDOF 16
ENDMDL
MODEL 3
REMARK VINA RESULT:    -4.896      2.999      8.445
REMARK INTER + INTRA:         -10.709
REMARK INTER:                  -9.645
REMARK INTRA:                  -1.064
REMARK UNBOUND:                -1.233
REMARK SMILES CCCCCCCCCCCCCCCCCC(=O)[O-]
REMARK SMILES IDX 10 1 11 2 12 3 13 4 14 5 15 6 16 7 17 8 18 9 19 10 20 11
REMARK SMILES IDX 9 12 8 13 7 14 6 15 5 16 4 17 3 18 2 19 1 20
REMARK H PARENT
REMARK Flexibility Score: inf
ROOT
ATOM      1  C   UNL     1      48.798  62.311  93.097  1.00  0.00     0.000 C 
ENDROOT
BRANCH   1   2
ATOM      2  C   UNL     1      49.790  61.618  94.047  1.00  0.00     0.000 C 
BRANCH   2   3
ATOM      3  C   UNL     1      50.032  60.143  93.680  1.00  0.00     0.000 C 
BRANCH   3   4
ATOM      4  C   UNL     1      49.972  59.153  94.862  1.00  0.00     0.000 C 
BRANCH   4   5
ATOM      5  C   UNL     1      49.991  57.664  94.473  1.00  0.00     0.000 C 
BRANCH   5   6
ATOM      6  C   UNL     1      50.063  57.447  92.951  1.00  0.00     0.000 C 
BRANCH   6   7
ATOM      7  C   UNL     1      51.318  56.671  92.521  1.00  0.00     0.006 C 
BRANCH   7   8
ATOM      8  C   UNL     1      52.125  57.401  91.438  1.00  0.00     0.053 C 
BRANCH   8   9
ATOM      9  C   UNL     1      53.023  58.426  92.057  1.00  0.00     0.041 C 
ATOM     10  O   UNL     1      53.382  58.313  93.259  1.00  0.00    -0.550 OA
ATOM     11  O   UNL     1      53.496  59.487  91.294  1.00  0.00    -0.550 OA
ENDBRANCH   8   9
ENDBRANCH   7   8
ENDBRANCH   6   7
ENDBRANCH   5   6
ENDBRANCH   4   5
ENDBRANCH   3   4
ENDBRANCH   2   3
ENDBRANCH   1   2
BRANCH   1  12
ATOM     12  C   UNL     1      48.985  63.837  93.047  1.00  0.00     0.000 C 
BRANCH  12  13
ATOM     13  C   UNL     1      47.819  64.555  92.345  1.00  0.00    -0.000 C 
BRANCH  13  14
ATOM     14  C   UNL     1      48.163  66.006  91.969  1.00  0.00    -0.000 C 
BRANCH  14  15
ATOM     15  C   UNL     1      49.458  66.495  92.642  1.00  0.00    -0.000 C 
BRANCH  15  16
ATOM     16  C   UNL     1      50.485  67.040  91.635  1.00  0.00    -0.000 C 
BRANCH  16  17
ATOM     17  C   UNL     1      51.708  67.707  92.301  1.00  0.00    -0.000 C 
BRANCH  17  18
ATOM     18  C   UNL     1      51.447  68.053  93.777  1.00  0.00    -0.000 C 
BRANCH  18  19
ATOM     19  C   UNL     1      52.653  67.751  94.679  1.00  0.00    -0.003 C 
ATOM     20  C   UNL     1      53.902  67.370  93.885  1.00  0.00     0.004 C 
ENDBRANCH  18  19
ENDBRANCH  17  18
ENDBRANCH  16  17
ENDBRANCH  15  16
ENDBRANCH  14  15
ENDBRANCH  13  14
ENDBRANCH  12  13
ENDBRANCH   1  12
TORSDOF 16
ENDMDL
MODEL 4
REMARK VINA RESULT:    -4.862      0.968      2.093
REMARK INTER + INTRA:         -10.642
REMARK INTER:                  -9.347
REMARK INTRA:                  -1.295
REMARK UNBOUND:                -1.233
REMARK SMILES CCCCCCCCCCCCCCCCCC(=O)[O-]
REMARK SMILES IDX 10 1 11 2 12 3 13 4 14 5 15 6 16 7 17 8 18 9 19 10 20 11
REMARK SMILES IDX 9 12 8 13 7 14 6 15 5 16 4 17 3 18 2 19 1 20
REMARK H PARENT
REMARK Flexibility Score: inf
ROOT
ATOM      1  C   UNL     1      48.610  61.517  92.754  1.00  0.00     0.000 C 
ENDROOT
BRANCH   1   2
ATOM      2  C   UNL     1      47.603  62.658  92.524  1.00  0.00     0.000 C 
BRANCH   2   3
ATOM      3  C   UNL     1      48.254  64.050  92.607  1.00  0.00     0.000 C 
BRANCH   3   4
ATOM      4  C   UNL     1      47.334  65.229  92.229  1.00  0.00     0.000 C 
BRANCH   4   5
ATOM      5  C   UNL     1      47.985  66.622  92.309  1.00  0.00     0.000 C 
BRANCH   5   6
ATOM      6  C   UNL     1      48.721  67.010  91.014  1.00  0.00     0.000 C 
BRANCH   6   7
ATOM      7  C   UNL     1      49.983  67.847  91.277  1.00  0.00     0.006 C 
BRANCH   7   8
ATOM      8  C   UNL     1      51.177  66.995  91.730  1.00  0.00     0.053 C 
BRANCH   8   9
ATOM      9  C   UNL     1      51.686  67.470  93.055  1.00  0.00     0.041 C 
ATOM     10  O   UNL     1      50.880  67.859  93.942  1.00  0.00    -0.550 OA
ATOM     11  O   UNL     1      53.049  67.447  93.325  1.00  0.00    -0.550 OA
ENDBRANCH   8   9
ENDBRANCH   7   8
ENDBRANCH   6   7
ENDBRANCH   5   6
ENDBRANCH   4   5
ENDBRANCH   3   4
ENDBRANCH   2   3
ENDBRANCH   1   2
BRANCH   1  12
ATOM     12  C   UNL     1      49.734  61.901  93.731  1.00  0.00     0.000 C 
BRANCH  12  13
ATOM     13  C   UNL     1      50.500  60.676  94.265  1.00  0.00    -0.000 C 
BRANCH  13  14
ATOM     14  C   UNL     1      49.566  59.622  94.882  1.00  0.00    -0.000 C 
BRANCH  14  15
ATOM     15  C   UNL     1      50.070  58.187  94.654  1.00  0.00    -0.000 C 
BRANCH  15  16
ATOM     16  C   UNL     1      50.005  57.759  93.177  1.00  0.00    -0.000 C 
BRANCH  16  17
ATOM     17  C   UNL     1      51.175  56.848  92.746  1.00  0.00    -0.000 C 
BRANCH  17  18
ATOM     18  C   UNL     1      52.063  57.511  91.679  1.00  0.00    -0.000 C 
BRANCH  18  19
ATOM     19  C   UNL     1      53.112  58.454  92.284  1.00  0.00    -0.003 C 
ATOM     20  C   UNL     1      53.519  58.053  93.702  1.00  0.00     0.004 C 
ENDBRANCH  18  19
ENDBRANCH  17  18
ENDBRANCH  16  17
ENDBRANCH  15  16
ENDBRANCH  14  15
ENDBRANCH  13  14
ENDBRANCH  12  13
ENDBRANCH   1  12
TORSDOF 16
ENDMDL
MODEL 5
REMARK VINA RESULT:    -4.846      3.984      8.897
REMARK INTER + INTRA:         -10.611
REMARK INTER:                  -9.620
REMARK INTRA:                  -0.992
REMARK UNBOUND:                -1.233
REMARK SMILES CCCCCCCCCCCCCCCCCC(=O)[O-]
REMARK SMILES IDX 10 1 11 2 12 3 13 4 14 5 15 6 16 7 17 8 18 9 19 10 20 11
REMARK SMILES IDX 9 12 8 13 7 14 6 15 5 16 4 17 3 18 2 19 1 20
REMARK H PARENT
REMARK Flexibility Score: inf
ROOT
ATOM      1  C   UNL     1      48.664  61.294  92.668  1.00  0.00     0.000 C 
ENDROOT
BRANCH   1   2
ATOM      2  C   UNL     1      49.950  61.442  93.499  1.00  0.00     0.000 C 
BRANCH   2   3
ATOM      3  C   UNL     1      49.794  60.907  94.934  1.00  0.00     0.000 C 
BRANCH   3   4
ATOM      4  C   UNL     1      49.337  59.437  95.042  1.00  0.00     0.000 C 
BRANCH   4   5
ATOM      5  C   UNL     1      50.393  58.390  94.641  1.00  0.00     0.000 C 
BRANCH   5   6
ATOM      6  C   UNL     1      50.110  57.754  93.269  1.00  0.00     0.000 C 
BRANCH   6   7
ATOM      7  C   UNL     1      51.302  56.946  92.732  1.00  0.00     0.006 C 
BRANCH   7   8
ATOM      8  C   UNL     1      52.543  57.050  93.630  1.00  0.00     0.053 C 
BRANCH   8   9
ATOM      9  C   UNL     1      52.711  55.802  94.438  1.00  0.00     0.041 C 
ATOM     10  O   UNL     1      53.164  54.755  93.903  1.00  0.00    -0.550 OA
ATOM     11  O   UNL     1      52.403  55.805  95.793  1.00  0.00    -0.550 OA
ENDBRANCH   8   9
ENDBRANCH   7   8
ENDBRANCH   6   7
ENDBRANCH   5   6
ENDBRANCH   4   5
ENDBRANCH   3   4
ENDBRANCH   2   3
ENDBRANCH   1   2
BRANCH   1  12
ATOM     12  C   UNL     1      47.850  62.597  92.590  1.00  0.00     0.000 C 
BRANCH  12  13
ATOM     13  C   UNL     1      48.696  63.844  92.901  1.00  0.00    -0.000 C 
BRANCH  13  14
ATOM     14  C   UNL     1      47.995  65.149  92.485  1.00  0.00    -0.000 C 
BRANCH  14  15
ATOM     15  C   UNL     1      48.916  66.375  92.611  1.00  0.00    -0.000 C 
BRANCH  15  16
ATOM     16  C   UNL     1      49.370  66.923  91.248  1.00  0.00    -0.000 C 
BRANCH  16  17
ATOM     17  C   UNL     1      50.866  67.306  91.204  1.00  0.00    -0.000 C 
BRANCH  17  18
ATOM     18  C   UNL     1      51.310  68.055  92.471  1.00  0.00    -0.000 C 
BRANCH  18  19
ATOM     19  C   UNL     1      52.460  67.350  93.204  1.00  0.00    -0.003 C 
ATOM     20  C   UNL     1      52.599  67.803  94.657  1.00  0.00     0.004 C 
ENDBRANCH  18  19
ENDBRANCH  17  18
ENDBRANCH  16  17
ENDBRANCH  15  16
ENDBRANCH  14  15
ENDBRANCH  13  14
ENDBRANCH  12  13
ENDBRANCH   1  12
TORSDOF 16
ENDMDL
MODEL 6
REMARK VINA RESULT:    -4.777      3.140      8.275
REMARK INTER + INTRA:         -10.477
REMARK INTER:                  -9.577
REMARK INTRA:                  -0.900
REMARK UNBOUND:                -1.233
REMARK SMILES CCCCCCCCCCCCCCCCCC(=O)[O-]
REMARK SMILES IDX 10 1 11 2 12 3 13 4 14 5 15 6 16 7 17 8 18 9 19 10 20 11
REMARK SMILES IDX 9 12 8 13 7 14 6 15 5 16 4 17 3 18 2 19 1 20
REMARK H PARENT
REMARK Flexibility Score: inf
ROOT
ATOM      1  C   UNL     1      48.970  63.844  93.154  1.00  0.00     0.000 C 
ENDROOT
BRANCH   1   2
ATOM      2  C   UNL     1      48.688  62.338  93.011  1.00  0.00     0.000 C 
BRANCH   2   3
ATOM      3  C   UNL     1      49.895  61.468  93.405  1.00  0.00     0.000 C 
BRANCH   3   4
ATOM      4  C   UNL     1      49.715  60.640  94.695  1.00  0.00     0.000 C 
BRANCH   4   5
ATOM      5  C   UNL     1      50.047  59.143  94.566  1.00  0.00     0.000 C 
BRANCH   5   6
ATOM      6  C   UNL     1      50.073  58.663  93.104  1.00  0.00     0.000 C 
BRANCH   6   7
ATOM      7  C   UNL     1      50.699  57.268  92.949  1.00  0.00     0.006 C 
BRANCH   7   8
ATOM      8  C   UNL     1      51.840  57.239  91.922  1.00  0.00     0.053 C 
BRANCH   8   9
ATOM      9  C   UNL     1      52.920  58.198  92.314  1.00  0.00     0.041 C 
ATOM     10  O   UNL     1      53.286  59.103  91.517  1.00  0.00    -0.550 OA
ATOM     11  O   UNL     1      53.496  58.118  93.576  1.00  0.00    -0.550 OA
ENDBRANCH   8   9
ENDBRANCH   7   8
ENDBRANCH   6   7
ENDBRANCH   5   6
ENDBRANCH   4   5
ENDBRANCH   3   4
ENDBRANCH   2   3
ENDBRANCH   1   2
BRANCH   1  12
ATOM     12  C   UNL     1      47.929  64.718  92.433  1.00  0.00     0.000 C 
BRANCH  12  13
ATOM     13  C   UNL     1      48.184  66.224  92.625  1.00  0.00    -0.000 C 
BRANCH  13  14
ATOM     14  C   UNL     1      49.592  66.644  92.170  1.00  0.00    -0.000 C 
BRANCH  14  15
ATOM     15  C   UNL     1      50.054  67.955  92.830  1.00  0.00    -0.000 C 
BRANCH  15  16
ATOM     16  C   UNL     1      50.527  67.760  94.281  1.00  0.00    -0.000 C 
BRANCH  16  17
ATOM     17  C   UNL     1      52.011  68.125  94.501  1.00  0.00    -0.000 C 
BRANCH  17  18
ATOM     18  C   UNL     1      52.960  67.148  93.787  1.00  0.00    -0.000 C 
BRANCH  18  19
ATOM     19  C   UNL     1      54.407  67.659  93.734  1.00  0.00    -0.003 C 
ATOM     20  C   UNL     1      55.031  67.810  95.121  1.00  0.00     0.004 C 
ENDBRANCH  18  19
ENDBRANCH  17  18
ENDBRANCH  16  17
ENDBRANCH  15  16
ENDBRANCH  14  15
ENDBRANCH  13  14
ENDBRANCH  12  13
ENDBRANCH   1  12
TORSDOF 16
ENDMDL
MODEL 7
REMARK VINA RESULT:    -4.772      3.688      8.301
REMARK INTER + INTRA:         -10.468
REMARK INTER:                  -9.275
REMARK INTRA:                  -1.193
REMARK UNBOUND:                -1.233
REMARK SMILES CCCCCCCCCCCCCCCCCC(=O)[O-]
REMARK SMILES IDX 10 1 11 2 12 3 13 4 14 5 15 6 16 7 17 8 18 9 19 10 20 11
REMARK SMILES IDX 9 12 8 13 7 14 6 15 5 16 4 17 3 18 2 19 1 20
REMARK H PARENT
REMARK Flexibility Score: inf
ROOT
ATOM      1  C   UNL     1      47.526  62.975  92.302  1.00  0.00     0.000 C 
ENDROOT
BRANCH   1   2
ATOM      2  C   UNL     1      48.241  61.653  92.630  1.00  0.00     0.000 C 
BRANCH   2   3
ATOM      3  C   UNL     1      49.384  61.831  93.645  1.00  0.00     0.000 C 
BRANCH   3   4
ATOM      4  C   UNL     1      50.442  60.709  93.649  1.00  0.00     0.000 C 
BRANCH   4   5
ATOM      5  C   UNL     1      51.886  61.167  93.372  1.00  0.00     0.000 C 
BRANCH   5   6
ATOM      6  C   UNL     1      52.670  60.172  92.499  1.00  0.00     0.000 C 
BRANCH   6   7
ATOM      7  C   UNL     1      52.288  58.709  92.778  1.00  0.00     0.006 C 
BRANCH   7   8
ATOM      8  C   UNL     1      53.300  57.994  93.684  1.00  0.00     0.053 C 
BRANCH   8   9
ATOM      9  C   UNL     1      52.666  56.807  94.341  1.00  0.00     0.041 C 
ATOM     10  O   UNL     1      52.742  55.669  93.806  1.00  0.00    -0.550 OA
ATOM     11  O   UNL     1      52.024  56.951  95.564  1.00  0.00    -0.550 OA
ENDBRANCH   8   9
ENDBRANCH   7   8
ENDBRANCH   6   7
ENDBRANCH   5   6
ENDBRANCH   4   5
ENDBRANCH   3   4
ENDBRANCH   2   3
ENDBRANCH   1   2
BRANCH   1  12
ATOM     12  C   UNL     1      48.380  64.212  92.627  1.00  0.00     0.000 C 
BRANCH  12  13
ATOM     13  C   UNL     1      47.666  65.533  92.285  1.00  0.00    -0.000 C 
BRANCH  13  14
ATOM     14  C   UNL     1      48.420  66.763  92.817  1.00  0.00    -0.000 C 
BRANCH  14  15
ATOM     15  C   UNL     1      48.959  67.655  91.685  1.00  0.00    -0.000 C 
BRANCH  15  16
ATOM     16  C   UNL     1      50.359  67.233  91.208  1.00  0.00    -0.000 C 
BRANCH  16  17
ATOM     17  C   UNL     1      51.265  66.707  92.342  1.00  0.00    -0.000 C 
BRANCH  17  18
ATOM     18  C   UNL     1      52.223  67.790  92.868  1.00  0.00    -0.000 C 
BRANCH  18  19
ATOM     19  C   UNL     1      52.392  67.742  94.393  1.00  0.00    -0.003 C 
ATOM     20  C   UNL     1      51.113  68.116  95.141  1.00  0.00     0.004 C 
ENDBRANCH  18  19
ENDBRANCH  17  18
ENDBRANCH  16  17
ENDBRANCH  15  16
ENDBRANCH  14  15
ENDBRANCH  13  14
ENDBRANCH  12  13
ENDBRANCH   1  12
TORSDOF 16
ENDMDL
MODEL 8
REMARK VINA RESULT:    -4.710      1.052      2.276
REMARK INTER + INTRA:         -10.349
REMARK INTER:                  -8.794
REMARK INTRA:                  -1.555
REMARK UNBOUND:                -1.233
REMARK SMILES CCCCCCCCCCCCCCCCCC(=O)[O-]
REMARK SMILES IDX 10 1 11 2 12 3 13 4 14 5 15 6 16 7 17 8 18 9 19 10 20 11
REMARK SMILES IDX 9 12 8 13 7 14 6 15 5 16 4 17 3 18 2 19 1 20
REMARK H PARENT
REMARK Flexibility Score: inf
ROOT
ATOM      1  C   UNL     1      48.614  62.821  93.040  1.00  0.00     0.000 C 
ENDROOT
BRANCH   1   2
ATOM      2  C   UNL     1      48.819  64.345  93.069  1.00  0.00     0.000 C 
BRANCH   2   3
ATOM      3  C   UNL     1      47.700  65.109  92.339  1.00  0.00     0.000 C 
BRANCH   3   4
ATOM      4  C   UNL     1      47.566  66.599  92.718  1.00  0.00     0.000 C 
BRANCH   4   5
ATOM      5  C   UNL     1      47.627  67.585  91.537  1.00  0.00     0.000 C 
BRANCH   5   6
ATOM      6  C   UNL     1      48.834  67.336  90.616  1.00  0.00     0.000 C 
BRANCH   6   7
ATOM      7  C   UNL     1      50.128  67.975  91.147  1.00  0.00     0.006 C 
BRANCH   7   8
ATOM      8  C   UNL     1      51.108  66.944  91.721  1.00  0.00     0.053 C 
BRANCH   8   9
ATOM      9  C   UNL     1      51.510  67.322  93.112  1.00  0.00     0.041 C 
ATOM     10  O   UNL     1      50.640  67.692  93.946  1.00  0.00    -0.550 OA
ATOM     11  O   UNL     1      52.841  67.229  93.501  1.00  0.00    -0.550 OA
ENDBRANCH   8   9
ENDBRANCH   7   8
ENDBRANCH   6   7
ENDBRANCH   5   6
ENDBRANCH   4   5
ENDBRANCH   3   4
ENDBRANCH   2   3
ENDBRANCH   1   2
BRANCH   1  12
ATOM     12  C   UNL     1      49.663  62.061  93.869  1.00  0.00     0.000 C 
BRANCH  12  13
ATOM     13  C   UNL     1      50.400  60.985  93.051  1.00  0.00    -0.000 C 
BRANCH  13  14
ATOM     14  C   UNL     1      51.928  61.077  93.201  1.00  0.00    -0.000 C 
BRANCH  14  15
ATOM     15  C   UNL     1      52.665  60.027  92.351  1.00  0.00    -0.000 C 
BRANCH  15  16
ATOM     16  C   UNL     1      53.032  58.764  93.149  1.00  0.00    -0.000 C 
BRANCH  16  17
ATOM     17  C   UNL     1      52.287  57.497  92.676  1.00  0.00    -0.000 C 
BRANCH  17  18
ATOM     18  C   UNL     1      50.885  57.383  93.299  1.00  0.00    -0.000 C 
BRANCH  18  19
ATOM     19  C   UNL     1      50.866  57.756  94.788  1.00  0.00    -0.003 C 
ATOM     20  C   UNL     1      49.560  58.429  95.211  1.00  0.00     0.004 C 
ENDBRANCH  18  19
ENDBRANCH  17  18
ENDBRANCH  16  17
ENDBRANCH  15  16
ENDBRANCH  14  15
ENDBRANCH  13  14
ENDBRANCH  12  13
ENDBRANCH   1  12
TORSDOF 16
ENDMDL
MODEL 9
REMARK VINA RESULT:    -4.642      3.863      8.471
REMARK INTER + INTRA:         -10.217
REMARK INTER:                  -8.820
REMARK INTRA:                  -1.396
REMARK UNBOUND:                -1.233
REMARK SMILES CCCCCCCCCCCCCCCCCC(=O)[O-]
REMARK SMILES IDX 10 1 11 2 12 3 13 4 14 5 15 6 16 7 17 8 18 9 19 10 20 11
REMARK SMILES IDX 9 12 8 13 7 14 6 15 5 16 4 17 3 18 2 19 1 20
REMARK H PARENT
REMARK Flexibility Score: inf
ROOT
ATOM      1  C   UNL     1      48.449  64.122  92.664  1.00  0.00     0.000 C 
ENDROOT
BRANCH   1   2
ATOM      2  C   UNL     1      47.702  62.777  92.618  1.00  0.00     0.000 C 
BRANCH   2   3
ATOM      3  C   UNL     1      48.655  61.568  92.649  1.00  0.00     0.000 C 
BRANCH   3   4
ATOM      4  C   UNL     1      49.886  61.725  93.566  1.00  0.00     0.000 C 
BRANCH   4   5
ATOM      5  C   UNL     1      50.736  60.454  93.746  1.00  0.00     0.000 C 
BRANCH   5   6
ATOM      6  C   UNL     1      50.075  59.423  94.678  1.00  0.00     0.000 C 
BRANCH   6   7
ATOM      7  C   UNL     1      50.144  57.991  94.123  1.00  0.00     0.006 C 
BRANCH   7   8
ATOM      8  C   UNL     1      50.461  57.950  92.622  1.00  0.00     0.053 C 
BRANCH   8   9
ATOM      9  C   UNL     1      51.452  56.868  92.327  1.00  0.00     0.041 C 
ATOM     10  O   UNL     1      51.790  56.054  93.227  1.00  0.00    -0.550 OA
ATOM     11  O   UNL     1      51.973  56.733  91.046  1.00  0.00    -0.550 OA
ENDBRANCH   8   9
ENDBRANCH   7   8
ENDBRANCH   6   7
ENDBRANCH   5   6
ENDBRANCH   4   5
ENDBRANCH   3   4
ENDBRANCH   2   3
ENDBRANCH   1   2
BRANCH   1  12
ATOM     12  C   UNL     1      47.715  65.238  91.902  1.00  0.00     0.000 C 
BRANCH  12  13
ATOM     13  C   UNL     1      47.023  66.242  92.842  1.00  0.00    -0.000 C 
BRANCH  13  14
ATOM     14  C   UNL     1      47.770  67.585  92.920  1.00  0.00    -0.000 C 
BRANCH  14  15
ATOM     15  C   UNL     1      48.085  67.997  94.368  1.00  0.00    -0.000 C 
BRANCH  15  16
ATOM     16  C   UNL     1      49.489  67.561  94.821  1.00  0.00    -0.000 C 
BRANCH  16  17
ATOM     17  C   UNL     1      50.398  67.103  93.660  1.00  0.00    -0.000 C 
BRANCH  17  18
ATOM     18  C   UNL     1      51.560  68.080  93.412  1.00  0.00    -0.000 C 
BRANCH  18  19
ATOM     19  C   UNL     1      51.993  68.125  91.940  1.00  0.00    -0.003 C 
ATOM     20  C   UNL     1      50.915  67.602  90.991  1.00  0.00     0.004 C 
ENDBRANCH  18  19
ENDBRANCH  17  18
ENDBRANCH  16  17
ENDBRANCH  15  16
ENDBRANCH  14  15
ENDBRANCH  13  14
ENDBRANCH  12  13
ENDBRANCH   1  12
TORSDOF 16
ENDMDL
