MODEL 1
REMARK VINA RESULT:    -6.333      0.000      0.000
REMARK INTER + INTRA:          -8.185
REMARK INTER:                  -7.814
REMARK INTRA:                  -0.371
REMARK UNBOUND:                -0.371
REMARK SMILES Oc1cc(O)c2cc(O)c(-c3cc(O)c(O)c(O)c3)[o+]c2c1
REMARK SMILES IDX 10 1 20 2 21 3 22 4 2 5 3 6 4 7 6 8 7 9 8 10 11 11 12 12
REMARK SMILES IDX 13 13 19 14 15 15 17 16 14 17 16 19 18 21 9 23 1 25 5 27
REMARK H PARENT 14 18 16 20 18 22 9 24 1 26 5 28
REMARK Flexibility Score: inf
ROOT
ATOM      1  C   UNL     1     -43.555 -10.603  -0.804  1.00  0.00     0.402 A 
ATOM      2  O   UNL     1     -42.997 -11.492  -1.621  1.00  0.00    -0.202 OA
ATOM      3  C   UNL     1     -43.598 -12.615  -1.998  1.00  0.00     0.368 A 
ATOM      4  C   UNL     1     -42.929 -13.490  -2.858  1.00  0.00     0.162 A 
ATOM      5  C   UNL     1     -43.535 -14.679  -3.267  1.00  0.00     0.128 A 
ATOM      6  C   UNL     1     -44.820 -14.998  -2.812  1.00  0.00     0.093 A 
ATOM      7  C   UNL     1     -45.512 -14.139  -1.949  1.00  0.00     0.136 A 
ATOM      8  C   UNL     1     -44.899 -12.927  -1.534  1.00  0.00     0.125 A 
ATOM      9  C   UNL     1     -45.522 -12.001  -0.682  1.00  0.00     0.078 A 
ATOM     10  C   UNL     1     -44.857 -10.826  -0.320  1.00  0.00     0.223 A 
ENDROOT
BRANCH   1  11
ATOM     11  C   UNL     1     -42.779  -9.392  -0.451  1.00  0.00     0.091 A 
ATOM     12  C   UNL     1     -42.680  -8.341  -1.374  1.00  0.00     0.068 A 
ATOM     13  C   UNL     1     -41.938  -7.191  -1.083  1.00  0.00     0.162 A 
ATOM     14  C   UNL     1     -42.089  -9.295   0.768  1.00  0.00     0.068 A 
ATOM     15  C   UNL     1     -41.265  -7.091   0.158  1.00  0.00     0.200 A 
ATOM     16  C   UNL     1     -41.342  -8.151   1.073  1.00  0.00     0.162 A 
BRANCH  13  17
ATOM     17  O   UNL     1     -41.896  -6.182  -2.048  1.00  0.00    -0.504 OA
ATOM     18  H   UNL     1     -42.631  -6.011  -2.718  1.00  0.00     0.293 HD
ENDBRANCH  13  17
BRANCH  15  19
ATOM     19  O   UNL     1     -40.512  -5.970   0.516  1.00  0.00    -0.502 OA
ATOM     20  H   UNL     1     -40.746  -5.351   1.278  1.00  0.00     0.293 HD
ENDBRANCH  15  19
BRANCH  16  21
ATOM     21  O   UNL     1     -40.667  -8.060   2.289  1.00  0.00    -0.504 OA
ATOM     22  H   UNL     1     -41.163  -7.968   3.168  1.00  0.00     0.293 HD
ENDBRANCH  16  21
ENDBRANCH   1  11
BRANCH  10  23
ATOM     23  O   UNL     1     -45.493  -9.882   0.486  1.00  0.00    -0.500 OA
ATOM     24  H   UNL     1     -45.170  -9.678   1.425  1.00  0.00     0.294 HD
ENDBRANCH  10  23
BRANCH   5  25
ATOM     25  O   UNL     1     -42.852 -15.537  -4.125  1.00  0.00    -0.507 OA
ATOM     26  H   UNL     1     -42.021 -16.035  -3.826  1.00  0.00     0.293 HD
ENDBRANCH   5  25
BRANCH   7  27
ATOM     27  O   UNL     1     -46.788 -14.530  -1.538  1.00  0.00    -0.507 OA
ATOM     28  H   UNL     1     -47.593 -13.922  -1.517  1.00  0.00     0.293 HD
ENDBRANCH   7  27
TORSDOF 7
ENDMDL
MODEL 2
REMARK VINA RESULT:    -6.292      6.539      8.424
REMARK INTER + INTRA:          -8.135
REMARK INTER:                  -7.769
REMARK INTRA:                  -0.366
REMARK UNBOUND:                -0.371
REMARK SMILES Oc1cc(O)c2cc(O)c(-c3cc(O)c(O)c(O)c3)[o+]c2c1
REMARK SMILES IDX 10 1 20 2 21 3 22 4 2 5 3 6 4 7 6 8 7 9 8 10 11 11 12 12
REMARK SMILES IDX 13 13 19 14 15 15 17 16 14 17 16 19 18 21 9 23 1 25 5 27
REMARK H PARENT 14 18 16 20 18 22 9 24 1 26 5 28
REMARK Flexibility Score: inf
ROOT
ATOM      1  C   UNL     1     -45.656 -14.870   4.070  1.00  0.00     0.402 A 
ATOM      2  O   UNL     1     -44.696 -15.334   3.275  1.00  0.00    -0.202 OA
ATOM      3  C   UNL     1     -44.588 -15.004   1.992  1.00  0.00     0.368 A 
ATOM      4  C   UNL     1     -43.545 -15.545   1.236  1.00  0.00     0.162 A 
ATOM      5  C   UNL     1     -43.410 -15.220  -0.114  1.00  0.00     0.128 A 
ATOM      6  C   UNL     1     -44.325 -14.348  -0.716  1.00  0.00     0.093 A 
ATOM      7  C   UNL     1     -45.379 -13.792   0.020  1.00  0.00     0.136 A 
ATOM      8  C   UNL     1     -45.518 -14.119   1.395  1.00  0.00     0.125 A 
ATOM      9  C   UNL     1     -46.535 -13.600   2.212  1.00  0.00     0.078 A 
ATOM     10  C   UNL     1     -46.604 -13.965   3.560  1.00  0.00     0.223 A 
ENDROOT
BRANCH   1  11
ATOM     11  C   UNL     1     -45.674 -15.319   5.481  1.00  0.00     0.091 A 
ATOM     12  C   UNL     1     -46.332 -16.510   5.819  1.00  0.00     0.068 A 
ATOM     13  C   UNL     1     -46.387 -16.954   7.145  1.00  0.00     0.162 A 
ATOM     14  C   UNL     1     -45.095 -14.548   6.501  1.00  0.00     0.068 A 
ATOM     15  C   UNL     1     -45.780 -16.183   8.164  1.00  0.00     0.200 A 
ATOM     16  C   UNL     1     -45.142 -14.980   7.833  1.00  0.00     0.162 A 
BRANCH  13  17
ATOM     17  O   UNL     1     -47.050 -18.157   7.401  1.00  0.00    -0.504 OA
ATOM     18  H   UNL     1     -47.357 -18.448   8.318  1.00  0.00     0.293 HD
ENDBRANCH  13  17
BRANCH  15  19
ATOM     19  O   UNL     1     -45.792 -16.571   9.507  1.00  0.00    -0.502 OA
ATOM     20  H   UNL     1     -46.619 -16.876  10.000  1.00  0.00     0.293 HD
ENDBRANCH  15  19
BRANCH  16  21
ATOM     21  O   UNL     1     -44.558 -14.211   8.838  1.00  0.00    -0.504 OA
ATOM     22  H   UNL     1     -44.902 -14.231   9.791  1.00  0.00     0.293 HD
ENDBRANCH  16  21
ENDBRANCH   1  11
BRANCH  10  23
ATOM     23  O   UNL     1     -47.584 -13.412   4.385  1.00  0.00    -0.500 OA
ATOM     24  H   UNL     1     -48.567 -13.445   4.140  1.00  0.00     0.294 HD
ENDBRANCH  10  23
BRANCH   5  25
ATOM     25  O   UNL     1     -42.364 -15.769  -0.851  1.00  0.00    -0.507 OA
ATOM     26  H   UNL     1     -42.250 -15.573  -1.839  1.00  0.00     0.293 HD
ENDBRANCH   5  25
BRANCH   7  27
ATOM     27  O   UNL     1     -46.251 -12.933  -0.653  1.00  0.00    -0.507 OA
ATOM     28  H   UNL     1     -45.973 -12.071  -1.098  1.00  0.00     0.293 HD
ENDBRANCH   7  27
TORSDOF 7
ENDMDL
MODEL 3
REMARK VINA RESULT:    -6.213      2.772      7.148
REMARK INTER + INTRA:          -8.037
REMARK INTER:                  -7.658
REMARK INTRA:                  -0.379
REMARK UNBOUND:                -0.371
REMARK SMILES Oc1cc(O)c2cc(O)c(-c3cc(O)c(O)c(O)c3)[o+]c2c1
REMARK SMILES IDX 10 1 20 2 21 3 22 4 2 5 3 6 4 7 6 8 7 9 8 10 11 11 12 12
REMARK SMILES IDX 13 13 19 14 15 15 17 16 14 17 16 19 18 21 9 23 1 25 5 27
REMARK H PARENT 14 18 16 20 18 22 9 24 1 26 5 28
REMARK Flexibility Score: inf
ROOT
ATOM      1  C   UNL     1     -45.408 -12.330   0.072  1.00  0.00     0.402 A 
ATOM      2  O   UNL     1     -45.080 -11.077  -0.230  1.00  0.00    -0.202 OA
ATOM      3  C   UNL     1     -45.493 -10.026   0.470  1.00  0.00     0.368 A 
ATOM      4  C   UNL     1     -45.098  -8.746   0.072  1.00  0.00     0.162 A 
ATOM      5  C   UNL     1     -45.521  -7.624   0.787  1.00  0.00     0.128 A 
ATOM      6  C   UNL     1     -46.346  -7.780   1.906  1.00  0.00     0.093 A 
ATOM      7  C   UNL     1     -46.756  -9.051   2.325  1.00  0.00     0.136 A 
ATOM      8  C   UNL     1     -46.326 -10.196   1.602  1.00  0.00     0.125 A 
ATOM      9  C   UNL     1     -46.677 -11.509   1.956  1.00  0.00     0.078 A 
ATOM     10  C   UNL     1     -46.210 -12.587   1.198  1.00  0.00     0.223 A 
ENDROOT
BRANCH   1  11
ATOM     11  C   UNL     1     -44.890 -13.417  -0.791  1.00  0.00     0.091 A 
ATOM     12  C   UNL     1     -43.573 -13.866  -0.622  1.00  0.00     0.068 A 
ATOM     13  C   UNL     1     -43.044 -14.876  -1.433  1.00  0.00     0.162 A 
ATOM     14  C   UNL     1     -45.672 -13.970  -1.817  1.00  0.00     0.068 A 
ATOM     15  C   UNL     1     -43.846 -15.446  -2.450  1.00  0.00     0.200 A 
ATOM     16  C   UNL     1     -45.156 -14.982  -2.637  1.00  0.00     0.162 A 
BRANCH  13  17
ATOM     17  O   UNL     1     -41.727 -15.278  -1.196  1.00  0.00    -0.504 OA
ATOM     18  H   UNL     1     -41.378 -15.564  -0.293  1.00  0.00     0.293 HD
ENDBRANCH  13  17
BRANCH  15  19
ATOM     19  O   UNL     1     -43.384 -16.461  -3.291  1.00  0.00    -0.502 OA
ATOM     20  H   UNL     1     -43.469 -16.445  -4.297  1.00  0.00     0.293 HD
ENDBRANCH  15  19
BRANCH  16  21
ATOM     21  O   UNL     1     -45.942 -15.531  -3.649  1.00  0.00    -0.504 OA
ATOM     22  H   UNL     1     -45.718 -16.424  -4.071  1.00  0.00     0.293 HD
ENDBRANCH  16  21
ENDBRANCH   1  11
BRANCH  10  23
ATOM     23  O   UNL     1     -46.517 -13.893   1.578  1.00  0.00    -0.500 OA
ATOM     24  H   UNL     1     -46.526 -14.177   2.551  1.00  0.00     0.294 HD
ENDBRANCH  10  23
BRANCH   5  25
ATOM     25  O   UNL     1     -45.115  -6.356   0.375  1.00  0.00    -0.507 OA
ATOM     26  H   UNL     1     -45.787  -5.637   0.135  1.00  0.00     0.293 HD
ENDBRANCH   5  25
BRANCH   7  27
ATOM     27  O   UNL     1     -47.582  -9.124   3.449  1.00  0.00    -0.507 OA
ATOM     28  H   UNL     1     -47.393  -9.694   4.261  1.00  0.00     0.293 HD
ENDBRANCH   7  27
TORSDOF 7
ENDMDL
MODEL 4
REMARK VINA RESULT:    -6.204      1.131      2.691
REMARK INTER + INTRA:          -8.026
REMARK INTER:                  -7.662
REMARK INTRA:                  -0.363
REMARK UNBOUND:                -0.371
REMARK SMILES Oc1cc(O)c2cc(O)c(-c3cc(O)c(O)c(O)c3)[o+]c2c1
REMARK SMILES IDX 10 1 20 2 21 3 22 4 2 5 3 6 4 7 6 8 7 9 8 10 11 11 12 12
REMARK SMILES IDX 13 13 19 14 15 15 17 16 14 17 16 19 18 21 9 23 1 25 5 27
REMARK H PARENT 14 18 16 20 18 22 9 24 1 26 5 28
REMARK Flexibility Score: inf
ROOT
ATOM      1  C   UNL     1     -42.131 -11.101  -1.568  1.00  0.00     0.402 A 
ATOM      2  O   UNL     1     -43.383 -11.517  -1.396  1.00  0.00    -0.202 OA
ATOM      3  C   UNL     1     -43.835 -12.679  -1.856  1.00  0.00     0.368 A 
ATOM      4  C   UNL     1     -45.168 -13.029  -1.628  1.00  0.00     0.162 A 
ATOM      5  C   UNL     1     -45.671 -14.241  -2.103  1.00  0.00     0.128 A 
ATOM      6  C   UNL     1     -44.836 -15.112  -2.813  1.00  0.00     0.093 A 
ATOM      7  C   UNL     1     -43.495 -14.785  -3.054  1.00  0.00     0.136 A 
ATOM      8  C   UNL     1     -42.980 -13.553  -2.570  1.00  0.00     0.125 A 
ATOM      9  C   UNL     1     -41.648 -13.149  -2.754  1.00  0.00     0.078 A 
ATOM     10  C   UNL     1     -41.212 -11.922  -2.244  1.00  0.00     0.223 A 
ENDROOT
BRANCH   1  11
ATOM     11  C   UNL     1     -41.751  -9.781  -1.015  1.00  0.00     0.091 A 
ATOM     12  C   UNL     1     -41.701  -8.665  -1.862  1.00  0.00     0.068 A 
ATOM     13  C   UNL     1     -41.326  -7.406  -1.379  1.00  0.00     0.162 A 
ATOM     14  C   UNL     1     -41.382  -9.630   0.331  1.00  0.00     0.068 A 
ATOM     15  C   UNL     1     -40.978  -7.258  -0.015  1.00  0.00     0.200 A 
ATOM     16  C   UNL     1     -41.004  -8.377   0.830  1.00  0.00     0.162 A 
BRANCH  13  17
ATOM     17  O   UNL     1     -41.312  -6.340  -2.281  1.00  0.00    -0.504 OA
ATOM     18  H   UNL     1     -41.358  -5.369  -2.009  1.00  0.00     0.293 HD
ENDBRANCH  13  17
BRANCH  15  19
ATOM     19  O   UNL     1     -40.601  -6.030   0.535  1.00  0.00    -0.502 OA
ATOM     20  H   UNL     1     -40.664  -5.149   0.047  1.00  0.00     0.293 HD
ENDBRANCH  15  19
BRANCH  16  21
ATOM     21  O   UNL     1     -40.646  -8.236   2.170  1.00  0.00    -0.504 OA
ATOM     22  H   UNL     1     -39.696  -8.019   2.446  1.00  0.00     0.293 HD
ENDBRANCH  16  21
ENDBRANCH   1  11
BRANCH  10  23
ATOM     23  O   UNL     1     -39.877 -11.542  -2.383  1.00  0.00    -0.500 OA
ATOM     24  H   UNL     1     -39.612 -10.577  -2.540  1.00  0.00     0.294 HD
ENDBRANCH  10  23
BRANCH   5  25
ATOM     25  O   UNL     1     -47.003 -14.572  -1.865  1.00  0.00    -0.507 OA
ATOM     26  H   UNL     1     -47.346 -14.745  -0.928  1.00  0.00     0.293 HD
ENDBRANCH   5  25
BRANCH   7  27
ATOM     27  O   UNL     1     -42.728 -15.705  -3.773  1.00  0.00    -0.507 OA
ATOM     28  H   UNL     1     -41.828 -15.500  -4.183  1.00  0.00     0.293 HD
ENDBRANCH   7  27
TORSDOF 7
ENDMDL
MODEL 5
REMARK VINA RESULT:    -6.154      3.069      5.028
REMARK INTER + INTRA:          -7.963
REMARK INTER:                  -7.618
REMARK INTRA:                  -0.346
REMARK UNBOUND:                -0.371
REMARK SMILES Oc1cc(O)c2cc(O)c(-c3cc(O)c(O)c(O)c3)[o+]c2c1
REMARK SMILES IDX 10 1 20 2 21 3 22 4 2 5 3 6 4 7 6 8 7 9 8 10 11 11 12 12
REMARK SMILES IDX 13 13 19 14 15 15 17 16 14 17 16 19 18 21 9 23 1 25 5 27
REMARK H PARENT 14 18 16 20 18 22 9 24 1 26 5 28
REMARK Flexibility Score: inf
ROOT
ATOM      1  C   UNL     1     -45.279 -11.792   0.635  1.00  0.00     0.402 A 
ATOM      2  O   UNL     1     -45.866 -12.753  -0.074  1.00  0.00    -0.202 OA
ATOM      3  C   UNL     1     -45.397 -13.193  -1.237  1.00  0.00     0.368 A 
ATOM      4  C   UNL     1     -46.085 -14.206  -1.909  1.00  0.00     0.162 A 
ATOM      5  C   UNL     1     -45.617 -14.683  -3.134  1.00  0.00     0.128 A 
ATOM      6  C   UNL     1     -44.454 -14.145  -3.694  1.00  0.00     0.093 A 
ATOM      7  C   UNL     1     -43.745 -13.128  -3.041  1.00  0.00     0.136 A 
ATOM      8  C   UNL     1     -44.217 -12.641  -1.792  1.00  0.00     0.125 A 
ATOM      9  C   UNL     1     -43.565 -11.635  -1.061  1.00  0.00     0.078 A 
ATOM     10  C   UNL     1     -44.088 -11.211   0.164  1.00  0.00     0.223 A 
ENDROOT
BRANCH   1  11
ATOM     11  C   UNL     1     -45.905 -11.384   1.913  1.00  0.00     0.091 A 
ATOM     12  C   UNL     1     -46.968 -10.470   1.902  1.00  0.00     0.068 A 
ATOM     13  C   UNL     1     -47.570 -10.046   3.092  1.00  0.00     0.162 A 
ATOM     14  C   UNL     1     -45.419 -11.848   3.146  1.00  0.00     0.068 A 
ATOM     15  C   UNL     1     -47.089 -10.537   4.329  1.00  0.00     0.200 A 
ATOM     16  C   UNL     1     -46.011 -11.433   4.346  1.00  0.00     0.162 A 
BRANCH  13  17
ATOM     17  O   UNL     1     -48.632  -9.144   2.999  1.00  0.00    -0.504 OA
ATOM     18  H   UNL     1     -48.518  -8.147   2.891  1.00  0.00     0.293 HD
ENDBRANCH  13  17
BRANCH  15  19
ATOM     19  O   UNL     1     -47.647 -10.160   5.554  1.00  0.00    -0.502 OA
ATOM     20  H   UNL     1     -47.404  -9.315   6.050  1.00  0.00     0.293 HD
ENDBRANCH  15  19
BRANCH  16  21
ATOM     21  O   UNL     1     -45.526 -11.904   5.564  1.00  0.00    -0.504 OA
ATOM     22  H   UNL     1     -45.079 -11.288   6.233  1.00  0.00     0.293 HD
ENDBRANCH  16  21
ENDBRANCH   1  11
BRANCH  10  23
ATOM     23  O   UNL     1     -43.415 -10.247   0.915  1.00  0.00    -0.500 OA
ATOM     24  H   UNL     1     -42.467  -9.966   0.694  1.00  0.00     0.294 HD
ENDBRANCH  10  23
BRANCH   5  25
ATOM     25  O   UNL     1     -46.318 -15.694  -3.788  1.00  0.00    -0.507 OA
ATOM     26  H   UNL     1     -46.622 -15.592  -4.749  1.00  0.00     0.293 HD
ENDBRANCH   5  25
BRANCH   7  27
ATOM     27  O   UNL     1     -42.595 -12.640  -3.665  1.00  0.00    -0.507 OA
ATOM     28  H   UNL     1     -41.853 -12.148  -3.191  1.00  0.00     0.293 HD
ENDBRANCH   7  27
TORSDOF 7
ENDMDL
MODEL 6
REMARK VINA RESULT:    -6.066      6.643      8.631
REMARK INTER + INTRA:          -7.855
REMARK INTER:                  -7.471
REMARK INTRA:                  -0.384
REMARK UNBOUND:                -0.371
REMARK SMILES Oc1cc(O)c2cc(O)c(-c3cc(O)c(O)c(O)c3)[o+]c2c1
REMARK SMILES IDX 10 1 20 2 21 3 22 4 2 5 3 6 4 7 6 8 7 9 8 10 11 11 12 12
REMARK SMILES IDX 13 13 19 14 15 15 17 16 14 17 16 19 18 21 9 23 1 25 5 27
REMARK H PARENT 14 18 16 20 18 22 9 24 1 26 5 28
REMARK Flexibility Score: inf
ROOT
ATOM      1  C   UNL     1     -44.189 -15.478   3.934  1.00  0.00     0.402 A 
ATOM      2  O   UNL     1     -45.095 -15.038   3.066  1.00  0.00    -0.202 OA
ATOM      3  C   UNL     1     -44.819 -14.778   1.792  1.00  0.00     0.368 A 
ATOM      4  C   UNL     1     -45.838 -14.315   0.956  1.00  0.00     0.162 A 
ATOM      5  C   UNL     1     -45.576 -14.031  -0.385  1.00  0.00     0.128 A 
ATOM      6  C   UNL     1     -44.285 -14.208  -0.896  1.00  0.00     0.093 A 
ATOM      7  C   UNL     1     -43.246 -14.670  -0.078  1.00  0.00     0.136 A 
ATOM      8  C   UNL     1     -43.510 -14.963   1.286  1.00  0.00     0.125 A 
ATOM      9  C   UNL     1     -42.534 -15.443   2.175  1.00  0.00     0.078 A 
ATOM     10  C   UNL     1     -42.871 -15.714   3.504  1.00  0.00     0.223 A 
ENDROOT
BRANCH   1  11
ATOM     11  C   UNL     1     -44.618 -15.723   5.330  1.00  0.00     0.091 A 
ATOM     12  C   UNL     1     -45.221 -16.945   5.664  1.00  0.00     0.068 A 
ATOM     13  C   UNL     1     -45.658 -17.202   6.968  1.00  0.00     0.162 A 
ATOM     14  C   UNL     1     -44.489 -14.735   6.319  1.00  0.00     0.068 A 
ATOM     15  C   UNL     1     -45.502 -16.210   7.965  1.00  0.00     0.200 A 
ATOM     16  C   UNL     1     -44.921 -14.978   7.629  1.00  0.00     0.162 A 
BRANCH  13  17
ATOM     17  O   UNL     1     -46.237 -18.447   7.226  1.00  0.00    -0.504 OA
ATOM     18  H   UNL     1     -46.065 -19.275   6.675  1.00  0.00     0.293 HD
ENDBRANCH  13  17
BRANCH  15  19
ATOM     19  O   UNL     1     -45.910 -16.403   9.287  1.00  0.00    -0.502 OA
ATOM     20  H   UNL     1     -45.291 -16.678  10.036  1.00  0.00     0.293 HD
ENDBRANCH  15  19
BRANCH  16  21
ATOM     21  O   UNL     1     -44.782 -13.994   8.606  1.00  0.00    -0.504 OA
ATOM     22  H   UNL     1     -44.427 -14.209   9.530  1.00  0.00     0.293 HD
ENDBRANCH  16  21
ENDBRANCH   1  11
BRANCH  10  23
ATOM     23  O   UNL     1     -41.915 -16.237   4.375  1.00  0.00    -0.500 OA
ATOM     24  H   UNL     1     -41.596 -17.196   4.302  1.00  0.00     0.294 HD
ENDBRANCH  10  23
BRANCH   5  25
ATOM     25  O   UNL     1     -46.606 -13.571  -1.203  1.00  0.00    -0.507 OA
ATOM     26  H   UNL     1     -47.144 -14.203  -1.784  1.00  0.00     0.293 HD
ENDBRANCH   5  25
BRANCH   7  27
ATOM     27  O   UNL     1     -41.985 -14.818  -0.661  1.00  0.00    -0.507 OA
ATOM     28  H   UNL     1     -41.113 -14.606  -0.198  1.00  0.00     0.293 HD
ENDBRANCH   7  27
TORSDOF 7
ENDMDL
MODEL 7
REMARK VINA RESULT:    -6.002      3.767      7.277
REMARK INTER + INTRA:          -7.776
REMARK INTER:                  -7.401
REMARK INTRA:                  -0.375
REMARK UNBOUND:                -0.371
REMARK SMILES Oc1cc(O)c2cc(O)c(-c3cc(O)c(O)c(O)c3)[o+]c2c1
REMARK SMILES IDX 10 1 20 2 21 3 22 4 2 5 3 6 4 7 6 8 7 9 8 10 11 11 12 12
REMARK SMILES IDX 13 13 19 14 15 15 17 16 14 17 16 19 18 21 9 23 1 25 5 27
REMARK H PARENT 14 18 16 20 18 22 9 24 1 26 5 28
REMARK Flexibility Score: inf
ROOT
ATOM      1  C   UNL     1     -45.642 -12.859   0.459  1.00  0.00     0.402 A 
ATOM      2  O   UNL     1     -46.210 -13.431   1.518  1.00  0.00    -0.202 OA
ATOM      3  C   UNL     1     -46.810 -12.744   2.484  1.00  0.00     0.368 A 
ATOM      4  C   UNL     1     -47.376 -13.434   3.559  1.00  0.00     0.162 A 
ATOM      5  C   UNL     1     -48.008 -12.738   4.590  1.00  0.00     0.128 A 
ATOM      6  C   UNL     1     -48.075 -11.341   4.549  1.00  0.00     0.093 A 
ATOM      7  C   UNL     1     -47.515 -10.625   3.483  1.00  0.00     0.136 A 
ATOM      8  C   UNL     1     -46.873 -11.330   2.431  1.00  0.00     0.125 A 
ATOM      9  C   UNL     1     -46.297 -10.698   1.318  1.00  0.00     0.078 A 
ATOM     10  C   UNL     1     -45.685 -11.460   0.318  1.00  0.00     0.223 A 
ENDROOT
BRANCH   1  11
ATOM     11  C   UNL     1     -44.997 -13.733  -0.547  1.00  0.00     0.091 A 
ATOM     12  C   UNL     1     -45.741 -14.189  -1.645  1.00  0.00     0.068 A 
ATOM     13  C   UNL     1     -45.170 -15.033  -2.604  1.00  0.00     0.162 A 
ATOM     14  C   UNL     1     -43.669 -14.165  -0.397  1.00  0.00     0.068 A 
ATOM     15  C   UNL     1     -43.824 -15.445  -2.458  1.00  0.00     0.200 A 
ATOM     16  C   UNL     1     -43.084 -15.009  -1.349  1.00  0.00     0.162 A 
BRANCH  13  17
ATOM     17  O   UNL     1     -45.970 -15.435  -3.675  1.00  0.00    -0.504 OA
ATOM     18  H   UNL     1     -45.848 -16.302  -4.177  1.00  0.00     0.293 HD
ENDBRANCH  13  17
BRANCH  15  19
ATOM     19  O   UNL     1     -43.190 -16.281  -3.381  1.00  0.00    -0.502 OA
ATOM     20  H   UNL     1     -42.729 -17.145  -3.137  1.00  0.00     0.293 HD
ENDBRANCH  15  19
BRANCH  16  21
ATOM     21  O   UNL     1     -41.763 -15.427  -1.196  1.00  0.00    -0.504 OA
ATOM     22  H   UNL     1     -41.464 -15.957  -0.386  1.00  0.00     0.293 HD
ENDBRANCH  16  21
ENDBRANCH   1  11
BRANCH  10  23
ATOM     23  O   UNL     1     -45.156 -10.836  -0.811  1.00  0.00    -0.500 OA
ATOM     24  H   UNL     1     -45.675 -10.132  -1.323  1.00  0.00     0.294 HD
ENDBRANCH  10  23
BRANCH   5  25
ATOM     25  O   UNL     1     -48.567 -13.445   5.652  1.00  0.00    -0.507 OA
ATOM     26  H   UNL     1     -49.048 -12.972   6.408  1.00  0.00     0.293 HD
ENDBRANCH   5  25
BRANCH   7  27
ATOM     27  O   UNL     1     -47.621  -9.233   3.517  1.00  0.00    -0.507 OA
ATOM     28  H   UNL     1     -47.425  -8.626   2.734  1.00  0.00     0.293 HD
ENDBRANCH   7  27
TORSDOF 7
ENDMDL
MODEL 8
REMARK VINA RESULT:    -5.968      3.871      7.473
REMARK INTER + INTRA:          -7.734
REMARK INTER:                  -7.370
REMARK INTRA:                  -0.364
REMARK UNBOUND:                -0.371
REMARK SMILES Oc1cc(O)c2cc(O)c(-c3cc(O)c(O)c(O)c3)[o+]c2c1
REMARK SMILES IDX 10 1 20 2 21 3 22 4 2 5 3 6 4 7 6 8 7 9 8 10 11 11 12 12
REMARK SMILES IDX 13 13 19 14 15 15 17 16 14 17 16 19 18 21 9 23 1 25 5 27
REMARK H PARENT 14 18 16 20 18 22 9 24 1 26 5 28
REMARK Flexibility Score: inf
ROOT
ATOM      1  C   UNL     1     -45.720 -12.954   0.590  1.00  0.00     0.402 A 
ATOM      2  O   UNL     1     -46.249 -13.536   1.663  1.00  0.00    -0.202 OA
ATOM      3  C   UNL     1     -46.826 -12.858   2.650  1.00  0.00     0.368 A 
ATOM      4  C   UNL     1     -47.351 -13.559   3.739  1.00  0.00     0.162 A 
ATOM      5  C   UNL     1     -47.960 -12.873   4.792  1.00  0.00     0.128 A 
ATOM      6  C   UNL     1     -48.044 -11.476   4.758  1.00  0.00     0.093 A 
ATOM      7  C   UNL     1     -47.525 -10.751   3.678  1.00  0.00     0.136 A 
ATOM      8  C   UNL     1     -46.908 -11.446   2.604  1.00  0.00     0.125 A 
ATOM      9  C   UNL     1     -46.373 -10.803   1.475  1.00  0.00     0.078 A 
ATOM     10  C   UNL     1     -45.784 -11.555   0.455  1.00  0.00     0.223 A 
ENDROOT
BRANCH   1  11
ATOM     11  C   UNL     1     -45.097 -13.818  -0.439  1.00  0.00     0.091 A 
ATOM     12  C   UNL     1     -43.754 -14.199  -0.300  1.00  0.00     0.068 A 
ATOM     13  C   UNL     1     -43.127 -14.997  -1.262  1.00  0.00     0.162 A 
ATOM     14  C   UNL     1     -45.803 -14.219  -1.583  1.00  0.00     0.068 A 
ATOM     15  C   UNL     1     -43.853 -15.417  -2.402  1.00  0.00     0.200 A 
ATOM     16  C   UNL     1     -45.189 -15.018  -2.555  1.00  0.00     0.162 A 
BRANCH  13  17
ATOM     17  O   UNL     1     -41.791 -15.346  -1.048  1.00  0.00    -0.504 OA
ATOM     18  H   UNL     1     -41.483 -15.989  -0.334  1.00  0.00     0.293 HD
ENDBRANCH  13  17
BRANCH  15  19
ATOM     19  O   UNL     1     -43.290 -16.220  -3.398  1.00  0.00    -0.502 OA
ATOM     20  H   UNL     1     -42.389 -16.668  -3.321  1.00  0.00     0.293 HD
ENDBRANCH  15  19
BRANCH  16  21
ATOM     21  O   UNL     1     -45.901 -15.417  -3.685  1.00  0.00    -0.504 OA
ATOM     22  H   UNL     1     -46.175 -16.382  -3.827  1.00  0.00     0.293 HD
ENDBRANCH  16  21
ENDBRANCH   1  11
BRANCH  10  23
ATOM     23  O   UNL     1     -45.297 -10.922  -0.688  1.00  0.00    -0.500 OA
ATOM     24  H   UNL     1     -45.646 -10.019  -0.987  1.00  0.00     0.294 HD
ENDBRANCH  10  23
BRANCH   5  25
ATOM     25  O   UNL     1     -48.477 -13.589   5.868  1.00  0.00    -0.507 OA
ATOM     26  H   UNL     1     -48.554 -13.177   6.791  1.00  0.00     0.293 HD
ENDBRANCH   5  25
BRANCH   7  27
ATOM     27  O   UNL     1     -47.645  -9.360   3.719  1.00  0.00    -0.507 OA
ATOM     28  H   UNL     1     -46.887  -8.716   3.547  1.00  0.00     0.293 HD
ENDBRANCH   7  27
TORSDOF 7
ENDMDL
MODEL 9
REMARK VINA RESULT:    -5.882      4.368      7.362
REMARK INTER + INTRA:          -7.629
REMARK INTER:                  -7.353
REMARK INTRA:                  -0.275
REMARK UNBOUND:                -0.371
REMARK SMILES Oc1cc(O)c2cc(O)c(-c3cc(O)c(O)c(O)c3)[o+]c2c1
REMARK SMILES IDX 10 1 20 2 21 3 22 4 2 5 3 6 4 7 6 8 7 9 8 10 11 11 12 12
REMARK SMILES IDX 13 13 19 14 15 15 17 16 14 17 16 19 18 21 9 23 1 25 5 27
REMARK H PARENT 14 18 16 20 18 22 9 24 1 26 5 28
REMARK Flexibility Score: inf
ROOT
ATOM      1  C   UNL     1     -44.557 -13.981   0.963  1.00  0.00     0.402 A 
ATOM      2  O   UNL     1     -45.024 -12.740   1.069  1.00  0.00    -0.202 OA
ATOM      3  C   UNL     1     -45.508 -12.237   2.200  1.00  0.00     0.368 A 
ATOM      4  C   UNL     1     -45.979 -10.921   2.212  1.00  0.00     0.162 A 
ATOM      5  C   UNL     1     -46.498 -10.368   3.384  1.00  0.00     0.128 A 
ATOM      6  C   UNL     1     -46.548 -11.135   4.554  1.00  0.00     0.093 A 
ATOM      7  C   UNL     1     -46.083 -12.456   4.567  1.00  0.00     0.136 A 
ATOM      8  C   UNL     1     -45.552 -13.021   3.377  1.00  0.00     0.125 A 
ATOM      9  C   UNL     1     -45.052 -14.331   3.301  1.00  0.00     0.078 A 
ATOM     10  C   UNL     1     -44.541 -14.816   2.094  1.00  0.00     0.223 A 
ENDROOT
BRANCH   1  11
ATOM     11  C   UNL     1     -44.051 -14.427  -0.355  1.00  0.00     0.091 A 
ATOM     12  C   UNL     1     -42.671 -14.591  -0.546  1.00  0.00     0.068 A 
ATOM     13  C   UNL     1     -42.156 -14.992  -1.784  1.00  0.00     0.162 A 
ATOM     14  C   UNL     1     -44.918 -14.636  -1.439  1.00  0.00     0.068 A 
ATOM     15  C   UNL     1     -43.039 -15.224  -2.865  1.00  0.00     0.200 A 
ATOM     16  C   UNL     1     -44.417 -15.038  -2.684  1.00  0.00     0.162 A 
BRANCH  13  17
ATOM     17  O   UNL     1     -40.772 -15.146  -1.893  1.00  0.00    -0.504 OA
ATOM     18  H   UNL     1     -40.108 -14.776  -1.228  1.00  0.00     0.293 HD
ENDBRANCH  13  17
BRANCH  15  19
ATOM     19  O   UNL     1     -42.592 -15.631  -4.125  1.00  0.00    -0.502 OA
ATOM     20  H   UNL     1     -41.673 -16.008  -4.304  1.00  0.00     0.293 HD
ENDBRANCH  15  19
BRANCH  16  21
ATOM     21  O   UNL     1     -45.286 -15.250  -3.752  1.00  0.00    -0.504 OA
ATOM     22  H   UNL     1     -45.275 -14.655  -4.572  1.00  0.00     0.293 HD
ENDBRANCH  16  21
ENDBRANCH   1  11
BRANCH  10  23
ATOM     23  O   UNL     1     -43.998 -16.100   2.030  1.00  0.00    -0.500 OA
ATOM     24  H   UNL     1     -43.090 -16.314   2.424  1.00  0.00     0.294 HD
ENDBRANCH  10  23
BRANCH   5  25
ATOM     25  O   UNL     1     -46.961  -9.055   3.376  1.00  0.00    -0.507 OA
ATOM     26  H   UNL     1     -47.548  -8.696   4.120  1.00  0.00     0.293 HD
ENDBRANCH   5  25
BRANCH   7  27
ATOM     27  O   UNL     1     -46.170 -13.158   5.773  1.00  0.00    -0.507 OA
ATOM     28  H   UNL     1     -45.442 -13.750   6.143  1.00  0.00     0.293 HD
ENDBRANCH   7  27
TORSDOF 7
ENDMDL
