MODEL 1
REMARK VINA RESULT:    -4.361      0.000      0.000
REMARK INTER + INTRA:          -5.579
REMARK INTER:                  -5.253
REMARK INTRA:                  -0.325
REMARK UNBOUND:                -0.325
REMARK SMILES O=c1c(O)c(-c2ccc(O)c(O)c2)oc2cc(O)cc(O)c12
REMARK SMILES IDX 5 1 3 2 2 3 1 4 22 5 20 6 19 7 17 8 16 9 15 10 14 11 6 12
REMARK SMILES IDX 7 13 8 14 9 15 13 16 11 17 10 18 12 20 4 22 21 24 18 26
REMARK H PARENT 10 19 12 21 4 23 21 25 18 27
REMARK Flexibility Score: inf
ROOT
ATOM      1  C   UNL     1      26.939  24.433   6.665  1.00  0.00     0.180 A 
ATOM      2  C   UNL     1      27.059  23.410   5.705  1.00  0.00     0.208 A 
ATOM      3  C   UNL     1      27.406  22.118   6.130  1.00  0.00     0.238 A 
ATOM      4  O   UNL     1      27.527  21.196   5.278  1.00  0.00    -0.285 OA
ATOM      5  C   UNL     1      27.604  21.865   7.503  1.00  0.00     0.111 A 
ATOM      6  C   UNL     1      27.951  20.591   8.013  1.00  0.00     0.134 A 
ATOM      7  C   UNL     1      28.122  20.418   9.396  1.00  0.00     0.093 A 
ATOM      8  C   UNL     1      27.953  21.494  10.274  1.00  0.00     0.123 A 
ATOM      9  C   UNL     1      27.612  22.752   9.775  1.00  0.00     0.094 A 
ATOM     10  C   UNL     1      27.438  22.945   8.402  1.00  0.00     0.146 A 
ATOM     11  O   UNL     1      27.120  24.154   7.954  1.00  0.00    -0.452 OA
ENDROOT
BRANCH   1  12
ATOM     12  C   UNL     1      26.596  25.825   6.295  1.00  0.00     0.025 A 
ATOM     13  C   UNL     1      27.581  26.729   5.855  1.00  0.00     0.016 A 
ATOM     14  C   UNL     1      27.237  28.044   5.534  1.00  0.00     0.051 A 
ATOM     15  C   UNL     1      25.912  28.480   5.660  1.00  0.00     0.157 A 
ATOM     16  C   UNL     1      25.273  26.273   6.439  1.00  0.00     0.062 A 
ATOM     17  C   UNL     1      24.928  27.593   6.115  1.00  0.00     0.158 A 
BRANCH  15  18
ATOM     18  O   UNL     1      25.566  29.791   5.337  1.00  0.00    -0.504 OA
ATOM     19  H   UNL     1      24.901  29.998   4.600  1.00  0.00     0.293 HD
ENDBRANCH  15  18
BRANCH  17  20
ATOM     20  O   UNL     1      23.611  28.031   6.246  1.00  0.00    -0.504 OA
ATOM     21  H   UNL     1      23.375  28.838   6.812  1.00  0.00     0.293 HD
ENDBRANCH  17  20
ENDBRANCH   1  12
BRANCH   2  22
ATOM     22  O   UNL     1      26.809  23.676   4.357  1.00  0.00    -0.502 OA
ATOM     23  H   UNL     1      27.260  24.435   3.860  1.00  0.00     0.293 HD
ENDBRANCH   2  22
BRANCH   6  24
ATOM     24  O   UNL     1      28.125  19.499   7.162  1.00  0.00    -0.507 OA
ATOM     25  H   UNL     1      28.215  19.615   6.159  1.00  0.00     0.293 HD
ENDBRANCH   6  24
BRANCH   8  26
ATOM     26  O   UNL     1      28.122  21.323  11.647  1.00  0.00    -0.508 OA
ATOM     27  H   UNL     1      29.044  21.253  12.062  1.00  0.00     0.293 HD
ENDBRANCH   8  26
TORSDOF 6
ENDMDL
MODEL 2
REMARK VINA RESULT:    -4.176      6.516      8.139
REMARK INTER + INTRA:          -5.356
REMARK INTER:                  -5.100
REMARK INTRA:                  -0.256
REMARK UNBOUND:                -0.325
REMARK SMILES O=c1c(O)c(-c2ccc(O)c(O)c2)oc2cc(O)cc(O)c12
REMARK SMILES IDX 5 1 3 2 2 3 1 4 22 5 20 6 19 7 17 8 16 9 15 10 14 11 6 12
REMARK SMILES IDX 7 13 8 14 9 15 13 16 11 17 10 18 12 20 4 22 21 24 18 26
REMARK H PARENT 10 19 12 21 4 23 21 25 18 27
REMARK Flexibility Score: inf
ROOT
ATOM      1  C   UNL     1      20.809  26.590   3.773  1.00  0.00     0.180 A 
ATOM      2  C   UNL     1      19.426  26.717   3.541  1.00  0.00     0.208 A 
ATOM      3  C   UNL     1      18.666  25.557   3.318  1.00  0.00     0.238 A 
ATOM      4  O   UNL     1      17.429  25.658   3.098  1.00  0.00    -0.285 OA
ATOM      5  C   UNL     1      19.295  24.295   3.351  1.00  0.00     0.111 A 
ATOM      6  C   UNL     1      18.601  23.079   3.140  1.00  0.00     0.134 A 
ATOM      7  C   UNL     1      19.298  21.862   3.198  1.00  0.00     0.093 A 
ATOM      8  C   UNL     1      20.671  21.839   3.463  1.00  0.00     0.123 A 
ATOM      9  C   UNL     1      21.359  23.036   3.670  1.00  0.00     0.094 A 
ATOM     10  C   UNL     1      20.684  24.259   3.615  1.00  0.00     0.146 A 
ATOM     11  O   UNL     1      21.364  25.382   3.811  1.00  0.00    -0.452 OA
ENDROOT
BRANCH   1  12
ATOM     12  C   UNL     1      21.680  27.766   3.998  1.00  0.00     0.025 A 
ATOM     13  C   UNL     1      22.010  28.644   2.949  1.00  0.00     0.016 A 
ATOM     14  C   UNL     1      22.853  29.734   3.180  1.00  0.00     0.051 A 
ATOM     15  C   UNL     1      23.390  29.954   4.454  1.00  0.00     0.157 A 
ATOM     16  C   UNL     1      22.237  27.981   5.269  1.00  0.00     0.062 A 
ATOM     17  C   UNL     1      23.084  29.075   5.501  1.00  0.00     0.158 A 
BRANCH  15  18
ATOM     18  O   UNL     1      24.229  31.042   4.689  1.00  0.00    -0.504 OA
ATOM     19  H   UNL     1      24.638  31.210   5.601  1.00  0.00     0.293 HD
ENDBRANCH  15  18
BRANCH  17  20
ATOM     20  O   UNL     1      23.624  29.293   6.767  1.00  0.00    -0.504 OA
ATOM     21  H   UNL     1      24.313  28.664   7.165  1.00  0.00     0.293 HD
ENDBRANCH  17  20
ENDBRANCH   1  12
BRANCH   2  22
ATOM     22  O   UNL     1      18.819  27.974   3.563  1.00  0.00    -0.502 OA
ATOM     23  H   UNL     1      17.841  28.110   3.333  1.00  0.00     0.293 HD
ENDBRANCH   2  22
BRANCH   6  24
ATOM     24  O   UNL     1      17.231  23.070   2.875  1.00  0.00    -0.507 OA
ATOM     25  H   UNL     1      16.872  23.052   1.927  1.00  0.00     0.293 HD
ENDBRANCH   6  24
BRANCH   8  26
ATOM     26  O   UNL     1      21.363  20.631   3.521  1.00  0.00    -0.508 OA
ATOM     27  H   UNL     1      22.185  20.520   4.105  1.00  0.00     0.293 HD
ENDBRANCH   8  26
TORSDOF 6
ENDMDL
MODEL 3
REMARK VINA RESULT:    -4.123      5.378      8.092
REMARK INTER + INTRA:          -5.292
REMARK INTER:                  -5.010
REMARK INTRA:                  -0.282
REMARK UNBOUND:                -0.325
REMARK SMILES O=c1c(O)c(-c2ccc(O)c(O)c2)oc2cc(O)cc(O)c12
REMARK SMILES IDX 5 1 3 2 2 3 1 4 22 5 20 6 19 7 17 8 16 9 15 10 14 11 6 12
REMARK SMILES IDX 7 13 8 14 9 15 13 16 11 17 10 18 12 20 4 22 21 24 18 26
REMARK H PARENT 10 19 12 21 4 23 21 25 18 27
REMARK Flexibility Score: inf
ROOT
ATOM      1  C   UNL     1      22.059  26.622   4.368  1.00  0.00     0.180 A 
ATOM      2  C   UNL     1      21.100  27.575   3.974  1.00  0.00     0.208 A 
ATOM      3  C   UNL     1      19.819  27.136   3.606  1.00  0.00     0.238 A 
ATOM      4  O   UNL     1      18.955  27.978   3.241  1.00  0.00    -0.285 OA
ATOM      5  C   UNL     1      19.512  25.760   3.657  1.00  0.00     0.111 A 
ATOM      6  C   UNL     1      18.244  25.237   3.306  1.00  0.00     0.134 A 
ATOM      7  C   UNL     1      18.014  23.855   3.393  1.00  0.00     0.093 A 
ATOM      8  C   UNL     1      19.026  22.990   3.823  1.00  0.00     0.123 A 
ATOM      9  C   UNL     1      20.277  23.502   4.168  1.00  0.00     0.094 A 
ATOM     10  C   UNL     1      20.527  24.875   4.088  1.00  0.00     0.146 A 
ATOM     11  O   UNL     1      21.729  25.334   4.418  1.00  0.00    -0.452 OA
ENDROOT
BRANCH   1  12
ATOM     12  C   UNL     1      23.437  27.003   4.752  1.00  0.00     0.025 A 
ATOM     13  C   UNL     1      24.523  26.798   3.881  1.00  0.00     0.016 A 
ATOM     14  C   UNL     1      25.818  27.144   4.274  1.00  0.00     0.051 A 
ATOM     15  C   UNL     1      26.049  27.686   5.545  1.00  0.00     0.157 A 
ATOM     16  C   UNL     1      23.678  27.527   6.032  1.00  0.00     0.062 A 
ATOM     17  C   UNL     1      24.978  27.876   6.427  1.00  0.00     0.158 A 
BRANCH  15  18
ATOM     18  O   UNL     1      27.340  28.035   5.940  1.00  0.00    -0.504 OA
ATOM     19  H   UNL     1      27.904  28.681   5.400  1.00  0.00     0.293 HD
ENDBRANCH  15  18
BRANCH  17  20
ATOM     20  O   UNL     1      25.212  28.409   7.694  1.00  0.00    -0.504 OA
ATOM     21  H   UNL     1      26.150  28.620   8.015  1.00  0.00     0.293 HD
ENDBRANCH  17  20
ENDBRANCH   1  12
BRANCH   2  22
ATOM     22  O   UNL     1      21.415  28.935   3.980  1.00  0.00    -0.502 OA
ATOM     23  H   UNL     1      21.941  29.374   3.232  1.00  0.00     0.293 HD
ENDBRANCH   2  22
BRANCH   6  24
ATOM     24  O   UNL     1      17.215  26.075   2.875  1.00  0.00    -0.507 OA
ATOM     25  H   UNL     1      16.275  25.728   2.721  1.00  0.00     0.293 HD
ENDBRANCH   6  24
BRANCH   8  26
ATOM     26  O   UNL     1      18.798  21.618   3.910  1.00  0.00    -0.508 OA
ATOM     27  H   UNL     1      18.258  21.218   4.669  1.00  0.00     0.293 HD
ENDBRANCH   8  26
TORSDOF 6
ENDMDL
MODEL 4
REMARK VINA RESULT:    -4.073      2.576      3.855
REMARK INTER + INTRA:          -5.232
REMARK INTER:                  -4.958
REMARK INTRA:                  -0.274
REMARK UNBOUND:                -0.325
REMARK SMILES O=c1c(O)c(-c2ccc(O)c(O)c2)oc2cc(O)cc(O)c12
REMARK SMILES IDX 5 1 3 2 2 3 1 4 22 5 20 6 19 7 17 8 16 9 15 10 14 11 6 12
REMARK SMILES IDX 7 13 8 14 9 15 13 16 11 17 10 18 12 20 4 22 21 24 18 26
REMARK H PARENT 10 19 12 21 4 23 21 25 18 27
REMARK Flexibility Score: inf
ROOT
ATOM      1  C   UNL     1      25.373  25.851   5.674  1.00  0.00     0.180 A 
ATOM      2  C   UNL     1      26.635  25.507   6.194  1.00  0.00     0.208 A 
ATOM      3  C   UNL     1      27.002  24.153   6.247  1.00  0.00     0.238 A 
ATOM      4  O   UNL     1      28.125  23.832   6.721  1.00  0.00    -0.285 OA
ATOM      5  C   UNL     1      26.113  23.171   5.760  1.00  0.00     0.111 A 
ATOM      6  C   UNL     1      26.409  21.787   5.773  1.00  0.00     0.134 A 
ATOM      7  C   UNL     1      25.475  20.872   5.262  1.00  0.00     0.093 A 
ATOM      8  C   UNL     1      24.255  21.316   4.739  1.00  0.00     0.123 A 
ATOM      9  C   UNL     1      23.960  22.680   4.726  1.00  0.00     0.094 A 
ATOM     10  C   UNL     1      24.876  23.607   5.231  1.00  0.00     0.146 A 
ATOM     11  O   UNL     1      24.567  24.898   5.211  1.00  0.00    -0.452 OA
ENDROOT
BRANCH   1  12
ATOM     12  C   UNL     1      24.905  27.254   5.603  1.00  0.00     0.025 A 
ATOM     13  C   UNL     1      24.937  27.976   4.395  1.00  0.00     0.016 A 
ATOM     14  C   UNL     1      24.512  29.306   4.357  1.00  0.00     0.051 A 
ATOM     15  C   UNL     1      24.064  29.939   5.524  1.00  0.00     0.157 A 
ATOM     16  C   UNL     1      24.474  27.899   6.773  1.00  0.00     0.062 A 
ATOM     17  C   UNL     1      24.047  29.235   6.735  1.00  0.00     0.158 A 
BRANCH  15  18
ATOM     18  O   UNL     1      23.638  31.265   5.490  1.00  0.00    -0.504 OA
ATOM     19  H   UNL     1      23.038  31.610   4.749  1.00  0.00     0.293 HD
ENDBRANCH  15  18
BRANCH  17  20
ATOM     20  O   UNL     1      23.607  29.868   7.896  1.00  0.00    -0.504 OA
ATOM     21  H   UNL     1      24.024  29.670   8.798  1.00  0.00     0.293 HD
ENDBRANCH  17  20
ENDBRANCH   1  12
BRANCH   2  22
ATOM     22  O   UNL     1      27.516  26.503   6.624  1.00  0.00    -0.502 OA
ATOM     23  H   UNL     1      28.491  26.315   6.826  1.00  0.00     0.293 HD
ENDBRANCH   2  22
BRANCH   6  24
ATOM     24  O   UNL     1      27.617  21.314   6.286  1.00  0.00    -0.507 OA
ATOM     25  H   UNL     1      27.690  20.956   7.232  1.00  0.00     0.293 HD
ENDBRANCH   6  24
BRANCH   8  26
ATOM     26  O   UNL     1      23.328  20.409   4.230  1.00  0.00    -0.508 OA
ATOM     27  H   UNL     1      22.517  20.123   4.768  1.00  0.00     0.293 HD
ENDBRANCH   8  26
TORSDOF 6
ENDMDL
MODEL 5
REMARK VINA RESULT:    -4.062      4.986      6.397
REMARK INTER + INTRA:          -5.219
REMARK INTER:                  -5.085
REMARK INTRA:                  -0.134
REMARK UNBOUND:                -0.325
REMARK SMILES O=c1c(O)c(-c2ccc(O)c(O)c2)oc2cc(O)cc(O)c12
REMARK SMILES IDX 5 1 3 2 2 3 1 4 22 5 20 6 19 7 17 8 16 9 15 10 14 11 6 12
REMARK SMILES IDX 7 13 8 14 9 15 13 16 11 17 10 18 12 20 4 22 21 24 18 26
REMARK H PARENT 10 19 12 21 4 23 21 25 18 27
REMARK Flexibility Score: inf
ROOT
ATOM      1  C   UNL     1      23.003  27.560   3.964  1.00  0.00     0.180 A 
ATOM      2  C   UNL     1      24.271  27.004   3.708  1.00  0.00     0.208 A 
ATOM      3  C   UNL     1      24.436  25.614   3.810  1.00  0.00     0.238 A 
ATOM      4  O   UNL     1      25.569  25.106   3.593  1.00  0.00    -0.285 OA
ATOM      5  C   UNL     1      23.331  24.803   4.143  1.00  0.00     0.111 A 
ATOM      6  C   UNL     1      23.412  23.395   4.261  1.00  0.00     0.134 A 
ATOM      7  C   UNL     1      22.263  22.657   4.588  1.00  0.00     0.093 A 
ATOM      8  C   UNL     1      21.039  23.301   4.797  1.00  0.00     0.123 A 
ATOM      9  C   UNL     1      20.955  24.690   4.683  1.00  0.00     0.094 A 
ATOM     10  C   UNL     1      22.087  25.443   4.360  1.00  0.00     0.146 A 
ATOM     11  O   UNL     1      21.980  26.762   4.262  1.00  0.00    -0.452 OA
ENDROOT
BRANCH   1  12
ATOM     12  C   UNL     1      22.753  29.018   3.897  1.00  0.00     0.025 A 
ATOM     13  C   UNL     1      21.880  29.567   2.941  1.00  0.00     0.016 A 
ATOM     14  C   UNL     1      21.677  30.948   2.881  1.00  0.00     0.051 A 
ATOM     15  C   UNL     1      22.354  31.800   3.764  1.00  0.00     0.157 A 
ATOM     16  C   UNL     1      23.443  29.878   4.766  1.00  0.00     0.062 A 
ATOM     17  C   UNL     1      23.241  31.265   4.706  1.00  0.00     0.158 A 
BRANCH  15  18
ATOM     18  O   UNL     1      22.153  33.178   3.708  1.00  0.00    -0.504 OA
ATOM     19  H   UNL     1      21.253  33.592   3.926  1.00  0.00     0.293 HD
ENDBRANCH  15  18
BRANCH  17  20
ATOM     20  O   UNL     1      23.917  32.115   5.579  1.00  0.00    -0.504 OA
ATOM     21  H   UNL     1      24.265  31.789   6.473  1.00  0.00     0.293 HD
ENDBRANCH  17  20
ENDBRANCH   1  12
BRANCH   2  22
ATOM     22  O   UNL     1      25.337  27.824   3.332  1.00  0.00    -0.502 OA
ATOM     23  H   UNL     1      26.269  27.462   3.166  1.00  0.00     0.293 HD
ENDBRANCH   2  22
BRANCH   6  24
ATOM     24  O   UNL     1      24.618  22.725   4.057  1.00  0.00    -0.507 OA
ATOM     25  H   UNL     1      24.905  22.413   3.136  1.00  0.00     0.293 HD
ENDBRANCH   6  24
BRANCH   8  26
ATOM     26  O   UNL     1      19.898  22.570   5.120  1.00  0.00    -0.508 OA
ATOM     27  H   UNL     1      18.991  22.805   4.733  1.00  0.00     0.293 HD
ENDBRANCH   8  26
TORSDOF 6
ENDMDL
MODEL 6
REMARK VINA RESULT:    -4.043      5.576      7.456
REMARK INTER + INTRA:          -5.196
REMARK INTER:                  -5.419
REMARK INTRA:                   0.223
REMARK UNBOUND:                -0.325
REMARK SMILES O=c1c(O)c(-c2ccc(O)c(O)c2)oc2cc(O)cc(O)c12
REMARK SMILES IDX 5 1 3 2 2 3 1 4 22 5 20 6 19 7 17 8 16 9 15 10 14 11 6 12
REMARK SMILES IDX 7 13 8 14 9 15 13 16 11 17 10 18 12 20 4 22 21 24 18 26
REMARK H PARENT 10 19 12 21 4 23 21 25 18 27
REMARK Flexibility Score: inf
ROOT
ATOM      1  C   UNL     1      22.283  27.290   4.414  1.00  0.00     0.180 A 
ATOM      2  C   UNL     1      23.108  26.198   4.743  1.00  0.00     0.208 A 
ATOM      3  C   UNL     1      22.583  24.898   4.654  1.00  0.00     0.238 A 
ATOM      4  O   UNL     1      23.309  23.913   4.956  1.00  0.00    -0.285 OA
ATOM      5  C   UNL     1      21.254  24.713   4.220  1.00  0.00     0.111 A 
ATOM      6  C   UNL     1      20.650  23.437   4.099  1.00  0.00     0.134 A 
ATOM      7  C   UNL     1      19.324  23.335   3.651  1.00  0.00     0.093 A 
ATOM      8  C   UNL     1      18.593  24.482   3.321  1.00  0.00     0.123 A 
ATOM      9  C   UNL     1      19.184  25.741   3.440  1.00  0.00     0.094 A 
ATOM     10  C   UNL     1      20.503  25.864   3.886  1.00  0.00     0.146 A 
ATOM     11  O   UNL     1      21.038  27.074   3.995  1.00  0.00    -0.452 OA
ENDROOT
BRANCH   1  12
ATOM     12  C   UNL     1      22.757  28.690   4.501  1.00  0.00     0.025 A 
ATOM     13  C   UNL     1      23.711  29.081   5.457  1.00  0.00     0.016 A 
ATOM     14  C   UNL     1      24.127  30.413   5.536  1.00  0.00     0.051 A 
ATOM     15  C   UNL     1      23.586  31.374   4.672  1.00  0.00     0.157 A 
ATOM     16  C   UNL     1      22.203  29.661   3.651  1.00  0.00     0.062 A 
ATOM     17  C   UNL     1      22.620  30.998   3.729  1.00  0.00     0.158 A 
BRANCH  15  18
ATOM     18  O   UNL     1      23.999  32.703   4.745  1.00  0.00    -0.504 OA
ATOM     19  H   UNL     1      23.403  33.423   5.137  1.00  0.00     0.293 HD
ENDBRANCH  15  18
BRANCH  17  20
ATOM     20  O   UNL     1      22.079  31.957   2.875  1.00  0.00    -0.504 OA
ATOM     21  H   UNL     1      21.086  32.159   2.867  1.00  0.00     0.293 HD
ENDBRANCH  17  20
ENDBRANCH   1  12
BRANCH   2  22
ATOM     22  O   UNL     1      24.436  26.406   5.123  1.00  0.00    -0.502 OA
ATOM     23  H   UNL     1      25.039  25.651   5.427  1.00  0.00     0.293 HD
ENDBRANCH   2  22
BRANCH   6  24
ATOM     24  O   UNL     1      21.355  22.276   4.419  1.00  0.00    -0.507 OA
ATOM     25  H   UNL     1      21.225  21.802   5.305  1.00  0.00     0.293 HD
ENDBRANCH   6  24
BRANCH   8  26
ATOM     26  O   UNL     1      17.277  24.381   2.875  1.00  0.00    -0.508 OA
ATOM     27  H   UNL     1      16.501  24.709   3.439  1.00  0.00     0.293 HD
ENDBRANCH   8  26
TORSDOF 6
ENDMDL
MODEL 7
REMARK VINA RESULT:    -4.035      4.958      6.877
REMARK INTER + INTRA:          -5.186
REMARK INTER:                  -5.424
REMARK INTRA:                   0.237
REMARK UNBOUND:                -0.325
REMARK SMILES O=c1c(O)c(-c2ccc(O)c(O)c2)oc2cc(O)cc(O)c12
REMARK SMILES IDX 5 1 3 2 2 3 1 4 22 5 20 6 19 7 17 8 16 9 15 10 14 11 6 12
REMARK SMILES IDX 7 13 8 14 9 15 13 16 11 17 10 18 12 20 4 22 21 24 18 26
REMARK H PARENT 10 19 12 21 4 23 21 25 18 27
REMARK Flexibility Score: inf
ROOT
ATOM      1  C   UNL     1      22.037  27.205   4.286  1.00  0.00     0.180 A 
ATOM      2  C   UNL     1      20.702  26.963   3.910  1.00  0.00     0.208 A 
ATOM      3  C   UNL     1      20.267  25.635   3.766  1.00  0.00     0.238 A 
ATOM      4  O   UNL     1      19.077  25.406   3.419  1.00  0.00    -0.285 OA
ATOM      5  C   UNL     1      21.164  24.577   4.021  1.00  0.00     0.111 A 
ATOM      6  C   UNL     1      20.804  23.212   3.903  1.00  0.00     0.134 A 
ATOM      7  C   UNL     1      21.752  22.216   4.183  1.00  0.00     0.093 A 
ATOM      8  C   UNL     1      23.050  22.559   4.578  1.00  0.00     0.123 A 
ATOM      9  C   UNL     1      23.409  23.903   4.694  1.00  0.00     0.094 A 
ATOM     10  C   UNL     1      22.480  24.910   4.418  1.00  0.00     0.146 A 
ATOM     11  O   UNL     1      22.850  26.180   4.532  1.00  0.00    -0.452 OA
ENDROOT
BRANCH   1  12
ATOM     12  C   UNL     1      22.577  28.575   4.440  1.00  0.00     0.025 A 
ATOM     13  C   UNL     1      23.494  28.890   5.459  1.00  0.00     0.016 A 
ATOM     14  C   UNL     1      23.972  30.196   5.599  1.00  0.00     0.051 A 
ATOM     15  C   UNL     1      23.530  31.206   4.735  1.00  0.00     0.157 A 
ATOM     16  C   UNL     1      22.122  29.596   3.590  1.00  0.00     0.062 A 
ATOM     17  C   UNL     1      22.602  30.906   3.730  1.00  0.00     0.158 A 
BRANCH  15  18
ATOM     18  O   UNL     1      24.007  32.509   4.870  1.00  0.00    -0.504 OA
ATOM     19  H   UNL     1      24.400  32.842   5.743  1.00  0.00     0.293 HD
ENDBRANCH  15  18
BRANCH  17  20
ATOM     20  O   UNL     1      22.159  31.915   2.876  1.00  0.00    -0.504 OA
ATOM     21  H   UNL     1      22.268  31.844   1.870  1.00  0.00     0.293 HD
ENDBRANCH  17  20
ENDBRANCH   1  12
BRANCH   2  22
ATOM     22  O   UNL     1      19.821  28.028   3.712  1.00  0.00    -0.502 OA
ATOM     23  H   UNL     1      19.903  28.902   4.218  1.00  0.00     0.293 HD
ENDBRANCH   2  22
BRANCH   6  24
ATOM     24  O   UNL     1      19.517  22.840   3.513  1.00  0.00    -0.507 OA
ATOM     25  H   UNL     1      18.788  23.527   3.359  1.00  0.00     0.293 HD
ENDBRANCH   6  24
BRANCH   8  26
ATOM     26  O   UNL     1      23.992  21.571   4.857  1.00  0.00    -0.508 OA
ATOM     27  H   UNL     1      24.746  21.729   5.516  1.00  0.00     0.293 HD
ENDBRANCH   8  26
TORSDOF 6
ENDMDL
