MODEL 1
REMARK VINA RESULT:    -4.810      0.000      0.000
REMARK INTER + INTRA:         -16.327
REMARK INTER:                 -12.120
REMARK INTRA:                  -4.207
REMARK UNBOUND:                -4.207
REMARK SMILES CCCCCCCCCCCCCCCCCCCCCCCCCCCC(=O)[O-]
REMARK SMILES IDX 15 1 16 2 17 3 18 4 19 5 20 6 21 7 22 8 23 9 24 10 25 11
REMARK SMILES IDX 26 12 27 13 28 14 29 15 30 16 14 17 13 18 12 19 11 20 10 21
REMARK SMILES IDX 9 22 8 23 7 24 6 25 5 26 4 27 3 28 2 29 1 30
REMARK H PARENT
REMARK Flexibility Score: inf
ROOT
ATOM      1  C   UNL     1     100.231   3.965  24.486  1.00  0.00     0.000 C 
ENDROOT
BRANCH   1   2
ATOM      2  C   UNL     1      99.850   3.892  25.975  1.00  0.00     0.000 C 
BRANCH   2   3
ATOM      3  C   UNL     1     100.628   4.907  26.830  1.00  0.00     0.000 C 
BRANCH   3   4
ATOM      4  C   UNL     1     101.972   4.355  27.335  1.00  0.00     0.000 C 
BRANCH   4   5
ATOM      5  C   UNL     1     103.174   5.272  27.021  1.00  0.00     0.000 C 
BRANCH   5   6
ATOM      6  C   UNL     1     104.518   4.542  27.181  1.00  0.00     0.000 C 
BRANCH   6   7
ATOM      7  C   UNL     1     104.368   3.008  27.092  1.00  0.00     0.000 C 
BRANCH   7   8
ATOM      8  C   UNL     1     105.403   2.332  26.177  1.00  0.00     0.000 C 
BRANCH   8   9
ATOM      9  C   UNL     1     104.755   1.548  25.025  1.00  0.00     0.000 C 
BRANCH   9  10
ATOM     10  C   UNL     1     103.277   1.913  24.801  1.00  0.00     0.000 C 
BRANCH  10  11
ATOM     11  C   UNL     1     102.525   1.027  23.789  1.00  0.00     0.000 C 
BRANCH  11  12
ATOM     12  C   UNL     1     101.262   0.378  24.376  1.00  0.00     0.006 C 
BRANCH  12  13
ATOM     13  C   UNL     1     100.889  -0.894  23.606  1.00  0.00     0.053 C 
BRANCH  13  14
ATOM     14  C   UNL     1     100.806  -2.072  24.527  1.00  0.00     0.041 C 
ATOM     15  O   UNL     1     100.184  -1.984  25.618  1.00  0.00    -0.550 OA
ATOM     16  O   UNL     1     101.416  -3.272  24.177  1.00  0.00    -0.550 OA
ENDBRANCH  13  14
ENDBRANCH  12  13
ENDBRANCH  11  12
ENDBRANCH  10  11
ENDBRANCH   9  10
ENDBRANCH   8   9
ENDBRANCH   7   8
ENDBRANCH   6   7
ENDBRANCH   5   6
ENDBRANCH   4   5
ENDBRANCH   3   4
ENDBRANCH   2   3
ENDBRANCH   1   2
BRANCH   1  17
ATOM     17  C   UNL     1      99.109   3.461  23.562  1.00  0.00     0.000 C 
BRANCH  17  18
ATOM     18  C   UNL     1      98.236   2.380  24.236  1.00  0.00     0.000 C 
BRANCH  18  19
ATOM     19  C   UNL     1      96.722   2.591  24.040  1.00  0.00     0.000 C 
BRANCH  19  20
ATOM     20  C   UNL     1      96.269   4.061  24.040  1.00  0.00     0.000 C 
BRANCH  20  21
ATOM     21  C   UNL     1      95.798   4.595  25.408  1.00  0.00     0.000 C 
BRANCH  21  22
ATOM     22  C   UNL     1      96.634   5.781  25.937  1.00  0.00    -0.000 C 
BRANCH  22  23
ATOM     23  C   UNL     1      96.994   6.785  24.826  1.00  0.00    -0.000 C 
BRANCH  23  24
ATOM     24  C   UNL     1      96.007   7.962  24.750  1.00  0.00    -0.000 C 
BRANCH  24  25
ATOM     25  C   UNL     1      95.560   8.266  23.308  1.00  0.00    -0.000 C 
BRANCH  25  26
ATOM     26  C   UNL     1      94.837   7.072  22.663  1.00  0.00    -0.000 C 
BRANCH  26  27
ATOM     27  C   UNL     1      95.113   6.962  21.153  1.00  0.00    -0.000 C 
BRANCH  27  28
ATOM     28  C   UNL     1      96.339   7.797  20.726  1.00  0.00    -0.000 C 
BRANCH  28  29
ATOM     29  C   UNL     1      97.549   6.940  20.317  1.00  0.00    -0.003 C 
ATOM     30  C   UNL     1      98.308   6.368  21.513  1.00  0.00     0.004 C 
ENDBRANCH  28  29
ENDBRANCH  27  28
ENDBRANCH  26  27
ENDBRANCH  25  26
ENDBRANCH  24  25
ENDBRANCH  23  24
ENDBRANCH  22  23
ENDBRANCH  21  22
ENDBRANCH  20  21
ENDBRANCH  19  20
ENDBRANCH  18  19
ENDBRANCH  17  18
ENDBRANCH   1  17
TORSDOF 26
ENDMDL
MODEL 2
REMARK VINA RESULT:    -4.798      3.299      8.625
REMARK INTER + INTRA:         -16.297
REMARK INTER:                 -12.231
REMARK INTRA:                  -4.066
REMARK UNBOUND:                -4.207
REMARK SMILES CCCCCCCCCCCCCCCCCCCCCCCCCCCC(=O)[O-]
REMARK SMILES IDX 15 1 16 2 17 3 18 4 19 5 20 6 21 7 22 8 23 9 24 10 25 11
REMARK SMILES IDX 26 12 27 13 28 14 29 15 30 16 14 17 13 18 12 19 11 20 10 21
REMARK SMILES IDX 9 22 8 23 7 24 6 25 5 26 4 27 3 28 2 29 1 30
REMARK H PARENT
REMARK Flexibility Score: inf
ROOT
ATOM      1  C   UNL     1      99.763   3.271  23.351  1.00  0.00     0.000 C 
ENDROOT
BRANCH   1   2
ATOM      2  C   UNL     1      98.723   2.325  23.976  1.00  0.00     0.000 C 
BRANCH   2   3
ATOM      3  C   UNL     1      97.402   3.041  24.306  1.00  0.00     0.000 C 
BRANCH   3   4
ATOM      4  C   UNL     1      97.116   3.102  25.816  1.00  0.00     0.000 C 
BRANCH   4   5
ATOM      5  C   UNL     1      97.204   4.526  26.405  1.00  0.00     0.000 C 
BRANCH   5   6
ATOM      6  C   UNL     1      97.579   5.572  25.342  1.00  0.00     0.000 C 
BRANCH   6   7
ATOM      7  C   UNL     1      96.876   6.926  25.577  1.00  0.00     0.000 C 
BRANCH   7   8
ATOM      8  C   UNL     1      95.727   7.212  24.596  1.00  0.00     0.000 C 
BRANCH   8   9
ATOM      9  C   UNL     1      95.505   6.068  23.594  1.00  0.00     0.000 C 
BRANCH   9  10
ATOM     10  C   UNL     1      95.782   6.476  22.137  1.00  0.00     0.000 C 
BRANCH  10  11
ATOM     11  C   UNL     1      97.249   6.346  21.683  1.00  0.00     0.000 C 
BRANCH  11  12
ATOM     12  C   UNL     1      97.668   7.427  20.674  1.00  0.00     0.006 C 
BRANCH  12  13
ATOM     13  C   UNL     1      97.301   7.016  19.244  1.00  0.00     0.053 C 
BRANCH  13  14
ATOM     14  C   UNL     1      98.493   7.095  18.341  1.00  0.00     0.041 C 
ATOM     15  O   UNL     1      99.552   6.480  18.633  1.00  0.00    -0.550 OA
ATOM     16  O   UNL     1      98.433   7.849  17.174  1.00  0.00    -0.550 OA
ENDBRANCH  13  14
ENDBRANCH  12  13
ENDBRANCH  11  12
ENDBRANCH  10  11
ENDBRANCH   9  10
ENDBRANCH   8   9
ENDBRANCH   7   8
ENDBRANCH   6   7
ENDBRANCH   5   6
ENDBRANCH   4   5
ENDBRANCH   3   4
ENDBRANCH   2   3
ENDBRANCH   1   2
BRANCH   1  17
ATOM     17  C   UNL     1     100.826   3.733  24.363  1.00  0.00     0.000 C 
BRANCH  17  18
ATOM     18  C   UNL     1     100.799   2.900  25.663  1.00  0.00     0.000 C 
BRANCH  18  19
ATOM     19  C   UNL     1     100.833   3.750  26.948  1.00  0.00     0.000 C 
BRANCH  19  20
ATOM     20  C   UNL     1     102.190   3.772  27.672  1.00  0.00     0.000 C 
BRANCH  20  21
ATOM     21  C   UNL     1     103.200   4.803  27.129  1.00  0.00     0.000 C 
BRANCH  21  22
ATOM     22  C   UNL     1     104.420   4.169  26.424  1.00  0.00    -0.000 C 
BRANCH  22  23
ATOM     23  C   UNL     1     104.340   2.632  26.383  1.00  0.00    -0.000 C 
BRANCH  23  24
ATOM     24  C   UNL     1     105.558   1.994  25.694  1.00  0.00    -0.000 C 
BRANCH  24  25
ATOM     25  C   UNL     1     105.165   1.132  24.479  1.00  0.00    -0.000 C 
BRANCH  25  26
ATOM     26  C   UNL     1     103.662   1.223  24.168  1.00  0.00    -0.000 C 
BRANCH  26  27
ATOM     27  C   UNL     1     103.173   0.062  23.283  1.00  0.00    -0.000 C 
BRANCH  27  28
ATOM     28  C   UNL     1     101.636   0.050  23.140  1.00  0.00    -0.000 C 
BRANCH  28  29
ATOM     29  C   UNL     1     100.973  -1.179  23.785  1.00  0.00    -0.003 C 
ATOM     30  C   UNL     1     100.193  -0.842  25.054  1.00  0.00     0.004 C 
ENDBRANCH  28  29
ENDBRANCH  27  28
ENDBRANCH  26  27
ENDBRANCH  25  26
ENDBRANCH  24  25
ENDBRANCH  23  24
ENDBRANCH  22  23
ENDBRANCH  21  22
ENDBRANCH  20  21
ENDBRANCH  19  20
ENDBRANCH  18  19
ENDBRANCH  17  18
ENDBRANCH   1  17
TORSDOF 26
ENDMDL
MODEL 3
REMARK VINA RESULT:    -4.724      3.562      8.682
REMARK INTER + INTRA:         -16.110
REMARK INTER:                 -12.021
REMARK INTRA:                  -4.090
REMARK UNBOUND:                -4.207
REMARK SMILES CCCCCCCCCCCCCCCCCCCCCCCCCCCC(=O)[O-]
REMARK SMILES IDX 15 1 16 2 17 3 18 4 19 5 20 6 21 7 22 8 23 9 24 10 25 11
REMARK SMILES IDX 26 12 27 13 28 14 29 15 30 16 14 17 13 18 12 19 11 20 10 21
REMARK SMILES IDX 9 22 8 23 7 24 6 25 5 26 4 27 3 28 2 29 1 30
REMARK H PARENT
REMARK Flexibility Score: inf
ROOT
ATOM      1  C   UNL     1      96.672   2.632  23.974  1.00  0.00     0.000 C 
ENDROOT
BRANCH   1   2
ATOM      2  C   UNL     1      95.999   3.778  24.748  1.00  0.00     0.000 C 
BRANCH   2   3
ATOM      3  C   UNL     1      96.729   4.106  26.062  1.00  0.00     0.000 C 
BRANCH   3   4
ATOM      4  C   UNL     1      96.449   5.534  26.561  1.00  0.00     0.000 C 
BRANCH   4   5
ATOM      5  C   UNL     1      97.675   6.467  26.486  1.00  0.00     0.000 C 
BRANCH   5   6
ATOM      6  C   UNL     1      97.408   7.708  25.616  1.00  0.00     0.000 C 
BRANCH   6   7
ATOM      7  C   UNL     1      96.088   7.596  24.824  1.00  0.00     0.000 C 
BRANCH   7   8
ATOM      8  C   UNL     1      96.284   7.390  23.313  1.00  0.00     0.000 C 
BRANCH   8   9
ATOM      9  C   UNL     1      95.025   6.842  22.621  1.00  0.00     0.000 C 
BRANCH   9  10
ATOM     10  C   UNL     1      94.472   7.785  21.538  1.00  0.00     0.000 C 
BRANCH  10  11
ATOM     11  C   UNL     1      94.290   7.153  20.144  1.00  0.00     0.000 C 
BRANCH  11  12
ATOM     12  C   UNL     1      95.511   7.343  19.230  1.00  0.00     0.006 C 
BRANCH  12  13
ATOM     13  C   UNL     1      95.938   8.814  19.181  1.00  0.00     0.053 C 
BRANCH  13  14
ATOM     14  C   UNL     1      97.430   8.940  19.201  1.00  0.00     0.041 C 
ATOM     15  O   UNL     1      98.088   8.544  20.199  1.00  0.00    -0.550 OA
ATOM     16  O   UNL     1      98.095   9.494  18.113  1.00  0.00    -0.550 OA
ENDBRANCH  13  14
ENDBRANCH  12  13
ENDBRANCH  11  12
ENDBRANCH  10  11
ENDBRANCH   9  10
ENDBRANCH   8   9
ENDBRANCH   7   8
ENDBRANCH   6   7
ENDBRANCH   5   6
ENDBRANCH   4   5
ENDBRANCH   3   4
ENDBRANCH   2   3
ENDBRANCH   1   2
BRANCH   1  17
ATOM     17  C   UNL     1      97.636   1.812  24.849  1.00  0.00     0.000 C 
BRANCH  17  18
ATOM     18  C   UNL     1      98.578   0.922  24.009  1.00  0.00     0.000 C 
BRANCH  18  19
ATOM     19  C   UNL     1      99.530   0.053  24.852  1.00  0.00     0.000 C 
BRANCH  19  20
ATOM     20  C   UNL     1     100.675  -0.604  24.061  1.00  0.00     0.000 C 
BRANCH  20  21
ATOM     21  C   UNL     1     101.531   0.371  23.227  1.00  0.00     0.000 C 
BRANCH  21  22
ATOM     22  C   UNL     1     103.040   0.313  23.555  1.00  0.00    -0.000 C 
BRANCH  22  23
ATOM     23  C   UNL     1     103.639   1.710  23.802  1.00  0.00    -0.000 C 
BRANCH  23  24
ATOM     24  C   UNL     1     104.515   1.763  25.065  1.00  0.00    -0.000 C 
BRANCH  24  25
ATOM     25  C   UNL     1     103.810   2.458  26.244  1.00  0.00    -0.000 C 
BRANCH  25  26
ATOM     26  C   UNL     1     102.843   3.558  25.773  1.00  0.00    -0.000 C 
BRANCH  26  27
ATOM     27  C   UNL     1     101.388   3.279  26.187  1.00  0.00    -0.000 C 
BRANCH  27  28
ATOM     28  C   UNL     1     100.383   4.133  25.384  1.00  0.00    -0.000 C 
BRANCH  28  29
ATOM     29  C   UNL     1     100.446   3.885  23.867  1.00  0.00    -0.003 C 
ATOM     30  C   UNL     1      99.414   4.695  23.084  1.00  0.00     0.004 C 
ENDBRANCH  28  29
ENDBRANCH  27  28
ENDBRANCH  26  27
ENDBRANCH  25  26
ENDBRANCH  24  25
ENDBRANCH  23  24
ENDBRANCH  22  23
ENDBRANCH  21  22
ENDBRANCH  20  21
ENDBRANCH  19  20
ENDBRANCH  18  19
ENDBRANCH  17  18
ENDBRANCH   1  17
TORSDOF 26
ENDMDL
MODEL 4
REMARK VINA RESULT:    -4.700      3.388      8.919
REMARK INTER + INTRA:         -16.051
REMARK INTER:                 -11.682
REMARK INTRA:                  -4.369
REMARK UNBOUND:                -4.207
REMARK SMILES CCCCCCCCCCCCCCCCCCCCCCCCCCCC(=O)[O-]
REMARK SMILES IDX 15 1 16 2 17 3 18 4 19 5 20 6 21 7 22 8 23 9 24 10 25 11
REMARK SMILES IDX 26 12 27 13 28 14 29 15 30 16 14 17 13 18 12 19 11 20 10 21
REMARK SMILES IDX 9 22 8 23 7 24 6 25 5 26 4 27 3 28 2 29 1 30
REMARK H PARENT
REMARK Flexibility Score: inf
ROOT
ATOM      1  C   UNL     1      99.526   3.713  25.803  1.00  0.00     0.000 C 
ENDROOT
BRANCH   1   2
ATOM      2  C   UNL     1      99.777   4.460  24.482  1.00  0.00     0.000 C 
BRANCH   2   3
ATOM      3  C   UNL     1      98.552   4.436  23.553  1.00  0.00     0.000 C 
BRANCH   3   4
ATOM      4  C   UNL     1      97.480   3.429  24.005  1.00  0.00     0.000 C 
BRANCH   4   5
ATOM      5  C   UNL     1      96.075   4.050  24.162  1.00  0.00     0.000 C 
BRANCH   5   6
ATOM      6  C   UNL     1      95.879   4.702  25.541  1.00  0.00     0.000 C 
BRANCH   6   7
ATOM      7  C   UNL     1      95.685   6.230  25.446  1.00  0.00     0.000 C 
BRANCH   7   8
ATOM      8  C   UNL     1      96.984   7.036  25.615  1.00  0.00     0.000 C 
BRANCH   8   9
ATOM      9  C   UNL     1      97.057   8.248  24.673  1.00  0.00     0.000 C 
BRANCH   9  10
ATOM     10  C   UNL     1      97.199   7.856  23.192  1.00  0.00     0.000 C 
BRANCH  10  11
ATOM     11  C   UNL     1      95.969   8.146  22.312  1.00  0.00     0.000 C 
BRANCH  11  12
ATOM     12  C   UNL     1      95.275   6.872  21.805  1.00  0.00     0.006 C 
BRANCH  12  13
ATOM     13  C   UNL     1      94.642   7.101  20.428  1.00  0.00     0.053 C 
BRANCH  13  14
ATOM     14  C   UNL     1      95.649   7.638  19.458  1.00  0.00     0.041 C 
ATOM     15  O   UNL     1      95.501   8.785  18.959  1.00  0.00    -0.550 OA
ATOM     16  O   UNL     1      96.753   6.870  19.106  1.00  0.00    -0.550 OA
ENDBRANCH  13  14
ENDBRANCH  12  13
ENDBRANCH  11  12
ENDBRANCH  10  11
ENDBRANCH   9  10
ENDBRANCH   8   9
ENDBRANCH   7   8
ENDBRANCH   6   7
ENDBRANCH   5   6
ENDBRANCH   4   5
ENDBRANCH   3   4
ENDBRANCH   2   3
ENDBRANCH   1   2
BRANCH   1  17
ATOM     17  C   UNL     1     100.787   3.624  26.682  1.00  0.00     0.000 C 
BRANCH  17  18
ATOM     18  C   UNL     1     101.798   4.748  26.370  1.00  0.00     0.000 C 
BRANCH  18  19
ATOM     19  C   UNL     1     103.010   4.777  27.322  1.00  0.00     0.000 C 
BRANCH  19  20
ATOM     20  C   UNL     1     104.345   5.154  26.656  1.00  0.00     0.000 C 
BRANCH  20  21
ATOM     21  C   UNL     1     105.517   4.200  26.964  1.00  0.00     0.000 C 
BRANCH  21  22
ATOM     22  C   UNL     1     105.128   2.706  26.938  1.00  0.00    -0.000 C 
BRANCH  22  23
ATOM     23  C   UNL     1     105.881   1.923  25.846  1.00  0.00    -0.000 C 
BRANCH  23  24
ATOM     24  C   UNL     1     104.993   1.593  24.635  1.00  0.00    -0.000 C 
BRANCH  24  25
ATOM     25  C   UNL     1     103.492   1.750  24.944  1.00  0.00    -0.000 C 
BRANCH  25  26
ATOM     26  C   UNL     1     102.703   2.269  23.730  1.00  0.00    -0.000 C 
BRANCH  26  27
ATOM     27  C   UNL     1     101.550   1.331  23.332  1.00  0.00    -0.000 C 
BRANCH  27  28
ATOM     28  C   UNL     1     101.576   0.010  24.130  1.00  0.00    -0.000 C 
BRANCH  28  29
ATOM     29  C   UNL     1     100.235  -0.320  24.807  1.00  0.00    -0.003 C 
ATOM     30  C   UNL     1      99.047   0.395  24.163  1.00  0.00     0.004 C 
ENDBRANCH  28  29
ENDBRANCH  27  28
ENDBRANCH  26  27
ENDBRANCH  25  26
ENDBRANCH  24  25
ENDBRANCH  23  24
ENDBRANCH  22  23
ENDBRANCH  21  22
ENDBRANCH  20  21
ENDBRANCH  19  20
ENDBRANCH  18  19
ENDBRANCH  17  18
ENDBRANCH   1  17
TORSDOF 26
ENDMDL
MODEL 5
REMARK VINA RESULT:    -4.663      3.285      8.887
REMARK INTER + INTRA:         -15.957
REMARK INTER:                 -12.093
REMARK INTRA:                  -3.864
REMARK UNBOUND:                -4.207
REMARK SMILES CCCCCCCCCCCCCCCCCCCCCCCCCCCC(=O)[O-]
REMARK SMILES IDX 15 1 16 2 17 3 18 4 19 5 20 6 21 7 22 8 23 9 24 10 25 11
REMARK SMILES IDX 26 12 27 13 28 14 29 15 30 16 14 17 13 18 12 19 11 20 10 21
REMARK SMILES IDX 9 22 8 23 7 24 6 25 5 26 4 27 3 28 2 29 1 30
REMARK H PARENT
REMARK Flexibility Score: inf
ROOT
ATOM      1  C   UNL     1      99.637   4.348  23.995  1.00  0.00     0.000 C 
ENDROOT
BRANCH   1   2
ATOM      2  C   UNL     1      98.567   3.267  23.759  1.00  0.00     0.000 C 
BRANCH   2   3
ATOM      3  C   UNL     1      98.285   2.435  25.023  1.00  0.00     0.000 C 
BRANCH   3   4
ATOM      4  C   UNL     1      97.222   3.073  25.933  1.00  0.00     0.000 C 
BRANCH   4   5
ATOM      5  C   UNL     1      97.817   3.864  27.118  1.00  0.00     0.000 C 
BRANCH   5   6
ATOM      6  C   UNL     1      97.135   5.231  27.304  1.00  0.00     0.000 C 
BRANCH   6   7
ATOM      7  C   UNL     1      97.964   6.387  26.706  1.00  0.00     0.000 C 
BRANCH   7   8
ATOM      8  C   UNL     1      97.430   6.907  25.361  1.00  0.00     0.000 C 
BRANCH   8   9
ATOM      9  C   UNL     1      96.003   6.421  25.062  1.00  0.00     0.000 C 
BRANCH   9  10
ATOM     10  C   UNL     1      95.800   6.005  23.595  1.00  0.00     0.000 C 
BRANCH  10  11
ATOM     11  C   UNL     1      94.676   6.749  22.848  1.00  0.00     0.000 C 
BRANCH  11  12
ATOM     12  C   UNL     1      95.082   8.160  22.394  1.00  0.00     0.006 C 
BRANCH  12  13
ATOM     13  C   UNL     1      96.459   8.146  21.719  1.00  0.00     0.053 C 
BRANCH  13  14
ATOM     14  C   UNL     1      96.358   7.665  20.305  1.00  0.00     0.041 C 
ATOM     15  O   UNL     1      95.428   8.074  19.560  1.00  0.00    -0.550 OA
ATOM     16  O   UNL     1      97.293   6.764  19.808  1.00  0.00    -0.550 OA
ENDBRANCH  13  14
ENDBRANCH  12  13
ENDBRANCH  11  12
ENDBRANCH  10  11
ENDBRANCH   9  10
ENDBRANCH   8   9
ENDBRANCH   7   8
ENDBRANCH   6   7
ENDBRANCH   5   6
ENDBRANCH   4   5
ENDBRANCH   3   4
ENDBRANCH   2   3
ENDBRANCH   1   2
BRANCH   1  17
ATOM     17  C   UNL     1     100.901   3.791  24.672  1.00  0.00     0.000 C 
BRANCH  17  18
ATOM     18  C   UNL     1     101.244   4.538  25.979  1.00  0.00     0.000 C 
BRANCH  18  19
ATOM     19  C   UNL     1     102.699   4.342  26.446  1.00  0.00     0.000 C 
BRANCH  19  20
ATOM     20  C   UNL     1     103.125   2.876  26.633  1.00  0.00     0.000 C 
BRANCH  20  21
ATOM     21  C   UNL     1     104.641   2.619  26.510  1.00  0.00     0.000 C 
BRANCH  21  22
ATOM     22  C   UNL     1     105.039   1.830  25.243  1.00  0.00    -0.000 C 
BRANCH  22  23
ATOM     23  C   UNL     1     103.895   1.756  24.215  1.00  0.00    -0.000 C 
BRANCH  23  24
ATOM     24  C   UNL     1     103.721   0.348  23.623  1.00  0.00    -0.000 C 
BRANCH  24  25
ATOM     25  C   UNL     1     102.256   0.032  23.268  1.00  0.00    -0.000 C 
BRANCH  25  26
ATOM     26  C   UNL     1     101.305   0.301  24.447  1.00  0.00    -0.000 C 
BRANCH  26  27
ATOM     27  C   UNL     1     100.213  -0.775  24.579  1.00  0.00    -0.000 C 
BRANCH  27  28
ATOM     28  C   UNL     1     100.802  -2.202  24.576  1.00  0.00    -0.000 C 
BRANCH  28  29
ATOM     29  C   UNL     1     100.511  -2.986  25.866  1.00  0.00    -0.003 C 
ATOM     30  C   UNL     1      99.797  -4.313  25.613  1.00  0.00     0.004 C 
ENDBRANCH  28  29
ENDBRANCH  27  28
ENDBRANCH  26  27
ENDBRANCH  25  26
ENDBRANCH  24  25
ENDBRANCH  23  24
ENDBRANCH  22  23
ENDBRANCH  21  22
ENDBRANCH  20  21
ENDBRANCH  19  20
ENDBRANCH  18  19
ENDBRANCH  17  18
ENDBRANCH   1  17
TORSDOF 26
ENDMDL
MODEL 6
REMARK VINA RESULT:    -4.661      3.515      8.574
REMARK INTER + INTRA:         -15.951
REMARK INTER:                 -11.789
REMARK INTRA:                  -4.162
REMARK UNBOUND:                -4.207
REMARK SMILES CCCCCCCCCCCCCCCCCCCCCCCCCCCC(=O)[O-]
REMARK SMILES IDX 15 1 16 2 17 3 18 4 19 5 20 6 21 7 22 8 23 9 24 10 25 11
REMARK SMILES IDX 26 12 27 13 28 14 29 15 30 16 14 17 13 18 12 19 11 20 10 21
REMARK SMILES IDX 9 22 8 23 7 24 6 25 5 26 4 27 3 28 2 29 1 30
REMARK H PARENT
REMARK Flexibility Score: inf
ROOT
ATOM      1  C   UNL     1      98.809   2.862  26.433  1.00  0.00     0.000 C 
ENDROOT
BRANCH   1   2
ATOM      2  C   UNL     1      97.904   2.620  25.212  1.00  0.00     0.000 C 
BRANCH   2   3
ATOM      3  C   UNL     1      98.189   3.607  24.067  1.00  0.00     0.000 C 
BRANCH   3   4
ATOM      4  C   UNL     1      97.025   4.581  23.815  1.00  0.00     0.000 C 
BRANCH   4   5
ATOM      5  C   UNL     1      95.817   4.357  24.749  1.00  0.00     0.000 C 
BRANCH   5   6
ATOM      6  C   UNL     1      95.497   5.602  25.594  1.00  0.00     0.000 C 
BRANCH   6   7
ATOM      7  C   UNL     1      96.444   6.781  25.282  1.00  0.00     0.000 C 
BRANCH   7   8
ATOM      8  C   UNL     1      95.724   8.043  24.780  1.00  0.00     0.000 C 
BRANCH   8   9
ATOM      9  C   UNL     1      95.894   8.262  23.268  1.00  0.00     0.000 C 
BRANCH   9  10
ATOM     10  C   UNL     1      94.943   7.398  22.421  1.00  0.00     0.000 C 
BRANCH  10  11
ATOM     11  C   UNL     1      95.400   7.141  20.972  1.00  0.00     0.000 C 
BRANCH  11  12
ATOM     12  C   UNL     1      96.897   6.811  20.860  1.00  0.00     0.006 C 
BRANCH  12  13
ATOM     13  C   UNL     1      97.354   6.820  19.397  1.00  0.00     0.053 C 
BRANCH  13  14
ATOM     14  C   UNL     1      98.050   8.103  19.062  1.00  0.00     0.041 C 
ATOM     15  O   UNL     1      97.651   9.190  19.557  1.00  0.00    -0.550 OA
ATOM     16  O   UNL     1      99.143   8.097  18.203  1.00  0.00    -0.550 OA
ENDBRANCH  13  14
ENDBRANCH  12  13
ENDBRANCH  11  12
ENDBRANCH  10  11
ENDBRANCH   9  10
ENDBRANCH   8   9
ENDBRANCH   7   8
ENDBRANCH   6   7
ENDBRANCH   5   6
ENDBRANCH   4   5
ENDBRANCH   3   4
ENDBRANCH   2   3
ENDBRANCH   1   2
BRANCH   1  17
ATOM     17  C   UNL     1      98.108   3.669  27.539  1.00  0.00     0.000 C 
BRANCH  17  18
ATOM     18  C   UNL     1      98.610   5.127  27.608  1.00  0.00     0.000 C 
BRANCH  18  19
ATOM     19  C   UNL     1     100.003   5.337  26.983  1.00  0.00     0.000 C 
BRANCH  19  20
ATOM     20  C   UNL     1     101.183   5.092  27.939  1.00  0.00     0.000 C 
BRANCH  20  21
ATOM     21  C   UNL     1     102.540   5.636  27.448  1.00  0.00     0.000 C 
BRANCH  21  22
ATOM     22  C   UNL     1     103.389   4.596  26.683  1.00  0.00    -0.000 C 
BRANCH  22  23
ATOM     23  C   UNL     1     102.912   3.153  26.933  1.00  0.00    -0.000 C 
BRANCH  23  24
ATOM     24  C   UNL     1     102.749   2.350  25.632  1.00  0.00    -0.000 C 
BRANCH  24  25
ATOM     25  C   UNL     1     101.962   3.121  24.556  1.00  0.00    -0.000 C 
BRANCH  25  26
ATOM     26  C   UNL     1     101.638   2.243  23.336  1.00  0.00    -0.000 C 
BRANCH  26  27
ATOM     27  C   UNL     1     101.946   0.755  23.583  1.00  0.00    -0.000 C 
BRANCH  27  28
ATOM     28  C   UNL     1     100.960  -0.172  22.839  1.00  0.00    -0.000 C 
BRANCH  28  29
ATOM     29  C   UNL     1     100.651  -1.471  23.603  1.00  0.00    -0.003 C 
ATOM     30  C   UNL     1     100.266  -1.230  25.062  1.00  0.00     0.004 C 
ENDBRANCH  28  29
ENDBRANCH  27  28
ENDBRANCH  26  27
ENDBRANCH  25  26
ENDBRANCH  24  25
ENDBRANCH  23  24
ENDBRANCH  22  23
ENDBRANCH  21  22
ENDBRANCH  20  21
ENDBRANCH  19  20
ENDBRANCH  18  19
ENDBRANCH  17  18
ENDBRANCH   1  17
TORSDOF 26
ENDMDL
MODEL 7
REMARK VINA RESULT:    -4.658      3.408      8.538
REMARK INTER + INTRA:         -15.946
REMARK INTER:                 -11.606
REMARK INTRA:                  -4.340
REMARK UNBOUND:                -4.207
REMARK SMILES CCCCCCCCCCCCCCCCCCCCCCCCCCCC(=O)[O-]
REMARK SMILES IDX 15 1 16 2 17 3 18 4 19 5 20 6 21 7 22 8 23 9 24 10 25 11
REMARK SMILES IDX 26 12 27 13 28 14 29 15 30 16 14 17 13 18 12 19 11 20 10 21
REMARK SMILES IDX 9 22 8 23 7 24 6 25 5 26 4 27 3 28 2 29 1 30
REMARK H PARENT
REMARK Flexibility Score: inf
ROOT
ATOM      1  C   UNL     1      98.663   2.443  23.972  1.00  0.00     0.000 C 
ENDROOT
BRANCH   1   2
ATOM      2  C   UNL     1      99.687   3.521  23.579  1.00  0.00     0.000 C 
BRANCH   2   3
ATOM      3  C   UNL     1      99.022   4.868  23.245  1.00  0.00     0.000 C 
BRANCH   3   4
ATOM      4  C   UNL     1      97.498   4.849  23.456  1.00  0.00     0.000 C 
BRANCH   4   5
ATOM      5  C   UNL     1      96.978   6.025  24.310  1.00  0.00     0.000 C 
BRANCH   5   6
ATOM      6  C   UNL     1      97.129   7.377  23.591  1.00  0.00     0.000 C 
BRANCH   6   7
ATOM      7  C   UNL     1      95.771   8.075  23.362  1.00  0.00     0.000 C 
BRANCH   7   8
ATOM      8  C   UNL     1      94.653   7.127  22.898  1.00  0.00     0.000 C 
BRANCH   8   9
ATOM      9  C   UNL     1      94.750   6.783  21.403  1.00  0.00     0.000 C 
BRANCH   9  10
ATOM     10  C   UNL     1      94.611   8.012  20.489  1.00  0.00     0.000 C 
BRANCH  10  11
ATOM     11  C   UNL     1      95.702   8.160  19.412  1.00  0.00     0.000 C 
BRANCH  11  12
ATOM     12  C   UNL     1      97.106   8.370  19.999  1.00  0.00     0.006 C 
BRANCH  12  13
ATOM     13  C   UNL     1      97.986   7.134  19.776  1.00  0.00     0.053 C 
BRANCH  13  14
ATOM     14  C   UNL     1      98.785   7.266  18.517  1.00  0.00     0.041 C 
ATOM     15  O   UNL     1      98.689   6.398  17.610  1.00  0.00    -0.550 OA
ATOM     16  O   UNL     1      99.638   8.351  18.345  1.00  0.00    -0.550 OA
ENDBRANCH  13  14
ENDBRANCH  12  13
ENDBRANCH  11  12
ENDBRANCH  10  11
ENDBRANCH   9  10
ENDBRANCH   8   9
ENDBRANCH   7   8
ENDBRANCH   6   7
ENDBRANCH   5   6
ENDBRANCH   4   5
ENDBRANCH   3   4
ENDBRANCH   2   3
ENDBRANCH   1   2
BRANCH   1  17
ATOM     17  C   UNL     1      99.067   1.678  25.244  1.00  0.00     0.000 C 
BRANCH  17  18
ATOM     18  C   UNL     1      99.359   2.625  26.429  1.00  0.00     0.000 C 
BRANCH  18  19
ATOM     19  C   UNL     1      98.141   3.456  26.877  1.00  0.00     0.000 C 
BRANCH  19  20
ATOM     20  C   UNL     1      98.479   4.854  27.423  1.00  0.00     0.000 C 
BRANCH  20  21
ATOM     21  C   UNL     1      99.740   5.501  26.816  1.00  0.00     0.000 C 
BRANCH  21  22
ATOM     22  C   UNL     1     100.812   5.881  27.862  1.00  0.00    -0.000 C 
BRANCH  22  23
ATOM     23  C   UNL     1     102.242   5.608  27.361  1.00  0.00    -0.000 C 
BRANCH  23  24
ATOM     24  C   UNL     1     102.512   4.112  27.127  1.00  0.00    -0.000 C 
BRANCH  24  25
ATOM     25  C   UNL     1     102.823   3.791  25.653  1.00  0.00    -0.000 C 
BRANCH  25  26
ATOM     26  C   UNL     1     103.188   2.311  25.448  1.00  0.00    -0.000 C 
BRANCH  26  27
ATOM     27  C   UNL     1     102.946   1.839  24.003  1.00  0.00    -0.000 C 
BRANCH  27  28
ATOM     28  C   UNL     1     102.209   0.483  23.951  1.00  0.00    -0.000 C 
BRANCH  28  29
ATOM     29  C   UNL     1     102.964  -0.591  23.152  1.00  0.00    -0.003 C 
ATOM     30  C   UNL     1     104.450  -0.277  22.982  1.00  0.00     0.004 C 
ENDBRANCH  28  29
ENDBRANCH  27  28
ENDBRANCH  26  27
ENDBRANCH  25  26
ENDBRANCH  24  25
ENDBRANCH  23  24
ENDBRANCH  22  23
ENDBRANCH  21  22
ENDBRANCH  20  21
ENDBRANCH  19  20
ENDBRANCH  18  19
ENDBRANCH  17  18
ENDBRANCH   1  17
TORSDOF 26
ENDMDL
MODEL 8
REMARK VINA RESULT:    -4.649      1.237      2.220
REMARK INTER + INTRA:         -15.923
REMARK INTER:                 -11.363
REMARK INTRA:                  -4.559
REMARK UNBOUND:                -4.207
REMARK SMILES CCCCCCCCCCCCCCCCCCCCCCCCCCCC(=O)[O-]
REMARK SMILES IDX 15 1 16 2 17 3 18 4 19 5 20 6 21 7 22 8 23 9 24 10 25 11
REMARK SMILES IDX 26 12 27 13 28 14 29 15 30 16 14 17 13 18 12 19 11 20 10 21
REMARK SMILES IDX 9 22 8 23 7 24 6 25 5 26 4 27 3 28 2 29 1 30
REMARK H PARENT
REMARK Flexibility Score: inf
ROOT
ATOM      1  C   UNL     1      98.002   4.644  23.614  1.00  0.00     0.000 C 
ENDROOT
BRANCH   1   2
ATOM      2  C   UNL     1      99.277   3.795  23.471  1.00  0.00     0.000 C 
BRANCH   2   3
ATOM      3  C   UNL     1     100.318   4.113  24.558  1.00  0.00     0.000 C 
BRANCH   3   4
ATOM      4  C   UNL     1     100.310   3.093  25.709  1.00  0.00     0.000 C 
BRANCH   4   5
ATOM      5  C   UNL     1     101.113   3.550  26.945  1.00  0.00     0.000 C 
BRANCH   5   6
ATOM      6  C   UNL     1     101.888   4.853  26.685  1.00  0.00     0.000 C 
BRANCH   6   7
ATOM      7  C   UNL     1     103.401   4.610  26.500  1.00  0.00     0.000 C 
BRANCH   7   8
ATOM      8  C   UNL     1     103.861   3.201  26.912  1.00  0.00     0.000 C 
BRANCH   8   9
ATOM      9  C   UNL     1     104.551   2.444  25.767  1.00  0.00     0.000 C 
BRANCH   9  10
ATOM     10  C   UNL     1     103.631   1.426  25.072  1.00  0.00     0.000 C 
BRANCH  10  11
ATOM     11  C   UNL     1     103.126   1.837  23.676  1.00  0.00     0.000 C 
BRANCH  11  12
ATOM     12  C   UNL     1     101.895   1.039  23.219  1.00  0.00     0.006 C 
BRANCH  12  13
ATOM     13  C   UNL     1     102.097  -0.463  23.447  1.00  0.00     0.053 C 
BRANCH  13  14
ATOM     14  C   UNL     1     100.860  -1.090  24.011  1.00  0.00     0.041 C 
ATOM     15  O   UNL     1     100.714  -2.341  23.988  1.00  0.00    -0.550 OA
ATOM     16  O   UNL     1      99.865  -0.291  24.564  1.00  0.00    -0.550 OA
ENDBRANCH  13  14
ENDBRANCH  12  13
ENDBRANCH  11  12
ENDBRANCH  10  11
ENDBRANCH   9  10
ENDBRANCH   8   9
ENDBRANCH   7   8
ENDBRANCH   6   7
ENDBRANCH   5   6
ENDBRANCH   4   5
ENDBRANCH   3   4
ENDBRANCH   2   3
ENDBRANCH   1   2
BRANCH   1  17
ATOM     17  C   UNL     1      96.761   3.797  23.948  1.00  0.00     0.000 C 
BRANCH  17  18
ATOM     18  C   UNL     1      96.150   4.168  25.316  1.00  0.00     0.000 C 
BRANCH  18  19
ATOM     19  C   UNL     1      97.157   4.123  26.481  1.00  0.00     0.000 C 
BRANCH  19  20
ATOM     20  C   UNL     1      97.273   5.430  27.285  1.00  0.00     0.000 C 
BRANCH  20  21
ATOM     21  C   UNL     1      98.387   6.386  26.813  1.00  0.00     0.000 C 
BRANCH  21  22
ATOM     22  C   UNL     1      97.899   7.826  26.539  1.00  0.00    -0.000 C 
BRANCH  22  23
ATOM     23  C   UNL     1      97.350   7.996  25.110  1.00  0.00    -0.000 C 
BRANCH  23  24
ATOM     24  C   UNL     1      95.841   7.715  25.019  1.00  0.00    -0.000 C 
BRANCH  24  25
ATOM     25  C   UNL     1      95.362   7.519  23.569  1.00  0.00    -0.000 C 
BRANCH  25  26
ATOM     26  C   UNL     1      96.492   7.751  22.551  1.00  0.00    -0.000 C 
BRANCH  26  27
ATOM     27  C   UNL     1      96.340   6.877  21.294  1.00  0.00    -0.000 C 
BRANCH  27  28
ATOM     28  C   UNL     1      97.660   6.769  20.500  1.00  0.00    -0.000 C 
BRANCH  28  29
ATOM     29  C   UNL     1      97.502   7.098  19.006  1.00  0.00    -0.003 C 
ATOM     30  C   UNL     1      98.803   6.945  18.218  1.00  0.00     0.004 C 
ENDBRANCH  28  29
ENDBRANCH  27  28
ENDBRANCH  26  27
ENDBRANCH  25  26
ENDBRANCH  24  25
ENDBRANCH  23  24
ENDBRANCH  22  23
ENDBRANCH  21  22
ENDBRANCH  20  21
ENDBRANCH  19  20
ENDBRANCH  18  19
ENDBRANCH  17  18
ENDBRANCH   1  17
TORSDOF 26
ENDMDL
MODEL 9
REMARK VINA RESULT:    -4.509      1.442      3.511
REMARK INTER + INTRA:         -15.570
REMARK INTER:                 -11.299
REMARK INTRA:                  -4.271
REMARK UNBOUND:                -4.207
REMARK SMILES CCCCCCCCCCCCCCCCCCCCCCCCCCCC(=O)[O-]
REMARK SMILES IDX 15 1 16 2 17 3 18 4 19 5 20 6 21 7 22 8 23 9 24 10 25 11
REMARK SMILES IDX 26 12 27 13 28 14 29 15 30 16 14 17 13 18 12 19 11 20 10 21
REMARK SMILES IDX 9 22 8 23 7 24 6 25 5 26 4 27 3 28 2 29 1 30
REMARK H PARENT
REMARK Flexibility Score: inf
ROOT
ATOM      1  C   UNL     1      95.766   4.459  24.790  1.00  0.00     0.000 C 
ENDROOT
BRANCH   1   2
ATOM      2  C   UNL     1      97.023   3.782  24.219  1.00  0.00     0.000 C 
BRANCH   2   3
ATOM      3  C   UNL     1      97.363   2.469  24.946  1.00  0.00     0.000 C 
BRANCH   3   4
ATOM      4  C   UNL     1      98.626   2.578  25.817  1.00  0.00     0.000 C 
BRANCH   4   5
ATOM      5  C   UNL     1      99.517   3.789  25.467  1.00  0.00     0.000 C 
BRANCH   5   6
ATOM      6  C   UNL     1     100.037   4.509  26.722  1.00  0.00     0.000 C 
BRANCH   6   7
ATOM      7  C   UNL     1     101.379   3.930  27.218  1.00  0.00     0.000 C 
BRANCH   7   8
ATOM      8  C   UNL     1     102.504   3.978  26.170  1.00  0.00     0.000 C 
BRANCH   8   9
ATOM      9  C   UNL     1     103.453   2.773  26.262  1.00  0.00     0.000 C 
BRANCH   9  10
ATOM     10  C   UNL     1     103.420   1.879  25.011  1.00  0.00     0.000 C 
BRANCH  10  11
ATOM     11  C   UNL     1     102.429   2.315  23.915  1.00  0.00     0.000 C 
BRANCH  11  12
ATOM     12  C   UNL     1     101.622   1.145  23.330  1.00  0.00     0.006 C 
BRANCH  12  13
ATOM     13  C   UNL     1     101.221   0.151  24.425  1.00  0.00     0.053 C 
BRANCH  13  14
ATOM     14  C   UNL     1     100.673  -1.109  23.831  1.00  0.00     0.041 C 
ATOM     15  O   UNL     1     100.269  -1.126  22.638  1.00  0.00    -0.550 OA
ATOM     16  O   UNL     1     100.611  -2.269  24.595  1.00  0.00    -0.550 OA
ENDBRANCH  13  14
ENDBRANCH  12  13
ENDBRANCH  11  12
ENDBRANCH  10  11
ENDBRANCH   9  10
ENDBRANCH   8   9
ENDBRANCH   7   8
ENDBRANCH   6   7
ENDBRANCH   5   6
ENDBRANCH   4   5
ENDBRANCH   3   4
ENDBRANCH   2   3
ENDBRANCH   1   2
BRANCH   1  17
ATOM     17  C   UNL     1      96.090   5.464  25.909  1.00  0.00     0.000 C 
BRANCH  17  18
ATOM     18  C   UNL     1      96.948   6.645  25.406  1.00  0.00     0.000 C 
BRANCH  18  19
ATOM     19  C   UNL     1      96.124   7.871  24.966  1.00  0.00     0.000 C 
BRANCH  19  20
ATOM     20  C   UNL     1      96.293   8.266  23.489  1.00  0.00     0.000 C 
BRANCH  20  21
ATOM     21  C   UNL     1      97.188   7.322  22.662  1.00  0.00     0.000 C 
BRANCH  21  22
ATOM     22  C   UNL     1      96.403   6.392  21.710  1.00  0.00    -0.000 C 
BRANCH  22  23
ATOM     23  C   UNL     1      94.903   6.737  21.660  1.00  0.00    -0.000 C 
BRANCH  23  24
ATOM     24  C   UNL     1      94.474   7.315  20.301  1.00  0.00    -0.000 C 
BRANCH  24  25
ATOM     25  C   UNL     1      94.294   8.844  20.339  1.00  0.00    -0.000 C 
BRANCH  25  26
ATOM     26  C   UNL     1      95.111   9.550  19.244  1.00  0.00    -0.000 C 
BRANCH  26  27
ATOM     27  C   UNL     1      96.218   8.651  18.664  1.00  0.00    -0.000 C 
BRANCH  27  28
ATOM     28  C   UNL     1      97.601   8.968  19.271  1.00  0.00    -0.000 C 
BRANCH  28  29
ATOM     29  C   UNL     1      98.624   7.836  19.085  1.00  0.00    -0.003 C 
ATOM     30  C   UNL     1      98.246   6.865  17.967  1.00  0.00     0.004 C 
ENDBRANCH  28  29
ENDBRANCH  27  28
ENDBRANCH  26  27
ENDBRANCH  25  26
ENDBRANCH  24  25
ENDBRANCH  23  24
ENDBRANCH  22  23
ENDBRANCH  21  22
ENDBRANCH  20  21
ENDBRANCH  19  20
ENDBRANCH  18  19
ENDBRANCH  17  18
ENDBRANCH   1  17
TORSDOF 26
ENDMDL
