MODEL 1
REMARK VINA RESULT:    -7.120      0.000      0.000
REMARK INTER + INTRA:         -10.211
REMARK INTER:                  -9.410
REMARK INTRA:                  -0.801
REMARK UNBOUND:                -0.801
REMARK SMILES CC[C@H](C=C[C@@H](C)[C@@H]1CC[C@H]2[C@H]3CC=C4C[C@H](O)CC[C@]4(C)[C@@H]3CC[C@@]21C)C(C)C
REMARK SMILES IDX 6 1 7 2 5 3 4 4 3 5 2 6 1 7 28 8 29 9 30 10 8 11 9 12 26 13
REMARK SMILES IDX 10 14 11 15 25 16 27 17 12 18 24 19 23 20 13 21 21 22 14 23
REMARK SMILES IDX 15 24 20 25 22 26 16 27 19 28 17 29 18 30
REMARK H PARENT 18 31
REMARK Flexibility Score: inf
ROOT
ATOM      1  C   UNL     1      66.831  45.959   9.953  1.00  0.00     0.012 C 
ATOM      2  C   UNL     1      67.382  44.795   9.101  1.00  0.00     0.012 C 
ENDROOT
BRANCH   1   3
ATOM      3  C   UNL     1      65.335  45.751  10.125  1.00  0.00    -0.028 C 
ATOM      4  C   UNL     1      64.629  44.926   9.332  1.00  0.00    -0.027 C 
BRANCH   4   5
ATOM      5  C   UNL     1      63.159  44.645   9.575  1.00  0.00     0.014 C 
BRANCH   5   6
ATOM      6  C   UNL     1      62.308  45.536   8.635  1.00  0.00     0.004 C 
ATOM      7  C   UNL     1      63.135  46.160   7.506  1.00  0.00     0.004 C 
ENDBRANCH   5   6
BRANCH   5   8
ATOM      8  C   UNL     1      62.867  43.125   9.363  1.00  0.00    -0.011 C 
ATOM      9  C   UNL     1      63.760  42.515   8.266  1.00  0.00     0.008 C 
ATOM     10  C   UNL     1      61.392  42.876   9.000  1.00  0.00     0.008 C 
ENDBRANCH   5   8
ENDBRANCH   4   5
ENDBRANCH   1   3
BRANCH   1  11
ATOM     11  C   UNL     1      67.143  47.410   9.405  1.00  0.00     0.002 C 
ATOM     12  C   UNL     1      66.461  47.753   8.040  1.00  0.00     0.005 C 
ATOM     13  C   UNL     1      68.662  47.712   9.123  1.00  0.00    -0.026 C 
ATOM     14  C   UNL     1      67.542  47.716   6.951  1.00  0.00     0.005 C 
ATOM     15  C   UNL     1      68.787  47.219   7.670  1.00  0.00    -0.001 C 
ATOM     16  C   UNL     1      69.750  47.000  10.018  1.00  0.00     0.007 C 
ATOM     17  C   UNL     1      68.840  49.263   9.257  1.00  0.00     0.012 C 
ATOM     18  C   UNL     1      70.182  47.379   6.995  1.00  0.00     0.000 C 
ATOM     19  C   UNL     1      70.984  46.464   9.228  1.00  0.00     0.005 C 
ATOM     20  C   UNL     1      71.339  47.377   8.027  1.00  0.00     0.003 C 
ATOM     21  C   UNL     1      70.378  48.586   6.070  1.00  0.00     0.031 C 
ATOM     22  C   UNL     1      72.726  47.117   7.330  1.00  0.00    -0.008 C 
ATOM     23  C   UNL     1      71.733  48.493   5.413  1.00  0.00    -0.027 C 
ATOM     24  C   UNL     1      72.785  47.820   5.954  1.00  0.00    -0.065 C 
ATOM     25  C   UNL     1      72.978  45.592   7.110  1.00  0.00     0.014 C 
ATOM     26  C   UNL     1      73.845  47.707   8.232  1.00  0.00     0.016 C 
ATOM     27  C   UNL     1      73.992  47.541   5.076  1.00  0.00     0.063 C 
ATOM     28  C   UNL     1      74.195  45.290   6.213  1.00  0.00     0.033 C 
ATOM     29  C   UNL     1      74.127  46.030   4.859  1.00  0.00     0.118 C 
BRANCH  29  30
ATOM     30  O   UNL     1      73.040  45.561   4.096  1.00  0.00    -0.393 OA
ATOM     31  H   UNL     1      72.626  46.347   3.658  1.00  0.00     0.210 HD
ENDBRANCH  29  30
ENDBRANCH   1  11
TORSDOF 6
ENDMDL
MODEL 2
REMARK VINA RESULT:    -6.787      2.563      7.142
REMARK INTER + INTRA:          -9.770
REMARK INTER:                  -7.853
REMARK INTRA:                  -1.917
REMARK UNBOUND:                -0.801
REMARK SMILES CC[C@H](C=C[C@@H](C)[C@@H]1CC[C@H]2[C@H]3CC=C4C[C@H](O)CC[C@]4(C)[C@@H]3CC[C@@]21C)C(C)C
REMARK SMILES IDX 6 1 7 2 5 3 4 4 3 5 2 6 1 7 28 8 29 9 30 10 8 11 9 12 26 13
REMARK SMILES IDX 10 14 11 15 25 16 27 17 12 18 24 19 23 20 13 21 21 22 14 23
REMARK SMILES IDX 15 24 20 25 22 26 16 27 19 28 17 29 18 30
REMARK H PARENT 18 31
REMARK Flexibility Score: inf
ROOT
ATOM      1  C   UNL     1      74.013  47.472   7.715  1.00  0.00     0.012 C 
ATOM      2  C   UNL     1      74.812  47.532   9.035  1.00  0.00     0.012 C 
ENDROOT
BRANCH   1   3
ATOM      3  C   UNL     1      72.602  47.963   7.996  1.00  0.00    -0.028 C 
ATOM      4  C   UNL     1      72.011  48.915   7.254  1.00  0.00    -0.027 C 
BRANCH   4   5
ATOM      5  C   UNL     1      70.569  49.325   7.476  1.00  0.00     0.014 C 
BRANCH   5   6
ATOM      6  C   UNL     1      69.903  49.613   6.107  1.00  0.00     0.004 C 
ATOM      7  C   UNL     1      70.686  49.013   4.934  1.00  0.00     0.004 C 
ENDBRANCH   5   6
BRANCH   5   8
ATOM      8  C   UNL     1      69.816  48.208   8.268  1.00  0.00    -0.011 C 
ATOM      9  C   UNL     1      68.600  47.670   7.489  1.00  0.00     0.008 C 
ATOM     10  C   UNL     1      69.343  48.709   9.645  1.00  0.00     0.008 C 
ENDBRANCH   5   8
ENDBRANCH   4   5
ENDBRANCH   1   3
BRANCH   1  11
ATOM     11  C   UNL     1      73.992  46.065   6.995  1.00  0.00     0.002 C 
ATOM     12  C   UNL     1      73.590  46.110   5.484  1.00  0.00     0.005 C 
ATOM     13  C   UNL     1      72.983  45.015   7.594  1.00  0.00    -0.026 C 
ATOM     14  C   UNL     1      72.159  45.569   5.360  1.00  0.00     0.005 C 
ATOM     15  C   UNL     1      71.710  45.356   6.798  1.00  0.00    -0.001 C 
ATOM     16  C   UNL     1      72.670  45.070   9.140  1.00  0.00     0.007 C 
ATOM     17  C   UNL     1      73.556  43.599   7.248  1.00  0.00     0.012 C 
ATOM     18  C   UNL     1      70.450  44.488   7.091  1.00  0.00     0.000 C 
ATOM     19  C   UNL     1      71.164  44.879   9.500  1.00  0.00     0.005 C 
ATOM     20  C   UNL     1      70.459  43.901   8.527  1.00  0.00     0.003 C 
ATOM     21  C   UNL     1      70.145  43.345   6.117  1.00  0.00     0.031 C 
ATOM     22  C   UNL     1      69.029  43.396   8.947  1.00  0.00    -0.008 C 
ATOM     23  C   UNL     1      68.826  42.714   6.487  1.00  0.00    -0.027 C 
ATOM     24  C   UNL     1      68.303  42.750   7.744  1.00  0.00    -0.065 C 
ATOM     25  C   UNL     1      68.144  44.567   9.479  1.00  0.00     0.014 C 
ATOM     26  C   UNL     1      69.196  42.321  10.056  1.00  0.00     0.016 C 
ATOM     27  C   UNL     1      66.850  42.352   7.933  1.00  0.00     0.063 C 
ATOM     28  C   UNL     1      66.663  44.184   9.669  1.00  0.00     0.033 C 
ATOM     29  C   UNL     1      66.044  43.572   8.393  1.00  0.00     0.118 C 
BRANCH  29  30
ATOM     30  O   UNL     1      65.999  44.529   7.360  1.00  0.00    -0.393 OA
ATOM     31  H   UNL     1      66.198  45.411   7.765  1.00  0.00     0.210 HD
ENDBRANCH  29  30
ENDBRANCH   1  11
TORSDOF 6
ENDMDL
MODEL 3
REMARK VINA RESULT:    -6.712      4.383      8.235
REMARK INTER + INTRA:          -9.671
REMARK INTER:                  -8.339
REMARK INTRA:                  -1.332
REMARK UNBOUND:                -0.801
REMARK SMILES CC[C@H](C=C[C@@H](C)[C@@H]1CC[C@H]2[C@H]3CC=C4C[C@H](O)CC[C@]4(C)[C@@H]3CC[C@@]21C)C(C)C
REMARK SMILES IDX 6 1 7 2 5 3 4 4 3 5 2 6 1 7 28 8 29 9 30 10 8 11 9 12 26 13
REMARK SMILES IDX 10 14 11 15 25 16 27 17 12 18 24 19 23 20 13 21 21 22 14 23
REMARK SMILES IDX 15 24 20 25 22 26 16 27 19 28 17 29 18 30
REMARK H PARENT 18 31
REMARK Flexibility Score: inf
ROOT
ATOM      1  C   UNL     1      73.064  46.088   5.692  1.00  0.00     0.012 C 
ATOM      2  C   UNL     1      74.387  46.062   4.896  1.00  0.00     0.012 C 
ENDROOT
BRANCH   1   3
ATOM      3  C   UNL     1      72.576  47.527   5.746  1.00  0.00    -0.028 C 
ATOM      4  C   UNL     1      71.887  48.012   6.793  1.00  0.00    -0.027 C 
BRANCH   4   5
ATOM      5  C   UNL     1      71.493  49.473   6.885  1.00  0.00     0.014 C 
BRANCH   5   6
ATOM      6  C   UNL     1      70.015  49.632   6.447  1.00  0.00     0.004 C 
ATOM      7  C   UNL     1      69.874  49.933   4.951  1.00  0.00     0.004 C 
ENDBRANCH   5   6
BRANCH   5   8
ATOM      8  C   UNL     1      71.730  49.997   8.339  1.00  0.00    -0.011 C 
ATOM      9  C   UNL     1      73.007  49.402   8.962  1.00  0.00     0.008 C 
ATOM     10  C   UNL     1      70.535  49.684   9.257  1.00  0.00     0.008 C 
ENDBRANCH   5   8
ENDBRANCH   4   5
ENDBRANCH   1   3
BRANCH   1  11
ATOM     11  C   UNL     1      73.128  45.455   7.139  1.00  0.00     0.002 C 
ATOM     12  C   UNL     1      74.476  44.741   7.481  1.00  0.00     0.005 C 
ATOM     13  C   UNL     1      72.056  44.340   7.435  1.00  0.00    -0.026 C 
ATOM     14  C   UNL     1      74.232  43.226   7.437  1.00  0.00     0.005 C 
ATOM     15  C   UNL     1      72.801  43.088   6.938  1.00  0.00    -0.001 C 
ATOM     16  C   UNL     1      70.652  44.437   6.722  1.00  0.00     0.007 C 
ATOM     17  C   UNL     1      71.832  44.339   8.986  1.00  0.00     0.012 C 
ATOM     18  C   UNL     1      72.060  41.726   7.091  1.00  0.00     0.000 C 
ATOM     19  C   UNL     1      70.109  43.079   6.179  1.00  0.00     0.005 C 
ATOM     20  C   UNL     1      70.518  41.892   7.088  1.00  0.00     0.003 C 
ATOM     21  C   UNL     1      72.438  40.855   8.294  1.00  0.00     0.031 C 
ATOM     22  C   UNL     1      69.797  40.519   6.820  1.00  0.00    -0.008 C 
ATOM     23  C   UNL     1      71.719  39.532   8.195  1.00  0.00    -0.027 C 
ATOM     24  C   UNL     1      70.550  39.362   7.519  1.00  0.00    -0.065 C 
ATOM     25  C   UNL     1      69.723  40.200   5.294  1.00  0.00     0.014 C 
ATOM     26  C   UNL     1      68.362  40.597   7.409  1.00  0.00     0.016 C 
ATOM     27  C   UNL     1      70.080  37.947   7.234  1.00  0.00     0.063 C 
ATOM     28  C   UNL     1      69.255  38.764   4.986  1.00  0.00     0.033 C 
ATOM     29  C   UNL     1      70.098  37.699   5.721  1.00  0.00     0.118 C 
BRANCH  29  30
ATOM     30  O   UNL     1      71.427  37.714   5.254  1.00  0.00    -0.393 OA
ATOM     31  H   UNL     1      71.913  38.409   5.766  1.00  0.00     0.210 HD
ENDBRANCH  29  30
ENDBRANCH   1  11
TORSDOF 6
ENDMDL
MODEL 4
REMARK VINA RESULT:    -6.615      1.724      3.720
REMARK INTER + INTRA:          -9.543
REMARK INTER:                  -8.261
REMARK INTRA:                  -1.282
REMARK UNBOUND:                -0.801
REMARK SMILES CC[C@H](C=C[C@@H](C)[C@@H]1CC[C@H]2[C@H]3CC=C4C[C@H](O)CC[C@]4(C)[C@@H]3CC[C@@]21C)C(C)C
REMARK SMILES IDX 6 1 7 2 5 3 4 4 3 5 2 6 1 7 28 8 29 9 30 10 8 11 9 12 26 13
REMARK SMILES IDX 10 14 11 15 25 16 27 17 12 18 24 19 23 20 13 21 21 22 14 23
REMARK SMILES IDX 15 24 20 25 22 26 16 27 19 28 17 29 18 30
REMARK H PARENT 18 31
REMARK Flexibility Score: inf
ROOT
ATOM      1  C   UNL     1      68.515  49.009   8.205  1.00  0.00     0.012 C 
ATOM      2  C   UNL     1      68.409  48.835   9.735  1.00  0.00     0.012 C 
ENDROOT
BRANCH   1   3
ATOM      3  C   UNL     1      68.179  47.677   7.554  1.00  0.00    -0.028 C 
ATOM      4  C   UNL     1      67.710  46.633   8.258  1.00  0.00    -0.027 C 
BRANCH   4   5
ATOM      5  C   UNL     1      67.280  45.342   7.587  1.00  0.00     0.014 C 
BRANCH   5   6
ATOM      6  C   UNL     1      68.538  44.560   7.133  1.00  0.00     0.004 C 
ATOM      7  C   UNL     1      68.931  43.454   8.118  1.00  0.00     0.004 C 
ENDBRANCH   5   6
BRANCH   5   8
ATOM      8  C   UNL     1      66.393  44.506   8.564  1.00  0.00    -0.011 C 
ATOM      9  C   UNL     1      64.977  44.276   8.002  1.00  0.00     0.008 C 
ATOM     10  C   UNL     1      66.278  45.179   9.944  1.00  0.00     0.008 C 
ENDBRANCH   5   8
ENDBRANCH   4   5
ENDBRANCH   1   3
BRANCH   1  11
ATOM     11  C   UNL     1      69.898  49.566   7.677  1.00  0.00     0.002 C 
ATOM     12  C   UNL     1      69.926  49.905   6.151  1.00  0.00     0.005 C 
ATOM     13  C   UNL     1      71.124  48.591   7.842  1.00  0.00    -0.026 C 
ATOM     14  C   UNL     1      70.733  48.810   5.439  1.00  0.00     0.005 C 
ATOM     15  C   UNL     1      71.032  47.791   6.529  1.00  0.00    -0.001 C 
ATOM     16  C   UNL     1      71.135  47.596   9.067  1.00  0.00     0.007 C 
ATOM     17  C   UNL     1      72.403  49.493   7.917  1.00  0.00     0.012 C 
ATOM     18  C   UNL     1      72.127  46.709   6.292  1.00  0.00     0.000 C 
ATOM     19  C   UNL     1      71.613  46.151   8.720  1.00  0.00     0.005 C 
ATOM     20  C   UNL     1      72.705  46.155   7.621  1.00  0.00     0.003 C 
ATOM     21  C   UNL     1      73.304  47.090   5.388  1.00  0.00     0.031 C 
ATOM     22  C   UNL     1      73.476  44.803   7.389  1.00  0.00    -0.008 C 
ATOM     23  C   UNL     1      74.178  45.878   5.173  1.00  0.00    -0.027 C 
ATOM     24  C   UNL     1      74.247  44.838   6.048  1.00  0.00    -0.065 C 
ATOM     25  C   UNL     1      72.498  43.586   7.358  1.00  0.00     0.014 C 
ATOM     26  C   UNL     1      74.502  44.621   8.541  1.00  0.00     0.016 C 
ATOM     27  C   UNL     1      74.916  43.554   5.591  1.00  0.00     0.063 C 
ATOM     28  C   UNL     1      73.160  42.275   6.889  1.00  0.00     0.033 C 
ATOM     29  C   UNL     1      73.875  42.431   5.529  1.00  0.00     0.118 C 
BRANCH  29  30
ATOM     30  O   UNL     1      72.942  42.704   4.509  1.00  0.00    -0.393 OA
ATOM     31  H   UNL     1      72.589  41.835   4.191  1.00  0.00     0.210 HD
ENDBRANCH  29  30
ENDBRANCH   1  11
TORSDOF 6
ENDMDL
MODEL 5
REMARK VINA RESULT:    -6.600      3.443      6.897
REMARK INTER + INTRA:          -9.524
REMARK INTER:                  -7.851
REMARK INTRA:                  -1.673
REMARK UNBOUND:                -0.801
REMARK SMILES CC[C@H](C=C[C@@H](C)[C@@H]1CC[C@H]2[C@H]3CC=C4C[C@H](O)CC[C@]4(C)[C@@H]3CC[C@@]21C)C(C)C
REMARK SMILES IDX 6 1 7 2 5 3 4 4 3 5 2 6 1 7 28 8 29 9 30 10 8 11 9 12 26 13
REMARK SMILES IDX 10 14 11 15 25 16 27 17 12 18 24 19 23 20 13 21 21 22 14 23
REMARK SMILES IDX 15 24 20 25 22 26 16 27 19 28 17 29 18 30
REMARK H PARENT 18 31
REMARK Flexibility Score: inf
ROOT
ATOM      1  C   UNL     1      73.835  47.946   7.398  1.00  0.00     0.012 C 
ATOM      2  C   UNL     1      74.745  47.857   8.642  1.00  0.00     0.012 C 
ENDROOT
BRANCH   1   3
ATOM      3  C   UNL     1      72.390  47.912   7.869  1.00  0.00    -0.028 C 
ATOM      4  C   UNL     1      71.488  48.832   7.485  1.00  0.00    -0.027 C 
BRANCH   4   5
ATOM      5  C   UNL     1      70.026  48.733   7.877  1.00  0.00     0.014 C 
BRANCH   5   6
ATOM      6  C   UNL     1      69.149  48.840   6.604  1.00  0.00     0.004 C 
ATOM      7  C   UNL     1      69.893  49.482   5.428  1.00  0.00     0.004 C 
ENDBRANCH   5   6
BRANCH   5   8
ATOM      8  C   UNL     1      69.773  47.400   8.651  1.00  0.00    -0.011 C 
ATOM      9  C   UNL     1      68.908  46.418   7.838  1.00  0.00     0.008 C 
ATOM     10  C   UNL     1      69.096  47.652  10.010  1.00  0.00     0.008 C 
ENDBRANCH   5   8
ENDBRANCH   4   5
ENDBRANCH   1   3
BRANCH   1  11
ATOM     11  C   UNL     1      74.095  46.854   6.284  1.00  0.00     0.002 C 
ATOM     12  C   UNL     1      73.378  47.128   4.922  1.00  0.00     0.005 C 
ATOM     13  C   UNL     1      73.619  45.397   6.644  1.00  0.00    -0.026 C 
ATOM     14  C   UNL     1      72.195  46.156   4.808  1.00  0.00     0.005 C 
ATOM     15  C   UNL     1      72.161  45.443   6.151  1.00  0.00    -0.001 C 
ATOM     16  C   UNL     1      73.651  44.947   8.156  1.00  0.00     0.007 C 
ATOM     17  C   UNL     1      74.513  44.418   5.810  1.00  0.00     0.012 C 
ATOM     18  C   UNL     1      71.329  44.135   6.308  1.00  0.00     0.000 C 
ATOM     19  C   UNL     1      72.397  44.142   8.616  1.00  0.00     0.005 C 
ATOM     20  C   UNL     1      71.835  43.252   7.478  1.00  0.00     0.003 C 
ATOM     21  C   UNL     1      71.189  43.242   5.070  1.00  0.00     0.031 C 
ATOM     22  C   UNL     1      70.761  42.177   7.889  1.00  0.00    -0.008 C 
ATOM     23  C   UNL     1      70.245  42.106   5.382  1.00  0.00    -0.027 C 
ATOM     24  C   UNL     1      70.027  41.635   6.640  1.00  0.00    -0.065 C 
ATOM     25  C   UNL     1      69.695  42.777   8.859  1.00  0.00     0.014 C 
ATOM     26  C   UNL     1      71.492  40.994   8.581  1.00  0.00     0.016 C 
ATOM     27  C   UNL     1      68.848  40.707   6.868  1.00  0.00     0.063 C 
ATOM     28  C   UNL     1      68.486  41.850   9.097  1.00  0.00     0.033 C 
ATOM     29  C   UNL     1      67.824  41.397   7.777  1.00  0.00     0.118 C 
BRANCH  29  30
ATOM     30  O   UNL     1      67.259  42.498   7.105  1.00  0.00    -0.393 OA
ATOM     31  H   UNL     1      67.381  42.346   6.133  1.00  0.00     0.210 HD
ENDBRANCH  29  30
ENDBRANCH   1  11
TORSDOF 6
ENDMDL
MODEL 6
REMARK VINA RESULT:    -6.433      4.092      7.184
REMARK INTER + INTRA:          -9.303
REMARK INTER:                  -8.555
REMARK INTRA:                  -0.747
REMARK UNBOUND:                -0.801
REMARK SMILES CC[C@H](C=C[C@@H](C)[C@@H]1CC[C@H]2[C@H]3CC=C4C[C@H](O)CC[C@]4(C)[C@@H]3CC[C@@]21C)C(C)C
REMARK SMILES IDX 6 1 7 2 5 3 4 4 3 5 2 6 1 7 28 8 29 9 30 10 8 11 9 12 26 13
REMARK SMILES IDX 10 14 11 15 25 16 27 17 12 18 24 19 23 20 13 21 21 22 14 23
REMARK SMILES IDX 15 24 20 25 22 26 16 27 19 28 17 29 18 30
REMARK H PARENT 18 31
REMARK Flexibility Score: inf
ROOT
ATOM      1  C   UNL     1      71.092  48.040   5.398  1.00  0.00     0.012 C 
ATOM      2  C   UNL     1      70.826  48.924   4.160  1.00  0.00     0.012 C 
ENDROOT
BRANCH   1   3
ATOM      3  C   UNL     1      70.931  48.905   6.638  1.00  0.00    -0.028 C 
ATOM      4  C   UNL     1      70.148  48.543   7.669  1.00  0.00    -0.027 C 
BRANCH   4   5
ATOM      5  C   UNL     1      70.074  49.361   8.943  1.00  0.00     0.014 C 
BRANCH   5   6
ATOM      6  C   UNL     1      68.805  48.957   9.736  1.00  0.00     0.004 C 
ATOM      7  C   UNL     1      67.704  50.020   9.666  1.00  0.00     0.004 C 
ENDBRANCH   5   6
BRANCH   5   8
ATOM      8  C   UNL     1      71.377  49.156   9.782  1.00  0.00    -0.011 C 
ATOM      9  C   UNL     1      72.621  49.698   9.053  1.00  0.00     0.008 C 
ATOM     10  C   UNL     1      71.605  47.672  10.122  1.00  0.00     0.008 C 
ENDBRANCH   5   8
ENDBRANCH   4   5
ENDBRANCH   1   3
BRANCH   1  11
ATOM     11  C   UNL     1      72.480  47.283   5.408  1.00  0.00     0.002 C 
ATOM     12  C   UNL     1      73.104  47.043   3.994  1.00  0.00     0.005 C 
ATOM     13  C   UNL     1      72.456  45.837   6.030  1.00  0.00    -0.026 C 
ATOM     14  C   UNL     1      72.932  45.558   3.649  1.00  0.00     0.005 C 
ATOM     15  C   UNL     1      72.095  44.998   4.791  1.00  0.00    -0.001 C 
ATOM     16  C   UNL     1      71.429  45.534   7.190  1.00  0.00     0.007 C 
ATOM     17  C   UNL     1      73.904  45.554   6.556  1.00  0.00     0.012 C 
ATOM     18  C   UNL     1      72.001  43.457   4.993  1.00  0.00     0.000 C 
ATOM     19  C   UNL     1      70.708  44.156   7.069  1.00  0.00     0.005 C 
ATOM     20  C   UNL     1      71.632  43.076   6.450  1.00  0.00     0.003 C 
ATOM     21  C   UNL     1      73.217  42.621   4.581  1.00  0.00     0.031 C 
ATOM     22  C   UNL     1      71.134  41.586   6.543  1.00  0.00    -0.008 C 
ATOM     23  C   UNL     1      72.884  41.156   4.724  1.00  0.00    -0.027 C 
ATOM     24  C   UNL     1      71.939  40.681   5.580  1.00  0.00    -0.065 C 
ATOM     25  C   UNL     1      69.621  41.465   6.175  1.00  0.00     0.014 C 
ATOM     26  C   UNL     1      71.361  41.083   7.995  1.00  0.00     0.016 C 
ATOM     27  C   UNL     1      71.482  39.241   5.426  1.00  0.00     0.063 C 
ATOM     28  C   UNL     1      69.142  40.009   6.006  1.00  0.00     0.033 C 
ATOM     29  C   UNL     1      70.009  39.217   5.003  1.00  0.00     0.118 C 
BRANCH  29  30
ATOM     30  O   UNL     1      69.878  39.753   3.707  1.00  0.00    -0.393 OA
ATOM     31  H   UNL     1      69.128  40.399   3.729  1.00  0.00     0.210 HD
ENDBRANCH  29  30
ENDBRANCH   1  11
TORSDOF 6
ENDMDL
MODEL 7
REMARK VINA RESULT:    -6.094      2.450      3.873
REMARK INTER + INTRA:          -8.854
REMARK INTER:                  -7.697
REMARK INTRA:                  -1.157
REMARK UNBOUND:                -0.801
REMARK SMILES CC[C@H](C=C[C@@H](C)[C@@H]1CC[C@H]2[C@H]3CC=C4C[C@H](O)CC[C@]4(C)[C@@H]3CC[C@@]21C)C(C)C
REMARK SMILES IDX 6 1 7 2 5 3 4 4 3 5 2 6 1 7 28 8 29 9 30 10 8 11 9 12 26 13
REMARK SMILES IDX 10 14 11 15 25 16 27 17 12 18 24 19 23 20 13 21 21 22 14 23
REMARK SMILES IDX 15 24 20 25 22 26 16 27 19 28 17 29 18 30
REMARK H PARENT 18 31
REMARK Flexibility Score: inf
ROOT
ATOM      1  C   UNL     1      66.578  44.012   8.841  1.00  0.00     0.012 C 
ATOM      2  C   UNL     1      66.534  43.150  10.121  1.00  0.00     0.012 C 
ENDROOT
BRANCH   1   3
ATOM      3  C   UNL     1      67.644  43.437   7.922  1.00  0.00    -0.028 C 
ATOM      4  C   UNL     1      67.777  42.116   7.716  1.00  0.00    -0.027 C 
BRANCH   4   5
ATOM      5  C   UNL     1      68.774  41.557   6.720  1.00  0.00     0.014 C 
BRANCH   5   6
ATOM      6  C   UNL     1      69.511  42.728   6.023  1.00  0.00     0.004 C 
ATOM      7  C   UNL     1      70.752  42.267   5.252  1.00  0.00     0.004 C 
ENDBRANCH   5   6
BRANCH   5   8
ATOM      8  C   UNL     1      69.765  40.592   7.446  1.00  0.00    -0.011 C 
ATOM      9  C   UNL     1      69.084  39.275   7.864  1.00  0.00     0.008 C 
ATOM     10  C   UNL     1      70.387  41.249   8.692  1.00  0.00     0.008 C 
ENDBRANCH   5   8
ENDBRANCH   4   5
ENDBRANCH   1   3
BRANCH   1  11
ATOM     11  C   UNL     1      66.802  45.561   9.071  1.00  0.00     0.002 C 
ATOM     12  C   UNL     1      66.147  46.483   7.991  1.00  0.00     0.005 C 
ATOM     13  C   UNL     1      68.305  46.032   9.069  1.00  0.00    -0.026 C 
ATOM     14  C   UNL     1      67.266  47.024   7.090  1.00  0.00     0.005 C 
ATOM     15  C   UNL     1      68.518  46.302   7.567  1.00  0.00    -0.001 C 
ATOM     16  C   UNL     1      69.409  45.031   9.587  1.00  0.00     0.007 C 
ATOM     17  C   UNL     1      68.363  47.336   9.935  1.00  0.00     0.012 C 
ATOM     18  C   UNL     1      69.920  46.832   7.144  1.00  0.00     0.000 C 
ATOM     19  C   UNL     1      70.707  44.998   8.721  1.00  0.00     0.005 C 
ATOM     20  C   UNL     1      71.037  46.389   8.126  1.00  0.00     0.003 C 
ATOM     21  C   UNL     1      70.060  48.341   6.920  1.00  0.00     0.031 C 
ATOM     22  C   UNL     1      72.463  46.561   7.483  1.00  0.00    -0.008 C 
ATOM     23  C   UNL     1      71.441  48.638   6.389  1.00  0.00    -0.027 C 
ATOM     24  C   UNL     1      72.520  47.839   6.614  1.00  0.00    -0.065 C 
ATOM     25  C   UNL     1      72.833  45.341   6.581  1.00  0.00     0.014 C 
ATOM     26  C   UNL     1      73.503  46.699   8.629  1.00  0.00     0.016 C 
ATOM     27  C   UNL     1      73.775  48.072   5.791  1.00  0.00     0.063 C 
ATOM     28  C   UNL     1      74.101  45.563   5.733  1.00  0.00     0.033 C 
ATOM     29  C   UNL     1      74.027  46.857   4.892  1.00  0.00     0.118 C 
BRANCH  29  30
ATOM     30  O   UNL     1      73.006  46.760   3.927  1.00  0.00    -0.393 OA
ATOM     31  H   UNL     1      73.308  46.113   3.240  1.00  0.00     0.210 HD
ENDBRANCH  29  30
ENDBRANCH   1  11
TORSDOF 6
ENDMDL
MODEL 8
REMARK VINA RESULT:    -6.009      5.134      8.313
REMARK INTER + INTRA:          -8.742
REMARK INTER:                  -7.294
REMARK INTRA:                  -1.448
REMARK UNBOUND:                -0.801
REMARK SMILES CC[C@H](C=C[C@@H](C)[C@@H]1CC[C@H]2[C@H]3CC=C4C[C@H](O)CC[C@]4(C)[C@@H]3CC[C@@]21C)C(C)C
REMARK SMILES IDX 6 1 7 2 5 3 4 4 3 5 2 6 1 7 28 8 29 9 30 10 8 11 9 12 26 13
REMARK SMILES IDX 10 14 11 15 25 16 27 17 12 18 24 19 23 20 13 21 21 22 14 23
REMARK SMILES IDX 15 24 20 25 22 26 16 27 19 28 17 29 18 30
REMARK H PARENT 18 31
REMARK Flexibility Score: inf
ROOT
ATOM      1  C   UNL     1      71.303  41.181   5.699  1.00  0.00     0.012 C 
ATOM      2  C   UNL     1      70.097  40.567   6.442  1.00  0.00     0.012 C 
ENDROOT
BRANCH   1   3
ATOM      3  C   UNL     1      71.679  40.247   4.560  1.00  0.00    -0.028 C 
ATOM      4  C   UNL     1      72.912  39.729   4.434  1.00  0.00    -0.027 C 
BRANCH   4   5
ATOM      5  C   UNL     1      73.251  38.719   3.355  1.00  0.00     0.014 C 
BRANCH   5   6
ATOM      6  C   UNL     1      74.399  39.276   2.476  1.00  0.00     0.004 C 
ATOM      7  C   UNL     1      74.931  40.620   2.986  1.00  0.00     0.004 C 
ENDBRANCH   5   6
BRANCH   5   8
ATOM      8  C   UNL     1      73.627  37.350   4.008  1.00  0.00    -0.011 C 
ATOM      9  C   UNL     1      73.397  37.357   5.531  1.00  0.00     0.008 C 
ATOM     10  C   UNL     1      75.092  36.970   3.727  1.00  0.00     0.008 C 
ENDBRANCH   5   8
ENDBRANCH   4   5
ENDBRANCH   1   3
BRANCH   1  11
ATOM     11  C   UNL     1      72.559  41.513   6.600  1.00  0.00     0.002 C 
ATOM     12  C   UNL     1      72.337  41.306   8.134  1.00  0.00     0.005 C 
ATOM     13  C   UNL     1      73.074  42.999   6.518  1.00  0.00    -0.026 C 
ATOM     14  C   UNL     1      72.206  42.691   8.783  1.00  0.00     0.005 C 
ATOM     15  C   UNL     1      72.212  43.660   7.610  1.00  0.00    -0.001 C 
ATOM     16  C   UNL     1      72.898  43.783   5.160  1.00  0.00     0.007 C 
ATOM     17  C   UNL     1      74.597  42.964   6.883  1.00  0.00     0.012 C 
ATOM     18  C   UNL     1      72.453  45.178   7.866  1.00  0.00     0.000 C 
ATOM     19  C   UNL     1      72.422  45.260   5.324  1.00  0.00     0.005 C 
ATOM     20  C   UNL     1      72.994  45.909   6.610  1.00  0.00     0.003 C 
ATOM     21  C   UNL     1      73.347  45.555   9.052  1.00  0.00     0.031 C 
ATOM     22  C   UNL     1      72.834  47.469   6.742  1.00  0.00    -0.008 C 
ATOM     23  C   UNL     1      73.348  47.055   9.217  1.00  0.00    -0.027 C 
ATOM     24  C   UNL     1      73.097  47.922   8.198  1.00  0.00    -0.065 C 
ATOM     25  C   UNL     1      71.398  47.932   6.340  1.00  0.00     0.014 C 
ATOM     26  C   UNL     1      73.882  48.149   5.819  1.00  0.00     0.016 C 
ATOM     27  C   UNL     1      72.830  49.377   8.538  1.00  0.00     0.063 C 
ATOM     28  C   UNL     1      71.106  49.406   6.685  1.00  0.00     0.033 C 
ATOM     29  C   UNL     1      71.384  49.729   8.170  1.00  0.00     0.118 C 
BRANCH  29  30
ATOM     30  O   UNL     1      70.496  49.020   9.003  1.00  0.00    -0.393 OA
ATOM     31  H   UNL     1      70.086  48.302   8.455  1.00  0.00     0.210 HD
ENDBRANCH  29  30
ENDBRANCH   1  11
TORSDOF 6
ENDMDL
MODEL 9
REMARK VINA RESULT:    -5.984      3.279      6.172
REMARK INTER + INTRA:          -8.709
REMARK INTER:                  -7.225
REMARK INTRA:                  -1.484
REMARK UNBOUND:                -0.801
REMARK SMILES CC[C@H](C=C[C@@H](C)[C@@H]1CC[C@H]2[C@H]3CC=C4C[C@H](O)CC[C@]4(C)[C@@H]3CC[C@@]21C)C(C)C
REMARK SMILES IDX 6 1 7 2 5 3 4 4 3 5 2 6 1 7 28 8 29 9 30 10 8 11 9 12 26 13
REMARK SMILES IDX 10 14 11 15 25 16 27 17 12 18 24 19 23 20 13 21 21 22 14 23
REMARK SMILES IDX 15 24 20 25 22 26 16 27 19 28 17 29 18 30
REMARK H PARENT 18 31
REMARK Flexibility Score: inf
ROOT
ATOM      1  C   UNL     1      71.819  40.997   6.395  1.00  0.00     0.012 C 
ATOM      2  C   UNL     1      71.565  40.981   4.872  1.00  0.00     0.012 C 
ENDROOT
BRANCH   1   3
ATOM      3  C   UNL     1      70.722  41.824   7.047  1.00  0.00    -0.028 C 
ATOM      4  C   UNL     1      69.871  42.579   6.331  1.00  0.00    -0.027 C 
BRANCH   4   5
ATOM      5  C   UNL     1      68.717  43.319   6.979  1.00  0.00     0.014 C 
BRANCH   5   6
ATOM      6  C   UNL     1      68.225  42.518   8.211  1.00  0.00     0.004 C 
ATOM      7  C   UNL     1      67.254  41.395   7.834  1.00  0.00     0.004 C 
ENDBRANCH   5   6
BRANCH   5   8
ATOM      8  C   UNL     1      69.164  44.766   7.363  1.00  0.00    -0.011 C 
ATOM      9  C   UNL     1      69.645  44.851   8.824  1.00  0.00     0.008 C 
ATOM     10  C   UNL     1      68.030  45.786   7.152  1.00  0.00     0.008 C 
ENDBRANCH   5   8
ENDBRANCH   4   5
ENDBRANCH   1   3
BRANCH   1  11
ATOM     11  C   UNL     1      73.250  41.499   6.842  1.00  0.00     0.002 C 
ATOM     12  C   UNL     1      73.528  41.397   8.377  1.00  0.00     0.005 C 
ATOM     13  C   UNL     1      73.563  43.010   6.529  1.00  0.00    -0.026 C 
ATOM     14  C   UNL     1      73.463  42.814   8.963  1.00  0.00     0.005 C 
ATOM     15  C   UNL     1      73.014  43.685   7.800  1.00  0.00    -0.001 C 
ATOM     16  C   UNL     1      72.903  43.667   5.255  1.00  0.00     0.007 C 
ATOM     17  C   UNL     1      75.120  43.126   6.403  1.00  0.00     0.012 C 
ATOM     18  C   UNL     1      73.166  45.232   7.891  1.00  0.00     0.000 C 
ATOM     19  C   UNL     1      72.353  45.109   5.485  1.00  0.00     0.005 C 
ATOM     20  C   UNL     1      73.222  45.902   6.493  1.00  0.00     0.003 C 
ATOM     21  C   UNL     1      74.337  45.772   8.719  1.00  0.00     0.031 C 
ATOM     22  C   UNL     1      72.954  47.450   6.590  1.00  0.00    -0.008 C 
ATOM     23  C   UNL     1      74.238  47.276   8.799  1.00  0.00    -0.027 C 
ATOM     24  C   UNL     1      73.602  48.037   7.867  1.00  0.00    -0.065 C 
ATOM     25  C   UNL     1      71.425  47.763   6.632  1.00  0.00     0.014 C 
ATOM     26  C   UNL     1      73.596  48.136   5.354  1.00  0.00     0.016 C 
ATOM     27  C   UNL     1      73.305  49.488   8.199  1.00  0.00     0.063 C 
ATOM     28  C   UNL     1      71.105  49.232   6.976  1.00  0.00     0.033 C 
ATOM     29  C   UNL     1      71.788  49.692   8.282  1.00  0.00     0.118 C 
BRANCH  29  30
ATOM     30  O   UNL     1      71.273  48.982   9.385  1.00  0.00    -0.393 OA
ATOM     31  H   UNL     1      71.705  49.347  10.199  1.00  0.00     0.210 HD
ENDBRANCH  29  30
ENDBRANCH   1  11
TORSDOF 6
ENDMDL
