MODEL 1
REMARK VINA RESULT:    -2.130      0.000      0.000
REMARK INTER + INTRA:          -4.632
REMARK INTER:                  -4.122
REMARK INTRA:                  -0.511
REMARK UNBOUND:                -0.511
REMARK SMILES CCCCCCCCCCCCCCCCCC(=O)[O-]
REMARK SMILES IDX 10 1 11 2 12 3 13 4 14 5 15 6 16 7 17 8 18 9 19 10 20 11
REMARK SMILES IDX 9 12 8 13 7 14 6 15 5 16 4 17 3 18 2 19 1 20
REMARK H PARENT
REMARK Flexibility Score: inf
ROOT
ATOM      1  C   UNL     1      31.733  -0.273  -3.491  1.00  0.00     0.000 C 
ENDROOT
BRANCH   1   2
ATOM      2  C   UNL     1      31.176   1.090  -3.043  1.00  0.00     0.000 C 
BRANCH   2   3
ATOM      3  C   UNL     1      31.551   2.226  -4.007  1.00  0.00     0.000 C 
BRANCH   3   4
ATOM      4  C   UNL     1      32.945   2.807  -3.728  1.00  0.00     0.000 C 
BRANCH   4   5
ATOM      5  C   UNL     1      32.901   4.338  -3.675  1.00  0.00     0.000 C 
BRANCH   5   6
ATOM      6  C   UNL     1      31.567   4.831  -3.093  1.00  0.00     0.000 C 
BRANCH   6   7
ATOM      7  C   UNL     1      31.695   6.187  -2.373  1.00  0.00     0.006 C 
BRANCH   7   8
ATOM      8  C   UNL     1      31.175   7.384  -3.184  1.00  0.00     0.053 C 
BRANCH   8   9
ATOM      9  C   UNL     1      30.126   8.152  -2.441  1.00  0.00     0.041 C 
ATOM     10  O   UNL     1      30.134   9.411  -2.454  1.00  0.00    -0.550 OA
ATOM     11  O   UNL     1      29.159   7.477  -1.707  1.00  0.00    -0.550 OA
ENDBRANCH   8   9
ENDBRANCH   7   8
ENDBRANCH   6   7
ENDBRANCH   5   6
ENDBRANCH   4   5
ENDBRANCH   3   4
ENDBRANCH   2   3
ENDBRANCH   1   2
BRANCH   1  12
ATOM     12  C   UNL     1      33.169  -0.513  -2.997  1.00  0.00     0.000 C 
BRANCH  12  13
ATOM     13  C   UNL     1      33.890  -1.621  -3.785  1.00  0.00    -0.000 C 
BRANCH  13  14
ATOM     14  C   UNL     1      35.412  -1.624  -3.550  1.00  0.00    -0.000 C 
BRANCH  14  15
ATOM     15  C   UNL     1      36.147  -2.876  -4.071  1.00  0.00    -0.000 C 
BRANCH  15  16
ATOM     16  C   UNL     1      36.483  -3.929  -2.997  1.00  0.00    -0.000 C 
BRANCH  16  17
ATOM     17  C   UNL     1      36.582  -5.377  -3.518  1.00  0.00    -0.000 C 
BRANCH  17  18
ATOM     18  C   UNL     1      36.335  -6.469  -2.458  1.00  0.00    -0.000 C 
BRANCH  18  19
ATOM     19  C   UNL     1      35.635  -7.735  -2.983  1.00  0.00    -0.003 C 
ATOM     20  C   UNL     1      35.240  -8.703  -1.869  1.00  0.00     0.004 C 
ENDBRANCH  18  19
ENDBRANCH  17  18
ENDBRANCH  16  17
ENDBRANCH  15  16
ENDBRANCH  14  15
ENDBRANCH  13  14
ENDBRANCH  12  13
ENDBRANCH   1  12
TORSDOF 16
ENDMDL
MODEL 2
REMARK VINA RESULT:    -2.062      4.267      7.162
REMARK INTER + INTRA:          -4.501
REMARK INTER:                  -3.529
REMARK INTRA:                  -0.971
REMARK UNBOUND:                -0.511
REMARK SMILES CCCCCCCCCCCCCCCCCC(=O)[O-]
REMARK SMILES IDX 10 1 11 2 12 3 13 4 14 5 15 6 16 7 17 8 18 9 19 10 20 11
REMARK SMILES IDX 9 12 8 13 7 14 6 15 5 16 4 17 3 18 2 19 1 20
REMARK H PARENT
REMARK Flexibility Score: inf
ROOT
ATOM      1  C   UNL     1      30.836   0.722  -3.312  1.00  0.00     0.000 C 
ENDROOT
BRANCH   1   2
ATOM      2  C   UNL     1      31.812   1.601  -4.114  1.00  0.00     0.000 C 
BRANCH   2   3
ATOM      3  C   UNL     1      31.831   3.059  -3.627  1.00  0.00     0.000 C 
BRANCH   3   4
ATOM      4  C   UNL     1      33.169   3.760  -3.903  1.00  0.00     0.000 C 
BRANCH   4   5
ATOM      5  C   UNL     1      33.080   5.257  -3.581  1.00  0.00     0.000 C 
BRANCH   5   6
ATOM      6  C   UNL     1      31.857   5.560  -2.701  1.00  0.00     0.000 C 
BRANCH   6   7
ATOM      7  C   UNL     1      31.252   6.949  -2.977  1.00  0.00     0.006 C 
BRANCH   7   8
ATOM      8  C   UNL     1      30.196   7.392  -1.953  1.00  0.00     0.053 C 
BRANCH   8   9
ATOM      9  C   UNL     1      29.501   8.650  -2.373  1.00  0.00     0.041 C 
ATOM     10  O   UNL     1      30.154   9.590  -2.898  1.00  0.00    -0.550 OA
ATOM     11  O   UNL     1      28.137   8.797  -2.156  1.00  0.00    -0.550 OA
ENDBRANCH   8   9
ENDBRANCH   7   8
ENDBRANCH   6   7
ENDBRANCH   5   6
ENDBRANCH   4   5
ENDBRANCH   3   4
ENDBRANCH   2   3
ENDBRANCH   1   2
BRANCH   1  12
ATOM     12  C   UNL     1      31.538  -0.461  -2.625  1.00  0.00     0.000 C 
BRANCH  12  13
ATOM     13  C   UNL     1      31.443  -0.396  -1.090  1.00  0.00    -0.000 C 
BRANCH  13  14
ATOM     14  C   UNL     1      30.374   0.599  -0.602  1.00  0.00    -0.000 C 
BRANCH  14  15
ATOM     15  C   UNL     1      30.800   1.475   0.594  1.00  0.00    -0.000 C 
BRANCH  15  16
ATOM     16  C   UNL     1      29.711   1.697   1.661  1.00  0.00    -0.000 C 
BRANCH  16  17
ATOM     17  C   UNL     1      30.225   2.242   3.009  1.00  0.00    -0.000 C 
BRANCH  17  18
ATOM     18  C   UNL     1      31.078   3.522   2.913  1.00  0.00    -0.000 C 
BRANCH  18  19
ATOM     19  C   UNL     1      30.734   4.610   3.945  1.00  0.00    -0.003 C 
ATOM     20  C   UNL     1      30.676   6.011   3.337  1.00  0.00     0.004 C 
ENDBRANCH  18  19
ENDBRANCH  17  18
ENDBRANCH  16  17
ENDBRANCH  15  16
ENDBRANCH  14  15
ENDBRANCH  13  14
ENDBRANCH  12  13
ENDBRANCH   1  12
TORSDOF 16
ENDMDL
MODEL 3
REMARK VINA RESULT:    -2.034      3.708      4.213
REMARK INTER + INTRA:          -4.447
REMARK INTER:                  -4.012
REMARK INTRA:                  -0.435
REMARK UNBOUND:                -0.511
REMARK SMILES CCCCCCCCCCCCCCCCCC(=O)[O-]
REMARK SMILES IDX 10 1 11 2 12 3 13 4 14 5 15 6 16 7 17 8 18 9 19 10 20 11
REMARK SMILES IDX 9 12 8 13 7 14 6 15 5 16 4 17 3 18 2 19 1 20
REMARK H PARENT
REMARK Flexibility Score: inf
ROOT
ATOM      1  C   UNL     1      32.343  -0.114  -2.121  1.00  0.00     0.000 C 
ENDROOT
BRANCH   1   2
ATOM      2  C   UNL     1      31.116  -0.476  -1.265  1.00  0.00     0.000 C 
BRANCH   2   3
ATOM      3  C   UNL     1      30.399   0.763  -0.708  1.00  0.00     0.000 C 
BRANCH   3   4
ATOM      4  C   UNL     1      30.958   1.212   0.651  1.00  0.00     0.000 C 
BRANCH   4   5
ATOM      5  C   UNL     1      29.873   1.898   1.491  1.00  0.00     0.000 C 
BRANCH   5   6
ATOM      6  C   UNL     1      30.419   2.308   2.867  1.00  0.00     0.000 C 
BRANCH   6   7
ATOM      7  C   UNL     1      30.982   3.741   2.883  1.00  0.00     0.006 C 
BRANCH   7   8
ATOM      8  C   UNL     1      30.353   4.656   3.946  1.00  0.00     0.053 C 
BRANCH   8   9
ATOM      9  C   UNL     1      30.767   6.084   3.772  1.00  0.00     0.041 C 
ATOM     10  O   UNL     1      30.160   6.999   4.388  1.00  0.00    -0.550 OA
ATOM     11  O   UNL     1      31.803   6.408   2.905  1.00  0.00    -0.550 OA
ENDBRANCH   8   9
ENDBRANCH   7   8
ENDBRANCH   6   7
ENDBRANCH   5   6
ENDBRANCH   4   5
ENDBRANCH   3   4
ENDBRANCH   2   3
ENDBRANCH   1   2
BRANCH   1  12
ATOM     12  C   UNL     1      32.578  -1.114  -3.264  1.00  0.00     0.000 C 
BRANCH  12  13
ATOM     13  C   UNL     1      33.827  -0.778  -4.098  1.00  0.00    -0.000 C 
BRANCH  13  14
ATOM     14  C   UNL     1      35.129  -1.282  -3.448  1.00  0.00    -0.000 C 
BRANCH  14  15
ATOM     15  C   UNL     1      35.758  -2.517  -4.125  1.00  0.00    -0.000 C 
BRANCH  15  16
ATOM     16  C   UNL     1      36.560  -3.438  -3.185  1.00  0.00    -0.000 C 
BRANCH  16  17
ATOM     17  C   UNL     1      36.750  -4.881  -3.697  1.00  0.00    -0.000 C 
BRANCH  17  18
ATOM     18  C   UNL     1      36.353  -5.985  -2.697  1.00  0.00    -0.000 C 
BRANCH  18  19
ATOM     19  C   UNL     1      35.818  -7.278  -3.339  1.00  0.00    -0.003 C 
ATOM     20  C   UNL     1      35.426  -8.336  -2.308  1.00  0.00     0.004 C 
ENDBRANCH  18  19
ENDBRANCH  17  18
ENDBRANCH  16  17
ENDBRANCH  15  16
ENDBRANCH  14  15
ENDBRANCH  13  14
ENDBRANCH  12  13
ENDBRANCH   1  12
TORSDOF 16
ENDMDL
MODEL 4
REMARK VINA RESULT:    -1.952      4.799      9.394
REMARK INTER + INTRA:          -4.289
REMARK INTER:                  -3.516
REMARK INTRA:                  -0.774
REMARK UNBOUND:                -0.511
REMARK SMILES CCCCCCCCCCCCCCCCCC(=O)[O-]
REMARK SMILES IDX 10 1 11 2 12 3 13 4 14 5 15 6 16 7 17 8 18 9 19 10 20 11
REMARK SMILES IDX 9 12 8 13 7 14 6 15 5 16 4 17 3 18 2 19 1 20
REMARK H PARENT
REMARK Flexibility Score: inf
ROOT
ATOM      1  C   UNL     1      30.307   0.642  -0.222  1.00  0.00     0.000 C 
ENDROOT
BRANCH   1   2
ATOM      2  C   UNL     1      31.469   0.372  -1.194  1.00  0.00     0.000 C 
BRANCH   2   3
ATOM      3  C   UNL     1      31.413  -1.039  -1.803  1.00  0.00     0.000 C 
BRANCH   3   4
ATOM      4  C   UNL     1      31.112  -1.024  -3.309  1.00  0.00     0.000 C 
BRANCH   4   5
ATOM      5  C   UNL     1      31.281   0.386  -3.888  1.00  0.00     0.000 C 
BRANCH   5   6
ATOM      6  C   UNL     1      32.765   0.718  -4.106  1.00  0.00     0.000 C 
BRANCH   6   7
ATOM      7  C   UNL     1      33.043   2.232  -4.120  1.00  0.00     0.006 C 
BRANCH   7   8
ATOM      8  C   UNL     1      31.837   3.099  -3.725  1.00  0.00     0.053 C 
BRANCH   8   9
ATOM      9  C   UNL     1      32.249   4.480  -3.316  1.00  0.00     0.041 C 
ATOM     10  O   UNL     1      31.543   5.138  -2.508  1.00  0.00    -0.550 OA
ATOM     11  O   UNL     1      33.396   5.051  -3.853  1.00  0.00    -0.550 OA
ENDBRANCH   8   9
ENDBRANCH   7   8
ENDBRANCH   6   7
ENDBRANCH   5   6
ENDBRANCH   4   5
ENDBRANCH   3   4
ENDBRANCH   2   3
ENDBRANCH   1   2
BRANCH   1  12
ATOM     12  C   UNL     1      30.610   1.791   0.753  1.00  0.00     0.000 C 
BRANCH  12  13
ATOM     13  C   UNL     1      29.594   1.875   1.906  1.00  0.00    -0.000 C 
BRANCH  13  14
ATOM     14  C   UNL     1      30.264   2.095   3.275  1.00  0.00    -0.000 C 
BRANCH  14  15
ATOM     15  C   UNL     1      31.045   3.419   3.410  1.00  0.00    -0.000 C 
BRANCH  15  16
ATOM     16  C   UNL     1      30.326   4.661   2.848  1.00  0.00    -0.000 C 
BRANCH  16  17
ATOM     17  C   UNL     1      30.915   6.012   3.299  1.00  0.00    -0.000 C 
BRANCH  17  18
ATOM     18  C   UNL     1      30.148   6.710   4.439  1.00  0.00    -0.000 C 
BRANCH  18  19
ATOM     19  C   UNL     1      30.591   6.312   5.858  1.00  0.00    -0.003 C 
ATOM     20  C   UNL     1      29.897   7.125   6.949  1.00  0.00     0.004 C 
ENDBRANCH  18  19
ENDBRANCH  17  18
ENDBRANCH  16  17
ENDBRANCH  15  16
ENDBRANCH  14  15
ENDBRANCH  13  14
ENDBRANCH  12  13
ENDBRANCH   1  12
TORSDOF 16
ENDMDL
MODEL 5
REMARK VINA RESULT:    -1.597      4.712      8.649
REMARK INTER + INTRA:          -3.601
REMARK INTER:                  -2.664
REMARK INTRA:                  -0.937
REMARK UNBOUND:                -0.511
REMARK SMILES CCCCCCCCCCCCCCCCCC(=O)[O-]
REMARK SMILES IDX 10 1 11 2 12 3 13 4 14 5 15 6 16 7 17 8 18 9 19 10 20 11
REMARK SMILES IDX 9 12 8 13 7 14 6 15 5 16 4 17 3 18 2 19 1 20
REMARK H PARENT
REMARK Flexibility Score: inf
ROOT
ATOM      1  C   UNL     1      31.256  -0.629  -3.032  1.00  0.00     0.000 C 
ENDROOT
BRANCH   1   2
ATOM      2  C   UNL     1      31.643  -0.086  -1.645  1.00  0.00     0.000 C 
BRANCH   2   3
ATOM      3  C   UNL     1      30.435   0.461  -0.867  1.00  0.00     0.000 C 
BRANCH   3   4
ATOM      4  C   UNL     1      30.838   1.168   0.435  1.00  0.00     0.000 C 
BRANCH   4   5
ATOM      5  C   UNL     1      29.624   1.366   1.350  1.00  0.00     0.000 C 
BRANCH   5   6
ATOM      6  C   UNL     1      30.036   2.017   2.680  1.00  0.00     0.000 C 
BRANCH   6   7
ATOM      7  C   UNL     1      30.659   3.413   2.493  1.00  0.00     0.006 C 
BRANCH   7   8
ATOM      8  C   UNL     1      30.842   4.203   3.799  1.00  0.00     0.053 C 
BRANCH   8   9
ATOM      9  C   UNL     1      30.759   5.681   3.576  1.00  0.00     0.041 C 
ATOM     10  O   UNL     1      29.638   6.252   3.524  1.00  0.00    -0.550 OA
ATOM     11  O   UNL     1      31.919   6.423   3.393  1.00  0.00    -0.550 OA
ENDBRANCH   8   9
ENDBRANCH   7   8
ENDBRANCH   6   7
ENDBRANCH   5   6
ENDBRANCH   4   5
ENDBRANCH   3   4
ENDBRANCH   2   3
ENDBRANCH   1   2
BRANCH   1  12
ATOM     12  C   UNL     1      31.201   0.475  -4.101  1.00  0.00     0.000 C 
BRANCH  12  13
ATOM     13  C   UNL     1      32.391   1.447  -4.011  1.00  0.00    -0.000 C 
BRANCH  13  14
ATOM     14  C   UNL     1      31.949   2.920  -3.924  1.00  0.00    -0.000 C 
BRANCH  14  15
ATOM     15  C   UNL     1      33.099   3.946  -3.969  1.00  0.00    -0.000 C 
BRANCH  15  16
ATOM     16  C   UNL     1      32.785   5.307  -3.318  1.00  0.00    -0.000 C 
BRANCH  16  17
ATOM     17  C   UNL     1      31.463   5.358  -2.525  1.00  0.00    -0.000 C 
BRANCH  17  18
ATOM     18  C   UNL     1      31.112   6.735  -1.929  1.00  0.00    -0.000 C 
BRANCH  18  19
ATOM     19  C   UNL     1      30.552   7.754  -2.937  1.00  0.00    -0.003 C 
ATOM     20  C   UNL     1      29.456   8.638  -2.344  1.00  0.00     0.004 C 
ENDBRANCH  18  19
ENDBRANCH  17  18
ENDBRANCH  16  17
ENDBRANCH  15  16
ENDBRANCH  14  15
ENDBRANCH  13  14
ENDBRANCH  12  13
ENDBRANCH   1  12
TORSDOF 16
ENDMDL
MODEL 6
REMARK VINA RESULT:    -1.344      4.305      5.149
REMARK INTER + INTRA:          -3.112
REMARK INTER:                  -2.424
REMARK INTRA:                  -0.689
REMARK UNBOUND:                -0.511
REMARK SMILES CCCCCCCCCCCCCCCCCC(=O)[O-]
REMARK SMILES IDX 10 1 11 2 12 3 13 4 14 5 15 6 16 7 17 8 18 9 19 10 20 11
REMARK SMILES IDX 9 12 8 13 7 14 6 15 5 16 4 17 3 18 2 19 1 20
REMARK H PARENT
REMARK Flexibility Score: inf
ROOT
ATOM      1  C   UNL     1      31.138  -0.006  -0.579  1.00  0.00     0.000 C 
ENDROOT
BRANCH   1   2
ATOM      2  C   UNL     1      30.373   1.198  -0.001  1.00  0.00     0.000 C 
BRANCH   2   3
ATOM      3  C   UNL     1      29.485   0.814   1.193  1.00  0.00     0.000 C 
BRANCH   3   4
ATOM      4  C   UNL     1      29.414   1.918   2.259  1.00  0.00     0.000 C 
BRANCH   4   5
ATOM      5  C   UNL     1      30.815   2.434   2.607  1.00  0.00     0.000 C 
BRANCH   5   6
ATOM      6  C   UNL     1      30.755   3.471   3.740  1.00  0.00     0.000 C 
BRANCH   6   7
ATOM      7  C   UNL     1      30.812   4.921   3.225  1.00  0.00     0.006 C 
BRANCH   7   8
ATOM      8  C   UNL     1      31.209   5.954   4.292  1.00  0.00     0.053 C 
BRANCH   8   9
ATOM      9  C   UNL     1      30.116   6.947   4.544  1.00  0.00     0.041 C 
ATOM     10  O   UNL     1      30.016   7.507   5.667  1.00  0.00    -0.550 OA
ATOM     11  O   UNL     1      29.189   7.229   3.549  1.00  0.00    -0.550 OA
ENDBRANCH   8   9
ENDBRANCH   7   8
ENDBRANCH   6   7
ENDBRANCH   5   6
ENDBRANCH   4   5
ENDBRANCH   3   4
ENDBRANCH   2   3
ENDBRANCH   1   2
BRANCH   1  12
ATOM     12  C   UNL     1      31.224   0.033  -2.114  1.00  0.00     0.000 C 
BRANCH  12  13
ATOM     13  C   UNL     1      31.490  -1.353  -2.728  1.00  0.00    -0.000 C 
BRANCH  13  14
ATOM     14  C   UNL     1      32.490  -1.302  -3.898  1.00  0.00    -0.000 C 
BRANCH  14  15
ATOM     15  C   UNL     1      33.783  -0.512  -3.613  1.00  0.00    -0.000 C 
BRANCH  15  16
ATOM     16  C   UNL     1      34.991  -1.369  -3.188  1.00  0.00    -0.000 C 
BRANCH  16  17
ATOM     17  C   UNL     1      35.255  -2.604  -4.073  1.00  0.00    -0.000 C 
BRANCH  17  18
ATOM     18  C   UNL     1      36.724  -3.068  -4.125  1.00  0.00    -0.000 C 
BRANCH  18  19
ATOM     19  C   UNL     1      36.924  -4.593  -4.086  1.00  0.00    -0.003 C 
ATOM     20  C   UNL     1      36.783  -5.177  -2.681  1.00  0.00     0.004 C 
ENDBRANCH  18  19
ENDBRANCH  17  18
ENDBRANCH  16  17
ENDBRANCH  15  16
ENDBRANCH  14  15
ENDBRANCH  13  14
ENDBRANCH  12  13
ENDBRANCH   1  12
TORSDOF 16
ENDMDL
MODEL 7
REMARK VINA RESULT:    -1.269     17.929     21.668
REMARK INTER + INTRA:          -2.966
REMARK INTER:                  -2.290
REMARK INTRA:                  -0.676
REMARK UNBOUND:                -0.511
REMARK SMILES CCCCCCCCCCCCCCCCCC(=O)[O-]
REMARK SMILES IDX 10 1 11 2 12 3 13 4 14 5 15 6 16 7 17 8 18 9 19 10 20 11
REMARK SMILES IDX 9 12 8 13 7 14 6 15 5 16 4 17 3 18 2 19 1 20
REMARK H PARENT
REMARK Flexibility Score: inf
ROOT
ATOM      1  C   UNL     1      20.040   6.880  11.627  1.00  0.00     0.000 C 
ENDROOT
BRANCH   1   2
ATOM      2  C   UNL     1      20.392   8.232  12.272  1.00  0.00     0.000 C 
BRANCH   2   3
ATOM      3  C   UNL     1      21.029   9.213  11.275  1.00  0.00     0.000 C 
BRANCH   3   4
ATOM      4  C   UNL     1      19.995  10.121  10.592  1.00  0.00     0.000 C 
BRANCH   4   5
ATOM      5  C   UNL     1      20.187  10.122   9.071  1.00  0.00     0.000 C 
BRANCH   5   6
ATOM      6  C   UNL     1      21.671   9.978   8.702  1.00  0.00     0.000 C 
BRANCH   6   7
ATOM      7  C   UNL     1      21.929  10.125   7.191  1.00  0.00     0.006 C 
BRANCH   7   8
ATOM      8  C   UNL     1      22.819   9.025   6.592  1.00  0.00     0.053 C 
BRANCH   8   9
ATOM      9  C   UNL     1      22.014   7.872   6.077  1.00  0.00     0.041 C 
ATOM     10  O   UNL     1      22.590   6.827   5.673  1.00  0.00    -0.550 OA
ATOM     11  O   UNL     1      20.630   7.964   6.012  1.00  0.00    -0.550 OA
ENDBRANCH   8   9
ENDBRANCH   7   8
ENDBRANCH   6   7
ENDBRANCH   5   6
ENDBRANCH   4   5
ENDBRANCH   3   4
ENDBRANCH   2   3
ENDBRANCH   1   2
BRANCH   1  12
ATOM     12  C   UNL     1      18.526   6.613  11.609  1.00  0.00     0.000 C 
BRANCH  12  13
ATOM     13  C   UNL     1      18.020   5.976  12.916  1.00  0.00    -0.000 C 
BRANCH  13  14
ATOM     14  C   UNL     1      18.603   6.652  14.171  1.00  0.00    -0.000 C 
BRANCH  14  15
ATOM     15  C   UNL     1      18.624   5.768  15.435  1.00  0.00    -0.000 C 
BRANCH  15  16
ATOM     16  C   UNL     1      17.237   5.433  16.019  1.00  0.00    -0.000 C 
BRANCH  16  17
ATOM     17  C   UNL     1      16.916   3.927  16.105  1.00  0.00    -0.000 C 
BRANCH  17  18
ATOM     18  C   UNL     1      17.877   3.010  15.323  1.00  0.00    -0.000 C 
BRANCH  18  19
ATOM     19  C   UNL     1      17.239   1.723  14.771  1.00  0.00    -0.003 C 
ATOM     20  C   UNL     1      17.640   0.475  15.556  1.00  0.00     0.004 C 
ENDBRANCH  18  19
ENDBRANCH  17  18
ENDBRANCH  16  17
ENDBRANCH  15  16
ENDBRANCH  14  15
ENDBRANCH  13  14
ENDBRANCH  12  13
ENDBRANCH   1  12
TORSDOF 16
ENDMDL
MODEL 8
REMARK VINA RESULT:    -1.227      6.310     11.274
REMARK INTER + INTRA:          -2.885
REMARK INTER:                  -2.302
REMARK INTRA:                  -0.583
REMARK UNBOUND:                -0.511
REMARK SMILES CCCCCCCCCCCCCCCCCC(=O)[O-]
REMARK SMILES IDX 10 1 11 2 12 3 13 4 14 5 15 6 16 7 17 8 18 9 19 10 20 11
REMARK SMILES IDX 9 12 8 13 7 14 6 15 5 16 4 17 3 18 2 19 1 20
REMARK H PARENT
REMARK Flexibility Score: inf
ROOT
ATOM      1  C   UNL     1      31.765   0.769  -1.976  1.00  0.00     0.000 C 
ENDROOT
BRANCH   1   2
ATOM      2  C   UNL     1      32.776  -0.348  -2.289  1.00  0.00     0.000 C 
BRANCH   2   3
ATOM      3  C   UNL     1      32.706  -0.814  -3.752  1.00  0.00     0.000 C 
BRANCH   3   4
ATOM      4  C   UNL     1      33.656  -1.985  -4.047  1.00  0.00     0.000 C 
BRANCH   4   5
ATOM      5  C   UNL     1      35.110  -1.506  -4.123  1.00  0.00     0.000 C 
BRANCH   5   6
ATOM      6  C   UNL     1      36.032  -2.406  -3.286  1.00  0.00     0.000 C 
BRANCH   6   7
ATOM      7  C   UNL     1      36.476  -3.672  -4.041  1.00  0.00     0.006 C 
BRANCH   7   8
ATOM      8  C   UNL     1      36.717  -4.893  -3.139  1.00  0.00     0.053 C 
BRANCH   8   9
ATOM      9  C   UNL     1      36.242  -6.163  -3.776  1.00  0.00     0.041 C 
ATOM     10  O   UNL     1      35.038  -6.284  -4.125  1.00  0.00    -0.550 OA
ATOM     11  O   UNL     1      37.121  -7.223  -3.955  1.00  0.00    -0.550 OA
ENDBRANCH   8   9
ENDBRANCH   7   8
ENDBRANCH   6   7
ENDBRANCH   5   6
ENDBRANCH   4   5
ENDBRANCH   3   4
ENDBRANCH   2   3
ENDBRANCH   1   2
BRANCH   1  12
ATOM     12  C   UNL     1      30.626   0.292  -1.060  1.00  0.00     0.000 C 
BRANCH  12  13
ATOM     13  C   UNL     1      30.784   0.786   0.389  1.00  0.00    -0.000 C 
BRANCH  13  14
ATOM     14  C   UNL     1      29.443   0.857   1.142  1.00  0.00    -0.000 C 
BRANCH  14  15
ATOM     15  C   UNL     1      29.321   2.024   2.143  1.00  0.00    -0.000 C 
BRANCH  15  16
ATOM     16  C   UNL     1      30.651   2.716   2.503  1.00  0.00    -0.000 C 
BRANCH  16  17
ATOM     17  C   UNL     1      30.568   3.709   3.680  1.00  0.00    -0.000 C 
BRANCH  17  18
ATOM     18  C   UNL     1      31.075   5.132   3.370  1.00  0.00    -0.000 C 
BRANCH  18  19
ATOM     19  C   UNL     1      30.101   6.263   3.744  1.00  0.00    -0.003 C 
ATOM     20  C   UNL     1      30.624   7.150   4.873  1.00  0.00     0.004 C 
ENDBRANCH  18  19
ENDBRANCH  17  18
ENDBRANCH  16  17
ENDBRANCH  15  16
ENDBRANCH  14  15
ENDBRANCH  13  14
ENDBRANCH  12  13
ENDBRANCH   1  12
TORSDOF 16
ENDMDL
MODEL 9
REMARK VINA RESULT:     0.169     18.852     21.959
REMARK INTER + INTRA:          -0.184
REMARK INTER:                   0.689
REMARK INTRA:                  -0.873
REMARK UNBOUND:                -0.511
REMARK SMILES CCCCCCCCCCCCCCCCCC(=O)[O-]
REMARK SMILES IDX 10 1 11 2 12 3 13 4 14 5 15 6 16 7 17 8 18 9 19 10 20 11
REMARK SMILES IDX 9 12 8 13 7 14 6 15 5 16 4 17 3 18 2 19 1 20
REMARK H PARENT
REMARK Flexibility Score: inf
ROOT
ATOM      1  C   UNL     1      19.021   6.099  12.597  1.00  0.00     0.000 C 
ENDROOT
BRANCH   1   2
ATOM      2  C   UNL     1      19.873   7.181  13.283  1.00  0.00     0.000 C 
BRANCH   2   3
ATOM      3  C   UNL     1      20.178   8.368  12.355  1.00  0.00     0.000 C 
BRANCH   3   4
ATOM      4  C   UNL     1      18.955   8.814  11.540  1.00  0.00     0.000 C 
BRANCH   4   5
ATOM      5  C   UNL     1      19.240  10.125  10.796  1.00  0.00     0.000 C 
BRANCH   5   6
ATOM      6  C   UNL     1      20.657  10.125  10.203  1.00  0.00     0.000 C 
BRANCH   6   7
ATOM      7  C   UNL     1      20.662   9.969   8.671  1.00  0.00     0.006 C 
BRANCH   7   8
ATOM      8  C   UNL     1      21.826   9.126   8.125  1.00  0.00     0.053 C 
BRANCH   8   9
ATOM      9  C   UNL     1      21.625   8.757   6.688  1.00  0.00     0.041 C 
ATOM     10  O   UNL     1      20.852   9.436   5.962  1.00  0.00    -0.550 OA
ATOM     11  O   UNL     1      22.266   7.643   6.160  1.00  0.00    -0.550 OA
ENDBRANCH   8   9
ENDBRANCH   7   8
ENDBRANCH   6   7
ENDBRANCH   5   6
ENDBRANCH   4   5
ENDBRANCH   3   4
ENDBRANCH   2   3
ENDBRANCH   1   2
BRANCH   1  12
ATOM     12  C   UNL     1      17.685   5.857  13.319  1.00  0.00     0.000 C 
BRANCH  12  13
ATOM     13  C   UNL     1      17.869   5.527  14.811  1.00  0.00    -0.000 C 
BRANCH  13  14
ATOM     14  C   UNL     1      18.848   4.362  15.046  1.00  0.00    -0.000 C 
BRANCH  14  15
ATOM     15  C   UNL     1      18.321   3.247  15.972  1.00  0.00    -0.000 C 
BRANCH  15  16
ATOM     16  C   UNL     1      16.948   2.668  15.579  1.00  0.00    -0.000 C 
BRANCH  16  17
ATOM     17  C   UNL     1      17.004   1.451  14.632  1.00  0.00    -0.000 C 
BRANCH  17  18
ATOM     18  C   UNL     1      16.890   0.080  15.326  1.00  0.00    -0.000 C 
BRANCH  18  19
ATOM     19  C   UNL     1      17.895  -0.978  14.840  1.00  0.00    -0.003 C 
ATOM     20  C   UNL     1      18.729  -1.573  15.974  1.00  0.00     0.004 C 
ENDBRANCH  18  19
ENDBRANCH  17  18
ENDBRANCH  16  17
ENDBRANCH  15  16
ENDBRANCH  14  15
ENDBRANCH  13  14
ENDBRANCH  12  13
ENDBRANCH   1  12
TORSDOF 16
ENDMDL
