MODEL 1
REMARK VINA RESULT:    -7.837      0.000      0.000
REMARK INTER + INTRA:         -16.320
REMARK INTER:                 -14.710
REMARK INTRA:                  -1.611
REMARK UNBOUND:                -1.611
REMARK SMILES CCCCCCCCC=CCCCCCCCC(=O)[O-]
REMARK SMILES IDX 10 1 9 2 11 3 12 4 13 5 14 6 15 7 16 8 17 9 18 10 19 11
REMARK SMILES IDX 20 12 8 13 7 14 6 15 5 16 4 17 3 18 2 19 1 20
REMARK H PARENT
REMARK Flexibility Score: inf
ROOT
ATOM      1  C   UNL     1       4.512   0.536  -5.460  1.00  0.00    -0.031 C 
ATOM      2  C   UNL     1       3.886   0.689  -4.285  1.00  0.00    -0.031 C 
ENDROOT
BRANCH   1   3
ATOM      3  C   UNL     1       4.674   1.701  -6.400  1.00  0.00     0.027 C 
BRANCH   3   4
ATOM      4  C   UNL     1       4.158   3.022  -5.803  1.00  0.00     0.004 C 
BRANCH   4   5
ATOM      5  C   UNL     1       3.134   3.774  -6.680  1.00  0.00     0.000 C 
BRANCH   5   6
ATOM      6  C   UNL     1       2.511   2.953  -7.822  1.00  0.00     0.000 C 
BRANCH   6   7
ATOM      7  C   UNL     1       1.051   2.553  -7.547  1.00  0.00     0.000 C 
BRANCH   7   8
ATOM      8  C   UNL     1       0.929   1.447  -6.483  1.00  0.00     0.006 C 
BRANCH   8   9
ATOM      9  C   UNL     1       0.833   0.021  -7.050  1.00  0.00     0.053 C 
BRANCH   9  10
ATOM     10  C   UNL     1      -0.438  -0.662  -6.649  1.00  0.00     0.041 C 
ATOM     11  O   UNL     1      -1.138  -1.256  -7.511  1.00  0.00    -0.550 OA
ATOM     12  O   UNL     1      -0.835  -0.667  -5.317  1.00  0.00    -0.550 OA
ENDBRANCH   9  10
ENDBRANCH   8   9
ENDBRANCH   7   8
ENDBRANCH   6   7
ENDBRANCH   5   6
ENDBRANCH   4   5
ENDBRANCH   3   4
ENDBRANCH   1   3
BRANCH   2  13
ATOM     13  C   UNL     1       3.678  -0.467  -3.346  1.00  0.00     0.027 C 
BRANCH  13  14
ATOM     14  C   UNL     1       4.981  -1.254  -3.136  1.00  0.00     0.004 C 
BRANCH  14  15
ATOM     15  C   UNL     1       4.802  -2.420  -2.142  1.00  0.00     0.000 C 
BRANCH  15  16
ATOM     16  C   UNL     1       5.671  -3.648  -2.465  1.00  0.00     0.000 C 
BRANCH  16  17
ATOM     17  C   UNL     1       4.839  -4.875  -2.873  1.00  0.00    -0.000 C 
BRANCH  17  18
ATOM     18  C   UNL     1       3.326  -4.630  -2.746  1.00  0.00    -0.000 C 
BRANCH  18  19
ATOM     19  C   UNL     1       2.492  -5.846  -3.179  1.00  0.00    -0.003 C 
ATOM     20  C   UNL     1       3.011  -6.428  -4.490  1.00  0.00     0.004 C 
ENDBRANCH  18  19
ENDBRANCH  17  18
ENDBRANCH  16  17
ENDBRANCH  15  16
ENDBRANCH  14  15
ENDBRANCH  13  14
ENDBRANCH   2  13
TORSDOF 15
ENDMDL
MODEL 2
REMARK VINA RESULT:    -7.560      2.455      7.465
REMARK INTER + INTRA:         -15.800
REMARK INTER:                 -14.205
REMARK INTRA:                  -1.595
REMARK UNBOUND:                -1.611
REMARK SMILES CCCCCCCCC=CCCCCCCCC(=O)[O-]
REMARK SMILES IDX 10 1 9 2 11 3 12 4 13 5 14 6 15 7 16 8 17 9 18 10 19 11
REMARK SMILES IDX 20 12 8 13 7 14 6 15 5 16 4 17 3 18 2 19 1 20
REMARK H PARENT
REMARK Flexibility Score: inf
ROOT
ATOM      1  C   UNL     1       3.566   0.446  -5.729  1.00  0.00    -0.031 C 
ATOM      2  C   UNL     1       2.248   0.655  -5.604  1.00  0.00    -0.031 C 
ENDROOT
BRANCH   1   3
ATOM      3  C   UNL     1       4.425   0.221  -4.513  1.00  0.00     0.027 C 
BRANCH   3   4
ATOM      4  C   UNL     1       3.605  -0.174  -3.273  1.00  0.00     0.004 C 
BRANCH   4   5
ATOM      5  C   UNL     1       4.420  -0.834  -2.140  1.00  0.00     0.000 C 
BRANCH   5   6
ATOM      6  C   UNL     1       5.748  -1.484  -2.571  1.00  0.00     0.000 C 
BRANCH   6   7
ATOM      7  C   UNL     1       5.760  -3.010  -2.377  1.00  0.00     0.000 C 
BRANCH   7   8
ATOM      8  C   UNL     1       4.440  -3.674  -2.809  1.00  0.00     0.006 C 
BRANCH   8   9
ATOM      9  C   UNL     1       4.541  -5.184  -3.080  1.00  0.00     0.053 C 
BRANCH   9  10
ATOM     10  C   UNL     1       3.209  -5.792  -3.392  1.00  0.00     0.041 C 
ATOM     11  O   UNL     1       2.977  -6.257  -4.539  1.00  0.00    -0.550 OA
ATOM     12  O   UNL     1       2.232  -5.872  -2.406  1.00  0.00    -0.550 OA
ENDBRANCH   9  10
ENDBRANCH   8   9
ENDBRANCH   7   8
ENDBRANCH   6   7
ENDBRANCH   5   6
ENDBRANCH   4   5
ENDBRANCH   3   4
ENDBRANCH   1   3
BRANCH   2  13
ATOM     13  C   UNL     1       1.376   0.921  -6.800  1.00  0.00     0.027 C 
BRANCH  13  14
ATOM     14  C   UNL     1       1.103   2.424  -6.967  1.00  0.00     0.004 C 
BRANCH  14  15
ATOM     15  C   UNL     1       1.883   3.028  -8.154  1.00  0.00     0.000 C 
BRANCH  15  16
ATOM     16  C   UNL     1       3.331   3.417  -7.810  1.00  0.00     0.000 C 
BRANCH  16  17
ATOM     17  C   UNL     1       3.455   4.091  -6.434  1.00  0.00    -0.000 C 
BRANCH  17  18
ATOM     18  C   UNL     1       4.826   3.852  -5.780  1.00  0.00    -0.000 C 
BRANCH  18  19
ATOM     19  C   UNL     1       4.831   4.179  -4.279  1.00  0.00    -0.003 C 
ATOM     20  C   UNL     1       5.898   5.218  -3.947  1.00  0.00     0.004 C 
ENDBRANCH  18  19
ENDBRANCH  17  18
ENDBRANCH  16  17
ENDBRANCH  15  16
ENDBRANCH  14  15
ENDBRANCH  13  14
ENDBRANCH   2  13
TORSDOF 15
ENDMDL
MODEL 3
REMARK VINA RESULT:    -7.458      3.428      4.601
REMARK INTER + INTRA:         -15.608
REMARK INTER:                 -14.078
REMARK INTRA:                  -1.530
REMARK UNBOUND:                -1.611
REMARK SMILES CCCCCCCCC=CCCCCCCCC(=O)[O-]
REMARK SMILES IDX 10 1 9 2 11 3 12 4 13 5 14 6 15 7 16 8 17 9 18 10 19 11
REMARK SMILES IDX 20 12 8 13 7 14 6 15 5 16 4 17 3 18 2 19 1 20
REMARK H PARENT
REMARK Flexibility Score: inf
ROOT
ATOM      1  C   UNL     1       2.282   0.698  -5.506  1.00  0.00    -0.031 C 
ATOM      2  C   UNL     1       3.562   0.374  -5.736  1.00  0.00    -0.031 C 
ENDROOT
BRANCH   1   3
ATOM      3  C   UNL     1       1.335   0.941  -6.652  1.00  0.00     0.027 C 
BRANCH   3   4
ATOM      4  C   UNL     1       1.095   2.437  -6.916  1.00  0.00     0.004 C 
BRANCH   4   5
ATOM      5  C   UNL     1       1.989   3.053  -8.014  1.00  0.00     0.000 C 
BRANCH   5   6
ATOM      6  C   UNL     1       3.366   3.555  -7.543  1.00  0.00     0.000 C 
BRANCH   6   7
ATOM      7  C   UNL     1       3.356   4.057  -6.089  1.00  0.00     0.000 C 
BRANCH   7   8
ATOM      8  C   UNL     1       4.753   4.034  -5.443  1.00  0.00     0.006 C 
BRANCH   8   9
ATOM      9  C   UNL     1       4.761   4.280  -3.926  1.00  0.00     0.053 C 
BRANCH   9  10
ATOM     10  C   UNL     1       5.799   5.280  -3.521  1.00  0.00     0.041 C 
ATOM     11  O   UNL     1       6.444   5.914  -4.397  1.00  0.00    -0.550 OA
ATOM     12  O   UNL     1       6.035   5.534  -2.175  1.00  0.00    -0.550 OA
ENDBRANCH   9  10
ENDBRANCH   8   9
ENDBRANCH   7   8
ENDBRANCH   6   7
ENDBRANCH   5   6
ENDBRANCH   4   5
ENDBRANCH   3   4
ENDBRANCH   1   3
BRANCH   2  13
ATOM     13  C   UNL     1       4.536   0.164  -4.610  1.00  0.00     0.027 C 
BRANCH  13  14
ATOM     14  C   UNL     1       3.813  -0.246  -3.318  1.00  0.00     0.004 C 
BRANCH  14  15
ATOM     15  C   UNL     1       4.736  -1.025  -2.357  1.00  0.00     0.000 C 
BRANCH  15  16
ATOM     16  C   UNL     1       5.393  -2.261  -2.996  1.00  0.00     0.000 C 
BRANCH  16  17
ATOM     17  C   UNL     1       5.033  -3.568  -2.269  1.00  0.00    -0.000 C 
BRANCH  17  18
ATOM     18  C   UNL     1       3.696  -4.159  -2.747  1.00  0.00    -0.000 C 
BRANCH  18  19
ATOM     19  C   UNL     1       3.870  -5.503  -3.473  1.00  0.00    -0.003 C 
ATOM     20  C   UNL     1       2.526  -6.200  -3.666  1.00  0.00     0.004 C 
ENDBRANCH  18  19
ENDBRANCH  17  18
ENDBRANCH  16  17
ENDBRANCH  15  16
ENDBRANCH  14  15
ENDBRANCH  13  14
ENDBRANCH   2  13
TORSDOF 15
ENDMDL
MODEL 4
REMARK VINA RESULT:    -7.405      3.156      4.259
REMARK INTER + INTRA:         -15.509
REMARK INTER:                 -14.085
REMARK INTRA:                  -1.424
REMARK UNBOUND:                -1.611
REMARK SMILES CCCCCCCCC=CCCCCCCCC(=O)[O-]
REMARK SMILES IDX 10 1 9 2 11 3 12 4 13 5 14 6 15 7 16 8 17 9 18 10 19 11
REMARK SMILES IDX 20 12 8 13 7 14 6 15 5 16 4 17 3 18 2 19 1 20
REMARK H PARENT
REMARK Flexibility Score: inf
ROOT
ATOM      1  C   UNL     1       2.243   0.258  -5.106  1.00  0.00    -0.031 C 
ATOM      2  C   UNL     1       3.398   0.313  -4.429  1.00  0.00    -0.031 C 
ENDROOT
BRANCH   1   3
ATOM      3  C   UNL     1       2.078   1.004  -6.403  1.00  0.00     0.027 C 
BRANCH   3   4
ATOM      4  C   UNL     1       2.715   0.269  -7.595  1.00  0.00     0.004 C 
BRANCH   4   5
ATOM      5  C   UNL     1       4.202   0.603  -7.844  1.00  0.00     0.000 C 
BRANCH   5   6
ATOM      6  C   UNL     1       4.515   2.091  -8.083  1.00  0.00     0.000 C 
BRANCH   6   7
ATOM      7  C   UNL     1       5.275   2.739  -6.913  1.00  0.00     0.000 C 
BRANCH   7   8
ATOM      8  C   UNL     1       4.426   3.772  -6.151  1.00  0.00     0.006 C 
BRANCH   8   9
ATOM      9  C   UNL     1       4.426   3.599  -4.623  1.00  0.00     0.053 C 
BRANCH   9  10
ATOM     10  C   UNL     1       5.160   4.704  -3.930  1.00  0.00     0.041 C 
ATOM     11  O   UNL     1       4.741   5.152  -2.830  1.00  0.00    -0.550 OA
ATOM     12  O   UNL     1       6.325   5.221  -4.484  1.00  0.00    -0.550 OA
ENDBRANCH   9  10
ENDBRANCH   8   9
ENDBRANCH   7   8
ENDBRANCH   6   7
ENDBRANCH   5   6
ENDBRANCH   4   5
ENDBRANCH   3   4
ENDBRANCH   1   3
BRANCH   2  13
ATOM     13  C   UNL     1       3.575  -0.391  -3.112  1.00  0.00     0.027 C 
BRANCH  13  14
ATOM     14  C   UNL     1       4.853  -1.245  -3.105  1.00  0.00     0.004 C 
BRANCH  14  15
ATOM     15  C   UNL     1       4.772  -2.402  -2.087  1.00  0.00     0.000 C 
BRANCH  15  16
ATOM     16  C   UNL     1       5.618  -3.628  -2.475  1.00  0.00     0.000 C 
BRANCH  16  17
ATOM     17  C   UNL     1       4.768  -4.788  -3.020  1.00  0.00    -0.000 C 
BRANCH  17  18
ATOM     18  C   UNL     1       3.308  -4.725  -2.541  1.00  0.00    -0.000 C 
BRANCH  18  19
ATOM     19  C   UNL     1       2.432  -5.820  -3.169  1.00  0.00    -0.003 C 
ATOM     20  C   UNL     1       3.042  -6.330  -4.472  1.00  0.00     0.004 C 
ENDBRANCH  18  19
ENDBRANCH  17  18
ENDBRANCH  16  17
ENDBRANCH  15  16
ENDBRANCH  14  15
ENDBRANCH  13  14
ENDBRANCH   2  13
TORSDOF 15
ENDMDL
MODEL 5
REMARK VINA RESULT:    -7.312      2.483      3.381
REMARK INTER + INTRA:         -15.335
REMARK INTER:                 -14.074
REMARK INTRA:                  -1.261
REMARK UNBOUND:                -1.611
REMARK SMILES CCCCCCCCC=CCCCCCCCC(=O)[O-]
REMARK SMILES IDX 10 1 9 2 11 3 12 4 13 5 14 6 15 7 16 8 17 9 18 10 19 11
REMARK SMILES IDX 20 12 8 13 7 14 6 15 5 16 4 17 3 18 2 19 1 20
REMARK H PARENT
REMARK Flexibility Score: inf
ROOT
ATOM      1  C   UNL     1       4.131   0.376  -3.733  1.00  0.00    -0.031 C 
ATOM      2  C   UNL     1       3.710  -0.469  -2.782  1.00  0.00    -0.031 C 
ENDROOT
BRANCH   1   3
ATOM      3  C   UNL     1       3.312   0.602  -4.976  1.00  0.00     0.027 C 
BRANCH   3   4
ATOM      4  C   UNL     1       1.903  -0.007  -4.877  1.00  0.00     0.004 C 
BRANCH   4   5
ATOM      5  C   UNL     1       0.903   0.494  -5.941  1.00  0.00     0.000 C 
BRANCH   5   6
ATOM      6  C   UNL     1       1.533   1.075  -7.220  1.00  0.00     0.000 C 
BRANCH   6   7
ATOM      7  C   UNL     1       1.238   2.573  -7.407  1.00  0.00     0.000 C 
BRANCH   7   8
ATOM      8  C   UNL     1       2.344   3.303  -8.190  1.00  0.00     0.006 C 
BRANCH   8   9
ATOM      9  C   UNL     1       3.611   3.607  -7.375  1.00  0.00     0.053 C 
BRANCH   9  10
ATOM     10  C   UNL     1       4.744   2.695  -7.731  1.00  0.00     0.041 C 
ATOM     11  O   UNL     1       4.835   2.221  -8.894  1.00  0.00    -0.550 OA
ATOM     12  O   UNL     1       5.717   2.391  -6.786  1.00  0.00    -0.550 OA
ENDBRANCH   9  10
ENDBRANCH   8   9
ENDBRANCH   7   8
ENDBRANCH   6   7
ENDBRANCH   5   6
ENDBRANCH   4   5
ENDBRANCH   3   4
ENDBRANCH   1   3
BRANCH   2  13
ATOM     13  C   UNL     1       4.528  -0.741  -1.550  1.00  0.00     0.027 C 
BRANCH  13  14
ATOM     14  C   UNL     1       5.844  -1.454  -1.903  1.00  0.00     0.004 C 
BRANCH  14  15
ATOM     15  C   UNL     1       5.633  -2.586  -2.930  1.00  0.00     0.000 C 
BRANCH  15  16
ATOM     16  C   UNL     1       5.707  -3.997  -2.321  1.00  0.00     0.000 C 
BRANCH  16  17
ATOM     17  C   UNL     1       4.775  -4.997  -3.024  1.00  0.00    -0.000 C 
BRANCH  17  18
ATOM     18  C   UNL     1       3.311  -4.857  -2.573  1.00  0.00    -0.000 C 
BRANCH  18  19
ATOM     19  C   UNL     1       2.373  -5.834  -3.298  1.00  0.00    -0.003 C 
ATOM     20  C   UNL     1       3.027  -6.386  -4.562  1.00  0.00     0.004 C 
ENDBRANCH  18  19
ENDBRANCH  17  18
ENDBRANCH  16  17
ENDBRANCH  15  16
ENDBRANCH  14  15
ENDBRANCH  13  14
ENDBRANCH   2  13
TORSDOF 15
ENDMDL
MODEL 6
REMARK VINA RESULT:    -7.303      2.554      7.170
REMARK INTER + INTRA:         -15.317
REMARK INTER:                 -13.483
REMARK INTRA:                  -1.834
REMARK UNBOUND:                -1.611
REMARK SMILES CCCCCCCCC=CCCCCCCCC(=O)[O-]
REMARK SMILES IDX 10 1 9 2 11 3 12 4 13 5 14 6 15 7 16 8 17 9 18 10 19 11
REMARK SMILES IDX 20 12 8 13 7 14 6 15 5 16 4 17 3 18 2 19 1 20
REMARK H PARENT
REMARK Flexibility Score: inf
ROOT
ATOM      1  C   UNL     1       3.608   0.420  -5.580  1.00  0.00    -0.031 C 
ATOM      2  C   UNL     1       2.278   0.591  -5.601  1.00  0.00    -0.031 C 
ENDROOT
BRANCH   1   3
ATOM      3  C   UNL     1       4.359   0.414  -4.275  1.00  0.00     0.027 C 
BRANCH   3   4
ATOM      4  C   UNL     1       3.597  -0.315  -3.155  1.00  0.00     0.004 C 
BRANCH   4   5
ATOM      5  C   UNL     1       4.489  -0.908  -2.043  1.00  0.00     0.000 C 
BRANCH   5   6
ATOM      6  C   UNL     1       5.846  -1.465  -2.509  1.00  0.00     0.000 C 
BRANCH   6   7
ATOM      7  C   UNL     1       5.912  -3.001  -2.463  1.00  0.00     0.000 C 
BRANCH   7   8
ATOM      8  C   UNL     1       4.531  -3.660  -2.635  1.00  0.00     0.006 C 
BRANCH   8   9
ATOM      9  C   UNL     1       4.575  -5.136  -3.061  1.00  0.00     0.053 C 
BRANCH   9  10
ATOM     10  C   UNL     1       3.206  -5.699  -3.288  1.00  0.00     0.041 C 
ATOM     11  O   UNL     1       2.334  -5.631  -2.382  1.00  0.00    -0.550 OA
ATOM     12  O   UNL     1       2.883  -6.273  -4.512  1.00  0.00    -0.550 OA
ENDBRANCH   9  10
ENDBRANCH   8   9
ENDBRANCH   7   8
ENDBRANCH   6   7
ENDBRANCH   5   6
ENDBRANCH   4   5
ENDBRANCH   3   4
ENDBRANCH   1   3
BRANCH   2  13
ATOM     13  C   UNL     1       1.510   0.639  -6.893  1.00  0.00     0.027 C 
BRANCH  13  14
ATOM     14  C   UNL     1       0.704   1.942  -7.012  1.00  0.00     0.004 C 
BRANCH  14  15
ATOM     15  C   UNL     1       1.615   3.177  -7.177  1.00  0.00     0.000 C 
BRANCH  15  16
ATOM     16  C   UNL     1       2.517   3.118  -8.422  1.00  0.00     0.000 C 
BRANCH  16  17
ATOM     17  C   UNL     1       4.013   3.192  -8.076  1.00  0.00    -0.000 C 
BRANCH  17  18
ATOM     18  C   UNL     1       4.832   2.084  -8.760  1.00  0.00    -0.000 C 
BRANCH  18  19
ATOM     19  C   UNL     1       3.966   1.161  -9.630  1.00  0.00    -0.003 C 
ATOM     20  C   UNL     1       4.094  -0.293  -9.182  1.00  0.00     0.004 C 
ENDBRANCH  18  19
ENDBRANCH  17  18
ENDBRANCH  16  17
ENDBRANCH  15  16
ENDBRANCH  14  15
ENDBRANCH  13  14
ENDBRANCH   2  13
TORSDOF 15
ENDMDL
MODEL 7
REMARK VINA RESULT:    -7.232      2.411      6.701
REMARK INTER + INTRA:         -15.184
REMARK INTER:                 -13.721
REMARK INTRA:                  -1.464
REMARK UNBOUND:                -1.611
REMARK SMILES CCCCCCCCC=CCCCCCCCC(=O)[O-]
REMARK SMILES IDX 10 1 9 2 11 3 12 4 13 5 14 6 15 7 16 8 17 9 18 10 19 11
REMARK SMILES IDX 20 12 8 13 7 14 6 15 5 16 4 17 3 18 2 19 1 20
REMARK H PARENT
REMARK Flexibility Score: inf
ROOT
ATOM      1  C   UNL     1       3.403   0.246  -4.162  1.00  0.00    -0.031 C 
ATOM      2  C   UNL     1       4.456   0.357  -4.984  1.00  0.00    -0.031 C 
ENDROOT
BRANCH   1   3
ATOM      3  C   UNL     1       3.369  -0.818  -3.098  1.00  0.00     0.027 C 
BRANCH   3   4
ATOM      4  C   UNL     1       4.194  -0.441  -1.856  1.00  0.00     0.004 C 
BRANCH   4   5
ATOM      5  C   UNL     1       5.520  -1.216  -1.697  1.00  0.00     0.000 C 
BRANCH   5   6
ATOM      6  C   UNL     1       5.867  -2.176  -2.849  1.00  0.00     0.000 C 
BRANCH   6   7
ATOM      7  C   UNL     1       5.703  -3.657  -2.466  1.00  0.00     0.000 C 
BRANCH   7   8
ATOM      8  C   UNL     1       4.237  -4.124  -2.515  1.00  0.00     0.006 C 
BRANCH   8   9
ATOM      9  C   UNL     1       4.010  -5.443  -3.271  1.00  0.00     0.053 C 
BRANCH   9  10
ATOM     10  C   UNL     1       2.629  -5.984  -3.060  1.00  0.00     0.041 C 
ATOM     11  O   UNL     1       2.005  -5.733  -1.996  1.00  0.00    -0.550 OA
ATOM     12  O   UNL     1       2.019  -6.741  -4.053  1.00  0.00    -0.550 OA
ENDBRANCH   9  10
ENDBRANCH   8   9
ENDBRANCH   7   8
ENDBRANCH   6   7
ENDBRANCH   5   6
ENDBRANCH   4   5
ENDBRANCH   3   4
ENDBRANCH   1   3
BRANCH   2  13
ATOM     13  C   UNL     1       4.497   1.386  -6.080  1.00  0.00     0.027 C 
BRANCH  13  14
ATOM     14  C   UNL     1       4.364   0.731  -7.463  1.00  0.00     0.004 C 
BRANCH  14  15
ATOM     15  C   UNL     1       2.949   0.904  -8.054  1.00  0.00     0.000 C 
BRANCH  15  16
ATOM     16  C   UNL     1       2.217   2.160  -7.551  1.00  0.00     0.000 C 
BRANCH  16  17
ATOM     17  C   UNL     1       0.833   1.846  -6.961  1.00  0.00    -0.000 C 
BRANCH  17  18
ATOM     18  C   UNL     1       0.808   0.515  -6.191  1.00  0.00    -0.000 C 
BRANCH  18  19
ATOM     19  C   UNL     1      -0.416  -0.347  -6.539  1.00  0.00    -0.003 C 
ATOM     20  C   UNL     1      -0.997  -1.003  -5.290  1.00  0.00     0.004 C 
ENDBRANCH  18  19
ENDBRANCH  17  18
ENDBRANCH  16  17
ENDBRANCH  15  16
ENDBRANCH  14  15
ENDBRANCH  13  14
ENDBRANCH   2  13
TORSDOF 15
ENDMDL
MODEL 8
REMARK VINA RESULT:    -6.986      2.815      3.761
REMARK INTER + INTRA:         -14.723
REMARK INTER:                 -13.607
REMARK INTRA:                  -1.116
REMARK UNBOUND:                -1.611
REMARK SMILES CCCCCCCCC=CCCCCCCCC(=O)[O-]
REMARK SMILES IDX 10 1 9 2 11 3 12 4 13 5 14 6 15 7 16 8 17 9 18 10 19 11
REMARK SMILES IDX 20 12 8 13 7 14 6 15 5 16 4 17 3 18 2 19 1 20
REMARK H PARENT
REMARK Flexibility Score: inf
ROOT
ATOM      1  C   UNL     1       2.805   0.625  -5.109  1.00  0.00    -0.031 C 
ATOM      2  C   UNL     1       2.957  -0.118  -4.004  1.00  0.00    -0.031 C 
ENDROOT
BRANCH   1   3
ATOM      3  C   UNL     1       1.598   0.449  -5.992  1.00  0.00     0.027 C 
BRANCH   3   4
ATOM      4  C   UNL     1       1.967   0.278  -7.475  1.00  0.00     0.004 C 
BRANCH   4   5
ATOM      5  C   UNL     1       3.480   0.153  -7.757  1.00  0.00     0.000 C 
BRANCH   5   6
ATOM      6  C   UNL     1       3.857  -0.189  -9.210  1.00  0.00     0.000 C 
BRANCH   6   7
ATOM      7  C   UNL     1       4.119   1.059 -10.071  1.00  0.00     0.000 C 
BRANCH   7   8
ATOM      8  C   UNL     1       4.524   2.285  -9.233  1.00  0.00     0.006 C 
BRANCH   8   9
ATOM      9  C   UNL     1       4.259   3.639  -9.910  1.00  0.00     0.053 C 
BRANCH   9  10
ATOM     10  C   UNL     1       3.083   4.348  -9.313  1.00  0.00     0.041 C 
ATOM     11  O   UNL     1       2.990   5.601  -9.394  1.00  0.00    -0.550 OA
ATOM     12  O   UNL     1       2.073   3.622  -8.693  1.00  0.00    -0.550 OA
ENDBRANCH   9  10
ENDBRANCH   8   9
ENDBRANCH   7   8
ENDBRANCH   6   7
ENDBRANCH   5   6
ENDBRANCH   4   5
ENDBRANCH   3   4
ENDBRANCH   1   3
BRANCH   2  13
ATOM     13  C   UNL     1       4.172   0.012  -3.127  1.00  0.00     0.027 C 
BRANCH  13  14
ATOM     14  C   UNL     1       5.072  -1.228  -3.237  1.00  0.00     0.004 C 
BRANCH  14  15
ATOM     15  C   UNL     1       4.441  -2.465  -2.563  1.00  0.00     0.000 C 
BRANCH  15  16
ATOM     16  C   UNL     1       5.357  -3.702  -2.558  1.00  0.00     0.000 C 
BRANCH  16  17
ATOM     17  C   UNL     1       4.616  -4.992  -2.945  1.00  0.00    -0.000 C 
BRANCH  17  18
ATOM     18  C   UNL     1       3.122  -4.946  -2.582  1.00  0.00    -0.000 C 
BRANCH  18  19
ATOM     19  C   UNL     1       2.299  -6.006  -3.330  1.00  0.00    -0.003 C 
ATOM     20  C   UNL     1       3.014  -6.460  -4.600  1.00  0.00     0.004 C 
ENDBRANCH  18  19
ENDBRANCH  17  18
ENDBRANCH  16  17
ENDBRANCH  15  16
ENDBRANCH  14  15
ENDBRANCH  13  14
ENDBRANCH   2  13
TORSDOF 15
ENDMDL
MODEL 9
REMARK VINA RESULT:    -6.976      2.492      6.896
REMARK INTER + INTRA:         -14.704
REMARK INTER:                 -13.276
REMARK INTRA:                  -1.428
REMARK UNBOUND:                -1.611
REMARK SMILES CCCCCCCCC=CCCCCCCCC(=O)[O-]
REMARK SMILES IDX 10 1 9 2 11 3 12 4 13 5 14 6 15 7 16 8 17 9 18 10 19 11
REMARK SMILES IDX 20 12 8 13 7 14 6 15 5 16 4 17 3 18 2 19 1 20
REMARK H PARENT
REMARK Flexibility Score: inf
ROOT
ATOM      1  C   UNL     1       4.011   1.477  -5.276  1.00  0.00    -0.031 C 
ATOM      2  C   UNL     1       4.479   2.679  -4.913  1.00  0.00    -0.031 C 
ENDROOT
BRANCH   1   3
ATOM      3  C   UNL     1       4.489   0.228  -4.585  1.00  0.00     0.027 C 
BRANCH   3   4
ATOM      4  C   UNL     1       3.586  -0.182  -3.408  1.00  0.00     0.004 C 
BRANCH   4   5
ATOM      5  C   UNL     1       4.309  -0.925  -2.264  1.00  0.00     0.000 C 
BRANCH   5   6
ATOM      6  C   UNL     1       5.717  -1.448  -2.600  1.00  0.00     0.000 C 
BRANCH   6   7
ATOM      7  C   UNL     1       5.839  -2.975  -2.460  1.00  0.00     0.000 C 
BRANCH   7   8
ATOM      8  C   UNL     1       4.486  -3.695  -2.606  1.00  0.00     0.006 C 
BRANCH   8   9
ATOM      9  C   UNL     1       4.587  -5.167  -3.037  1.00  0.00     0.053 C 
BRANCH   9  10
ATOM     10  C   UNL     1       3.254  -5.741  -3.405  1.00  0.00     0.041 C 
ATOM     11  O   UNL     1       3.046  -6.163  -4.573  1.00  0.00    -0.550 OA
ATOM     12  O   UNL     1       2.249  -5.836  -2.450  1.00  0.00    -0.550 OA
ENDBRANCH   9  10
ENDBRANCH   8   9
ENDBRANCH   7   8
ENDBRANCH   6   7
ENDBRANCH   5   6
ENDBRANCH   4   5
ENDBRANCH   3   4
ENDBRANCH   1   3
BRANCH   2  13
ATOM     13  C   UNL     1       4.046   3.938  -5.613  1.00  0.00     0.027 C 
BRANCH  13  14
ATOM     14  C   UNL     1       3.023   3.635  -6.720  1.00  0.00     0.004 C 
BRANCH  14  15
ATOM     15  C   UNL     1       3.622   3.819  -8.130  1.00  0.00     0.000 C 
BRANCH  15  16
ATOM     16  C   UNL     1       4.896   2.992  -8.376  1.00  0.00     0.000 C 
BRANCH  16  17
ATOM     17  C   UNL     1       4.604   1.635  -9.038  1.00  0.00    -0.000 C 
BRANCH  17  18
ATOM     18  C   UNL     1       3.112   1.267  -8.997  1.00  0.00    -0.000 C 
BRANCH  18  19
ATOM     19  C   UNL     1       2.836   0.012  -8.155  1.00  0.00    -0.003 C 
ATOM     20  C   UNL     1       1.577   0.184  -7.310  1.00  0.00     0.004 C 
ENDBRANCH  18  19
ENDBRANCH  17  18
ENDBRANCH  16  17
ENDBRANCH  15  16
ENDBRANCH  14  15
ENDBRANCH  13  14
ENDBRANCH   2  13
TORSDOF 15
ENDMDL
