MODEL 1
REMARK VINA RESULT:    -3.421      0.000      0.000
REMARK INTER + INTRA:          -9.269
REMARK INTER:                  -6.621
REMARK INTRA:                  -2.648
REMARK UNBOUND:                -2.648
REMARK SMILES CCCCCCCCCCCCCCCCCC(=O)[O-]
REMARK SMILES IDX 10 1 11 2 12 3 13 4 14 5 15 6 16 7 17 8 18 9 19 10 20 11
REMARK SMILES IDX 9 12 8 13 7 14 6 15 5 16 4 17 3 18 2 19 1 20
REMARK H PARENT
REMARK Flexibility Score: inf
ROOT
ATOM      1  C   UNL     1      57.777  27.330  52.702  1.00  0.00     0.000 C 
ENDROOT
BRANCH   1   2
ATOM      2  C   UNL     1      58.166  28.602  51.936  1.00  0.00     0.000 C 
BRANCH   2   3
ATOM      3  C   UNL     1      58.009  28.396  50.422  1.00  0.00     0.000 C 
BRANCH   3   4
ATOM      4  C   UNL     1      59.315  28.644  49.650  1.00  0.00     0.000 C 
BRANCH   4   5
ATOM      5  C   UNL     1      60.126  27.357  49.430  1.00  0.00     0.000 C 
BRANCH   5   6
ATOM      6  C   UNL     1      61.252  27.237  50.469  1.00  0.00     0.000 C 
BRANCH   6   7
ATOM      7  C   UNL     1      61.264  25.872  51.177  1.00  0.00     0.006 C 
BRANCH   7   8
ATOM      8  C   UNL     1      60.556  24.778  50.365  1.00  0.00     0.053 C 
BRANCH   8   9
ATOM      9  C   UNL     1      61.403  23.547  50.298  1.00  0.00     0.041 C 
ATOM     10  O   UNL     1      60.917  22.464  49.876  1.00  0.00    -0.550 OA
ATOM     11  O   UNL     1      62.743  23.606  50.661  1.00  0.00    -0.550 OA
ENDBRANCH   8   9
ENDBRANCH   7   8
ENDBRANCH   6   7
ENDBRANCH   5   6
ENDBRANCH   4   5
ENDBRANCH   3   4
ENDBRANCH   2   3
ENDBRANCH   1   2
BRANCH   1  12
ATOM     12  C   UNL     1      57.333  26.187  51.773  1.00  0.00     0.000 C 
BRANCH  12  13
ATOM     13  C   UNL     1      56.126  25.375  52.284  1.00  0.00    -0.000 C 
BRANCH  13  14
ATOM     14  C   UNL     1      55.156  24.939  51.165  1.00  0.00    -0.000 C 
BRANCH  14  15
ATOM     15  C   UNL     1      55.073  25.978  50.032  1.00  0.00    -0.000 C 
BRANCH  15  16
ATOM     16  C   UNL     1      53.627  26.330  49.646  1.00  0.00    -0.000 C 
BRANCH  16  17
ATOM     17  C   UNL     1      53.229  27.753  50.071  1.00  0.00    -0.000 C 
BRANCH  17  18
ATOM     18  C   UNL     1      54.411  28.553  50.649  1.00  0.00    -0.000 C 
BRANCH  18  19
ATOM     19  C   UNL     1      54.043  29.537  51.773  1.00  0.00    -0.003 C 
ATOM     20  C   UNL     1      54.639  29.152  53.127  1.00  0.00     0.004 C 
ENDBRANCH  18  19
ENDBRANCH  17  18
ENDBRANCH  16  17
ENDBRANCH  15  16
ENDBRANCH  14  15
ENDBRANCH  13  14
ENDBRANCH  12  13
ENDBRANCH   1  12
TORSDOF 16
ENDMDL
MODEL 2
REMARK VINA RESULT:    -3.205     10.396     12.468
REMARK INTER + INTRA:          -8.852
REMARK INTER:                  -5.802
REMARK INTRA:                  -3.050
REMARK UNBOUND:                -2.648
REMARK SMILES CCCCCCCCCCCCCCCCCC(=O)[O-]
REMARK SMILES IDX 10 1 11 2 12 3 13 4 14 5 15 6 16 7 17 8 18 9 19 10 20 11
REMARK SMILES IDX 9 12 8 13 7 14 6 15 5 16 4 17 3 18 2 19 1 20
REMARK H PARENT
REMARK Flexibility Score: inf
ROOT
ATOM      1  C   UNL     1      60.645  31.376  59.051  1.00  0.00     0.000 C 
ENDROOT
BRANCH   1   2
ATOM      2  C   UNL     1      60.740  30.107  59.910  1.00  0.00     0.000 C 
BRANCH   2   3
ATOM      3  C   UNL     1      61.099  30.458  61.362  1.00  0.00     0.000 C 
BRANCH   3   4
ATOM      4  C   UNL     1      62.198  29.551  61.938  1.00  0.00     0.000 C 
BRANCH   4   5
ATOM      5  C   UNL     1      62.291  28.200  61.212  1.00  0.00     0.000 C 
BRANCH   5   6
ATOM      6  C   UNL     1      63.723  27.945  60.714  1.00  0.00     0.000 C 
BRANCH   6   7
ATOM      7  C   UNL     1      64.746  28.918  61.323  1.00  0.00     0.006 C 
BRANCH   7   8
ATOM      8  C   UNL     1      66.034  29.017  60.495  1.00  0.00     0.053 C 
BRANCH   8   9
ATOM      9  C   UNL     1      67.049  28.034  60.989  1.00  0.00     0.041 C 
ATOM     10  O   UNL     1      68.052  28.431  61.640  1.00  0.00    -0.550 OA
ATOM     11  O   UNL     1      66.864  26.675  60.766  1.00  0.00    -0.550 OA
ENDBRANCH   8   9
ENDBRANCH   7   8
ENDBRANCH   6   7
ENDBRANCH   5   6
ENDBRANCH   4   5
ENDBRANCH   3   4
ENDBRANCH   2   3
ENDBRANCH   1   2
BRANCH   1  12
ATOM     12  C   UNL     1      61.832  31.532  58.085  1.00  0.00     0.000 C 
BRANCH  12  13
ATOM     13  C   UNL     1      63.166  30.963  58.609  1.00  0.00    -0.000 C 
BRANCH  13  14
ATOM     14  C   UNL     1      64.196  32.050  58.985  1.00  0.00    -0.000 C 
BRANCH  14  15
ATOM     15  C   UNL     1      64.194  32.352  60.494  1.00  0.00    -0.000 C 
BRANCH  15  16
ATOM     16  C   UNL     1      63.843  33.815  60.811  1.00  0.00    -0.000 C 
BRANCH  16  17
ATOM     17  C   UNL     1      62.330  34.085  60.762  1.00  0.00    -0.000 C 
BRANCH  17  18
ATOM     18  C   UNL     1      61.961  35.221  59.790  1.00  0.00    -0.000 C 
BRANCH  18  19
ATOM     19  C   UNL     1      63.044  35.567  58.753  1.00  0.00    -0.003 C 
ATOM     20  C   UNL     1      62.671  35.148  57.331  1.00  0.00     0.004 C 
ENDBRANCH  18  19
ENDBRANCH  17  18
ENDBRANCH  16  17
ENDBRANCH  15  16
ENDBRANCH  14  15
ENDBRANCH  13  14
ENDBRANCH  12  13
ENDBRANCH   1  12
TORSDOF 16
ENDMDL
MODEL 3
REMARK VINA RESULT:    -3.193      1.124      1.881
REMARK INTER + INTRA:          -8.828
REMARK INTER:                  -6.184
REMARK INTRA:                  -2.643
REMARK UNBOUND:                -2.648
REMARK SMILES CCCCCCCCCCCCCCCCCC(=O)[O-]
REMARK SMILES IDX 10 1 11 2 12 3 13 4 14 5 15 6 16 7 17 8 18 9 19 10 20 11
REMARK SMILES IDX 9 12 8 13 7 14 6 15 5 16 4 17 3 18 2 19 1 20
REMARK H PARENT
REMARK Flexibility Score: inf
ROOT
ATOM      1  C   UNL     1      57.299  25.961  51.757  1.00  0.00     0.000 C 
ENDROOT
BRANCH   1   2
ATOM      2  C   UNL     1      57.827  27.314  52.253  1.00  0.00     0.000 C 
BRANCH   2   3
ATOM      3  C   UNL     1      57.748  28.371  51.140  1.00  0.00     0.000 C 
BRANCH   3   4
ATOM      4  C   UNL     1      59.133  28.853  50.680  1.00  0.00     0.000 C 
BRANCH   4   5
ATOM      5  C   UNL     1      59.622  28.128  49.416  1.00  0.00     0.000 C 
BRANCH   5   6
ATOM      6  C   UNL     1      60.828  27.230  49.733  1.00  0.00     0.000 C 
BRANCH   6   7
ATOM      7  C   UNL     1      60.442  25.751  49.894  1.00  0.00     0.006 C 
BRANCH   7   8
ATOM      8  C   UNL     1      61.115  25.092  51.107  1.00  0.00     0.053 C 
BRANCH   8   9
ATOM      9  C   UNL     1      62.330  24.330  50.679  1.00  0.00     0.041 C 
ATOM     10  O   UNL     1      63.411  24.936  50.452  1.00  0.00    -0.550 OA
ATOM     11  O   UNL     1      62.279  22.946  50.572  1.00  0.00    -0.550 OA
ENDBRANCH   8   9
ENDBRANCH   7   8
ENDBRANCH   6   7
ENDBRANCH   5   6
ENDBRANCH   4   5
ENDBRANCH   3   4
ENDBRANCH   2   3
ENDBRANCH   1   2
BRANCH   1  12
ATOM     12  C   UNL     1      56.712  26.034  50.337  1.00  0.00     0.000 C 
BRANCH  12  13
ATOM     13  C   UNL     1      55.387  25.269  50.148  1.00  0.00    -0.000 C 
BRANCH  13  14
ATOM     14  C   UNL     1      54.207  26.171  49.725  1.00  0.00    -0.000 C 
BRANCH  14  15
ATOM     15  C   UNL     1      54.337  27.597  50.288  1.00  0.00    -0.000 C 
BRANCH  15  16
ATOM     16  C   UNL     1      53.379  27.868  51.460  1.00  0.00    -0.000 C 
BRANCH  16  17
ATOM     17  C   UNL     1      53.773  27.107  52.736  1.00  0.00    -0.000 C 
BRANCH  17  18
ATOM     18  C   UNL     1      54.517  27.995  53.752  1.00  0.00    -0.000 C 
BRANCH  18  19
ATOM     19  C   UNL     1      54.257  29.505  53.608  1.00  0.00    -0.003 C 
ATOM     20  C   UNL     1      55.522  30.306  53.303  1.00  0.00     0.004 C 
ENDBRANCH  18  19
ENDBRANCH  17  18
ENDBRANCH  16  17
ENDBRANCH  15  16
ENDBRANCH  14  15
ENDBRANCH  13  14
ENDBRANCH  12  13
ENDBRANCH   1  12
TORSDOF 16
ENDMDL
MODEL 4
REMARK VINA RESULT:    -3.144      1.254      3.038
REMARK INTER + INTRA:          -8.734
REMARK INTER:                  -6.018
REMARK INTRA:                  -2.715
REMARK UNBOUND:                -2.648
REMARK SMILES CCCCCCCCCCCCCCCCCC(=O)[O-]
REMARK SMILES IDX 10 1 11 2 12 3 13 4 14 5 15 6 16 7 17 8 18 9 19 10 20 11
REMARK SMILES IDX 9 12 8 13 7 14 6 15 5 16 4 17 3 18 2 19 1 20
REMARK H PARENT
REMARK Flexibility Score: inf
ROOT
ATOM      1  C   UNL     1      56.189  27.472  54.709  1.00  0.00     0.000 C 
ENDROOT
BRANCH   1   2
ATOM      2  C   UNL     1      57.444  28.303  54.408  1.00  0.00     0.000 C 
BRANCH   2   3
ATOM      3  C   UNL     1      58.135  27.803  53.130  1.00  0.00     0.000 C 
BRANCH   3   4
ATOM      4  C   UNL     1      58.091  28.832  51.990  1.00  0.00     0.000 C 
BRANCH   4   5
ATOM      5  C   UNL     1      59.434  28.958  51.253  1.00  0.00     0.000 C 
BRANCH   5   6
ATOM      6  C   UNL     1      59.305  28.483  49.797  1.00  0.00     0.000 C 
BRANCH   6   7
ATOM      7  C   UNL     1      60.227  27.295  49.476  1.00  0.00     0.006 C 
BRANCH   7   8
ATOM      8  C   UNL     1      59.595  25.942  49.833  1.00  0.00     0.053 C 
BRANCH   8   9
ATOM      9  C   UNL     1      60.654  24.959  50.223  1.00  0.00     0.041 C 
ATOM     10  O   UNL     1      61.858  25.322  50.306  1.00  0.00    -0.550 OA
ATOM     11  O   UNL     1      60.305  23.651  50.538  1.00  0.00    -0.550 OA
ENDBRANCH   8   9
ENDBRANCH   7   8
ENDBRANCH   6   7
ENDBRANCH   5   6
ENDBRANCH   4   5
ENDBRANCH   3   4
ENDBRANCH   2   3
ENDBRANCH   1   2
BRANCH   1  12
ATOM     12  C   UNL     1      54.896  28.304  54.655  1.00  0.00     0.000 C 
BRANCH  12  13
ATOM     13  C   UNL     1      54.116  28.194  53.329  1.00  0.00    -0.000 C 
BRANCH  13  14
ATOM     14  C   UNL     1      54.313  29.407  52.394  1.00  0.00    -0.000 C 
BRANCH  14  15
ATOM     15  C   UNL     1      54.700  28.981  50.967  1.00  0.00    -0.000 C 
BRANCH  15  16
ATOM     16  C   UNL     1      53.687  28.012  50.336  1.00  0.00    -0.000 C 
BRANCH  16  17
ATOM     17  C   UNL     1      54.313  26.656  49.969  1.00  0.00    -0.000 C 
BRANCH  17  18
ATOM     18  C   UNL     1      55.811  26.579  50.318  1.00  0.00    -0.000 C 
BRANCH  18  19
ATOM     19  C   UNL     1      56.233  25.324  51.102  1.00  0.00    -0.003 C 
ATOM     20  C   UNL     1      55.201  24.892  52.143  1.00  0.00     0.004 C 
ENDBRANCH  18  19
ENDBRANCH  17  18
ENDBRANCH  16  17
ENDBRANCH  15  16
ENDBRANCH  14  15
ENDBRANCH  13  14
ENDBRANCH  12  13
ENDBRANCH   1  12
TORSDOF 16
ENDMDL
MODEL 5
REMARK VINA RESULT:    -3.136      3.572      7.064
REMARK INTER + INTRA:          -8.717
REMARK INTER:                  -6.018
REMARK INTRA:                  -2.699
REMARK UNBOUND:                -2.648
REMARK SMILES CCCCCCCCCCCCCCCCCC(=O)[O-]
REMARK SMILES IDX 10 1 11 2 12 3 13 4 14 5 15 6 16 7 17 8 18 9 19 10 20 11
REMARK SMILES IDX 9 12 8 13 7 14 6 15 5 16 4 17 3 18 2 19 1 20
REMARK H PARENT
REMARK Flexibility Score: inf
ROOT
ATOM      1  C   UNL     1      57.977  27.658  51.725  1.00  0.00     0.000 C 
ENDROOT
BRANCH   1   2
ATOM      2  C   UNL     1      56.915  26.550  51.774  1.00  0.00     0.000 C 
BRANCH   2   3
ATOM      3  C   UNL     1      56.794  25.850  50.412  1.00  0.00     0.000 C 
BRANCH   3   4
ATOM      4  C   UNL     1      55.334  25.617  49.991  1.00  0.00     0.000 C 
BRANCH   4   5
ATOM      5  C   UNL     1      54.335  26.385  50.871  1.00  0.00     0.000 C 
BRANCH   5   6
ATOM      6  C   UNL     1      53.761  27.595  50.117  1.00  0.00     0.000 C 
BRANCH   6   7
ATOM      7  C   UNL     1      54.214  28.937  50.714  1.00  0.00     0.006 C 
BRANCH   7   8
ATOM      8  C   UNL     1      53.302  29.417  51.852  1.00  0.00     0.053 C 
BRANCH   8   9
ATOM      9  C   UNL     1      54.119  29.989  52.969  1.00  0.00     0.041 C 
ATOM     10  O   UNL     1      53.553  30.482  53.981  1.00  0.00    -0.550 OA
ATOM     11  O   UNL     1      55.506  29.939  52.910  1.00  0.00    -0.550 OA
ENDBRANCH   8   9
ENDBRANCH   7   8
ENDBRANCH   6   7
ENDBRANCH   5   6
ENDBRANCH   4   5
ENDBRANCH   3   4
ENDBRANCH   2   3
ENDBRANCH   1   2
BRANCH   1  12
ATOM     12  C   UNL     1      57.942  28.459  50.412  1.00  0.00     0.000 C 
BRANCH  12  13
ATOM     13  C   UNL     1      59.246  28.407  49.593  1.00  0.00    -0.000 C 
BRANCH  13  14
ATOM     14  C   UNL     1      60.495  28.074  50.438  1.00  0.00    -0.000 C 
BRANCH  14  15
ATOM     15  C   UNL     1      61.264  26.863  49.882  1.00  0.00    -0.000 C 
BRANCH  15  16
ATOM     16  C   UNL     1      60.407  25.590  49.810  1.00  0.00    -0.000 C 
BRANCH  16  17
ATOM     17  C   UNL     1      60.871  24.505  50.795  1.00  0.00    -0.000 C 
BRANCH  17  18
ATOM     18  C   UNL     1      59.792  24.144  51.833  1.00  0.00    -0.000 C 
BRANCH  18  19
ATOM     19  C   UNL     1      59.959  24.817  53.207  1.00  0.00    -0.003 C 
ATOM     20  C   UNL     1      61.317  25.496  53.381  1.00  0.00     0.004 C 
ENDBRANCH  18  19
ENDBRANCH  17  18
ENDBRANCH  16  17
ENDBRANCH  15  16
ENDBRANCH  14  15
ENDBRANCH  13  14
ENDBRANCH  12  13
ENDBRANCH   1  12
TORSDOF 16
ENDMDL
MODEL 6
REMARK VINA RESULT:    -3.108      1.892      3.416
REMARK INTER + INTRA:          -8.662
REMARK INTER:                  -6.258
REMARK INTRA:                  -2.404
REMARK UNBOUND:                -2.648
REMARK SMILES CCCCCCCCCCCCCCCCCC(=O)[O-]
REMARK SMILES IDX 10 1 11 2 12 3 13 4 14 5 15 6 16 7 17 8 18 9 19 10 20 11
REMARK SMILES IDX 9 12 8 13 7 14 6 15 5 16 4 17 3 18 2 19 1 20
REMARK H PARENT
REMARK Flexibility Score: inf
ROOT
ATOM      1  C   UNL     1      58.560  28.766  50.349  1.00  0.00     0.000 C 
ENDROOT
BRANCH   1   2
ATOM      2  C   UNL     1      59.671  28.332  49.382  1.00  0.00     0.000 C 
BRANCH   2   3
ATOM      3  C   UNL     1      60.073  26.871  49.635  1.00  0.00     0.000 C 
BRANCH   3   4
ATOM      4  C   UNL     1      61.566  26.715  49.967  1.00  0.00     0.000 C 
BRANCH   4   5
ATOM      5  C   UNL     1      61.890  25.359  50.613  1.00  0.00     0.000 C 
BRANCH   5   6
ATOM      6  C   UNL     1      60.691  24.837  51.419  1.00  0.00     0.000 C 
BRANCH   6   7
ATOM      7  C   UNL     1      60.354  23.371  51.101  1.00  0.00     0.006 C 
BRANCH   7   8
ATOM      8  C   UNL     1      61.279  22.381  51.824  1.00  0.00     0.053 C 
BRANCH   8   9
ATOM      9  C   UNL     1      60.572  21.082  52.057  1.00  0.00     0.041 C 
ATOM     10  O   UNL     1      59.405  21.071  52.531  1.00  0.00    -0.550 OA
ATOM     11  O   UNL     1      61.188  19.886  51.711  1.00  0.00    -0.550 OA
ENDBRANCH   8   9
ENDBRANCH   7   8
ENDBRANCH   6   7
ENDBRANCH   5   6
ENDBRANCH   4   5
ENDBRANCH   3   4
ENDBRANCH   2   3
ENDBRANCH   1   2
BRANCH   1  12
ATOM     12  C   UNL     1      59.036  28.832  51.811  1.00  0.00     0.000 C 
BRANCH  12  13
ATOM     13  C   UNL     1      57.987  28.384  52.849  1.00  0.00    -0.000 C 
BRANCH  13  14
ATOM     14  C   UNL     1      58.067  26.883  53.200  1.00  0.00    -0.000 C 
BRANCH  14  15
ATOM     15  C   UNL     1      56.799  26.120  52.777  1.00  0.00    -0.000 C 
BRANCH  15  16
ATOM     16  C   UNL     1      57.047  25.143  51.616  1.00  0.00    -0.000 C 
BRANCH  16  17
ATOM     17  C   UNL     1      56.567  25.694  50.264  1.00  0.00    -0.000 C 
BRANCH  17  18
ATOM     18  C   UNL     1      55.523  26.816  50.416  1.00  0.00    -0.000 C 
BRANCH  18  19
ATOM     19  C   UNL     1      54.105  26.454  49.941  1.00  0.00    -0.003 C 
ATOM     20  C   UNL     1      54.017  25.061  49.319  1.00  0.00     0.004 C 
ENDBRANCH  18  19
ENDBRANCH  17  18
ENDBRANCH  16  17
ENDBRANCH  15  16
ENDBRANCH  14  15
ENDBRANCH  13  14
ENDBRANCH  12  13
ENDBRANCH   1  12
TORSDOF 16
ENDMDL
MODEL 7
REMARK VINA RESULT:    -3.081     10.544     12.978
REMARK INTER + INTRA:          -8.610
REMARK INTER:                  -6.066
REMARK INTRA:                  -2.545
REMARK UNBOUND:                -2.648
REMARK SMILES CCCCCCCCCCCCCCCCCC(=O)[O-]
REMARK SMILES IDX 10 1 11 2 12 3 13 4 14 5 15 6 16 7 17 8 18 9 19 10 20 11
REMARK SMILES IDX 9 12 8 13 7 14 6 15 5 16 4 17 3 18 2 19 1 20
REMARK H PARENT
REMARK Flexibility Score: inf
ROOT
ATOM      1  C   UNL     1      64.434  32.275  60.489  1.00  0.00     0.000 C 
ENDROOT
BRANCH   1   2
ATOM      2  C   UNL     1      64.536  33.633  61.198  1.00  0.00     0.000 C 
BRANCH   2   3
ATOM      3  C   UNL     1      63.788  34.718  60.408  1.00  0.00     0.000 C 
BRANCH   3   4
ATOM      4  C   UNL     1      62.808  35.518  61.280  1.00  0.00     0.000 C 
BRANCH   4   5
ATOM      5  C   UNL     1      61.409  35.623  60.654  1.00  0.00     0.000 C 
BRANCH   5   6
ATOM      6  C   UNL     1      61.474  35.418  59.132  1.00  0.00     0.000 C 
BRANCH   6   7
ATOM      7  C   UNL     1      60.326  34.545  58.600  1.00  0.00     0.006 C 
BRANCH   7   8
ATOM      8  C   UNL     1      60.583  34.033  57.176  1.00  0.00     0.053 C 
BRANCH   8   9
ATOM      9  C   UNL     1      59.297  33.938  56.416  1.00  0.00     0.041 C 
ATOM     10  O   UNL     1      58.792  34.967  55.892  1.00  0.00    -0.550 OA
ATOM     11  O   UNL     1      58.680  32.705  56.249  1.00  0.00    -0.550 OA
ENDBRANCH   8   9
ENDBRANCH   7   8
ENDBRANCH   6   7
ENDBRANCH   5   6
ENDBRANCH   4   5
ENDBRANCH   3   4
ENDBRANCH   2   3
ENDBRANCH   1   2
BRANCH   1  12
ATOM     12  C   UNL     1      63.485  32.305  59.279  1.00  0.00     0.000 C 
BRANCH  12  13
ATOM     13  C   UNL     1      62.193  31.484  59.454  1.00  0.00    -0.000 C 
BRANCH  13  14
ATOM     14  C   UNL     1      61.516  31.682  60.828  1.00  0.00    -0.000 C 
BRANCH  14  15
ATOM     15  C   UNL     1      61.172  30.343  61.503  1.00  0.00    -0.000 C 
BRANCH  15  16
ATOM     16  C   UNL     1      62.418  29.553  61.936  1.00  0.00    -0.000 C 
BRANCH  16  17
ATOM     17  C   UNL     1      62.529  28.189  61.235  1.00  0.00    -0.000 C 
BRANCH  17  18
ATOM     18  C   UNL     1      63.660  28.149  60.190  1.00  0.00    -0.000 C 
BRANCH  18  19
ATOM     19  C   UNL     1      65.061  27.862  60.758  1.00  0.00    -0.003 C 
ATOM     20  C   UNL     1      66.041  29.016  60.553  1.00  0.00     0.004 C 
ENDBRANCH  18  19
ENDBRANCH  17  18
ENDBRANCH  16  17
ENDBRANCH  15  16
ENDBRANCH  14  15
ENDBRANCH  13  14
ENDBRANCH  12  13
ENDBRANCH   1  12
TORSDOF 16
ENDMDL
MODEL 8
REMARK VINA RESULT:    -3.066      2.935      6.504
REMARK INTER + INTRA:          -8.582
REMARK INTER:                  -5.625
REMARK INTRA:                  -2.957
REMARK UNBOUND:                -2.648
REMARK SMILES CCCCCCCCCCCCCCCCCC(=O)[O-]
REMARK SMILES IDX 10 1 11 2 12 3 13 4 14 5 15 6 16 7 17 8 18 9 19 10 20 11
REMARK SMILES IDX 9 12 8 13 7 14 6 15 5 16 4 17 3 18 2 19 1 20
REMARK H PARENT
REMARK Flexibility Score: inf
ROOT
ATOM      1  C   UNL     1      56.926  26.877  52.081  1.00  0.00     0.000 C 
ENDROOT
BRANCH   1   2
ATOM      2  C   UNL     1      56.744  25.485  51.459  1.00  0.00     0.000 C 
BRANCH   2   3
ATOM      3  C   UNL     1      56.225  25.595  50.017  1.00  0.00     0.000 C 
BRANCH   3   4
ATOM      4  C   UNL     1      54.729  25.266  49.898  1.00  0.00     0.000 C 
BRANCH   4   5
ATOM      5  C   UNL     1      53.853  26.524  49.783  1.00  0.00     0.000 C 
BRANCH   5   6
ATOM      6  C   UNL     1      53.257  26.901  51.149  1.00  0.00     0.000 C 
BRANCH   6   7
ATOM      7  C   UNL     1      52.919  25.672  52.009  1.00  0.00     0.006 C 
BRANCH   7   8
ATOM      8  C   UNL     1      53.539  25.743  53.412  1.00  0.00     0.053 C 
BRANCH   8   9
ATOM      9  C   UNL     1      54.103  24.413  53.801  1.00  0.00     0.041 C 
ATOM     10  O   UNL     1      54.209  23.494  52.945  1.00  0.00    -0.550 OA
ATOM     11  O   UNL     1      54.552  24.202  55.098  1.00  0.00    -0.550 OA
ENDBRANCH   8   9
ENDBRANCH   7   8
ENDBRANCH   6   7
ENDBRANCH   5   6
ENDBRANCH   4   5
ENDBRANCH   3   4
ENDBRANCH   2   3
ENDBRANCH   1   2
BRANCH   1  12
ATOM     12  C   UNL     1      57.088  27.984  51.025  1.00  0.00     0.000 C 
BRANCH  12  13
ATOM     13  C   UNL     1      58.494  28.614  50.964  1.00  0.00    -0.000 C 
BRANCH  13  14
ATOM     14  C   UNL     1      59.172  28.482  49.584  1.00  0.00    -0.000 C 
BRANCH  14  15
ATOM     15  C   UNL     1      60.346  27.488  49.607  1.00  0.00    -0.000 C 
BRANCH  15  16
ATOM     16  C   UNL     1      59.889  26.021  49.641  1.00  0.00    -0.000 C 
BRANCH  16  17
ATOM     17  C   UNL     1      60.744  25.154  50.581  1.00  0.00    -0.000 C 
BRANCH  17  18
ATOM     18  C   UNL     1      60.302  25.260  52.052  1.00  0.00    -0.000 C 
BRANCH  18  19
ATOM     19  C   UNL     1      61.335  25.898  52.997  1.00  0.00    -0.003 C 
ATOM     20  C   UNL     1      61.054  27.372  53.289  1.00  0.00     0.004 C 
ENDBRANCH  18  19
ENDBRANCH  17  18
ENDBRANCH  16  17
ENDBRANCH  15  16
ENDBRANCH  14  15
ENDBRANCH  13  14
ENDBRANCH  12  13
ENDBRANCH   1  12
TORSDOF 16
ENDMDL
MODEL 9
REMARK VINA RESULT:    -3.034      2.134      3.351
REMARK INTER + INTRA:          -8.520
REMARK INTER:                  -5.343
REMARK INTRA:                  -3.177
REMARK UNBOUND:                -2.648
REMARK SMILES CCCCCCCCCCCCCCCCCC(=O)[O-]
REMARK SMILES IDX 10 1 11 2 12 3 13 4 14 5 15 6 16 7 17 8 18 9 19 10 20 11
REMARK SMILES IDX 9 12 8 13 7 14 6 15 5 16 4 17 3 18 2 19 1 20
REMARK H PARENT
REMARK Flexibility Score: inf
ROOT
ATOM      1  C   UNL     1      58.946  24.894  50.739  1.00  0.00     0.000 C 
ENDROOT
BRANCH   1   2
ATOM      2  C   UNL     1      60.406  25.294  50.994  1.00  0.00     0.000 C 
BRANCH   2   3
ATOM      3  C   UNL     1      60.808  26.485  50.110  1.00  0.00     0.000 C 
BRANCH   3   4
ATOM      4  C   UNL     1      59.606  27.135  49.408  1.00  0.00     0.000 C 
BRANCH   4   5
ATOM      5  C   UNL     1      59.388  28.595  49.835  1.00  0.00     0.000 C 
BRANCH   5   6
ATOM      6  C   UNL     1      58.295  28.692  50.910  1.00  0.00     0.000 C 
BRANCH   6   7
ATOM      7  C   UNL     1      58.808  29.302  52.225  1.00  0.00     0.006 C 
BRANCH   7   8
ATOM      8  C   UNL     1      59.226  28.236  53.249  1.00  0.00     0.053 C 
BRANCH   8   9
ATOM      9  C   UNL     1      60.716  28.194  53.378  1.00  0.00     0.041 C 
ATOM     10  O   UNL     1      61.266  27.306  54.083  1.00  0.00    -0.550 OA
ATOM     11  O   UNL     1      61.499  29.110  52.687  1.00  0.00    -0.550 OA
ENDBRANCH   8   9
ENDBRANCH   7   8
ENDBRANCH   6   7
ENDBRANCH   5   6
ENDBRANCH   4   5
ENDBRANCH   3   4
ENDBRANCH   2   3
ENDBRANCH   1   2
BRANCH   1  12
ATOM     12  C   UNL     1      58.080  24.957  52.009  1.00  0.00     0.000 C 
BRANCH  12  13
ATOM     13  C   UNL     1      56.638  25.449  51.780  1.00  0.00    -0.000 C 
BRANCH  13  14
ATOM     14  C   UNL     1      56.264  25.597  50.289  1.00  0.00    -0.000 C 
BRANCH  14  15
ATOM     15  C   UNL     1      54.851  26.178  50.101  1.00  0.00    -0.000 C 
BRANCH  15  16
ATOM     16  C   UNL     1      54.792  27.697  50.330  1.00  0.00    -0.000 C 
BRANCH  16  17
ATOM     17  C   UNL     1      53.948  28.079  51.556  1.00  0.00    -0.000 C 
BRANCH  17  18
ATOM     18  C   UNL     1      54.176  29.535  52.005  1.00  0.00    -0.000 C 
BRANCH  18  19
ATOM     19  C   UNL     1      55.261  29.721  53.080  1.00  0.00    -0.003 C 
ATOM     20  C   UNL     1      55.517  28.458  53.901  1.00  0.00     0.004 C 
ENDBRANCH  18  19
ENDBRANCH  17  18
ENDBRANCH  16  17
ENDBRANCH  15  16
ENDBRANCH  14  15
ENDBRANCH  13  14
ENDBRANCH  12  13
ENDBRANCH   1  12
TORSDOF 16
ENDMDL
