MODEL 1
REMARK VINA RESULT:    -6.073      0.000      0.000
REMARK INTER + INTRA:          -7.652
REMARK INTER:                  -7.315
REMARK INTRA:                  -0.336
REMARK UNBOUND:                -0.336
REMARK SMILES Oc1cc(O)c2cc(O)c(-c3ccc(O)c(O)c3)[o+]c2c1.[Cl-]
REMARK SMILES IDX 10 1 19 2 20 3 21 4 2 5 3 6 4 7 6 8 7 9 8 10 11 11 12 12
REMARK SMILES IDX 13 13 14 14 18 15 16 16 15 17 17 19 9 21 1 23 5 25
REMARK H PARENT 15 18 17 20 9 22 1 24 5 26
REMARK Flexibility Score: inf
ROOT
ATOM      1  C   UNL     1     110.298 103.857 100.695  1.00  0.00     0.402 A 
ATOM      2  O   UNL     1     110.266 102.910 101.630  1.00  0.00    -0.202 OA
ATOM      3  C   UNL     1     109.417 102.923 102.653  1.00  0.00     0.368 A 
ATOM      4  C   UNL     1     109.458 101.882 103.583  1.00  0.00     0.162 A 
ATOM      5  C   UNL     1     108.575 101.868 104.668  1.00  0.00     0.128 A 
ATOM      6  C   UNL     1     107.646 102.900 104.820  1.00  0.00     0.093 A 
ATOM      7  C   UNL     1     107.584 103.955 103.901  1.00  0.00     0.136 A 
ATOM      8  C   UNL     1     108.481 103.975 102.801  1.00  0.00     0.125 A 
ATOM      9  C   UNL     1     108.500 104.998 101.838  1.00  0.00     0.078 A 
ATOM     10  C   UNL     1     109.417 104.951 100.784  1.00  0.00     0.223 A 
ENDROOT
BRANCH   1  11
ATOM     11  C   UNL     1     111.284 103.726  99.599  1.00  0.00     0.087 A 
ATOM     12  C   UNL     1     112.630 104.038  99.841  1.00  0.00     0.022 A 
ATOM     13  C   UNL     1     113.582 103.902  98.827  1.00  0.00     0.051 A 
ATOM     14  C   UNL     1     113.206 103.439  97.562  1.00  0.00     0.157 A 
ATOM     15  C   UNL     1     110.911 103.241  98.333  1.00  0.00     0.068 A 
ATOM     16  C   UNL     1     111.865 103.102  97.314  1.00  0.00     0.158 A 
BRANCH  14  17
ATOM     17  O   UNL     1     114.178 103.317  96.569  1.00  0.00    -0.504 OA
ATOM     18  H   UNL     1     114.524 104.117  96.054  1.00  0.00     0.293 HD
ENDBRANCH  14  17
BRANCH  16  19
ATOM     19  O   UNL     1     111.487 102.626  96.060  1.00  0.00    -0.504 OA
ATOM     20  H   UNL     1     111.881 103.005  95.206  1.00  0.00     0.293 HD
ENDBRANCH  16  19
ENDBRANCH   1  11
BRANCH  10  21
ATOM     21  O   UNL     1     109.469 105.992  99.856  1.00  0.00    -0.500 OA
ATOM     22  H   UNL     1     110.020 106.826 100.021  1.00  0.00     0.294 HD
ENDBRANCH  10  21
BRANCH   5  23
ATOM     23  O   UNL     1     108.611 100.833 105.599  1.00  0.00    -0.507 OA
ATOM     24  H   UNL     1     108.675 101.018 106.594  1.00  0.00     0.293 HD
ENDBRANCH   5  23
BRANCH   7  25
ATOM     25  O   UNL     1     106.624 104.947 104.122  1.00  0.00    -0.507 OA
ATOM     26  H   UNL     1     105.634 104.828 103.966  1.00  0.00     0.293 HD
ENDBRANCH   7  25
TORSDOF 6
ENDMDL
MODEL 2
REMARK VINA RESULT:    -6.046      4.774      6.254
REMARK INTER + INTRA:          -7.620
REMARK INTER:                  -7.350
REMARK INTRA:                  -0.269
REMARK UNBOUND:                -0.336
REMARK SMILES Oc1cc(O)c2cc(O)c(-c3ccc(O)c(O)c3)[o+]c2c1.[Cl-]
REMARK SMILES IDX 10 1 19 2 20 3 21 4 2 5 3 6 4 7 6 8 7 9 8 10 11 11 12 12
REMARK SMILES IDX 13 13 14 14 18 15 16 16 15 17 17 19 9 21 1 23 5 25
REMARK H PARENT 15 18 17 20 9 22 1 24 5 26
REMARK Flexibility Score: inf
ROOT
ATOM      1  C   UNL     1     107.275 103.264  96.969  1.00  0.00     0.402 A 
ATOM      2  O   UNL     1     106.839 104.484  96.664  1.00  0.00    -0.202 OA
ATOM      3  C   UNL     1     106.117 105.229  97.495  1.00  0.00     0.368 A 
ATOM      4  C   UNL     1     105.707 106.500  97.085  1.00  0.00     0.162 A 
ATOM      5  C   UNL     1     104.949 107.307  97.939  1.00  0.00     0.128 A 
ATOM      6  C   UNL     1     104.602 106.841  99.210  1.00  0.00     0.093 A 
ATOM      7  C   UNL     1     105.001 105.570  99.645  1.00  0.00     0.136 A 
ATOM      8  C   UNL     1     105.768 104.746  98.780  1.00  0.00     0.125 A 
ATOM      9  C   UNL     1     106.201 103.456  99.125  1.00  0.00     0.078 A 
ATOM     10  C   UNL     1     106.949 102.701  98.217  1.00  0.00     0.223 A 
ENDROOT
BRANCH   1  11
ATOM     11  C   UNL     1     108.080 102.536  95.962  1.00  0.00     0.087 A 
ATOM     12  C   UNL     1     109.451 102.340  96.186  1.00  0.00     0.022 A 
ATOM     13  C   UNL     1     110.227 101.638  95.259  1.00  0.00     0.051 A 
ATOM     14  C   UNL     1     109.642 101.111  94.104  1.00  0.00     0.157 A 
ATOM     15  C   UNL     1     107.490 101.987  94.810  1.00  0.00     0.068 A 
ATOM     16  C   UNL     1     108.266 101.281  93.879  1.00  0.00     0.158 A 
BRANCH  14  17
ATOM     17  O   UNL     1     110.442 100.418  93.195  1.00  0.00    -0.504 OA
ATOM     18  H   UNL     1     111.445 100.552  93.150  1.00  0.00     0.293 HD
ENDBRANCH  14  17
BRANCH  16  19
ATOM     19  O   UNL     1     107.674 100.744  92.737  1.00  0.00    -0.504 OA
ATOM     20  H   UNL     1     107.489 101.312  91.918  1.00  0.00     0.293 HD
ENDBRANCH  16  19
ENDBRANCH   1  11
BRANCH  10  21
ATOM     21  O   UNL     1     107.337 101.400  98.541  1.00  0.00    -0.500 OA
ATOM     22  H   UNL     1     107.346 101.070  99.499  1.00  0.00     0.294 HD
ENDBRANCH  10  21
BRANCH   5  23
ATOM     23  O   UNL     1     104.536 108.575  97.537  1.00  0.00    -0.507 OA
ATOM     24  H   UNL     1     104.486 108.830  96.558  1.00  0.00     0.293 HD
ENDBRANCH   5  23
BRANCH   7  25
ATOM     25  O   UNL     1     104.617 105.179 100.931  1.00  0.00    -0.507 OA
ATOM     26  H   UNL     1     103.682 104.895 101.185  1.00  0.00     0.293 HD
ENDBRANCH   7  25
TORSDOF 6
ENDMDL
MODEL 3
REMARK VINA RESULT:    -5.983      3.710      6.250
REMARK INTER + INTRA:          -7.543
REMARK INTER:                  -7.666
REMARK INTRA:                   0.122
REMARK UNBOUND:                -0.336
REMARK SMILES Oc1cc(O)c2cc(O)c(-c3ccc(O)c(O)c3)[o+]c2c1.[Cl-]
REMARK SMILES IDX 10 1 19 2 20 3 21 4 2 5 3 6 4 7 6 8 7 9 8 10 11 11 12 12
REMARK SMILES IDX 13 13 14 14 18 15 16 16 15 17 17 19 9 21 1 23 5 25
REMARK H PARENT 15 18 17 20 9 22 1 24 5 26
REMARK Flexibility Score: inf
ROOT
ATOM      1  C   UNL     1     110.332 103.041  97.154  1.00  0.00     0.402 A 
ATOM      2  O   UNL     1     111.493 103.643  96.905  1.00  0.00    -0.202 OA
ATOM      3  C   UNL     1     112.208 104.264  97.839  1.00  0.00     0.368 A 
ATOM      4  C   UNL     1     113.416 104.865  97.481  1.00  0.00     0.162 A 
ATOM      5  C   UNL     1     114.190 105.523  98.443  1.00  0.00     0.128 A 
ATOM      6  C   UNL     1     113.752 105.576  99.769  1.00  0.00     0.093 A 
ATOM      7  C   UNL     1     112.544 104.981 100.153  1.00  0.00     0.136 A 
ATOM      8  C   UNL     1     111.754 104.315  99.179  1.00  0.00     0.125 A 
ATOM      9  C   UNL     1     110.524 103.702  99.470  1.00  0.00     0.078 A 
ATOM     10  C   UNL     1     109.800 103.069  98.456  1.00  0.00     0.223 A 
ENDROOT
BRANCH   1  11
ATOM     11  C   UNL     1     109.635 102.375  96.030  1.00  0.00     0.087 A 
ATOM     12  C   UNL     1     108.246 102.526  95.894  1.00  0.00     0.022 A 
ATOM     13  C   UNL     1     107.570 101.923  94.830  1.00  0.00     0.051 A 
ATOM     14  C   UNL     1     108.271 101.173  93.881  1.00  0.00     0.157 A 
ATOM     15  C   UNL     1     110.341 101.637  95.064  1.00  0.00     0.068 A 
ATOM     16  C   UNL     1     109.664 101.032  93.994  1.00  0.00     0.158 A 
BRANCH  14  17
ATOM     17  O   UNL     1     107.567 100.580  92.832  1.00  0.00    -0.504 OA
ATOM     18  H   UNL     1     106.561 100.468  92.855  1.00  0.00     0.293 HD
ENDBRANCH  14  17
BRANCH  16  19
ATOM     19  O   UNL     1     110.370 100.298  93.043  1.00  0.00    -0.504 OA
ATOM     20  H   UNL     1     111.036 100.739  92.419  1.00  0.00     0.293 HD
ENDBRANCH  16  19
ENDBRANCH   1  11
BRANCH  10  21
ATOM     21  O   UNL     1     108.555 102.503  98.734  1.00  0.00    -0.500 OA
ATOM     22  H   UNL     1     108.015 102.778  99.546  1.00  0.00     0.294 HD
ENDBRANCH  10  21
BRANCH   5  23
ATOM     23  O   UNL     1     115.396 106.125  98.094  1.00  0.00    -0.507 OA
ATOM     24  H   UNL     1     116.102 105.628  97.563  1.00  0.00     0.293 HD
ENDBRANCH   5  23
BRANCH   7  25
ATOM     25  O   UNL     1     112.178 105.076 101.499  1.00  0.00    -0.507 OA
ATOM     26  H   UNL     1     111.226 105.122 101.830  1.00  0.00     0.293 HD
ENDBRANCH   7  25
TORSDOF 6
ENDMDL
MODEL 4
REMARK VINA RESULT:    -5.880      5.585      7.326
REMARK INTER + INTRA:          -7.419
REMARK INTER:                  -7.194
REMARK INTRA:                  -0.225
REMARK UNBOUND:                -0.336
REMARK SMILES Oc1cc(O)c2cc(O)c(-c3ccc(O)c(O)c3)[o+]c2c1.[Cl-]
REMARK SMILES IDX 10 1 19 2 20 3 21 4 2 5 3 6 4 7 6 8 7 9 8 10 11 11 12 12
REMARK SMILES IDX 13 13 14 14 18 15 16 16 15 17 17 19 9 21 1 23 5 25
REMARK H PARENT 15 18 17 20 9 22 1 24 5 26
REMARK Flexibility Score: inf
ROOT
ATOM      1  C   UNL     1     106.797 104.206  96.498  1.00  0.00     0.402 A 
ATOM      2  O   UNL     1     106.797 105.379  95.870  1.00  0.00    -0.202 OA
ATOM      3  C   UNL     1     106.130 106.442  96.308  1.00  0.00     0.368 A 
ATOM      4  C   UNL     1     106.193 107.632  95.581  1.00  0.00     0.162 A 
ATOM      5  C   UNL     1     105.503 108.766  96.020  1.00  0.00     0.128 A 
ATOM      6  C   UNL     1     104.748 108.709  97.194  1.00  0.00     0.093 A 
ATOM      7  C   UNL     1     104.669 107.528  97.942  1.00  0.00     0.136 A 
ATOM      8  C   UNL     1     105.365 106.373  97.498  1.00  0.00     0.125 A 
ATOM      9  C   UNL     1     105.332 105.143  98.176  1.00  0.00     0.078 A 
ATOM     10  C   UNL     1     106.040 104.048  97.674  1.00  0.00     0.223 A 
ENDROOT
BRANCH   1  11
ATOM     11  C   UNL     1     107.589 103.099  95.915  1.00  0.00     0.087 A 
ATOM     12  C   UNL     1     108.701 102.604  96.614  1.00  0.00     0.022 A 
ATOM     13  C   UNL     1     109.450 101.546  96.093  1.00  0.00     0.051 A 
ATOM     14  C   UNL     1     109.094 100.959  94.875  1.00  0.00     0.157 A 
ATOM     15  C   UNL     1     107.219 102.494  94.701  1.00  0.00     0.068 A 
ATOM     16  C   UNL     1     107.970 101.431  94.176  1.00  0.00     0.158 A 
BRANCH  14  17
ATOM     17  O   UNL     1     109.864  99.907  94.378  1.00  0.00    -0.504 OA
ATOM     18  H   UNL     1     109.707  98.947  94.659  1.00  0.00     0.293 HD
ENDBRANCH  14  17
BRANCH  16  19
ATOM     19  O   UNL     1     107.600 100.840  92.969  1.00  0.00    -0.504 OA
ATOM     20  H   UNL     1     106.893 100.114  92.928  1.00  0.00     0.293 HD
ENDBRANCH  16  19
ENDBRANCH   1  11
BRANCH  10  21
ATOM     21  O   UNL     1     105.968 102.812  98.320  1.00  0.00    -0.500 OA
ATOM     22  H   UNL     1     106.594 102.051  98.086  1.00  0.00     0.294 HD
ENDBRANCH  10  21
BRANCH   5  23
ATOM     23  O   UNL     1     105.562 109.956  95.298  1.00  0.00    -0.507 OA
ATOM     24  H   UNL     1     104.786 110.608  95.288  1.00  0.00     0.293 HD
ENDBRANCH   5  23
BRANCH   7  25
ATOM     25  O   UNL     1     103.895 107.553  99.106  1.00  0.00    -0.507 OA
ATOM     26  H   UNL     1     103.121 106.933  99.291  1.00  0.00     0.293 HD
ENDBRANCH   7  25
TORSDOF 6
ENDMDL
MODEL 5
REMARK VINA RESULT:    -5.864      5.374      8.084
REMARK INTER + INTRA:          -7.401
REMARK INTER:                  -7.068
REMARK INTRA:                  -0.333
REMARK UNBOUND:                -0.336
REMARK SMILES Oc1cc(O)c2cc(O)c(-c3ccc(O)c(O)c3)[o+]c2c1.[Cl-]
REMARK SMILES IDX 10 1 19 2 20 3 21 4 2 5 3 6 4 7 6 8 7 9 8 10 11 11 12 12
REMARK SMILES IDX 13 13 14 14 18 15 16 16 15 17 17 19 9 21 1 23 5 25
REMARK H PARENT 15 18 17 20 9 22 1 24 5 26
REMARK Flexibility Score: inf
ROOT
ATOM      1  C   UNL     1     106.153 103.456  97.113  1.00  0.00     0.402 A 
ATOM      2  O   UNL     1     106.774 102.548  97.862  1.00  0.00    -0.202 OA
ATOM      3  C   UNL     1     107.615 101.645  97.367  1.00  0.00     0.368 A 
ATOM      4  C   UNL     1     108.221 100.733  98.234  1.00  0.00     0.162 A 
ATOM      5  C   UNL     1     109.112  99.775  97.741  1.00  0.00     0.128 A 
ATOM      6  C   UNL     1     109.400  99.731  96.375  1.00  0.00     0.093 A 
ATOM      7  C   UNL     1     108.806 100.635  95.485  1.00  0.00     0.136 A 
ATOM      8  C   UNL     1     107.898 101.607  95.980  1.00  0.00     0.125 A 
ATOM      9  C   UNL     1     107.247 102.544  95.161  1.00  0.00     0.078 A 
ATOM     10  C   UNL     1     106.361 103.468  95.721  1.00  0.00     0.223 A 
ENDROOT
BRANCH   1  11
ATOM     11  C   UNL     1     105.246 104.415  97.784  1.00  0.00     0.087 A 
ATOM     12  C   UNL     1     103.871 104.138  97.843  1.00  0.00     0.022 A 
ATOM     13  C   UNL     1     102.999 105.018  98.488  1.00  0.00     0.051 A 
ATOM     14  C   UNL     1     103.487 106.179  99.095  1.00  0.00     0.157 A 
ATOM     15  C   UNL     1     105.738 105.572  98.413  1.00  0.00     0.068 A 
ATOM     16  C   UNL     1     104.864 106.457  99.062  1.00  0.00     0.158 A 
BRANCH  14  17
ATOM     17  O   UNL     1     102.592 107.041  99.729  1.00  0.00    -0.504 OA
ATOM     18  H   UNL     1     101.940 106.716 100.433  1.00  0.00     0.293 HD
ENDBRANCH  14  17
BRANCH  16  19
ATOM     19  O   UNL     1     105.359 107.604  99.679  1.00  0.00    -0.504 OA
ATOM     20  H   UNL     1     105.491 108.468  99.165  1.00  0.00     0.293 HD
ENDBRANCH  16  19
ENDBRANCH   1  11
BRANCH  10  21
ATOM     21  O   UNL     1     105.676 104.366  94.901  1.00  0.00    -0.500 OA
ATOM     22  H   UNL     1     105.575 104.208  93.906  1.00  0.00     0.294 HD
ENDBRANCH  10  21
BRANCH   5  23
ATOM     23  O   UNL     1     109.720  98.862  98.600  1.00  0.00    -0.507 OA
ATOM     24  H   UNL     1     110.710  98.657  98.540  1.00  0.00     0.293 HD
ENDBRANCH   5  23
BRANCH   7  25
ATOM     25  O   UNL     1     109.149 100.528  94.134  1.00  0.00    -0.507 OA
ATOM     26  H   UNL     1     109.279  99.654  93.646  1.00  0.00     0.293 HD
ENDBRANCH   7  25
TORSDOF 6
ENDMDL
MODEL 6
REMARK VINA RESULT:    -5.839     12.073     14.386
REMARK INTER + INTRA:          -7.370
REMARK INTER:                  -7.049
REMARK INTRA:                  -0.321
REMARK UNBOUND:                -0.336
REMARK SMILES Oc1cc(O)c2cc(O)c(-c3ccc(O)c(O)c3)[o+]c2c1.[Cl-]
REMARK SMILES IDX 10 1 19 2 20 3 21 4 2 5 3 6 4 7 6 8 7 9 8 10 11 11 12 12
REMARK SMILES IDX 13 13 14 14 18 15 16 16 15 17 17 19 9 21 1 23 5 25
REMARK H PARENT 15 18 17 20 9 22 1 24 5 26
REMARK Flexibility Score: inf
ROOT
ATOM      1  C   UNL     1     110.734 113.218  93.067  1.00  0.00     0.402 A 
ATOM      2  O   UNL     1     111.300 113.176  91.863  1.00  0.00    -0.202 OA
ATOM      3  C   UNL     1     112.589 112.914  91.672  1.00  0.00     0.368 A 
ATOM      4  C   UNL     1     113.092 112.889  90.369  1.00  0.00     0.162 A 
ATOM      5  C   UNL     1     114.443 112.614  90.138  1.00  0.00     0.128 A 
ATOM      6  C   UNL     1     115.295 112.360  91.216  1.00  0.00     0.093 A 
ATOM      7  C   UNL     1     114.816 112.379  92.532  1.00  0.00     0.136 A 
ATOM      8  C   UNL     1     113.445 112.662  92.772  1.00  0.00     0.125 A 
ATOM      9  C   UNL     1     112.880 112.714  94.056  1.00  0.00     0.078 A 
ATOM     10  C   UNL     1     111.522 113.003  94.213  1.00  0.00     0.223 A 
ENDROOT
BRANCH   1  11
ATOM     11  C   UNL     1     109.285 113.511  93.150  1.00  0.00     0.087 A 
ATOM     12  C   UNL     1     108.860 114.821  93.420  1.00  0.00     0.022 A 
ATOM     13  C   UNL     1     107.498 115.125  93.482  1.00  0.00     0.051 A 
ATOM     14  C   UNL     1     106.541 114.129  93.262  1.00  0.00     0.157 A 
ATOM     15  C   UNL     1     108.322 112.516  92.908  1.00  0.00     0.068 A 
ATOM     16  C   UNL     1     106.953 112.819  92.968  1.00  0.00     0.158 A 
BRANCH  14  17
ATOM     17  O   UNL     1     105.188 114.461  93.334  1.00  0.00    -0.504 OA
ATOM     18  H   UNL     1     104.605 114.174  94.111  1.00  0.00     0.293 HD
ENDBRANCH  14  17
BRANCH  16  19
ATOM     19  O   UNL     1     106.005 111.825  92.733  1.00  0.00    -0.504 OA
ATOM     20  H   UNL     1     106.122 111.144  91.991  1.00  0.00     0.293 HD
ENDBRANCH  16  19
ENDBRANCH   1  11
BRANCH  10  21
ATOM     21  O   UNL     1     110.972 113.105  95.492  1.00  0.00    -0.500 OA
ATOM     22  H   UNL     1     111.490 112.832  96.318  1.00  0.00     0.294 HD
ENDBRANCH  10  21
BRANCH   5  23
ATOM     23  O   UNL     1     114.951 112.588  88.841  1.00  0.00    -0.507 OA
ATOM     24  H   UNL     1     114.342 112.499  88.036  1.00  0.00     0.293 HD
ENDBRANCH   5  23
BRANCH   7  25
ATOM     25  O   UNL     1     115.731 112.112  93.555  1.00  0.00    -0.507 OA
ATOM     26  H   UNL     1     116.122 112.812  94.167  1.00  0.00     0.293 HD
ENDBRANCH   7  25
TORSDOF 6
ENDMDL
MODEL 7
REMARK VINA RESULT:    -5.833      8.591     11.034
REMARK INTER + INTRA:          -7.363
REMARK INTER:                  -7.110
REMARK INTRA:                  -0.253
REMARK UNBOUND:                -0.336
REMARK SMILES Oc1cc(O)c2cc(O)c(-c3ccc(O)c(O)c3)[o+]c2c1.[Cl-]
REMARK SMILES IDX 10 1 19 2 20 3 21 4 2 5 3 6 4 7 6 8 7 9 8 10 11 11 12 12
REMARK SMILES IDX 13 13 14 14 18 15 16 16 15 17 17 19 9 21 1 23 5 25
REMARK H PARENT 15 18 17 20 9 22 1 24 5 26
REMARK Flexibility Score: inf
ROOT
ATOM      1  C   UNL     1     105.833 109.472  95.486  1.00  0.00     0.402 A 
ATOM      2  O   UNL     1     106.709 110.098  94.704  1.00  0.00    -0.202 OA
ATOM      3  C   UNL     1     106.569 111.362  94.316  1.00  0.00     0.368 A 
ATOM      4  C   UNL     1     107.544 111.934  93.496  1.00  0.00     0.162 A 
ATOM      5  C   UNL     1     107.423 113.262  93.076  1.00  0.00     0.128 A 
ATOM      6  C   UNL     1     106.322 114.021  93.481  1.00  0.00     0.093 A 
ATOM      7  C   UNL     1     105.331 113.471  94.303  1.00  0.00     0.136 A 
ATOM      8  C   UNL     1     105.448 112.122  94.729  1.00  0.00     0.125 A 
ATOM      9  C   UNL     1     104.498 111.484  95.543  1.00  0.00     0.078 A 
ATOM     10  C   UNL     1     104.679 110.150  95.918  1.00  0.00     0.223 A 
ENDROOT
BRANCH   1  11
ATOM     11  C   UNL     1     106.107 108.064  95.856  1.00  0.00     0.087 A 
ATOM     12  C   UNL     1     106.429 107.752  97.186  1.00  0.00     0.022 A 
ATOM     13  C   UNL     1     106.671 106.429  97.564  1.00  0.00     0.051 A 
ATOM     14  C   UNL     1     106.581 105.398  96.623  1.00  0.00     0.157 A 
ATOM     15  C   UNL     1     105.996 107.024  94.917  1.00  0.00     0.068 A 
ATOM     16  C   UNL     1     106.237 105.695  95.294  1.00  0.00     0.158 A 
BRANCH  14  17
ATOM     17  O   UNL     1     106.831 104.087  97.029  1.00  0.00    -0.504 OA
ATOM     18  H   UNL     1     107.326 103.427  96.441  1.00  0.00     0.293 HD
ENDBRANCH  14  17
BRANCH  16  19
ATOM     19  O   UNL     1     106.131 104.670  94.356  1.00  0.00    -0.504 OA
ATOM     20  H   UNL     1     105.457 104.710  93.599  1.00  0.00     0.293 HD
ENDBRANCH  16  19
ENDBRANCH   1  11
BRANCH  10  21
ATOM     21  O   UNL     1     103.710 109.501  96.685  1.00  0.00    -0.500 OA
ATOM     22  H   UNL     1     103.143 110.000  97.360  1.00  0.00     0.294 HD
ENDBRANCH  10  21
BRANCH   5  23
ATOM     23  O   UNL     1     108.391 113.839  92.257  1.00  0.00    -0.507 OA
ATOM     24  H   UNL     1     109.373 113.606  92.354  1.00  0.00     0.293 HD
ENDBRANCH   5  23
BRANCH   7  25
ATOM     25  O   UNL     1     104.264 114.298  94.666  1.00  0.00    -0.507 OA
ATOM     26  H   UNL     1     104.114 115.228  94.305  1.00  0.00     0.293 HD
ENDBRANCH   7  25
TORSDOF 6
ENDMDL
MODEL 8
REMARK VINA RESULT:    -5.746      8.982     11.573
REMARK INTER + INTRA:          -7.258
REMARK INTER:                  -7.391
REMARK INTRA:                   0.133
REMARK UNBOUND:                -0.336
REMARK SMILES Oc1cc(O)c2cc(O)c(-c3ccc(O)c(O)c3)[o+]c2c1.[Cl-]
REMARK SMILES IDX 10 1 19 2 20 3 21 4 2 5 3 6 4 7 6 8 7 9 8 10 11 11 12 12
REMARK SMILES IDX 13 13 14 14 18 15 16 16 15 17 17 19 9 21 1 23 5 25
REMARK H PARENT 15 18 17 20 9 22 1 24 5 26
REMARK Flexibility Score: inf
ROOT
ATOM      1  C   UNL     1     105.489 110.102  95.781  1.00  0.00     0.402 A 
ATOM      2  O   UNL     1     104.537 110.963  96.133  1.00  0.00    -0.202 OA
ATOM      3  C   UNL     1     104.418 112.177  95.603  1.00  0.00     0.368 A 
ATOM      4  C   UNL     1     103.383 113.009  96.036  1.00  0.00     0.162 A 
ATOM      5  C   UNL     1     103.233 114.289  95.494  1.00  0.00     0.128 A 
ATOM      6  C   UNL     1     104.120 114.737  94.513  1.00  0.00     0.093 A 
ATOM      7  C   UNL     1     105.166 113.922  94.061  1.00  0.00     0.136 A 
ATOM      8  C   UNL     1     105.325 112.623  94.611  1.00  0.00     0.125 A 
ATOM      9  C   UNL     1     106.350 111.742  94.229  1.00  0.00     0.078 A 
ATOM     10  C   UNL     1     106.445 110.479  94.820  1.00  0.00     0.223 A 
ENDROOT
BRANCH   1  11
ATOM     11  C   UNL     1     105.510 108.775  96.437  1.00  0.00     0.087 A 
ATOM     12  C   UNL     1     105.841 107.639  95.684  1.00  0.00     0.022 A 
ATOM     13  C   UNL     1     105.888 106.379  96.286  1.00  0.00     0.051 A 
ATOM     14  C   UNL     1     105.619 106.238  97.651  1.00  0.00     0.157 A 
ATOM     15  C   UNL     1     105.261 108.635  97.814  1.00  0.00     0.068 A 
ATOM     16  C   UNL     1     105.308 107.371  98.421  1.00  0.00     0.158 A 
BRANCH  14  17
ATOM     17  O   UNL     1     105.670 104.967  98.224  1.00  0.00    -0.504 OA
ATOM     18  H   UNL     1     106.416 104.689  98.850  1.00  0.00     0.293 HD
ENDBRANCH  14  17
BRANCH  16  19
ATOM     19  O   UNL     1     105.054 107.239  99.785  1.00  0.00    -0.504 OA
ATOM     20  H   UNL     1     105.576 106.588 100.362  1.00  0.00     0.293 HD
ENDBRANCH  16  19
ENDBRANCH   1  11
BRANCH  10  21
ATOM     21  O   UNL     1     107.493 109.623  94.476  1.00  0.00    -0.500 OA
ATOM     22  H   UNL     1     108.092 109.807  93.680  1.00  0.00     0.294 HD
ENDBRANCH  10  21
BRANCH   5  23
ATOM     23  O   UNL     1     102.204 115.125  95.922  1.00  0.00    -0.507 OA
ATOM     24  H   UNL     1     102.392 115.971  96.446  1.00  0.00     0.293 HD
ENDBRANCH   5  23
BRANCH   7  25
ATOM     25  O   UNL     1     106.009 114.442  93.074  1.00  0.00    -0.507 OA
ATOM     26  H   UNL     1     106.986 114.653  93.212  1.00  0.00     0.293 HD
ENDBRANCH   7  25
TORSDOF 6
ENDMDL
MODEL 9
REMARK VINA RESULT:    -5.621      5.423      6.013
REMARK INTER + INTRA:          -7.108
REMARK INTER:                  -6.756
REMARK INTRA:                  -0.352
REMARK UNBOUND:                -0.336
REMARK SMILES Oc1cc(O)c2cc(O)c(-c3ccc(O)c(O)c3)[o+]c2c1.[Cl-]
REMARK SMILES IDX 10 1 19 2 20 3 21 4 2 5 3 6 4 7 6 8 7 9 8 10 11 11 12 12
REMARK SMILES IDX 13 13 14 14 18 15 16 16 15 17 17 19 9 21 1 23 5 25
REMARK H PARENT 15 18 17 20 9 22 1 24 5 26
REMARK Flexibility Score: inf
ROOT
ATOM      1  C   UNL     1     106.331 103.750  96.885  1.00  0.00     0.402 A 
ATOM      2  O   UNL     1     105.593 103.173  97.831  1.00  0.00    -0.202 OA
ATOM      3  C   UNL     1     104.701 103.831  98.564  1.00  0.00     0.368 A 
ATOM      4  C   UNL     1     103.972 103.137  99.532  1.00  0.00     0.162 A 
ATOM      5  C   UNL     1     103.025 103.803 100.316  1.00  0.00     0.128 A 
ATOM      6  C   UNL     1     102.805 105.169 100.128  1.00  0.00     0.093 A 
ATOM      7  C   UNL     1     103.522 105.888  99.163  1.00  0.00     0.136 A 
ATOM      8  C   UNL     1     104.487 105.217  98.368  1.00  0.00     0.125 A 
ATOM      9  C   UNL     1     105.261 105.858  97.387  1.00  0.00     0.078 A 
ATOM     10  C   UNL     1     106.196 105.131  96.646  1.00  0.00     0.223 A 
ENDROOT
BRANCH   1  11
ATOM     11  C   UNL     1     107.285 102.908  96.129  1.00  0.00     0.087 A 
ATOM     12  C   UNL     1     108.555 102.652  96.667  1.00  0.00     0.022 A 
ATOM     13  C   UNL     1     109.465 101.843  95.981  1.00  0.00     0.051 A 
ATOM     14  C   UNL     1     109.114 101.267  94.756  1.00  0.00     0.157 A 
ATOM     15  C   UNL     1     106.926 102.311  94.908  1.00  0.00     0.068 A 
ATOM     16  C   UNL     1     107.837 101.498  94.217  1.00  0.00     0.158 A 
BRANCH  14  17
ATOM     17  O   UNL     1     110.044 100.467  94.092  1.00  0.00    -0.504 OA
ATOM     18  H   UNL     1     111.033 100.497  94.311  1.00  0.00     0.293 HD
ENDBRANCH  14  17
BRANCH  16  19
ATOM     19  O   UNL     1     107.476 100.914  93.004  1.00  0.00    -0.504 OA
ATOM     20  H   UNL     1     108.031 100.177  92.584  1.00  0.00     0.293 HD
ENDBRANCH  16  19
ENDBRANCH   1  11
BRANCH  10  21
ATOM     21  O   UNL     1     107.000 105.778  95.706  1.00  0.00    -0.500 OA
ATOM     22  H   UNL     1     107.714 105.283  95.185  1.00  0.00     0.294 HD
ENDBRANCH  10  21
BRANCH   5  23
ATOM     23  O   UNL     1     102.295 103.117 101.284  1.00  0.00    -0.507 OA
ATOM     24  H   UNL     1     101.459 103.514 101.697  1.00  0.00     0.293 HD
ENDBRANCH   5  23
BRANCH   7  25
ATOM     25  O   UNL     1     103.240 107.252  99.034  1.00  0.00    -0.507 OA
ATOM     26  H   UNL     1     103.905 107.945  98.722  1.00  0.00     0.293 HD
ENDBRANCH   7  25
TORSDOF 6
ENDMDL
