MODEL 1
REMARK VINA RESULT:    -8.719      0.000      0.000
REMARK INTER + INTRA:         -10.566
REMARK INTER:                 -10.248
REMARK INTRA:                  -0.318
REMARK UNBOUND:                -0.318
REMARK SMILES O=c1cc(-c2ccc(O)c(O)c2)oc2cc(O)cc(O)c12
REMARK SMILES IDX 4 1 3 2 2 3 1 4 21 5 19 6 18 7 16 8 15 9 14 10 13 11 5 12
REMARK SMILES IDX 6 13 7 14 8 15 12 16 10 17 9 18 11 20 20 22 17 24
REMARK H PARENT 9 19 11 21 20 23 17 25
REMARK Flexibility Score: inf
ROOT
ATOM      1  C   UNL     1      -3.395   0.595  10.403  1.00  0.00     0.138 A 
ATOM      2  C   UNL     1      -2.913   0.636  11.721  1.00  0.00     0.100 A 
ATOM      3  C   UNL     1      -3.454  -0.222  12.678  1.00  0.00     0.197 A 
ATOM      4  O   UNL     1      -3.016  -0.178  13.859  1.00  0.00    -0.289 OA
ATOM      5  C   UNL     1      -4.481  -1.116  12.309  1.00  0.00     0.107 A 
ATOM      6  C   UNL     1      -5.083  -2.020  13.215  1.00  0.00     0.134 A 
ATOM      7  C   UNL     1      -6.103  -2.875  12.770  1.00  0.00     0.093 A 
ATOM      8  C   UNL     1      -6.531  -2.841  11.440  1.00  0.00     0.123 A 
ATOM      9  C   UNL     1      -5.938  -1.949  10.540  1.00  0.00     0.094 A 
ATOM     10  C   UNL     1      -4.920  -1.091  10.964  1.00  0.00     0.146 A 
ATOM     11  O   UNL     1      -4.372  -0.253  10.089  1.00  0.00    -0.456 OA
ENDROOT
BRANCH   1  12
ATOM     12  C   UNL     1      -2.857   1.487   9.344  1.00  0.00     0.021 A 
ATOM     13  C   UNL     1      -1.715   2.282   9.557  1.00  0.00     0.016 A 
ATOM     14  C   UNL     1      -1.224   3.103   8.539  1.00  0.00     0.051 A 
ATOM     15  C   UNL     1      -1.857   3.143   7.293  1.00  0.00     0.157 A 
ATOM     16  C   UNL     1      -3.482   1.521   8.085  1.00  0.00     0.062 A 
ATOM     17  C   UNL     1      -2.991   2.346   7.063  1.00  0.00     0.158 A 
BRANCH  15  18
ATOM     18  O   UNL     1      -1.344   3.975   6.297  1.00  0.00    -0.504 OA
ATOM     19  H   UNL     1      -0.475   3.769   5.820  1.00  0.00     0.293 HD
ENDBRANCH  15  18
BRANCH  17  20
ATOM     20  O   UNL     1      -3.625   2.377   5.822  1.00  0.00    -0.504 OA
ATOM     21  H   UNL     1      -3.338   3.023   5.095  1.00  0.00     0.293 HD
ENDBRANCH  17  20
ENDBRANCH   1  12
BRANCH   6  22
ATOM     22  O   UNL     1      -4.677  -2.077  14.549  1.00  0.00    -0.507 OA
ATOM     23  H   UNL     1      -3.890  -2.644  14.843  1.00  0.00     0.293 HD
ENDBRANCH   6  22
BRANCH   8  24
ATOM     24  O   UNL     1      -7.546  -3.699  11.024  1.00  0.00    -0.508 OA
ATOM     25  H   UNL     1      -7.924  -3.657  10.085  1.00  0.00     0.293 HD
ENDBRANCH   8  24
TORSDOF 5
ENDMDL
MODEL 2
REMARK VINA RESULT:    -8.656      1.978      2.820
REMARK INTER + INTRA:         -10.491
REMARK INTER:                 -10.173
REMARK INTRA:                  -0.318
REMARK UNBOUND:                -0.318
REMARK SMILES O=c1cc(-c2ccc(O)c(O)c2)oc2cc(O)cc(O)c12
REMARK SMILES IDX 4 1 3 2 2 3 1 4 21 5 19 6 18 7 16 8 15 9 14 10 13 11 5 12
REMARK SMILES IDX 6 13 7 14 8 15 12 16 10 17 9 18 11 20 20 22 17 24
REMARK H PARENT 9 19 11 21 20 23 17 25
REMARK Flexibility Score: inf
ROOT
ATOM      1  C   UNL     1      -3.554  -0.186   9.576  1.00  0.00     0.138 A 
ATOM      2  C   UNL     1      -4.919  -0.037   9.869  1.00  0.00     0.100 A 
ATOM      3  C   UNL     1      -5.515  -0.875  10.812  1.00  0.00     0.197 A 
ATOM      4  O   UNL     1      -6.741  -0.734  11.068  1.00  0.00    -0.289 OA
ATOM      5  C   UNL     1      -4.740  -1.862  11.453  1.00  0.00     0.107 A 
ATOM      6  C   UNL     1      -5.264  -2.752  12.421  1.00  0.00     0.134 A 
ATOM      7  C   UNL     1      -4.427  -3.711  13.010  1.00  0.00     0.093 A 
ATOM      8  C   UNL     1      -3.080  -3.798  12.650  1.00  0.00     0.123 A 
ATOM      9  C   UNL     1      -2.556  -2.921  11.694  1.00  0.00     0.094 A 
ATOM     10  C   UNL     1      -3.374  -1.958  11.096  1.00  0.00     0.146 A 
ATOM     11  O   UNL     1      -2.852  -1.135  10.192  1.00  0.00    -0.456 OA
ENDROOT
BRANCH   1  12
ATOM     12  C   UNL     1      -2.868   0.676   8.581  1.00  0.00     0.021 A 
ATOM     13  C   UNL     1      -3.522   1.760   7.965  1.00  0.00     0.016 A 
ATOM     14  C   UNL     1      -2.848   2.562   7.040  1.00  0.00     0.051 A 
ATOM     15  C   UNL     1      -1.513   2.303   6.718  1.00  0.00     0.157 A 
ATOM     16  C   UNL     1      -1.520   0.429   8.263  1.00  0.00     0.062 A 
ATOM     17  C   UNL     1      -0.843   1.232   7.334  1.00  0.00     0.158 A 
BRANCH  15  18
ATOM     18  O   UNL     1      -0.867   3.120   5.790  1.00  0.00    -0.504 OA
ATOM     19  H   UNL     1       0.025   2.869   5.381  1.00  0.00     0.293 HD
ENDBRANCH  15  18
BRANCH  17  20
ATOM     20  O   UNL     1       0.490   0.971   7.022  1.00  0.00    -0.504 OA
ATOM     21  H   UNL     1       1.120   1.707   6.722  1.00  0.00     0.293 HD
ENDBRANCH  17  20
ENDBRANCH   1  12
BRANCH   6  22
ATOM     22  O   UNL     1      -6.606  -2.689  12.800  1.00  0.00    -0.507 OA
ATOM     23  H   UNL     1      -7.177  -1.875  12.604  1.00  0.00     0.293 HD
ENDBRANCH   6  22
BRANCH   8  24
ATOM     24  O   UNL     1      -2.270  -4.759  13.249  1.00  0.00    -0.508 OA
ATOM     25  H   UNL     1      -2.405  -5.040  14.214  1.00  0.00     0.293 HD
ENDBRANCH   8  24
TORSDOF 5
ENDMDL
MODEL 3
REMARK VINA RESULT:    -8.635      1.963      2.871
REMARK INTER + INTRA:         -10.467
REMARK INTER:                 -10.149
REMARK INTRA:                  -0.318
REMARK UNBOUND:                -0.318
REMARK SMILES O=c1cc(-c2ccc(O)c(O)c2)oc2cc(O)cc(O)c12
REMARK SMILES IDX 4 1 3 2 2 3 1 4 21 5 19 6 18 7 16 8 15 9 14 10 13 11 5 12
REMARK SMILES IDX 6 13 7 14 8 15 12 16 10 17 9 18 11 20 20 22 17 24
REMARK H PARENT 9 19 11 21 20 23 17 25
REMARK Flexibility Score: inf
ROOT
ATOM      1  C   UNL     1      -2.550  -0.241  10.161  1.00  0.00     0.138 A 
ATOM      2  C   UNL     1      -2.508  -1.616   9.880  1.00  0.00     0.100 A 
ATOM      3  C   UNL     1      -3.084  -2.519  10.774  1.00  0.00     0.197 A 
ATOM      4  O   UNL     1      -3.041  -3.751  10.514  1.00  0.00    -0.289 OA
ATOM      5  C   UNL     1      -3.698  -2.037  11.949  1.00  0.00     0.107 A 
ATOM      6  C   UNL     1      -4.307  -2.882  12.907  1.00  0.00     0.134 A 
ATOM      7  C   UNL     1      -4.893  -2.325  14.053  1.00  0.00     0.093 A 
ATOM      8  C   UNL     1      -4.880  -0.943  14.260  1.00  0.00     0.123 A 
ATOM      9  C   UNL     1      -4.279  -0.103  13.316  1.00  0.00     0.094 A 
ATOM     10  C   UNL     1      -3.691  -0.639  12.167  1.00  0.00     0.146 A 
ATOM     11  O   UNL     1      -3.128   0.180  11.284  1.00  0.00    -0.456 OA
ENDROOT
BRANCH   1  12
ATOM     12  C   UNL     1      -1.951   0.764   9.246  1.00  0.00     0.021 A 
ATOM     13  C   UNL     1      -1.416   0.400   7.996  1.00  0.00     0.016 A 
ATOM     14  C   UNL     1      -0.869   1.369   7.151  1.00  0.00     0.051 A 
ATOM     15  C   UNL     1      -0.851   2.714   7.532  1.00  0.00     0.157 A 
ATOM     16  C   UNL     1      -1.942   2.120   9.619  1.00  0.00     0.062 A 
ATOM     17  C   UNL     1      -1.392   3.093   8.772  1.00  0.00     0.158 A 
BRANCH  15  18
ATOM     18  O   UNL     1      -0.296   3.657   6.667  1.00  0.00    -0.504 OA
ATOM     19  H   UNL     1      -0.573   4.631   6.684  1.00  0.00     0.293 HD
ENDBRANCH  15  18
BRANCH  17  20
ATOM     20  O   UNL     1      -1.381   4.432   9.157  1.00  0.00    -0.504 OA
ATOM     21  H   UNL     1      -0.634   5.059   8.880  1.00  0.00     0.293 HD
ENDBRANCH  17  20
ENDBRANCH   1  12
BRANCH   6  22
ATOM     22  O   UNL     1      -4.335  -4.266  12.728  1.00  0.00    -0.507 OA
ATOM     23  H   UNL     1      -4.742  -4.884  13.420  1.00  0.00     0.293 HD
ENDBRANCH   6  22
BRANCH   8  24
ATOM     24  O   UNL     1      -5.467  -0.415  15.407  1.00  0.00    -0.508 OA
ATOM     25  H   UNL     1      -5.413  -0.893  16.299  1.00  0.00     0.293 HD
ENDBRANCH   8  24
TORSDOF 5
ENDMDL
MODEL 4
REMARK VINA RESULT:    -8.606      1.915      2.899
REMARK INTER + INTRA:         -10.433
REMARK INTER:                 -10.166
REMARK INTRA:                  -0.267
REMARK UNBOUND:                -0.318
REMARK SMILES O=c1cc(-c2ccc(O)c(O)c2)oc2cc(O)cc(O)c12
REMARK SMILES IDX 4 1 3 2 2 3 1 4 21 5 19 6 18 7 16 8 15 9 14 10 13 11 5 12
REMARK SMILES IDX 6 13 7 14 8 15 12 16 10 17 9 18 11 20 20 22 17 24
REMARK H PARENT 9 19 11 21 20 23 17 25
REMARK Flexibility Score: inf
ROOT
ATOM      1  C   UNL     1      -3.002  -0.512   9.859  1.00  0.00     0.138 A 
ATOM      2  C   UNL     1      -2.961  -1.907   9.704  1.00  0.00     0.100 A 
ATOM      3  C   UNL     1      -3.429  -2.726  10.732  1.00  0.00     0.197 A 
ATOM      4  O   UNL     1      -3.388  -3.977  10.584  1.00  0.00    -0.289 OA
ATOM      5  C   UNL     1      -3.933  -2.142  11.912  1.00  0.00     0.107 A 
ATOM      6  C   UNL     1      -4.427  -2.899  13.001  1.00  0.00     0.134 A 
ATOM      7  C   UNL     1      -4.907  -2.241  14.144  1.00  0.00     0.093 A 
ATOM      8  C   UNL     1      -4.900  -0.846  14.218  1.00  0.00     0.123 A 
ATOM      9  C   UNL     1      -4.412  -0.093  13.145  1.00  0.00     0.094 A 
ATOM     10  C   UNL     1      -3.931  -0.729  11.997  1.00  0.00     0.146 A 
ATOM     11  O   UNL     1      -3.474   0.009  10.990  1.00  0.00    -0.456 OA
ENDROOT
BRANCH   1  12
ATOM     12  C   UNL     1      -2.516   0.408   8.799  1.00  0.00     0.021 A 
ATOM     13  C   UNL     1      -3.338   1.416   8.260  1.00  0.00     0.016 A 
ATOM     14  C   UNL     1      -2.851   2.275   7.272  1.00  0.00     0.051 A 
ATOM     15  C   UNL     1      -1.538   2.149   6.808  1.00  0.00     0.157 A 
ATOM     16  C   UNL     1      -1.192   0.296   8.339  1.00  0.00     0.062 A 
ATOM     17  C   UNL     1      -0.702   1.156   7.345  1.00  0.00     0.158 A 
BRANCH  15  18
ATOM     18  O   UNL     1      -1.081   3.021   5.819  1.00  0.00    -0.504 OA
ATOM     19  H   UNL     1      -1.662   3.298   5.037  1.00  0.00     0.293 HD
ENDBRANCH  15  18
BRANCH  17  20
ATOM     20  O   UNL     1       0.609   1.028   6.892  1.00  0.00    -0.504 OA
ATOM     21  H   UNL     1       0.849   0.407   6.128  1.00  0.00     0.293 HD
ENDBRANCH  17  20
ENDBRANCH   1  12
BRANCH   6  22
ATOM     22  O   UNL     1      -4.446  -4.293  12.955  1.00  0.00    -0.507 OA
ATOM     23  H   UNL     1      -3.808  -4.816  12.366  1.00  0.00     0.293 HD
ENDBRANCH   6  22
BRANCH   8  24
ATOM     24  O   UNL     1      -5.381  -0.218  15.364  1.00  0.00    -0.508 OA
ATOM     25  H   UNL     1      -5.743  -0.748  16.148  1.00  0.00     0.293 HD
ENDBRANCH   8  24
TORSDOF 5
ENDMDL
MODEL 5
REMARK VINA RESULT:    -8.385      1.564      1.613
REMARK INTER + INTRA:         -10.173
REMARK INTER:                  -9.907
REMARK INTRA:                  -0.266
REMARK UNBOUND:                -0.318
REMARK SMILES O=c1cc(-c2ccc(O)c(O)c2)oc2cc(O)cc(O)c12
REMARK SMILES IDX 4 1 3 2 2 3 1 4 21 5 19 6 18 7 16 8 15 9 14 10 13 11 5 12
REMARK SMILES IDX 6 13 7 14 8 15 12 16 10 17 9 18 11 20 20 22 17 24
REMARK H PARENT 9 19 11 21 20 23 17 25
REMARK Flexibility Score: inf
ROOT
ATOM      1  C   UNL     1      -3.262   0.959  10.411  1.00  0.00     0.138 A 
ATOM      2  C   UNL     1      -3.824   1.724  11.446  1.00  0.00     0.100 A 
ATOM      3  C   UNL     1      -4.349   1.082  12.568  1.00  0.00     0.197 A 
ATOM      4  O   UNL     1      -4.851   1.777  13.492  1.00  0.00    -0.289 OA
ATOM      5  C   UNL     1      -4.311  -0.326  12.645  1.00  0.00     0.107 A 
ATOM      6  C   UNL     1      -4.819  -1.055  13.746  1.00  0.00     0.134 A 
ATOM      7  C   UNL     1      -4.748  -2.456  13.744  1.00  0.00     0.093 A 
ATOM      8  C   UNL     1      -4.181  -3.139  12.665  1.00  0.00     0.123 A 
ATOM      9  C   UNL     1      -3.678  -2.423  11.574  1.00  0.00     0.094 A 
ATOM     10  C   UNL     1      -3.738  -1.027  11.557  1.00  0.00     0.146 A 
ATOM     11  O   UNL     1      -3.251  -0.369  10.509  1.00  0.00    -0.456 OA
ENDROOT
BRANCH   1  12
ATOM     12  C   UNL     1      -2.691   1.589   9.193  1.00  0.00     0.021 A 
ATOM     13  C   UNL     1      -1.377   2.093   9.169  1.00  0.00     0.016 A 
ATOM     14  C   UNL     1      -0.861   2.670   8.005  1.00  0.00     0.051 A 
ATOM     15  C   UNL     1      -1.641   2.750   6.848  1.00  0.00     0.157 A 
ATOM     16  C   UNL     1      -3.466   1.659   8.022  1.00  0.00     0.062 A 
ATOM     17  C   UNL     1      -2.950   2.239   6.854  1.00  0.00     0.158 A 
BRANCH  15  18
ATOM     18  O   UNL     1      -1.099   3.333   5.703  1.00  0.00    -0.504 OA
ATOM     19  H   UNL     1      -1.467   4.192   5.311  1.00  0.00     0.293 HD
ENDBRANCH  15  18
BRANCH  17  20
ATOM     20  O   UNL     1      -3.731   2.311   5.703  1.00  0.00    -0.504 OA
ATOM     21  H   UNL     1      -4.338   3.102   5.520  1.00  0.00     0.293 HD
ENDBRANCH  17  20
ENDBRANCH   1  12
BRANCH   6  22
ATOM     22  O   UNL     1      -5.390  -0.400  14.838  1.00  0.00    -0.507 OA
ATOM     23  H   UNL     1      -6.105   0.308  14.720  1.00  0.00     0.293 HD
ENDBRANCH   6  22
BRANCH   8  24
ATOM     24  O   UNL     1      -4.124  -4.530  12.687  1.00  0.00    -0.508 OA
ATOM     25  H   UNL     1      -4.372  -5.084  11.875  1.00  0.00     0.293 HD
ENDBRANCH   8  24
TORSDOF 5
ENDMDL
MODEL 6
REMARK VINA RESULT:    -7.735      3.516      8.675
REMARK INTER + INTRA:          -9.409
REMARK INTER:                  -9.116
REMARK INTRA:                  -0.294
REMARK UNBOUND:                -0.318
REMARK SMILES O=c1cc(-c2ccc(O)c(O)c2)oc2cc(O)cc(O)c12
REMARK SMILES IDX 4 1 3 2 2 3 1 4 21 5 19 6 18 7 16 8 15 9 14 10 13 11 5 12
REMARK SMILES IDX 6 13 7 14 8 15 12 16 10 17 9 18 11 20 20 22 17 24
REMARK H PARENT 9 19 11 21 20 23 17 25
REMARK Flexibility Score: inf
ROOT
ATOM      1  C   UNL     1      -5.992  -3.502  14.470  1.00  0.00     0.138 A 
ATOM      2  C   UNL     1      -5.090  -2.511  14.888  1.00  0.00     0.100 A 
ATOM      3  C   UNL     1      -4.651  -1.551  13.975  1.00  0.00     0.197 A 
ATOM      4  O   UNL     1      -3.841  -0.666  14.360  1.00  0.00    -0.289 OA
ATOM      5  C   UNL     1      -5.117  -1.594  12.645  1.00  0.00     0.107 A 
ATOM      6  C   UNL     1      -4.723  -0.660  11.657  1.00  0.00     0.134 A 
ATOM      7  C   UNL     1      -5.228  -0.774  10.353  1.00  0.00     0.093 A 
ATOM      8  C   UNL     1      -6.115  -1.801  10.020  1.00  0.00     0.123 A 
ATOM      9  C   UNL     1      -6.507  -2.726  10.993  1.00  0.00     0.094 A 
ATOM     10  C   UNL     1      -6.016  -2.630  12.297  1.00  0.00     0.146 A 
ATOM     11  O   UNL     1      -6.405  -3.520  13.205  1.00  0.00    -0.456 OA
ENDROOT
BRANCH   1  12
ATOM     12  C   UNL     1      -6.492  -4.548  15.398  1.00  0.00     0.021 A 
ATOM     13  C   UNL     1      -6.945  -4.234  16.693  1.00  0.00     0.016 A 
ATOM     14  C   UNL     1      -7.420  -5.237  17.541  1.00  0.00     0.051 A 
ATOM     15  C   UNL     1      -7.457  -6.568  17.113  1.00  0.00     0.157 A 
ATOM     16  C   UNL     1      -6.544  -5.887  14.969  1.00  0.00     0.062 A 
ATOM     17  C   UNL     1      -7.019  -6.895  15.820  1.00  0.00     0.158 A 
BRANCH  15  18
ATOM     18  O   UNL     1      -7.935  -7.547  17.984  1.00  0.00    -0.504 OA
ATOM     19  H   UNL     1      -8.330  -7.317  18.888  1.00  0.00     0.293 HD
ENDBRANCH  15  18
BRANCH  17  20
ATOM     20  O   UNL     1      -7.057  -8.218  15.385  1.00  0.00    -0.504 OA
ATOM     21  H   UNL     1      -6.211  -8.761  15.258  1.00  0.00     0.293 HD
ENDBRANCH  17  20
ENDBRANCH   1  12
BRANCH   6  22
ATOM     22  O   UNL     1      -3.839   0.376  11.960  1.00  0.00    -0.507 OA
ATOM     23  H   UNL     1      -3.944   0.938  12.797  1.00  0.00     0.293 HD
ENDBRANCH   6  22
BRANCH   8  24
ATOM     24  O   UNL     1      -6.601  -1.892   8.718  1.00  0.00    -0.508 OA
ATOM     25  H   UNL     1      -7.233  -2.633   8.438  1.00  0.00     0.293 HD
ENDBRANCH   8  24
TORSDOF 5
ENDMDL
MODEL 7
REMARK VINA RESULT:    -7.721      3.298      9.155
REMARK INTER + INTRA:          -9.392
REMARK INTER:                  -9.074
REMARK INTRA:                  -0.319
REMARK UNBOUND:                -0.318
REMARK SMILES O=c1cc(-c2ccc(O)c(O)c2)oc2cc(O)cc(O)c12
REMARK SMILES IDX 4 1 3 2 2 3 1 4 21 5 19 6 18 7 16 8 15 9 14 10 13 11 5 12
REMARK SMILES IDX 6 13 7 14 8 15 12 16 10 17 9 18 11 20 20 22 17 24
REMARK H PARENT 9 19 11 21 20 23 17 25
REMARK Flexibility Score: inf
ROOT
ATOM      1  C   UNL     1      -6.228  -3.782  14.050  1.00  0.00     0.138 A 
ATOM      2  C   UNL     1      -6.837  -3.686  12.789  1.00  0.00     0.100 A 
ATOM      3  C   UNL     1      -6.393  -2.724  11.882  1.00  0.00     0.197 A 
ATOM      4  O   UNL     1      -6.946  -2.645  10.753  1.00  0.00    -0.289 OA
ATOM      5  C   UNL     1      -5.340  -1.860  12.246  1.00  0.00     0.107 A 
ATOM      6  C   UNL     1      -4.828  -0.858  11.387  1.00  0.00     0.134 A 
ATOM      7  C   UNL     1      -3.781  -0.034  11.827  1.00  0.00     0.093 A 
ATOM      8  C   UNL     1      -3.239  -0.191  13.105  1.00  0.00     0.123 A 
ATOM      9  C   UNL     1      -3.742  -1.180  13.958  1.00  0.00     0.094 A 
ATOM     10  C   UNL     1      -4.784  -2.011  13.539  1.00  0.00     0.146 A 
ATOM     11  O   UNL     1      -5.243  -2.944  14.367  1.00  0.00    -0.456 OA
ENDROOT
BRANCH   1  12
ATOM     12  C   UNL     1      -6.661  -4.786  15.056  1.00  0.00     0.021 A 
ATOM     13  C   UNL     1      -7.733  -5.665  14.809  1.00  0.00     0.016 A 
ATOM     14  C   UNL     1      -8.112  -6.607  15.769  1.00  0.00     0.051 A 
ATOM     15  C   UNL     1      -7.429  -6.694  16.985  1.00  0.00     0.157 A 
ATOM     16  C   UNL     1      -5.969  -4.887  16.276  1.00  0.00     0.062 A 
ATOM     17  C   UNL     1      -6.350  -5.831  17.240  1.00  0.00     0.158 A 
BRANCH  15  18
ATOM     18  O   UNL     1      -7.832  -7.643  17.924  1.00  0.00    -0.504 OA
ATOM     19  H   UNL     1      -7.452  -7.667  18.863  1.00  0.00     0.293 HD
ENDBRANCH  15  18
BRANCH  17  20
ATOM     20  O   UNL     1      -5.661  -5.915  18.449  1.00  0.00    -0.504 OA
ATOM     21  H   UNL     1      -5.563  -5.114  19.062  1.00  0.00     0.293 HD
ENDBRANCH  17  20
ENDBRANCH   1  12
BRANCH   6  22
ATOM     22  O   UNL     1      -5.349  -0.678  10.105  1.00  0.00    -0.507 OA
ATOM     23  H   UNL     1      -4.983   0.028   9.476  1.00  0.00     0.293 HD
ENDBRANCH   6  22
BRANCH   8  24
ATOM     24  O   UNL     1      -2.202   0.641  13.518  1.00  0.00    -0.508 OA
ATOM     25  H   UNL     1      -2.357   1.398  14.172  1.00  0.00     0.293 HD
ENDBRANCH   8  24
TORSDOF 5
ENDMDL
MODEL 8
REMARK VINA RESULT:    -7.715      3.747      8.998
REMARK INTER + INTRA:          -9.386
REMARK INTER:                  -9.092
REMARK INTRA:                  -0.293
REMARK UNBOUND:                -0.318
REMARK SMILES O=c1cc(-c2ccc(O)c(O)c2)oc2cc(O)cc(O)c12
REMARK SMILES IDX 4 1 3 2 2 3 1 4 21 5 19 6 18 7 16 8 15 9 14 10 13 11 5 12
REMARK SMILES IDX 6 13 7 14 8 15 12 16 10 17 9 18 11 20 20 22 17 24
REMARK H PARENT 9 19 11 21 20 23 17 25
REMARK Flexibility Score: inf
ROOT
ATOM      1  C   UNL     1      -5.589  -4.108  13.959  1.00  0.00     0.138 A 
ATOM      2  C   UNL     1      -6.352  -3.149  13.273  1.00  0.00     0.100 A 
ATOM      3  C   UNL     1      -5.747  -2.359  12.296  1.00  0.00     0.197 A 
ATOM      4  O   UNL     1      -6.440  -1.501  11.686  1.00  0.00    -0.289 OA
ATOM      5  C   UNL     1      -4.375  -2.531  12.015  1.00  0.00     0.107 A 
ATOM      6  C   UNL     1      -3.684  -1.773  11.040  1.00  0.00     0.134 A 
ATOM      7  C   UNL     1      -2.317  -2.001  10.823  1.00  0.00     0.093 A 
ATOM      8  C   UNL     1      -1.631  -2.969  11.561  1.00  0.00     0.123 A 
ATOM      9  C   UNL     1      -2.309  -3.721  12.525  1.00  0.00     0.094 A 
ATOM     10  C   UNL     1      -3.671  -3.509  12.756  1.00  0.00     0.146 A 
ATOM     11  O   UNL     1      -4.294  -4.238  13.677  1.00  0.00    -0.456 OA
ENDROOT
BRANCH   1  12
ATOM     12  C   UNL     1      -6.181  -4.975  15.009  1.00  0.00     0.021 A 
ATOM     13  C   UNL     1      -5.479  -6.071  15.546  1.00  0.00     0.016 A 
ATOM     14  C   UNL     1      -6.056  -6.863  16.541  1.00  0.00     0.051 A 
ATOM     15  C   UNL     1      -7.337  -6.575  17.022  1.00  0.00     0.157 A 
ATOM     16  C   UNL     1      -7.464  -4.682  15.507  1.00  0.00     0.062 A 
ATOM     17  C   UNL     1      -8.045  -5.478  16.504  1.00  0.00     0.158 A 
BRANCH  15  18
ATOM     18  O   UNL     1      -7.887  -7.386  18.015  1.00  0.00    -0.504 OA
ATOM     19  H   UNL     1      -8.771  -7.865  17.890  1.00  0.00     0.293 HD
ENDBRANCH  15  18
BRANCH  17  20
ATOM     20  O   UNL     1      -9.320  -5.183  16.982  1.00  0.00    -0.504 OA
ATOM     21  H   UNL     1      -9.968  -4.612  16.451  1.00  0.00     0.293 HD
ENDBRANCH  17  20
ENDBRANCH   1  12
BRANCH   6  22
ATOM     22  O   UNL     1      -4.343  -0.799  10.288  1.00  0.00    -0.507 OA
ATOM     23  H   UNL     1      -3.994   0.150  10.223  1.00  0.00     0.293 HD
ENDBRANCH   6  22
BRANCH   8  24
ATOM     24  O   UNL     1      -0.273  -3.175  11.327  1.00  0.00    -0.508 OA
ATOM     25  H   UNL     1       0.081  -3.370  10.398  1.00  0.00     0.293 HD
ENDBRANCH   8  24
TORSDOF 5
ENDMDL
MODEL 9
REMARK VINA RESULT:    -7.685      3.595      8.723
REMARK INTER + INTRA:          -9.350
REMARK INTER:                  -9.032
REMARK INTRA:                  -0.318
REMARK UNBOUND:                -0.318
REMARK SMILES O=c1cc(-c2ccc(O)c(O)c2)oc2cc(O)cc(O)c12
REMARK SMILES IDX 4 1 3 2 2 3 1 4 21 5 19 6 18 7 16 8 15 9 14 10 13 11 5 12
REMARK SMILES IDX 6 13 7 14 8 15 12 16 10 17 9 18 11 20 20 22 17 24
REMARK H PARENT 9 19 11 21 20 23 17 25
REMARK Flexibility Score: inf
ROOT
ATOM      1  C   UNL     1      -5.393  -4.213  13.915  1.00  0.00     0.138 A 
ATOM      2  C   UNL     1      -4.068  -4.445  13.511  1.00  0.00     0.100 A 
ATOM      3  C   UNL     1      -3.509  -3.660  12.503  1.00  0.00     0.197 A 
ATOM      4  O   UNL     1      -2.320  -3.875  12.147  1.00  0.00    -0.289 OA
ATOM      5  C   UNL     1      -4.284  -2.647  11.900  1.00  0.00     0.107 A 
ATOM      6  C   UNL     1      -3.796  -1.806  10.873  1.00  0.00     0.134 A 
ATOM      7  C   UNL     1      -4.632  -0.824  10.321  1.00  0.00     0.093 A 
ATOM      8  C   UNL     1      -5.944  -0.669  10.775  1.00  0.00     0.123 A 
ATOM      9  C   UNL     1      -6.432  -1.498  11.791  1.00  0.00     0.094 A 
ATOM     10  C   UNL     1      -5.615  -2.481  12.354  1.00  0.00     0.146 A 
ATOM     11  O   UNL     1      -6.101  -3.256  13.319  1.00  0.00    -0.456 OA
ENDROOT
BRANCH   1  12
ATOM     12  C   UNL     1      -6.039  -5.019  14.982  1.00  0.00     0.021 A 
ATOM     13  C   UNL     1      -5.373  -6.090  15.606  1.00  0.00     0.016 A 
ATOM     14  C   UNL     1      -6.001  -6.824  16.615  1.00  0.00     0.051 A 
ATOM     15  C   UNL     1      -7.299  -6.501  17.023  1.00  0.00     0.157 A 
ATOM     16  C   UNL     1      -7.340  -4.690  15.406  1.00  0.00     0.062 A 
ATOM     17  C   UNL     1      -7.972  -5.427  16.418  1.00  0.00     0.158 A 
BRANCH  15  18
ATOM     18  O   UNL     1      -7.900  -7.254  18.032  1.00  0.00    -0.504 OA
ATOM     19  H   UNL     1      -7.358  -7.802  18.690  1.00  0.00     0.293 HD
ENDBRANCH  15  18
BRANCH  17  20
ATOM     20  O   UNL     1      -9.264  -5.097  16.822  1.00  0.00    -0.504 OA
ATOM     21  H   UNL     1      -9.546  -5.148  17.794  1.00  0.00     0.293 HD
ENDBRANCH  17  20
ENDBRANCH   1  12
BRANCH   6  22
ATOM     22  O   UNL     1      -2.490  -1.937  10.399  1.00  0.00    -0.507 OA
ATOM     23  H   UNL     1      -2.246  -2.620   9.691  1.00  0.00     0.293 HD
ENDBRANCH   6  22
BRANCH   8  24
ATOM     24  O   UNL     1      -6.755   0.312  10.210  1.00  0.00    -0.508 OA
ATOM     25  H   UNL     1      -6.621   1.295  10.417  1.00  0.00     0.293 HD
ENDBRANCH   8  24
TORSDOF 5
ENDMDL
