MODEL 1
REMARK VINA RESULT:    -6.793      0.000      0.000
REMARK INTER + INTRA:         -14.041
REMARK INTER:                 -11.161
REMARK INTRA:                  -2.880
REMARK UNBOUND:                -2.880
REMARK SMILES C[C@H]1O[C@H](OC[C@@H]2O[C@H](Oc3c(-c4ccc(O)c(O)c4)oc4cc(O)cc(O)c4c3=O)[C@H](O)[C@@H](O)[C@@H]2O)[C@H](O)[C@@H](O)[C@H]1O
REMARK SMILES IDX 7 1 36 2 34 3 32 4 9 5 8 6 6 7 5 8 4 9 1 10 2 11 42 12 3 13
REMARK SMILES IDX 40 14 38 15 43 16 41 18 39 20 37 22 35 24 10 26 11 27 12 28
REMARK SMILES IDX 30 29 21 30 29 31 31 32 22 33 27 34 23 35 26 36 24 37 13 38
REMARK SMILES IDX 20 39 14 40 18 41 15 42 16 43 19 44 17 46 28 48 25 50 33 52
REMARK H PARENT 43 17 41 19 39 21 37 23 35 25 19 45 17 47 28 49 25 51 33 53
REMARK Flexibility Score: inf
ROOT
ATOM      1  C   UNL     1     139.296 143.849 149.965  1.00  0.00     0.180 C 
ATOM      2  C   UNL     1     140.827 143.929 150.198  1.00  0.00     0.177 C 
ATOM      3  C   UNL     1     141.594 143.430 148.967  1.00  0.00     0.180 C 
ATOM      4  C   UNL     1     141.102 144.181 147.721  1.00  0.00     0.214 C 
ATOM      5  C   UNL     1     139.573 144.060 147.592  1.00  0.00     0.339 C 
ATOM      6  O   UNL     1     138.884 144.490 148.761  1.00  0.00    -0.332 OA
ENDROOT
BRANCH   1   7
ATOM      7  C   UNL     1     138.714 142.429 150.127  1.00  0.00     0.198 C 
BRANCH   7   8
ATOM      8  O   UNL     1     137.710 142.430 151.123  1.00  0.00    -0.347 OA
BRANCH   8   9
ATOM      9  C   UNL     1     138.223 141.938 152.354  1.00  0.00     0.281 C 
ATOM     10  C   UNL     1     138.343 145.125 154.199  1.00  0.00     0.041 C 
ATOM     11  C   UNL     1     137.710 143.942 153.466  1.00  0.00     0.150 C 
ATOM     12  C   UNL     1     136.594 143.292 154.316  1.00  0.00     0.174 C 
ATOM     13  O   UNL     1     138.727 142.999 153.155  1.00  0.00    -0.344 OA
ATOM     14  C   UNL     1     136.005 142.092 153.549  1.00  0.00     0.179 C 
ATOM     15  C   UNL     1     137.140 141.149 153.112  1.00  0.00     0.202 C 
BRANCH  12  16
ATOM     16  O   UNL     1     137.121 142.868 155.550  1.00  0.00    -0.388 OA
ATOM     17  H   UNL     1     137.382 143.685 156.051  1.00  0.00     0.211 HD
ENDBRANCH  12  16
BRANCH  14  18
ATOM     18  O   UNL     1     135.091 141.395 154.354  1.00  0.00    -0.387 OA
ATOM     19  H   UNL     1     134.329 142.010 154.519  1.00  0.00     0.211 HD
ENDBRANCH  14  18
BRANCH  15  20
ATOM     20  O   UNL     1     136.643 140.128 152.289  1.00  0.00    -0.385 OA
ATOM     21  H   UNL     1     136.454 140.537 151.404  1.00  0.00     0.211 HD
ENDBRANCH  15  20
ENDBRANCH   8   9
ENDBRANCH   7   8
ENDBRANCH   1   7
BRANCH   2  22
ATOM     22  O   UNL     1     141.207 143.181 151.324  1.00  0.00    -0.387 OA
ATOM     23  H   UNL     1     141.243 142.231 151.038  1.00  0.00     0.211 HD
ENDBRANCH   2  22
BRANCH   3  24
ATOM     24  O   UNL     1     142.980 143.599 149.142  1.00  0.00    -0.387 OA
ATOM     25  H   UNL     1     143.371 142.712 149.361  1.00  0.00     0.211 HD
ENDBRANCH   3  24
BRANCH   5  26
ATOM     26  O   UNL     1     139.205 142.731 147.215  1.00  0.00    -0.454 OA
BRANCH  26  27
ATOM     27  C   UNL     1     138.551 142.354 146.025  1.00  0.00     0.214 A 
ATOM     28  C   UNL     1     137.141 142.315 146.016  1.00  0.00     0.180 A 
ATOM     29  C   UNL     1     139.237 141.999 144.840  1.00  0.00     0.239 A 
ATOM     30  O   UNL     1     136.489 141.944 144.919  1.00  0.00    -0.452 OA
ATOM     31  C   UNL     1     138.503 141.632 143.691  1.00  0.00     0.111 A 
ATOM     32  O   UNL     1     140.495 142.024 144.803  1.00  0.00    -0.285 OA
ATOM     33  C   UNL     1     137.094 141.616 143.785  1.00  0.00     0.146 A 
ATOM     34  C   UNL     1     139.114 141.298 142.458  1.00  0.00     0.134 A 
ATOM     35  C   UNL     1     136.316 141.262 142.680  1.00  0.00     0.094 A 
ATOM     36  C   UNL     1     138.317 140.951 141.357  1.00  0.00     0.093 A 
ATOM     37  C   UNL     1     136.922 140.931 141.467  1.00  0.00     0.123 A 
BRANCH  28  38
ATOM     38  C   UNL     1     136.345 142.636 147.219  1.00  0.00     0.025 A 
ATOM     39  C   UNL     1     136.029 141.651 148.169  1.00  0.00     0.062 A 
ATOM     40  C   UNL     1     135.924 143.957 147.438  1.00  0.00     0.016 A 
ATOM     41  C   UNL     1     135.262 141.971 149.298  1.00  0.00     0.158 A 
ATOM     42  C   UNL     1     135.163 144.280 148.564  1.00  0.00     0.051 A 
ATOM     43  C   UNL     1     134.824 143.288 149.495  1.00  0.00     0.157 A 
BRANCH  41  44
ATOM     44  O   UNL     1     134.934 140.987 150.229  1.00  0.00    -0.504 OA
ATOM     45  H   UNL     1     135.270 140.035 150.134  1.00  0.00     0.293 HD
ENDBRANCH  41  44
BRANCH  43  46
ATOM     46  O   UNL     1     134.057 143.602 150.615  1.00  0.00    -0.504 OA
ATOM     47  H   UNL     1     133.275 143.024 150.902  1.00  0.00     0.293 HD
ENDBRANCH  43  46
ENDBRANCH  28  38
BRANCH  34  48
ATOM     48  O   UNL     1     140.502 141.313 142.313  1.00  0.00    -0.507 OA
ATOM     49  H   UNL     1     140.943 141.464 141.414  1.00  0.00     0.293 HD
ENDBRANCH  34  48
BRANCH  37  50
ATOM     50  O   UNL     1     136.129 140.584 140.375  1.00  0.00    -0.508 OA
ATOM     51  H   UNL     1     135.657 139.689 140.327  1.00  0.00     0.293 HD
ENDBRANCH  37  50
ENDBRANCH  26  27
ENDBRANCH   5  26
BRANCH   4  52
ATOM     52  O   UNL     1     141.709 143.656 146.568  1.00  0.00    -0.384 OA
ATOM     53  H   UNL     1     141.013 143.634 145.860  1.00  0.00     0.211 HD
ENDBRANCH   4  52
TORSDOF 16
ENDMDL
MODEL 2
REMARK VINA RESULT:    -6.238      2.755      7.985
REMARK INTER + INTRA:         -13.129
REMARK INTER:                 -11.657
REMARK INTRA:                  -1.472
REMARK UNBOUND:                -2.880
REMARK SMILES C[C@H]1O[C@H](OC[C@@H]2O[C@H](Oc3c(-c4ccc(O)c(O)c4)oc4cc(O)cc(O)c4c3=O)[C@H](O)[C@@H](O)[C@@H]2O)[C@H](O)[C@@H](O)[C@H]1O
REMARK SMILES IDX 7 1 36 2 34 3 32 4 9 5 8 6 6 7 5 8 4 9 1 10 2 11 42 12 3 13
REMARK SMILES IDX 40 14 38 15 43 16 41 18 39 20 37 22 35 24 10 26 11 27 12 28
REMARK SMILES IDX 30 29 21 30 29 31 31 32 22 33 27 34 23 35 26 36 24 37 13 38
REMARK SMILES IDX 20 39 14 40 18 41 15 42 16 43 19 44 17 46 28 48 25 50 33 52
REMARK H PARENT 43 17 41 19 39 21 37 23 35 25 19 45 17 47 28 49 25 51 33 53
REMARK Flexibility Score: inf
ROOT
ATOM      1  C   UNL     1     140.823 141.720 143.409  1.00  0.00     0.180 C 
ATOM      2  C   UNL     1     140.011 142.203 142.180  1.00  0.00     0.177 C 
ATOM      3  C   UNL     1     138.635 142.728 142.607  1.00  0.00     0.180 C 
ATOM      4  C   UNL     1     138.811 143.786 143.706  1.00  0.00     0.214 C 
ATOM      5  C   UNL     1     139.647 143.219 144.866  1.00  0.00     0.339 C 
ATOM      6  O   UNL     1     140.903 142.699 144.441  1.00  0.00    -0.332 OA
ENDROOT
BRANCH   1   7
ATOM      7  C   UNL     1     140.407 140.327 143.925  1.00  0.00     0.198 C 
BRANCH   7   8
ATOM      8  O   UNL     1     139.117 140.391 144.500  1.00  0.00    -0.347 OA
BRANCH   8   9
ATOM      9  C   UNL     1     138.257 139.422 143.917  1.00  0.00     0.281 C 
ATOM     10  C   UNL     1     139.571 136.438 145.632  1.00  0.00     0.041 C 
ATOM     11  C   UNL     1     138.884 137.796 145.491  1.00  0.00     0.150 C 
ATOM     12  C   UNL     1     137.499 137.792 146.177  1.00  0.00     0.174 C 
ATOM     13  O   UNL     1     138.768 138.109 144.110  1.00  0.00    -0.344 OA
ATOM     14  C   UNL     1     136.835 139.170 145.986  1.00  0.00     0.179 C 
ATOM     15  C   UNL     1     136.835 139.544 144.494  1.00  0.00     0.202 C 
BRANCH  12  16
ATOM     16  O   UNL     1     136.692 136.784 145.617  1.00  0.00    -0.388 OA
ATOM     17  H   UNL     1     136.856 136.790 144.638  1.00  0.00     0.211 HD
ENDBRANCH  12  16
BRANCH  14  18
ATOM     18  O   UNL     1     135.518 139.153 146.472  1.00  0.00    -0.387 OA
ATOM     19  H   UNL     1     135.142 138.262 146.247  1.00  0.00     0.211 HD
ENDBRANCH  14  18
BRANCH  15  20
ATOM     20  O   UNL     1     136.369 140.855 144.313  1.00  0.00    -0.385 OA
ATOM     21  H   UNL     1     136.614 141.124 143.390  1.00  0.00     0.211 HD
ENDBRANCH  15  20
ENDBRANCH   8   9
ENDBRANCH   7   8
ENDBRANCH   1   7
BRANCH   2  22
ATOM     22  O   UNL     1     139.850 141.169 141.243  1.00  0.00    -0.387 OA
ATOM     23  H   UNL     1     139.607 140.354 141.754  1.00  0.00     0.211 HD
ENDBRANCH   2  22
BRANCH   3  24
ATOM     24  O   UNL     1     137.940 143.258 141.504  1.00  0.00    -0.387 OA
ATOM     25  H   UNL     1     137.245 142.601 141.235  1.00  0.00     0.211 HD
ENDBRANCH   3  24
BRANCH   5  26
ATOM     26  O   UNL     1     138.893 142.253 145.603  1.00  0.00    -0.454 OA
BRANCH  26  27
ATOM     27  C   UNL     1     138.475 142.369 146.943  1.00  0.00     0.214 A 
ATOM     28  C   UNL     1     139.368 141.978 147.962  1.00  0.00     0.180 A 
ATOM     29  C   UNL     1     137.198 142.845 147.321  1.00  0.00     0.239 A 
ATOM     30  O   UNL     1     139.003 142.052 149.238  1.00  0.00    -0.452 OA
ATOM     31  C   UNL     1     136.860 142.929 148.689  1.00  0.00     0.111 A 
ATOM     32  O   UNL     1     136.372 143.209 146.444  1.00  0.00    -0.285 OA
ATOM     33  C   UNL     1     137.821 142.505 149.634  1.00  0.00     0.146 A 
ATOM     34  C   UNL     1     135.617 143.427 149.149  1.00  0.00     0.134 A 
ATOM     35  C   UNL     1     137.542 142.565 151.001  1.00  0.00     0.094 A 
ATOM     36  C   UNL     1     135.356 143.486 150.526  1.00  0.00     0.093 A 
ATOM     37  C   UNL     1     136.314 143.055 151.450  1.00  0.00     0.123 A 
BRANCH  28  38
ATOM     38  C   UNL     1     140.709 141.435 147.657  1.00  0.00     0.025 A 
ATOM     39  C   UNL     1     141.842 142.266 147.622  1.00  0.00     0.062 A 
ATOM     40  C   UNL     1     140.863 140.059 147.431  1.00  0.00     0.016 A 
ATOM     41  C   UNL     1     143.104 141.735 147.318  1.00  0.00     0.158 A 
ATOM     42  C   UNL     1     142.121 139.527 147.132  1.00  0.00     0.051 A 
ATOM     43  C   UNL     1     143.243 140.364 147.069  1.00  0.00     0.157 A 
BRANCH  41  44
ATOM     44  O   UNL     1     144.222 142.565 147.266  1.00  0.00    -0.504 OA
ATOM     45  H   UNL     1     144.737 142.707 146.405  1.00  0.00     0.293 HD
ENDBRANCH  41  44
BRANCH  43  46
ATOM     46  O   UNL     1     144.498 139.840 146.762  1.00  0.00    -0.504 OA
ATOM     47  H   UNL     1     145.284 139.940 147.394  1.00  0.00     0.293 HD
ENDBRANCH  43  46
ENDBRANCH  28  38
BRANCH  34  48
ATOM     48  O   UNL     1     134.642 143.869 148.254  1.00  0.00    -0.507 OA
ATOM     49  H   UNL     1     134.407 144.851 148.162  1.00  0.00     0.293 HD
ENDBRANCH  34  48
BRANCH  37  50
ATOM     50  O   UNL     1     136.056 143.111 152.818  1.00  0.00    -0.508 OA
ATOM     51  H   UNL     1     135.278 142.609 153.230  1.00  0.00     0.293 HD
ENDBRANCH  37  50
ENDBRANCH  26  27
ENDBRANCH   5  26
BRANCH   4  52
ATOM     52  O   UNL     1     137.558 144.195 144.191  1.00  0.00    -0.384 OA
ATOM     53  H   UNL     1     137.396 145.108 143.838  1.00  0.00     0.211 HD
ENDBRANCH   4  52
TORSDOF 16
ENDMDL
MODEL 3
REMARK VINA RESULT:    -6.134      2.556      7.186
REMARK INTER + INTRA:         -12.958
REMARK INTER:                 -11.577
REMARK INTRA:                  -1.381
REMARK UNBOUND:                -2.880
REMARK SMILES C[C@H]1O[C@H](OC[C@@H]2O[C@H](Oc3c(-c4ccc(O)c(O)c4)oc4cc(O)cc(O)c4c3=O)[C@H](O)[C@@H](O)[C@@H]2O)[C@H](O)[C@@H](O)[C@H]1O
REMARK SMILES IDX 7 1 36 2 34 3 32 4 9 5 8 6 6 7 5 8 4 9 1 10 2 11 42 12 3 13
REMARK SMILES IDX 40 14 38 15 43 16 41 18 39 20 37 22 35 24 10 26 11 27 12 28
REMARK SMILES IDX 30 29 21 30 29 31 31 32 22 33 27 34 23 35 26 36 24 37 13 38
REMARK SMILES IDX 20 39 14 40 18 41 15 42 16 43 19 44 17 46 28 48 25 50 33 52
REMARK H PARENT 43 17 41 19 39 21 37 23 35 25 19 45 17 47 28 49 25 51 33 53
REMARK Flexibility Score: inf
ROOT
ATOM      1  C   UNL     1     141.722 141.582 146.957  1.00  0.00     0.180 C 
ATOM      2  C   UNL     1     142.840 142.655 147.004  1.00  0.00     0.177 C 
ATOM      3  C   UNL     1     142.265 144.028 147.376  1.00  0.00     0.180 C 
ATOM      4  C   UNL     1     141.450 143.905 148.671  1.00  0.00     0.214 C 
ATOM      5  C   UNL     1     140.386 142.802 148.532  1.00  0.00     0.339 C 
ATOM      6  O   UNL     1     140.937 141.547 148.146  1.00  0.00    -0.332 OA
ENDROOT
BRANCH   1   7
ATOM      7  C   UNL     1     140.872 141.621 145.670  1.00  0.00     0.198 C 
BRANCH   7   8
ATOM      8  O   UNL     1     140.365 140.331 145.388  1.00  0.00    -0.347 OA
BRANCH   8   9
ATOM      9  C   UNL     1     139.260 140.031 146.230  1.00  0.00     0.281 C 
ATOM     10  C   UNL     1     136.736 139.439 143.612  1.00  0.00     0.041 C 
ATOM     11  C   UNL     1     138.006 139.196 144.428  1.00  0.00     0.150 C 
ATOM     12  C   UNL     1     138.072 137.739 144.937  1.00  0.00     0.174 C 
ATOM     13  O   UNL     1     138.036 140.116 145.511  1.00  0.00    -0.344 OA
ATOM     14  C   UNL     1     139.353 137.550 145.773  1.00  0.00     0.179 C 
ATOM     15  C   UNL     1     139.426 138.636 146.861  1.00  0.00     0.202 C 
BRANCH  12  16
ATOM     16  O   UNL     1     136.936 137.455 145.718  1.00  0.00    -0.388 OA
ATOM     17  H   UNL     1     136.790 136.474 145.672  1.00  0.00     0.211 HD
ENDBRANCH  12  16
BRANCH  14  18
ATOM     18  O   UNL     1     139.370 136.279 146.368  1.00  0.00    -0.387 OA
ATOM     19  H   UNL     1     140.322 136.061 146.548  1.00  0.00     0.211 HD
ENDBRANCH  14  18
BRANCH  15  20
ATOM     20  O   UNL     1     140.653 138.573 147.539  1.00  0.00    -0.385 OA
ATOM     21  H   UNL     1     140.573 139.159 148.336  1.00  0.00     0.211 HD
ENDBRANCH  15  20
ENDBRANCH   8   9
ENDBRANCH   7   8
ENDBRANCH   1   7
BRANCH   2  22
ATOM     22  O   UNL     1     143.508 142.743 145.771  1.00  0.00    -0.387 OA
ATOM     23  H   UNL     1     143.489 143.699 145.503  1.00  0.00     0.211 HD
ENDBRANCH   2  22
BRANCH   3  24
ATOM     24  O   UNL     1     143.294 144.977 147.517  1.00  0.00    -0.387 OA
ATOM     25  H   UNL     1     144.014 144.746 146.873  1.00  0.00     0.211 HD
ENDBRANCH   3  24
BRANCH   5  26
ATOM     26  O   UNL     1     139.342 143.220 147.648  1.00  0.00    -0.454 OA
BRANCH  26  27
ATOM     27  C   UNL     1     138.025 143.559 148.016  1.00  0.00     0.214 A 
ATOM     28  C   UNL     1     137.067 143.737 146.998  1.00  0.00     0.180 A 
ATOM     29  C   UNL     1     137.616 143.743 149.358  1.00  0.00     0.239 A 
ATOM     30  O   UNL     1     135.819 144.078 147.304  1.00  0.00    -0.452 OA
ATOM     31  C   UNL     1     136.276 144.083 149.640  1.00  0.00     0.111 A 
ATOM     32  O   UNL     1     138.438 143.589 150.299  1.00  0.00    -0.285 OA
ATOM     33  C   UNL     1     135.393 144.248 148.548  1.00  0.00     0.146 A 
ATOM     34  C   UNL     1     135.780 144.250 150.956  1.00  0.00     0.134 A 
ATOM     35  C   UNL     1     134.055 144.584 148.767  1.00  0.00     0.094 A 
ATOM     36  C   UNL     1     134.432 144.582 151.156  1.00  0.00     0.093 A 
ATOM     37  C   UNL     1     133.572 144.750 150.065  1.00  0.00     0.123 A 
BRANCH  28  38
ATOM     38  C   UNL     1     137.415 143.600 145.567  1.00  0.00     0.025 A 
ATOM     39  C   UNL     1     138.619 144.113 145.057  1.00  0.00     0.062 A 
ATOM     40  C   UNL     1     136.544 142.914 144.706  1.00  0.00     0.016 A 
ATOM     41  C   UNL     1     138.926 143.983 143.695  1.00  0.00     0.158 A 
ATOM     42  C   UNL     1     136.850 142.781 143.349  1.00  0.00     0.051 A 
ATOM     43  C   UNL     1     138.039 143.320 142.838  1.00  0.00     0.157 A 
BRANCH  41  44
ATOM     44  O   UNL     1     140.113 144.510 143.189  1.00  0.00    -0.504 OA
ATOM     45  H   UNL     1     140.203 144.775 142.214  1.00  0.00     0.293 HD
ENDBRANCH  41  44
BRANCH  43  46
ATOM     46  O   UNL     1     138.344 143.198 141.484  1.00  0.00    -0.504 OA
ATOM     47  H   UNL     1     139.217 143.546 141.104  1.00  0.00     0.293 HD
ENDBRANCH  43  46
ENDBRANCH  28  38
BRANCH  34  48
ATOM     48  O   UNL     1     136.611 144.085 152.065  1.00  0.00    -0.507 OA
ATOM     49  H   UNL     1     137.003 143.183 152.308  1.00  0.00     0.293 HD
ENDBRANCH  34  48
BRANCH  37  50
ATOM     50  O   UNL     1     132.233 145.081 150.263  1.00  0.00    -0.508 OA
ATOM     51  H   UNL     1     131.513 144.781 149.615  1.00  0.00     0.293 HD
ENDBRANCH  37  50
ENDBRANCH  26  27
ENDBRANCH   5  26
BRANCH   4  52
ATOM     52  O   UNL     1     140.820 145.125 148.966  1.00  0.00    -0.384 OA
ATOM     53  H   UNL     1     139.884 144.912 149.221  1.00  0.00     0.211 HD
ENDBRANCH   4  52
TORSDOF 16
ENDMDL
MODEL 4
REMARK VINA RESULT:    -6.103      2.758      7.241
REMARK INTER + INTRA:         -12.908
REMARK INTER:                 -10.815
REMARK INTRA:                  -2.093
REMARK UNBOUND:                -2.880
REMARK SMILES C[C@H]1O[C@H](OC[C@@H]2O[C@H](Oc3c(-c4ccc(O)c(O)c4)oc4cc(O)cc(O)c4c3=O)[C@H](O)[C@@H](O)[C@@H]2O)[C@H](O)[C@@H](O)[C@H]1O
REMARK SMILES IDX 7 1 36 2 34 3 32 4 9 5 8 6 6 7 5 8 4 9 1 10 2 11 42 12 3 13
REMARK SMILES IDX 40 14 38 15 43 16 41 18 39 20 37 22 35 24 10 26 11 27 12 28
REMARK SMILES IDX 30 29 21 30 29 31 31 32 22 33 27 34 23 35 26 36 24 37 13 38
REMARK SMILES IDX 20 39 14 40 18 41 15 42 16 43 19 44 17 46 28 48 25 50 33 52
REMARK H PARENT 43 17 41 19 39 21 37 23 35 25 19 45 17 47 28 49 25 51 33 53
REMARK Flexibility Score: inf
ROOT
ATOM      1  C   UNL     1     139.274 143.211 142.973  1.00  0.00     0.180 C 
ATOM      2  C   UNL     1     137.817 142.914 142.534  1.00  0.00     0.177 C 
ATOM      3  C   UNL     1     136.933 142.604 143.749  1.00  0.00     0.180 C 
ATOM      4  C   UNL     1     137.067 143.735 144.778  1.00  0.00     0.214 C 
ATOM      5  C   UNL     1     138.547 143.968 145.129  1.00  0.00     0.339 C 
ATOM      6  O   UNL     1     139.355 144.212 143.983  1.00  0.00    -0.332 OA
ENDROOT
BRANCH   1   7
ATOM      7  C   UNL     1     140.098 141.949 143.301  1.00  0.00     0.198 C 
BRANCH   7   8
ATOM      8  O   UNL     1     139.310 141.038 144.042  1.00  0.00    -0.347 OA
BRANCH   8   9
ATOM      9  C   UNL     1     139.769 139.707 143.851  1.00  0.00     0.281 C 
ATOM     10  C   UNL     1     141.193 139.145 147.203  1.00  0.00     0.041 C 
ATOM     11  C   UNL     1     140.110 139.405 146.155  1.00  0.00     0.150 C 
ATOM     12  C   UNL     1     138.952 138.391 146.288  1.00  0.00     0.174 C 
ATOM     13  O   UNL     1     140.698 139.340 144.863  1.00  0.00    -0.344 OA
ATOM     14  C   UNL     1     137.900 138.676 145.198  1.00  0.00     0.179 C 
ATOM     15  C   UNL     1     138.582 138.726 143.820  1.00  0.00     0.202 C 
BRANCH  12  16
ATOM     16  O   UNL     1     139.447 137.080 146.153  1.00  0.00    -0.388 OA
ATOM     17  H   UNL     1     138.675 136.465 146.259  1.00  0.00     0.211 HD
ENDBRANCH  12  16
BRANCH  14  18
ATOM     18  O   UNL     1     136.907 137.684 145.201  1.00  0.00    -0.387 OA
ATOM     19  H   UNL     1     137.068 137.116 144.402  1.00  0.00     0.211 HD
ENDBRANCH  14  18
BRANCH  15  20
ATOM     20  O   UNL     1     137.670 139.128 142.832  1.00  0.00    -0.385 OA
ATOM     21  H   UNL     1     137.743 138.474 142.089  1.00  0.00     0.211 HD
ENDBRANCH  15  20
ENDBRANCH   8   9
ENDBRANCH   7   8
ENDBRANCH   1   7
BRANCH   2  22
ATOM     22  O   UNL     1     137.771 141.838 141.632  1.00  0.00    -0.387 OA
ATOM     23  H   UNL     1     138.037 142.196 140.745  1.00  0.00     0.211 HD
ENDBRANCH   2  22
BRANCH   3  24
ATOM     24  O   UNL     1     135.592 142.434 143.359  1.00  0.00    -0.387 OA
ATOM     25  H   UNL     1     135.457 142.923 142.504  1.00  0.00     0.211 HD
ENDBRANCH   3  24
BRANCH   5  26
ATOM     26  O   UNL     1     139.052 142.886 145.917  1.00  0.00    -0.454 OA
BRANCH  26  27
ATOM     27  C   UNL     1     140.058 142.971 146.899  1.00  0.00     0.214 A 
ATOM     28  C   UNL     1     139.673 143.179 148.240  1.00  0.00     0.180 A 
ATOM     29  C   UNL     1     141.439 142.871 146.609  1.00  0.00     0.239 A 
ATOM     30  O   UNL     1     140.595 143.286 149.192  1.00  0.00    -0.452 OA
ATOM     31  C   UNL     1     142.382 142.968 147.653  1.00  0.00     0.111 A 
ATOM     32  O   UNL     1     141.826 142.680 145.426  1.00  0.00    -0.285 OA
ATOM     33  C   UNL     1     141.897 143.185 148.963  1.00  0.00     0.146 A 
ATOM     34  C   UNL     1     143.778 142.844 147.450  1.00  0.00     0.134 A 
ATOM     35  C   UNL     1     142.784 143.289 150.037  1.00  0.00     0.094 A 
ATOM     36  C   UNL     1     144.653 142.944 148.541  1.00  0.00     0.093 A 
ATOM     37  C   UNL     1     144.159 143.169 149.831  1.00  0.00     0.123 A 
BRANCH  28  38
ATOM     38  C   UNL     1     138.255 143.330 148.629  1.00  0.00     0.025 A 
ATOM     39  C   UNL     1     137.443 142.211 148.877  1.00  0.00     0.062 A 
ATOM     40  C   UNL     1     137.715 144.616 148.789  1.00  0.00     0.016 A 
ATOM     41  C   UNL     1     136.097 142.374 149.233  1.00  0.00     0.158 A 
ATOM     42  C   UNL     1     136.374 144.781 149.147  1.00  0.00     0.051 A 
ATOM     43  C   UNL     1     135.560 143.661 149.365  1.00  0.00     0.157 A 
BRANCH  41  44
ATOM     44  O   UNL     1     135.289 141.261 149.460  1.00  0.00    -0.504 OA
ATOM     45  H   UNL     1     134.385 141.161 149.012  1.00  0.00     0.293 HD
ENDBRANCH  41  44
BRANCH  43  46
ATOM     46  O   UNL     1     134.220 143.820 149.713  1.00  0.00    -0.504 OA
ATOM     47  H   UNL     1     133.596 143.026 149.797  1.00  0.00     0.293 HD
ENDBRANCH  43  46
ENDBRANCH  28  38
BRANCH  34  48
ATOM     48  O   UNL     1     144.303 142.615 146.177  1.00  0.00    -0.507 OA
ATOM     49  H   UNL     1     143.988 141.844 145.600  1.00  0.00     0.293 HD
ENDBRANCH  34  48
BRANCH  37  50
ATOM     50  O   UNL     1     145.028 143.271 150.915  1.00  0.00    -0.508 OA
ATOM     51  H   UNL     1     144.741 143.710 151.783  1.00  0.00     0.293 HD
ENDBRANCH  37  50
ENDBRANCH  26  27
ENDBRANCH   5  26
BRANCH   4  52
ATOM     52  O   UNL     1     136.356 143.414 145.947  1.00  0.00    -0.384 OA
ATOM     53  H   UNL     1     136.623 144.076 146.637  1.00  0.00     0.211 HD
ENDBRANCH   4  52
TORSDOF 16
ENDMDL
MODEL 5
REMARK VINA RESULT:    -6.029      2.352      8.017
REMARK INTER + INTRA:         -12.786
REMARK INTER:                 -10.383
REMARK INTRA:                  -2.404
REMARK UNBOUND:                -2.880
REMARK SMILES C[C@H]1O[C@H](OC[C@@H]2O[C@H](Oc3c(-c4ccc(O)c(O)c4)oc4cc(O)cc(O)c4c3=O)[C@H](O)[C@@H](O)[C@@H]2O)[C@H](O)[C@@H](O)[C@H]1O
REMARK SMILES IDX 7 1 36 2 34 3 32 4 9 5 8 6 6 7 5 8 4 9 1 10 2 11 42 12 3 13
REMARK SMILES IDX 40 14 38 15 43 16 41 18 39 20 37 22 35 24 10 26 11 27 12 28
REMARK SMILES IDX 30 29 21 30 29 31 31 32 22 33 27 34 23 35 26 36 24 37 13 38
REMARK SMILES IDX 20 39 14 40 18 41 15 42 16 43 19 44 17 46 28 48 25 50 33 52
REMARK H PARENT 43 17 41 19 39 21 37 23 35 25 19 45 17 47 28 49 25 51 33 53
REMARK Flexibility Score: inf
ROOT
ATOM      1  C   UNL     1     140.125 143.520 144.086  1.00  0.00     0.180 C 
ATOM      2  C   UNL     1     139.034 143.439 142.988  1.00  0.00     0.177 C 
ATOM      3  C   UNL     1     137.676 143.061 143.593  1.00  0.00     0.180 C 
ATOM      4  C   UNL     1     137.347 144.022 144.745  1.00  0.00     0.214 C 
ATOM      5  C   UNL     1     138.498 144.049 145.766  1.00  0.00     0.339 C 
ATOM      6  O   UNL     1     139.755 144.360 145.175  1.00  0.00    -0.332 OA
ENDROOT
BRANCH   1   7
ATOM      7  C   UNL     1     140.663 142.146 144.535  1.00  0.00     0.198 C 
BRANCH   7   8
ATOM      8  O   UNL     1     139.593 141.232 144.679  1.00  0.00    -0.347 OA
BRANCH   8   9
ATOM      9  C   UNL     1     139.986 139.929 144.271  1.00  0.00     0.281 C 
ATOM     10  C   UNL     1     140.590 138.482 147.605  1.00  0.00     0.041 C 
ATOM     11  C   UNL     1     139.786 139.094 146.457  1.00  0.00     0.150 C 
ATOM     12  C   UNL     1     138.558 138.222 146.111  1.00  0.00     0.174 C 
ATOM     13  O   UNL     1     140.639 139.241 145.330  1.00  0.00    -0.344 OA
ATOM     14  C   UNL     1     137.796 138.863 144.935  1.00  0.00     0.179 C 
ATOM     15  C   UNL     1     138.767 139.130 143.772  1.00  0.00     0.202 C 
BRANCH  12  16
ATOM     16  O   UNL     1     138.976 136.923 145.768  1.00  0.00    -0.388 OA
ATOM     17  H   UNL     1     139.668 136.657 146.428  1.00  0.00     0.211 HD
ENDBRANCH  12  16
BRANCH  14  18
ATOM     18  O   UNL     1     136.758 138.022 144.504  1.00  0.00    -0.387 OA
ATOM     19  H   UNL     1     136.527 138.304 143.580  1.00  0.00     0.211 HD
ENDBRANCH  14  18
BRANCH  15  20
ATOM     20  O   UNL     1     138.128 139.845 142.749  1.00  0.00    -0.385 OA
ATOM     21  H   UNL     1     138.672 139.723 141.927  1.00  0.00     0.211 HD
ENDBRANCH  15  20
ENDBRANCH   8   9
ENDBRANCH   7   8
ENDBRANCH   1   7
BRANCH   2  22
ATOM     22  O   UNL     1     139.383 142.506 141.997  1.00  0.00    -0.387 OA
ATOM     23  H   UNL     1     138.827 142.713 141.200  1.00  0.00     0.211 HD
ENDBRANCH   2  22
BRANCH   3  24
ATOM     24  O   UNL     1     136.669 143.087 142.612  1.00  0.00    -0.387 OA
ATOM     25  H   UNL     1     136.153 142.241 142.681  1.00  0.00     0.211 HD
ENDBRANCH   3  24
BRANCH   5  26
ATOM     26  O   UNL     1     138.544 142.823 146.502  1.00  0.00    -0.454 OA
BRANCH  26  27
ATOM     27  C   UNL     1     138.301 142.671 147.881  1.00  0.00     0.214 A 
ATOM     28  C   UNL     1     139.375 142.856 148.777  1.00  0.00     0.180 A 
ATOM     29  C   UNL     1     137.037 142.328 148.415  1.00  0.00     0.239 A 
ATOM     30  O   UNL     1     139.190 142.700 150.084  1.00  0.00    -0.452 OA
ATOM     31  C   UNL     1     136.881 142.194 149.811  1.00  0.00     0.111 A 
ATOM     32  O   UNL     1     136.051 142.159 147.651  1.00  0.00    -0.285 OA
ATOM     33  C   UNL     1     138.020 142.391 150.625  1.00  0.00     0.146 A 
ATOM     34  C   UNL     1     135.642 141.888 150.425  1.00  0.00     0.134 A 
ATOM     35  C   UNL     1     137.924 142.272 152.013  1.00  0.00     0.094 A 
ATOM     36  C   UNL     1     135.565 141.779 151.821  1.00  0.00     0.093 A 
ATOM     37  C   UNL     1     136.702 141.968 152.614  1.00  0.00     0.123 A 
BRANCH  28  38
ATOM     38  C   UNL     1     140.737 143.181 148.304  1.00  0.00     0.025 A 
ATOM     39  C   UNL     1     141.589 142.187 147.792  1.00  0.00     0.062 A 
ATOM     40  C   UNL     1     141.181 144.512 148.334  1.00  0.00     0.016 A 
ATOM     41  C   UNL     1     142.882 142.512 147.361  1.00  0.00     0.158 A 
ATOM     42  C   UNL     1     142.468 144.839 147.901  1.00  0.00     0.051 A 
ATOM     43  C   UNL     1     143.325 143.840 147.418  1.00  0.00     0.157 A 
BRANCH  41  44
ATOM     44  O   UNL     1     143.730 141.521 146.871  1.00  0.00    -0.504 OA
ATOM     45  H   UNL     1     144.632 141.336 147.296  1.00  0.00     0.293 HD
ENDBRANCH  41  44
BRANCH  43  46
ATOM     46  O   UNL     1     144.613 144.159 146.993  1.00  0.00    -0.504 OA
ATOM     47  H   UNL     1     145.389 144.211 147.644  1.00  0.00     0.293 HD
ENDBRANCH  43  46
ENDBRANCH  28  38
BRANCH  34  48
ATOM     48  O   UNL     1     134.488 141.698 149.664  1.00  0.00    -0.507 OA
ATOM     49  H   UNL     1     133.875 140.906 149.813  1.00  0.00     0.293 HD
ENDBRANCH  34  48
BRANCH  37  50
ATOM     50  O   UNL     1     136.626 141.858 154.001  1.00  0.00    -0.508 OA
ATOM     51  H   UNL     1     136.120 141.100 154.444  1.00  0.00     0.293 HD
ENDBRANCH  37  50
ENDBRANCH  26  27
ENDBRANCH   5  26
BRANCH   4  52
ATOM     52  O   UNL     1     136.164 143.622 145.387  1.00  0.00    -0.384 OA
ATOM     53  H   UNL     1     135.502 143.422 144.674  1.00  0.00     0.211 HD
ENDBRANCH   4  52
TORSDOF 16
ENDMDL
MODEL 6
REMARK VINA RESULT:    -5.976      2.255      7.679
REMARK INTER + INTRA:         -12.699
REMARK INTER:                 -10.513
REMARK INTRA:                  -2.186
REMARK UNBOUND:                -2.880
REMARK SMILES C[C@H]1O[C@H](OC[C@@H]2O[C@H](Oc3c(-c4ccc(O)c(O)c4)oc4cc(O)cc(O)c4c3=O)[C@H](O)[C@@H](O)[C@@H]2O)[C@H](O)[C@@H](O)[C@H]1O
REMARK SMILES IDX 7 1 36 2 34 3 32 4 9 5 8 6 6 7 5 8 4 9 1 10 2 11 42 12 3 13
REMARK SMILES IDX 40 14 38 15 43 16 41 18 39 20 37 22 35 24 10 26 11 27 12 28
REMARK SMILES IDX 30 29 21 30 29 31 31 32 22 33 27 34 23 35 26 36 24 37 13 38
REMARK SMILES IDX 20 39 14 40 18 41 15 42 16 43 19 44 17 46 28 48 25 50 33 52
REMARK H PARENT 43 17 41 19 39 21 37 23 35 25 19 45 17 47 28 49 25 51 33 53
REMARK Flexibility Score: inf
ROOT
ATOM      1  C   UNL     1     136.500 139.941 145.437  1.00  0.00     0.180 C 
ATOM      2  C   UNL     1     137.143 138.751 144.681  1.00  0.00     0.177 C 
ATOM      3  C   UNL     1     138.667 138.750 144.855  1.00  0.00     0.180 C 
ATOM      4  C   UNL     1     139.008 138.810 146.351  1.00  0.00     0.214 C 
ATOM      5  C   UNL     1     138.307 140.008 147.014  1.00  0.00     0.339 C 
ATOM      6  O   UNL     1     136.899 140.010 146.803  1.00  0.00    -0.332 OA
ENDROOT
BRANCH   1   7
ATOM      7  C   UNL     1     136.626 141.291 144.700  1.00  0.00     0.198 C 
BRANCH   7   8
ATOM      8  O   UNL     1     137.735 141.261 143.823  1.00  0.00    -0.347 OA
BRANCH   8   9
ATOM      9  C   UNL     1     137.706 142.372 142.938  1.00  0.00     0.281 C 
ATOM     10  C   UNL     1     139.110 144.907 145.214  1.00  0.00     0.041 C 
ATOM     11  C   UNL     1     139.083 143.642 144.354  1.00  0.00     0.150 C 
ATOM     12  C   UNL     1     140.279 143.608 143.376  1.00  0.00     0.174 C 
ATOM     13  O   UNL     1     137.848 143.593 143.652  1.00  0.00    -0.344 OA
ATOM     14  C   UNL     1     140.194 142.332 142.516  1.00  0.00     0.179 C 
ATOM     15  C   UNL     1     138.803 142.236 141.866  1.00  0.00     0.202 C 
BRANCH  12  16
ATOM     16  O   UNL     1     140.255 144.750 142.554  1.00  0.00    -0.388 OA
ATOM     17  H   UNL     1     140.737 145.469 143.040  1.00  0.00     0.211 HD
ENDBRANCH  12  16
BRANCH  14  18
ATOM     18  O   UNL     1     141.184 142.343 141.521  1.00  0.00    -0.387 OA
ATOM     19  H   UNL     1     140.887 142.991 140.830  1.00  0.00     0.211 HD
ENDBRANCH  14  18
BRANCH  15  20
ATOM     20  O   UNL     1     138.654 141.011 141.198  1.00  0.00    -0.385 OA
ATOM     21  H   UNL     1     139.174 141.077 140.355  1.00  0.00     0.211 HD
ENDBRANCH  15  20
ENDBRANCH   8   9
ENDBRANCH   7   8
ENDBRANCH   1   7
BRANCH   2  22
ATOM     22  O   UNL     1     136.826 138.791 143.313  1.00  0.00    -0.387 OA
ATOM     23  H   UNL     1     136.069 138.163 143.176  1.00  0.00     0.211 HD
ENDBRANCH   2  22
BRANCH   3  24
ATOM     24  O   UNL     1     139.237 137.614 144.253  1.00  0.00    -0.387 OA
ATOM     25  H   UNL     1     138.629 136.845 144.413  1.00  0.00     0.211 HD
ENDBRANCH   3  24
BRANCH   5  26
ATOM     26  O   UNL     1     138.909 141.236 146.596  1.00  0.00    -0.454 OA
BRANCH  26  27
ATOM     27  C   UNL     1     139.873 141.975 147.310  1.00  0.00     0.214 A 
ATOM     28  C   UNL     1     139.455 142.718 148.433  1.00  0.00     0.180 A 
ATOM     29  C   UNL     1     141.241 142.022 146.949  1.00  0.00     0.239 A 
ATOM     30  O   UNL     1     140.332 143.445 149.119  1.00  0.00    -0.452 OA
ATOM     31  C   UNL     1     142.141 142.789 147.719  1.00  0.00     0.111 A 
ATOM     32  O   UNL     1     141.657 141.370 145.956  1.00  0.00    -0.285 OA
ATOM     33  C   UNL     1     141.622 143.505 148.822  1.00  0.00     0.146 A 
ATOM     34  C   UNL     1     143.528 142.859 147.445  1.00  0.00     0.134 A 
ATOM     35  C   UNL     1     142.467 144.281 149.620  1.00  0.00     0.094 A 
ATOM     36  C   UNL     1     144.361 143.638 148.261  1.00  0.00     0.093 A 
ATOM     37  C   UNL     1     143.833 144.349 149.344  1.00  0.00     0.123 A 
BRANCH  28  38
ATOM     38  C   UNL     1     138.041 142.755 148.860  1.00  0.00     0.025 A 
ATOM     39  C   UNL     1     137.618 142.126 150.044  1.00  0.00     0.062 A 
ATOM     40  C   UNL     1     137.104 143.460 148.089  1.00  0.00     0.016 A 
ATOM     41  C   UNL     1     136.270 142.161 150.426  1.00  0.00     0.158 A 
ATOM     42  C   UNL     1     135.760 143.500 148.470  1.00  0.00     0.051 A 
ATOM     43  C   UNL     1     135.338 142.846 149.636  1.00  0.00     0.157 A 
BRANCH  41  44
ATOM     44  O   UNL     1     135.852 141.521 151.591  1.00  0.00    -0.504 OA
ATOM     45  H   UNL     1     135.154 141.931 152.200  1.00  0.00     0.293 HD
ENDBRANCH  41  44
BRANCH  43  46
ATOM     46  O   UNL     1     133.997 142.875 150.016  1.00  0.00    -0.504 OA
ATOM     47  H   UNL     1     133.665 143.497 150.744  1.00  0.00     0.293 HD
ENDBRANCH  43  46
ENDBRANCH  28  38
BRANCH  34  48
ATOM     48  O   UNL     1     144.088 142.159 146.375  1.00  0.00    -0.507 OA
ATOM     49  H   UNL     1     143.523 141.822 145.604  1.00  0.00     0.293 HD
ENDBRANCH  34  48
BRANCH  37  50
ATOM     50  O   UNL     1     144.659 145.125 150.155  1.00  0.00    -0.508 OA
ATOM     51  H   UNL     1     144.424 146.084 150.385  1.00  0.00     0.293 HD
ENDBRANCH  37  50
ENDBRANCH  26  27
ENDBRANCH   5  26
BRANCH   4  52
ATOM     52  O   UNL     1     140.397 138.928 146.528  1.00  0.00    -0.384 OA
ATOM     53  H   UNL     1     140.540 139.579 147.264  1.00  0.00     0.211 HD
ENDBRANCH   4  52
TORSDOF 16
ENDMDL
MODEL 7
REMARK VINA RESULT:    -5.855      1.123      2.125
REMARK INTER + INTRA:         -12.499
REMARK INTER:                  -9.719
REMARK INTRA:                  -2.780
REMARK UNBOUND:                -2.880
REMARK SMILES C[C@H]1O[C@H](OC[C@@H]2O[C@H](Oc3c(-c4ccc(O)c(O)c4)oc4cc(O)cc(O)c4c3=O)[C@H](O)[C@@H](O)[C@@H]2O)[C@H](O)[C@@H](O)[C@H]1O
REMARK SMILES IDX 7 1 36 2 34 3 32 4 9 5 8 6 6 7 5 8 4 9 1 10 2 11 42 12 3 13
REMARK SMILES IDX 40 14 38 15 43 16 41 18 39 20 37 22 35 24 10 26 11 27 12 28
REMARK SMILES IDX 30 29 21 30 29 31 31 32 22 33 27 34 23 35 26 36 24 37 13 38
REMARK SMILES IDX 20 39 14 40 18 41 15 42 16 43 19 44 17 46 28 48 25 50 33 52
REMARK H PARENT 43 17 41 19 39 21 37 23 35 25 19 45 17 47 28 49 25 51 33 53
REMARK Flexibility Score: inf
ROOT
ATOM      1  C   UNL     1     138.705 144.180 150.642  1.00  0.00     0.180 C 
ATOM      2  C   UNL     1     140.164 144.238 151.161  1.00  0.00     0.177 C 
ATOM      3  C   UNL     1     141.140 143.692 150.111  1.00  0.00     0.180 C 
ATOM      4  C   UNL     1     140.912 144.418 148.777  1.00  0.00     0.214 C 
ATOM      5  C   UNL     1     139.434 144.323 148.362  1.00  0.00     0.339 C 
ATOM      6  O   UNL     1     138.545 144.797 149.367  1.00  0.00    -0.332 OA
ENDROOT
BRANCH   1   7
ATOM      7  C   UNL     1     138.068 142.777 150.722  1.00  0.00     0.198 C 
BRANCH   7   8
ATOM      8  O   UNL     1     137.809 142.441 152.070  1.00  0.00    -0.347 OA
BRANCH   8   9
ATOM      9  C   UNL     1     136.553 142.962 152.485  1.00  0.00     0.281 C 
ATOM     10  C   UNL     1     135.082 139.846 153.788  1.00  0.00     0.041 C 
ATOM     11  C   UNL     1     136.057 141.021 153.710  1.00  0.00     0.150 C 
ATOM     12  C   UNL     1     136.174 141.739 155.073  1.00  0.00     0.174 C 
ATOM     13  O   UNL     1     135.615 141.916 152.699  1.00  0.00    -0.344 OA
ATOM     14  C   UNL     1     137.145 142.928 154.939  1.00  0.00     0.179 C 
ATOM     15  C   UNL     1     136.717 143.816 153.757  1.00  0.00     0.202 C 
BRANCH  12  16
ATOM     16  O   UNL     1     134.906 142.192 155.484  1.00  0.00    -0.388 OA
ATOM     17  H   UNL     1     134.396 141.395 155.785  1.00  0.00     0.211 HD
ENDBRANCH  12  16
BRANCH  14  18
ATOM     18  O   UNL     1     137.161 143.686 156.120  1.00  0.00    -0.387 OA
ATOM     19  H   UNL     1     136.766 143.116 156.831  1.00  0.00     0.211 HD
ENDBRANCH  14  18
BRANCH  15  20
ATOM     20  O   UNL     1     137.668 144.821 153.525  1.00  0.00    -0.385 OA
ATOM     21  H   UNL     1     137.923 145.187 154.411  1.00  0.00     0.211 HD
ENDBRANCH  15  20
ENDBRANCH   8   9
ENDBRANCH   7   8
ENDBRANCH   1   7
BRANCH   2  22
ATOM     22  O   UNL     1     140.305 143.513 152.356  1.00  0.00    -0.387 OA
ATOM     23  H   UNL     1     140.495 144.174 153.071  1.00  0.00     0.211 HD
ENDBRANCH   2  22
BRANCH   3  24
ATOM     24  O   UNL     1     142.471 143.839 150.544  1.00  0.00    -0.387 OA
ATOM     25  H   UNL     1     142.646 144.808 150.672  1.00  0.00     0.211 HD
ENDBRANCH   3  24
BRANCH   5  26
ATOM     26  O   UNL     1     139.113 142.991 147.951  1.00  0.00    -0.454 OA
BRANCH  26  27
ATOM     27  C   UNL     1     138.685 142.596 146.668  1.00  0.00     0.214 A 
ATOM     28  C   UNL     1     137.308 142.377 146.456  1.00  0.00     0.180 A 
ATOM     29  C   UNL     1     139.568 142.393 145.582  1.00  0.00     0.239 A 
ATOM     30  O   UNL     1     136.869 141.983 145.265  1.00  0.00    -0.452 OA
ATOM     31  C   UNL     1     139.056 141.996 144.328  1.00  0.00     0.111 A 
ATOM     32  O   UNL     1     140.805 142.582 145.726  1.00  0.00    -0.285 OA
ATOM     33  C   UNL     1     137.662 141.794 144.220  1.00  0.00     0.146 A 
ATOM     34  C   UNL     1     139.869 141.807 143.185  1.00  0.00     0.134 A 
ATOM     35  C   UNL     1     137.098 141.401 143.003  1.00  0.00     0.094 A 
ATOM     36  C   UNL     1     139.285 141.418 141.971  1.00  0.00     0.093 A 
ATOM     37  C   UNL     1     137.904 141.214 141.879  1.00  0.00     0.123 A 
BRANCH  28  38
ATOM     38  C   UNL     1     136.318 142.530 147.543  1.00  0.00     0.025 A 
ATOM     39  C   UNL     1     135.697 143.765 147.796  1.00  0.00     0.062 A 
ATOM     40  C   UNL     1     135.964 141.415 148.318  1.00  0.00     0.016 A 
ATOM     41  C   UNL     1     134.770 143.894 148.840  1.00  0.00     0.158 A 
ATOM     42  C   UNL     1     135.037 141.540 149.356  1.00  0.00     0.051 A 
ATOM     43  C   UNL     1     134.442 142.781 149.624  1.00  0.00     0.157 A 
BRANCH  41  44
ATOM     44  O   UNL     1     134.170 145.125 149.100  1.00  0.00    -0.504 OA
ATOM     45  H   UNL     1     133.701 145.311 149.979  1.00  0.00     0.293 HD
ENDBRANCH  41  44
BRANCH  43  46
ATOM     46  O   UNL     1     133.524 142.913 150.665  1.00  0.00    -0.504 OA
ATOM     47  H   UNL     1     132.537 143.061 150.486  1.00  0.00     0.293 HD
ENDBRANCH  43  46
ENDBRANCH  28  38
BRANCH  34  48
ATOM     48  O   UNL     1     141.250 142.008 143.241  1.00  0.00    -0.507 OA
ATOM     49  H   UNL     1     141.730 142.171 144.118  1.00  0.00     0.293 HD
ENDBRANCH  34  48
BRANCH  37  50
ATOM     50  O   UNL     1     137.323 140.825 140.674  1.00  0.00    -0.508 OA
ATOM     51  H   UNL     1     137.254 139.849 140.410  1.00  0.00     0.293 HD
ENDBRANCH  37  50
ENDBRANCH  26  27
ENDBRANCH   5  26
BRANCH   4  52
ATOM     52  O   UNL     1     141.715 143.851 147.774  1.00  0.00    -0.384 OA
ATOM     53  H   UNL     1     142.656 143.926 148.081  1.00  0.00     0.211 HD
ENDBRANCH   4  52
TORSDOF 16
ENDMDL
MODEL 8
REMARK VINA RESULT:    -5.835      2.293      5.147
REMARK INTER + INTRA:         -12.468
REMARK INTER:                 -10.358
REMARK INTRA:                  -2.109
REMARK UNBOUND:                -2.880
REMARK SMILES C[C@H]1O[C@H](OC[C@@H]2O[C@H](Oc3c(-c4ccc(O)c(O)c4)oc4cc(O)cc(O)c4c3=O)[C@H](O)[C@@H](O)[C@@H]2O)[C@H](O)[C@@H](O)[C@H]1O
REMARK SMILES IDX 7 1 36 2 34 3 32 4 9 5 8 6 6 7 5 8 4 9 1 10 2 11 42 12 3 13
REMARK SMILES IDX 40 14 38 15 43 16 41 18 39 20 37 22 35 24 10 26 11 27 12 28
REMARK SMILES IDX 30 29 21 30 29 31 31 32 22 33 27 34 23 35 26 36 24 37 13 38
REMARK SMILES IDX 20 39 14 40 18 41 15 42 16 43 19 44 17 46 28 48 25 50 33 52
REMARK H PARENT 43 17 41 19 39 21 37 23 35 25 19 45 17 47 28 49 25 51 33 53
REMARK Flexibility Score: inf
ROOT
ATOM      1  C   UNL     1     139.321 144.538 150.654  1.00  0.00     0.180 C 
ATOM      2  C   UNL     1     140.382 144.317 151.761  1.00  0.00     0.177 C 
ATOM      3  C   UNL     1     141.590 143.545 151.216  1.00  0.00     0.180 C 
ATOM      4  C   UNL     1     142.121 144.251 149.959  1.00  0.00     0.214 C 
ATOM      5  C   UNL     1     140.990 144.442 148.934  1.00  0.00     0.339 C 
ATOM      6  O   UNL     1     139.863 145.125 149.475  1.00  0.00    -0.332 OA
ENDROOT
BRANCH   1   7
ATOM      7  C   UNL     1     138.449 143.297 150.368  1.00  0.00     0.198 C 
BRANCH   7   8
ATOM      8  O   UNL     1     137.080 143.647 150.417  1.00  0.00    -0.347 OA
BRANCH   8   9
ATOM      9  C   UNL     1     136.297 142.718 149.681  1.00  0.00     0.281 C 
ATOM     10  C   UNL     1     134.907 140.820 152.517  1.00  0.00     0.041 C 
ATOM     11  C   UNL     1     135.150 142.028 151.610  1.00  0.00     0.150 C 
ATOM     12  C   UNL     1     133.815 142.659 151.156  1.00  0.00     0.174 C 
ATOM     13  O   UNL     1     135.923 141.612 150.493  1.00  0.00    -0.344 OA
ATOM     14  C   UNL     1     134.109 143.853 150.226  1.00  0.00     0.179 C 
ATOM     15  C   UNL     1     135.051 143.409 149.094  1.00  0.00     0.202 C 
BRANCH  12  16
ATOM     16  O   UNL     1     133.038 141.699 150.481  1.00  0.00    -0.388 OA
ATOM     17  H   UNL     1     132.090 141.874 150.719  1.00  0.00     0.211 HD
ENDBRANCH  12  16
BRANCH  14  18
ATOM     18  O   UNL     1     132.918 144.359 149.682  1.00  0.00    -0.387 OA
ATOM     19  H   UNL     1     132.181 143.790 150.031  1.00  0.00     0.211 HD
ENDBRANCH  14  18
BRANCH  15  20
ATOM     20  O   UNL     1     135.449 144.510 148.322  1.00  0.00    -0.385 OA
ATOM     21  H   UNL     1     135.496 144.201 147.380  1.00  0.00     0.211 HD
ENDBRANCH  15  20
ENDBRANCH   8   9
ENDBRANCH   7   8
ENDBRANCH   1   7
BRANCH   2  22
ATOM     22  O   UNL     1     139.836 143.624 152.854  1.00  0.00    -0.387 OA
ATOM     23  H   UNL     1     139.132 143.026 152.492  1.00  0.00     0.211 HD
ENDBRANCH   2  22
BRANCH   3  24
ATOM     24  O   UNL     1     142.595 143.434 152.194  1.00  0.00    -0.387 OA
ATOM     25  H   UNL     1     143.473 143.554 151.746  1.00  0.00     0.211 HD
ENDBRANCH   3  24
BRANCH   5  26
ATOM     26  O   UNL     1     140.624 143.189 148.350  1.00  0.00    -0.454 OA
BRANCH  26  27
ATOM     27  C   UNL     1     140.203 142.981 147.022  1.00  0.00     0.214 A 
ATOM     28  C   UNL     1     141.050 142.263 146.152  1.00  0.00     0.180 A 
ATOM     29  C   UNL     1     138.978 143.468 146.509  1.00  0.00     0.239 A 
ATOM     30  O   UNL     1     140.698 142.066 144.886  1.00  0.00    -0.452 OA
ATOM     31  C   UNL     1     138.633 143.216 145.164  1.00  0.00     0.111 A 
ATOM     32  O   UNL     1     138.190 144.110 147.252  1.00  0.00    -0.285 OA
ATOM     33  C   UNL     1     139.554 142.494 144.371  1.00  0.00     0.146 A 
ATOM     34  C   UNL     1     137.411 143.638 144.587  1.00  0.00     0.134 A 
ATOM     35  C   UNL     1     139.265 142.214 143.033  1.00  0.00     0.094 A 
ATOM     36  C   UNL     1     137.137 143.343 143.243  1.00  0.00     0.093 A 
ATOM     37  C   UNL     1     138.061 142.635 142.467  1.00  0.00     0.123 A 
BRANCH  28  38
ATOM     38  C   UNL     1     142.364 141.749 146.593  1.00  0.00     0.025 A 
ATOM     39  C   UNL     1     142.506 140.446 147.101  1.00  0.00     0.062 A 
ATOM     40  C   UNL     1     143.501 142.563 146.473  1.00  0.00     0.016 A 
ATOM     41  C   UNL     1     143.758 139.981 147.526  1.00  0.00     0.158 A 
ATOM     42  C   UNL     1     144.751 142.099 146.892  1.00  0.00     0.051 A 
ATOM     43  C   UNL     1     144.882 140.810 147.425  1.00  0.00     0.157 A 
BRANCH  41  44
ATOM     44  O   UNL     1     143.890 138.695 148.046  1.00  0.00    -0.504 OA
ATOM     45  H   UNL     1     143.644 138.483 149.006  1.00  0.00     0.293 HD
ENDBRANCH  41  44
BRANCH  43  46
ATOM     46  O   UNL     1     146.125 140.346 147.854  1.00  0.00    -0.504 OA
ATOM     47  H   UNL     1     146.584 139.564 147.401  1.00  0.00     0.293 HD
ENDBRANCH  43  46
ENDBRANCH  28  38
BRANCH  34  48
ATOM     48  O   UNL     1     136.466 144.342 145.334  1.00  0.00    -0.507 OA
ATOM     49  H   UNL     1     136.628 144.589 146.303  1.00  0.00     0.293 HD
ENDBRANCH  34  48
BRANCH  37  50
ATOM     50  O   UNL     1     137.790 142.342 141.132  1.00  0.00    -0.508 OA
ATOM     51  H   UNL     1     136.873 142.030 140.835  1.00  0.00     0.293 HD
ENDBRANCH  37  50
ENDBRANCH  26  27
ENDBRANCH   5  26
BRANCH   4  52
ATOM     52  O   UNL     1     143.153 143.495 149.378  1.00  0.00    -0.384 OA
ATOM     53  H   UNL     1     143.793 144.141 148.979  1.00  0.00     0.211 HD
ENDBRANCH   4  52
TORSDOF 16
ENDMDL
MODEL 9
REMARK VINA RESULT:    -5.687      2.502      7.413
REMARK INTER + INTRA:         -12.224
REMARK INTER:                 -10.351
REMARK INTRA:                  -1.873
REMARK UNBOUND:                -2.880
REMARK SMILES C[C@H]1O[C@H](OC[C@@H]2O[C@H](Oc3c(-c4ccc(O)c(O)c4)oc4cc(O)cc(O)c4c3=O)[C@H](O)[C@@H](O)[C@@H]2O)[C@H](O)[C@@H](O)[C@H]1O
REMARK SMILES IDX 7 1 36 2 34 3 32 4 9 5 8 6 6 7 5 8 4 9 1 10 2 11 42 12 3 13
REMARK SMILES IDX 40 14 38 15 43 16 41 18 39 20 37 22 35 24 10 26 11 27 12 28
REMARK SMILES IDX 30 29 21 30 29 31 31 32 22 33 27 34 23 35 26 36 24 37 13 38
REMARK SMILES IDX 20 39 14 40 18 41 15 42 16 43 19 44 17 46 28 48 25 50 33 52
REMARK H PARENT 43 17 41 19 39 21 37 23 35 25 19 45 17 47 28 49 25 51 33 53
REMARK Flexibility Score: inf
ROOT
ATOM      1  C   UNL     1     139.116 144.024 144.305  1.00  0.00     0.180 C 
ATOM      2  C   UNL     1     137.793 143.555 143.647  1.00  0.00     0.177 C 
ATOM      3  C   UNL     1     136.808 143.040 144.704  1.00  0.00     0.180 C 
ATOM      4  C   UNL     1     136.631 144.104 145.796  1.00  0.00     0.214 C 
ATOM      5  C   UNL     1     137.997 144.517 146.369  1.00  0.00     0.339 C 
ATOM      6  O   UNL     1     138.908 144.953 145.365  1.00  0.00    -0.332 OA
ENDROOT
BRANCH   1   7
ATOM      7  C   UNL     1     140.066 142.870 144.687  1.00  0.00     0.198 C 
BRANCH   7   8
ATOM      8  O   UNL     1     139.402 141.630 144.542  1.00  0.00    -0.347 OA
BRANCH   8   9
ATOM      9  C   UNL     1     139.750 140.748 145.601  1.00  0.00     0.281 C 
ATOM     10  C   UNL     1     136.366 139.554 146.438  1.00  0.00     0.041 C 
ATOM     11  C   UNL     1     137.620 139.758 145.587  1.00  0.00     0.150 C 
ATOM     12  C   UNL     1     138.148 138.411 145.042  1.00  0.00     0.174 C 
ATOM     13  O   UNL     1     138.607 140.409 146.376  1.00  0.00    -0.344 OA
ATOM     14  C   UNL     1     139.423 138.664 144.215  1.00  0.00     0.179 C 
ATOM     15  C   UNL     1     140.428 139.480 145.046  1.00  0.00     0.202 C 
BRANCH  12  16
ATOM     16  O   UNL     1     138.427 137.540 146.111  1.00  0.00    -0.388 OA
ATOM     17  H   UNL     1     139.401 137.349 146.083  1.00  0.00     0.211 HD
ENDBRANCH  12  16
BRANCH  14  18
ATOM     18  O   UNL     1     140.006 137.447 143.826  1.00  0.00    -0.387 OA
ATOM     19  H   UNL     1     139.262 136.802 143.698  1.00  0.00     0.211 HD
ENDBRANCH  14  18
BRANCH  15  20
ATOM     20  O   UNL     1     141.533 139.846 144.265  1.00  0.00    -0.385 OA
ATOM     21  H   UNL     1     141.903 140.679 144.659  1.00  0.00     0.211 HD
ENDBRANCH  15  20
ENDBRANCH   8   9
ENDBRANCH   7   8
ENDBRANCH   1   7
BRANCH   2  22
ATOM     22  O   UNL     1     138.030 142.549 142.695  1.00  0.00    -0.387 OA
ATOM     23  H   UNL     1     138.443 141.788 143.180  1.00  0.00     0.211 HD
ENDBRANCH   2  22
BRANCH   3  24
ATOM     24  O   UNL     1     135.573 142.710 144.116  1.00  0.00    -0.387 OA
ATOM     25  H   UNL     1     135.016 143.533 144.092  1.00  0.00     0.211 HD
ENDBRANCH   3  24
BRANCH   5  26
ATOM     26  O   UNL     1     138.547 143.465 147.167  1.00  0.00    -0.454 OA
BRANCH  26  27
ATOM     27  C   UNL     1     139.393 143.622 148.282  1.00  0.00     0.214 A 
ATOM     28  C   UNL     1     138.820 143.595 149.570  1.00  0.00     0.180 A 
ATOM     29  C   UNL     1     140.790 143.819 148.177  1.00  0.00     0.239 A 
ATOM     30  O   UNL     1     139.583 143.760 150.646  1.00  0.00    -0.452 OA
ATOM     31  C   UNL     1     141.565 143.968 149.346  1.00  0.00     0.111 A 
ATOM     32  O   UNL     1     141.343 143.844 147.046  1.00  0.00    -0.285 OA
ATOM     33  C   UNL     1     140.896 143.934 150.590  1.00  0.00     0.146 A 
ATOM     34  C   UNL     1     142.971 144.133 149.326  1.00  0.00     0.134 A 
ATOM     35  C   UNL     1     141.612 144.076 151.781  1.00  0.00     0.094 A 
ATOM     36  C   UNL     1     143.674 144.268 150.532  1.00  0.00     0.093 A 
ATOM     37  C   UNL     1     142.997 144.242 151.757  1.00  0.00     0.123 A 
BRANCH  28  38
ATOM     38  C   UNL     1     137.365 143.429 149.772  1.00  0.00     0.025 A 
ATOM     39  C   UNL     1     136.760 142.162 149.721  1.00  0.00     0.062 A 
ATOM     40  C   UNL     1     136.574 144.554 150.055  1.00  0.00     0.016 A 
ATOM     41  C   UNL     1     135.376 142.027 149.903  1.00  0.00     0.158 A 
ATOM     42  C   UNL     1     135.195 144.421 150.240  1.00  0.00     0.051 A 
ATOM     43  C   UNL     1     134.591 143.158 150.159  1.00  0.00     0.157 A 
BRANCH  41  44
ATOM     44  O   UNL     1     134.777 140.770 149.834  1.00  0.00    -0.504 OA
ATOM     45  H   UNL     1     134.642 140.201 150.661  1.00  0.00     0.293 HD
ENDBRANCH  41  44
BRANCH  43  46
ATOM     46  O   UNL     1     133.215 143.021 150.333  1.00  0.00    -0.504 OA
ATOM     47  H   UNL     1     132.800 142.137 150.605  1.00  0.00     0.293 HD
ENDBRANCH  43  46
ENDBRANCH  28  38
BRANCH  34  48
ATOM     48  O   UNL     1     143.677 144.159 148.122  1.00  0.00    -0.507 OA
ATOM     49  H   UNL     1     143.551 143.445 147.414  1.00  0.00     0.293 HD
ENDBRANCH  34  48
BRANCH  37  50
ATOM     50  O   UNL     1     143.694 144.377 152.956  1.00  0.00    -0.508 OA
ATOM     51  H   UNL     1     143.305 144.889 153.739  1.00  0.00     0.293 HD
ENDBRANCH  37  50
ENDBRANCH  26  27
ENDBRANCH   5  26
BRANCH   4  52
ATOM     52  O   UNL     1     135.824 143.606 146.832  1.00  0.00    -0.384 OA
ATOM     53  H   UNL     1     135.783 144.310 147.531  1.00  0.00     0.211 HD
ENDBRANCH   4  52
TORSDOF 16
ENDMDL
