MODEL 1
REMARK VINA RESULT:    -4.704      0.000      0.000
REMARK INTER + INTRA:         -10.010
REMARK INTER:                  -9.104
REMARK INTRA:                  -0.906
REMARK UNBOUND:                -0.906
REMARK SMILES CCCCCCCCCCCCCCCCCC(=O)[O-]
REMARK SMILES IDX 10 1 11 2 12 3 13 4 14 5 15 6 16 7 17 8 18 9 19 10 20 11
REMARK SMILES IDX 9 12 8 13 7 14 6 15 5 16 4 17 3 18 2 19 1 20
REMARK H PARENT
REMARK Flexibility Score: inf
ROOT
ATOM      1  C   UNL     1       8.395  -6.585  -3.703  1.00  0.00     0.000 C 
ENDROOT
BRANCH   1   2
ATOM      2  C   UNL     1       8.773  -7.375  -2.436  1.00  0.00     0.000 C 
BRANCH   2   3
ATOM      3  C   UNL     1       8.629  -8.892  -2.614  1.00  0.00     0.000 C 
BRANCH   3   4
ATOM      4  C   UNL     1       7.697  -9.484  -1.545  1.00  0.00     0.000 C 
BRANCH   4   5
ATOM      5  C   UNL     1       8.236  -9.309  -0.114  1.00  0.00     0.000 C 
BRANCH   5   6
ATOM      6  C   UNL     1       7.163  -9.322   0.990  1.00  0.00     0.000 C 
BRANCH   6   7
ATOM      7  C   UNL     1       7.316 -10.506   1.961  1.00  0.00     0.006 C 
BRANCH   7   8
ATOM      8  C   UNL     1       5.962 -11.015   2.471  1.00  0.00     0.053 C 
BRANCH   8   9
ATOM      9  C   UNL     1       5.494 -10.240   3.665  1.00  0.00     0.041 C 
ATOM     10  O   UNL     1       6.273 -10.034   4.633  1.00  0.00    -0.550 OA
ATOM     11  O   UNL     1       4.208  -9.714   3.691  1.00  0.00    -0.550 OA
ENDBRANCH   8   9
ENDBRANCH   7   8
ENDBRANCH   6   7
ENDBRANCH   5   6
ENDBRANCH   4   5
ENDBRANCH   3   4
ENDBRANCH   2   3
ENDBRANCH   1   2
BRANCH   1  12
ATOM     12  C   UNL     1       8.049  -5.103  -3.461  1.00  0.00     0.000 C 
BRANCH  12  13
ATOM     13  C   UNL     1       7.186  -4.448  -4.557  1.00  0.00    -0.000 C 
BRANCH  13  14
ATOM     14  C   UNL     1       7.984  -3.537  -5.514  1.00  0.00    -0.000 C 
BRANCH  14  15
ATOM     15  C   UNL     1       7.976  -4.058  -6.962  1.00  0.00    -0.000 C 
BRANCH  15  16
ATOM     16  C   UNL     1       9.062  -5.114  -7.219  1.00  0.00    -0.000 C 
BRANCH  16  17
ATOM     17  C   UNL     1       8.487  -6.443  -7.735  1.00  0.00    -0.000 C 
BRANCH  17  18
ATOM     18  C   UNL     1       9.016  -6.799  -9.141  1.00  0.00    -0.000 C 
BRANCH  18  19
ATOM     19  C   UNL     1       8.319  -8.017  -9.772  1.00  0.00    -0.003 C 
ATOM     20  C   UNL     1       7.423  -8.769  -8.791  1.00  0.00     0.004 C 
ENDBRANCH  18  19
ENDBRANCH  17  18
ENDBRANCH  16  17
ENDBRANCH  15  16
ENDBRANCH  14  15
ENDBRANCH  13  14
ENDBRANCH  12  13
ENDBRANCH   1  12
TORSDOF 16
ENDMDL
MODEL 2
REMARK VINA RESULT:    -4.588      2.112      4.572
REMARK INTER + INTRA:          -9.785
REMARK INTER:                  -8.702
REMARK INTRA:                  -1.084
REMARK UNBOUND:                -0.906
REMARK SMILES CCCCCCCCCCCCCCCCCC(=O)[O-]
REMARK SMILES IDX 10 1 11 2 12 3 13 4 14 5 15 6 16 7 17 8 18 9 19 10 20 11
REMARK SMILES IDX 9 12 8 13 7 14 6 15 5 16 4 17 3 18 2 19 1 20
REMARK H PARENT
REMARK Flexibility Score: inf
ROOT
ATOM      1  C   UNL     1       7.738  -4.380  -6.850  1.00  0.00     0.000 C 
ENDROOT
BRANCH   1   2
ATOM      2  C   UNL     1       7.846  -3.577  -5.541  1.00  0.00     0.000 C 
BRANCH   2   3
ATOM      3  C   UNL     1       7.217  -4.302  -4.342  1.00  0.00     0.000 C 
BRANCH   3   4
ATOM      4  C   UNL     1       8.277  -5.102  -3.569  1.00  0.00     0.000 C 
BRANCH   4   5
ATOM      5  C   UNL     1       8.125  -6.625  -3.741  1.00  0.00     0.000 C 
BRANCH   5   6
ATOM      6  C   UNL     1       8.970  -7.475  -2.775  1.00  0.00     0.000 C 
BRANCH   6   7
ATOM      7  C   UNL     1       8.127  -8.472  -1.960  1.00  0.00     0.006 C 
BRANCH   7   8
ATOM      8  C   UNL     1       8.580  -8.552  -0.498  1.00  0.00     0.053 C 
BRANCH   8   9
ATOM      9  C   UNL     1       7.949  -9.710   0.214  1.00  0.00     0.041 C 
ATOM     10  O   UNL     1       6.771  -9.621   0.651  1.00  0.00    -0.550 OA
ATOM     11  O   UNL     1       8.651 -10.900   0.363  1.00  0.00    -0.550 OA
ENDBRANCH   8   9
ENDBRANCH   7   8
ENDBRANCH   6   7
ENDBRANCH   5   6
ENDBRANCH   4   5
ENDBRANCH   3   4
ENDBRANCH   2   3
ENDBRANCH   1   2
BRANCH   1  12
ATOM     12  C   UNL     1       9.014  -5.150  -7.242  1.00  0.00     0.000 C 
BRANCH  12  13
ATOM     13  C   UNL     1       8.840  -6.676  -7.371  1.00  0.00    -0.000 C 
BRANCH  13  14
ATOM     14  C   UNL     1       8.783  -7.173  -8.831  1.00  0.00    -0.000 C 
BRANCH  14  15
ATOM     15  C   UNL     1       7.346  -7.221  -9.378  1.00  0.00    -0.000 C 
BRANCH  15  16
ATOM     16  C   UNL     1       6.918  -8.637  -9.796  1.00  0.00    -0.000 C 
BRANCH  16  17
ATOM     17  C   UNL     1       6.413  -9.479  -8.612  1.00  0.00    -0.000 C 
BRANCH  17  18
ATOM     18  C   UNL     1       4.872  -9.517  -8.540  1.00  0.00    -0.000 C 
BRANCH  18  19
ATOM     19  C   UNL     1       4.246 -10.671  -9.341  1.00  0.00    -0.003 C 
ATOM     20  C   UNL     1       3.670 -10.226 -10.684  1.00  0.00     0.004 C 
ENDBRANCH  18  19
ENDBRANCH  17  18
ENDBRANCH  16  17
ENDBRANCH  15  16
ENDBRANCH  14  15
ENDBRANCH  13  14
ENDBRANCH  12  13
ENDBRANCH   1  12
TORSDOF 16
ENDMDL
MODEL 3
REMARK VINA RESULT:    -4.408      1.620      3.300
REMARK INTER + INTRA:          -9.436
REMARK INTER:                  -8.025
REMARK INTRA:                  -1.412
REMARK UNBOUND:                -0.906
REMARK SMILES CCCCCCCCCCCCCCCCCC(=O)[O-]
REMARK SMILES IDX 10 1 11 2 12 3 13 4 14 5 15 6 16 7 17 8 18 9 19 10 20 11
REMARK SMILES IDX 9 12 8 13 7 14 6 15 5 16 4 17 3 18 2 19 1 20
REMARK H PARENT
REMARK Flexibility Score: inf
ROOT
ATOM      1  C   UNL     1       7.820  -4.811  -4.748  1.00  0.00     0.000 C 
ENDROOT
BRANCH   1   2
ATOM      2  C   UNL     1       8.993  -4.532  -3.789  1.00  0.00     0.000 C 
BRANCH   2   3
ATOM      3  C   UNL     1       9.115  -5.580  -2.675  1.00  0.00     0.000 C 
BRANCH   3   4
ATOM      4  C   UNL     1       8.774  -6.983  -3.201  1.00  0.00     0.000 C 
BRANCH   4   5
ATOM      5  C   UNL     1       7.876  -7.784  -2.240  1.00  0.00     0.000 C 
BRANCH   5   6
ATOM      6  C   UNL     1       8.040  -9.313  -2.322  1.00  0.00     0.000 C 
BRANCH   6   7
ATOM      7  C   UNL     1       8.693  -9.914  -1.065  1.00  0.00     0.006 C 
BRANCH   7   8
ATOM      8  C   UNL     1       8.321  -9.140   0.206  1.00  0.00     0.053 C 
BRANCH   8   9
ATOM      9  C   UNL     1       7.321  -9.885   1.035  1.00  0.00     0.041 C 
ATOM     10  O   UNL     1       6.104  -9.557   1.009  1.00  0.00    -0.550 OA
ATOM     11  O   UNL     1       7.726 -10.966   1.808  1.00  0.00    -0.550 OA
ENDBRANCH   8   9
ENDBRANCH   7   8
ENDBRANCH   6   7
ENDBRANCH   5   6
ENDBRANCH   4   5
ENDBRANCH   3   4
ENDBRANCH   2   3
ENDBRANCH   1   2
BRANCH   1  12
ATOM     12  C   UNL     1       7.928  -4.118  -6.120  1.00  0.00     0.000 C 
BRANCH  12  13
ATOM     13  C   UNL     1       8.988  -4.712  -7.068  1.00  0.00    -0.000 C 
BRANCH  13  14
ATOM     14  C   UNL     1       8.777  -6.210  -7.374  1.00  0.00    -0.000 C 
BRANCH  14  15
ATOM     15  C   UNL     1       7.779  -6.438  -8.522  1.00  0.00    -0.000 C 
BRANCH  15  16
ATOM     16  C   UNL     1       7.936  -7.820  -9.178  1.00  0.00    -0.000 C 
BRANCH  16  17
ATOM     17  C   UNL     1       6.807  -8.791  -8.793  1.00  0.00    -0.000 C 
BRANCH  17  18
ATOM     18  C   UNL     1       7.351 -10.129  -8.248  1.00  0.00    -0.000 C 
BRANCH  18  19
ATOM     19  C   UNL     1       8.467  -9.961  -7.203  1.00  0.00    -0.003 C 
ATOM     20  C   UNL     1       8.115 -10.571  -5.848  1.00  0.00     0.004 C 
ENDBRANCH  18  19
ENDBRANCH  17  18
ENDBRANCH  16  17
ENDBRANCH  15  16
ENDBRANCH  14  15
ENDBRANCH  13  14
ENDBRANCH  12  13
ENDBRANCH   1  12
TORSDOF 16
ENDMDL
MODEL 4
REMARK VINA RESULT:    -4.349      4.035      8.773
REMARK INTER + INTRA:          -9.322
REMARK INTER:                  -7.923
REMARK INTRA:                  -1.399
REMARK UNBOUND:                -0.906
REMARK SMILES CCCCCCCCCCCCCCCCCC(=O)[O-]
REMARK SMILES IDX 10 1 11 2 12 3 13 4 14 5 15 6 16 7 17 8 18 9 19 10 20 11
REMARK SMILES IDX 9 12 8 13 7 14 6 15 5 16 4 17 3 18 2 19 1 20
REMARK H PARENT
REMARK Flexibility Score: inf
ROOT
ATOM      1  C   UNL     1       7.597  -4.268  -5.001  1.00  0.00     0.000 C 
ENDROOT
BRANCH   1   2
ATOM      2  C   UNL     1       7.970  -4.002  -6.472  1.00  0.00     0.000 C 
BRANCH   2   3
ATOM      3  C   UNL     1       9.125  -4.886  -6.963  1.00  0.00     0.000 C 
BRANCH   3   4
ATOM      4  C   UNL     1       8.648  -6.325  -7.211  1.00  0.00     0.000 C 
BRANCH   4   5
ATOM      5  C   UNL     1       8.025  -6.521  -8.606  1.00  0.00     0.000 C 
BRANCH   5   6
ATOM      6  C   UNL     1       8.748  -7.540  -9.504  1.00  0.00     0.000 C 
BRANCH   6   7
ATOM      7  C   UNL     1       7.797  -8.588 -10.107  1.00  0.00     0.006 C 
BRANCH   7   8
ATOM      8  C   UNL     1       6.332  -8.319  -9.742  1.00  0.00     0.053 C 
BRANCH   8   9
ATOM      9  C   UNL     1       5.738  -9.454  -8.965  1.00  0.00     0.041 C 
ATOM     10  O   UNL     1       6.330  -9.905  -7.948  1.00  0.00    -0.550 OA
ATOM     11  O   UNL     1       4.513  -9.989  -9.343  1.00  0.00    -0.550 OA
ENDBRANCH   8   9
ENDBRANCH   7   8
ENDBRANCH   6   7
ENDBRANCH   5   6
ENDBRANCH   4   5
ENDBRANCH   3   4
ENDBRANCH   2   3
ENDBRANCH   1   2
BRANCH   1  12
ATOM     12  C   UNL     1       8.754  -4.092  -3.999  1.00  0.00     0.000 C 
BRANCH  12  13
ATOM     13  C   UNL     1       9.123  -5.358  -3.202  1.00  0.00    -0.000 C 
BRANCH  13  14
ATOM     14  C   UNL     1       8.073  -6.485  -3.306  1.00  0.00    -0.000 C 
BRANCH  14  15
ATOM     15  C   UNL     1       8.673  -7.797  -3.838  1.00  0.00    -0.000 C 
BRANCH  15  16
ATOM     16  C   UNL     1       8.366  -9.001  -2.932  1.00  0.00    -0.000 C 
BRANCH  16  17
ATOM     17  C   UNL     1       7.731  -8.589  -1.594  1.00  0.00    -0.000 C 
BRANCH  17  18
ATOM     18  C   UNL     1       8.440  -9.241  -0.388  1.00  0.00    -0.000 C 
BRANCH  18  19
ATOM     19  C   UNL     1       7.516  -9.474   0.820  1.00  0.00    -0.003 C 
ATOM     20  C   UNL     1       7.962 -10.640   1.699  1.00  0.00     0.004 C 
ENDBRANCH  18  19
ENDBRANCH  17  18
ENDBRANCH  16  17
ENDBRANCH  15  16
ENDBRANCH  14  15
ENDBRANCH  13  14
ENDBRANCH  12  13
ENDBRANCH   1  12
TORSDOF 16
ENDMDL
MODEL 5
REMARK VINA RESULT:    -4.280      5.271      8.333
REMARK INTER + INTRA:          -9.190
REMARK INTER:                  -7.961
REMARK INTRA:                  -1.228
REMARK UNBOUND:                -0.906
REMARK SMILES CCCCCCCCCCCCCCCCCC(=O)[O-]
REMARK SMILES IDX 10 1 11 2 12 3 13 4 14 5 15 6 16 7 17 8 18 9 19 10 20 11
REMARK SMILES IDX 9 12 8 13 7 14 6 15 5 16 4 17 3 18 2 19 1 20
REMARK H PARENT
REMARK Flexibility Score: inf
ROOT
ATOM      1  C   UNL     1       7.943  -4.372  -7.243  1.00  0.00     0.000 C 
ENDROOT
BRANCH   1   2
ATOM      2  C   UNL     1       9.103  -5.372  -7.087  1.00  0.00     0.000 C 
BRANCH   2   3
ATOM      3  C   UNL     1       8.709  -6.807  -7.466  1.00  0.00     0.000 C 
BRANCH   3   4
ATOM      4  C   UNL     1       8.181  -6.868  -8.908  1.00  0.00     0.000 C 
BRANCH   4   5
ATOM      5  C   UNL     1       7.044  -7.890  -9.090  1.00  0.00     0.000 C 
BRANCH   5   6
ATOM      6  C   UNL     1       7.431  -9.350  -8.795  1.00  0.00     0.000 C 
BRANCH   6   7
ATOM      7  C   UNL     1       6.224 -10.223  -8.409  1.00  0.00     0.006 C 
BRANCH   7   8
ATOM      8  C   UNL     1       4.891  -9.500  -8.635  1.00  0.00     0.053 C 
BRANCH   8   9
ATOM      9  C   UNL     1       4.380  -9.703 -10.029  1.00  0.00     0.041 C 
ATOM     10  O   UNL     1       3.453  -8.978 -10.477  1.00  0.00    -0.550 OA
ATOM     11  O   UNL     1       4.954 -10.671 -10.844  1.00  0.00    -0.550 OA
ENDBRANCH   8   9
ENDBRANCH   7   8
ENDBRANCH   6   7
ENDBRANCH   5   6
ENDBRANCH   4   5
ENDBRANCH   3   4
ENDBRANCH   2   3
ENDBRANCH   1   2
BRANCH   1  12
ATOM     12  C   UNL     1       7.664  -3.505  -6.000  1.00  0.00     0.000 C 
BRANCH  12  13
ATOM     13  C   UNL     1       7.599  -4.279  -4.669  1.00  0.00    -0.000 C 
BRANCH  13  14
ATOM     14  C   UNL     1       8.809  -4.026  -3.744  1.00  0.00    -0.000 C 
BRANCH  14  15
ATOM     15  C   UNL     1       9.122  -5.235  -2.846  1.00  0.00    -0.000 C 
BRANCH  15  16
ATOM     16  C   UNL     1       8.496  -6.539  -3.366  1.00  0.00    -0.000 C 
BRANCH  16  17
ATOM     17  C   UNL     1       8.904  -7.766  -2.534  1.00  0.00    -0.000 C 
BRANCH  17  18
ATOM     18  C   UNL     1       7.694  -8.656  -2.178  1.00  0.00    -0.000 C 
BRANCH  18  19
ATOM     19  C   UNL     1       7.594  -9.931  -3.032  1.00  0.00    -0.003 C 
ATOM     20  C   UNL     1       7.643  -9.652  -4.533  1.00  0.00     0.004 C 
ENDBRANCH  18  19
ENDBRANCH  17  18
ENDBRANCH  16  17
ENDBRANCH  15  16
ENDBRANCH  14  15
ENDBRANCH  13  14
ENDBRANCH  12  13
ENDBRANCH   1  12
TORSDOF 16
ENDMDL
MODEL 6
REMARK VINA RESULT:    -4.264      1.680      3.787
REMARK INTER + INTRA:          -9.158
REMARK INTER:                  -8.398
REMARK INTRA:                  -0.760
REMARK UNBOUND:                -0.906
REMARK SMILES CCCCCCCCCCCCCCCCCC(=O)[O-]
REMARK SMILES IDX 10 1 11 2 12 3 13 4 14 5 15 6 16 7 17 8 18 9 19 10 20 11
REMARK SMILES IDX 9 12 8 13 7 14 6 15 5 16 4 17 3 18 2 19 1 20
REMARK H PARENT
REMARK Flexibility Score: inf
ROOT
ATOM      1  C   UNL     1       7.972  -9.643  -1.965  1.00  0.00     0.000 C 
ENDROOT
BRANCH   1   2
ATOM      2  C   UNL     1       8.122  -8.933  -0.608  1.00  0.00     0.000 C 
BRANCH   2   3
ATOM      3  C   UNL     1       7.092  -9.402   0.429  1.00  0.00     0.000 C 
BRANCH   3   4
ATOM      4  C   UNL     1       7.755 -10.280   1.502  1.00  0.00     0.000 C 
BRANCH   4   5
ATOM      5  C   UNL     1       6.761 -10.787   2.563  1.00  0.00     0.000 C 
BRANCH   5   6
ATOM      6  C   UNL     1       5.299 -10.360   2.340  1.00  0.00     0.000 C 
BRANCH   6   7
ATOM      7  C   UNL     1       4.413 -10.585   3.578  1.00  0.00     0.006 C 
BRANCH   7   8
ATOM      8  C   UNL     1       4.509  -9.426   4.577  1.00  0.00     0.053 C 
BRANCH   8   9
ATOM      9  C   UNL     1       3.262  -8.596   4.583  1.00  0.00     0.041 C 
ATOM     10  O   UNL     1       2.689  -8.304   3.499  1.00  0.00    -0.550 OA
ATOM     11  O   UNL     1       2.713  -8.175   5.787  1.00  0.00    -0.550 OA
ENDBRANCH   8   9
ENDBRANCH   7   8
ENDBRANCH   6   7
ENDBRANCH   5   6
ENDBRANCH   4   5
ENDBRANCH   3   4
ENDBRANCH   2   3
ENDBRANCH   1   2
BRANCH   1  12
ATOM     12  C   UNL     1       8.616  -8.907  -3.155  1.00  0.00     0.000 C 
BRANCH  12  13
ATOM     13  C   UNL     1       8.265  -9.479  -4.543  1.00  0.00    -0.000 C 
BRANCH  13  14
ATOM     14  C   UNL     1       9.099  -8.874  -5.692  1.00  0.00    -0.000 C 
BRANCH  14  15
ATOM     15  C   UNL     1       8.853  -7.365  -5.863  1.00  0.00    -0.000 C 
BRANCH  15  16
ATOM     16  C   UNL     1       8.652  -6.959  -7.332  1.00  0.00    -0.000 C 
BRANCH  16  17
ATOM     17  C   UNL     1       8.286  -5.474  -7.493  1.00  0.00    -0.000 C 
BRANCH  17  18
ATOM     18  C   UNL     1       8.937  -4.594  -6.404  1.00  0.00    -0.000 C 
BRANCH  18  19
ATOM     19  C   UNL     1       7.938  -3.684  -5.669  1.00  0.00    -0.003 C 
ATOM     20  C   UNL     1       7.152  -4.413  -4.581  1.00  0.00     0.004 C 
ENDBRANCH  18  19
ENDBRANCH  17  18
ENDBRANCH  16  17
ENDBRANCH  15  16
ENDBRANCH  14  15
ENDBRANCH  13  14
ENDBRANCH  12  13
ENDBRANCH   1  12
TORSDOF 16
ENDMDL
MODEL 7
REMARK VINA RESULT:    -4.229      1.241      3.377
REMARK INTER + INTRA:          -9.090
REMARK INTER:                  -8.256
REMARK INTRA:                  -0.834
REMARK UNBOUND:                -0.906
REMARK SMILES CCCCCCCCCCCCCCCCCC(=O)[O-]
REMARK SMILES IDX 10 1 11 2 12 3 13 4 14 5 15 6 16 7 17 8 18 9 19 10 20 11
REMARK SMILES IDX 9 12 8 13 7 14 6 15 5 16 4 17 3 18 2 19 1 20
REMARK H PARENT
REMARK Flexibility Score: inf
ROOT
ATOM      1  C   UNL     1       7.640  -9.027  -4.864  1.00  0.00     0.000 C 
ENDROOT
BRANCH   1   2
ATOM      2  C   UNL     1       7.861 -10.096  -3.778  1.00  0.00     0.000 C 
BRANCH   2   3
ATOM      3  C   UNL     1       8.621  -9.559  -2.557  1.00  0.00     0.000 C 
BRANCH   3   4
ATOM      4  C   UNL     1       7.647  -9.146  -1.443  1.00  0.00     0.000 C 
BRANCH   4   5
ATOM      5  C   UNL     1       8.335  -8.968  -0.077  1.00  0.00     0.000 C 
BRANCH   5   6
ATOM      6  C   UNL     1       8.872 -10.265   0.554  1.00  0.00     0.000 C 
BRANCH   6   7
ATOM      7  C   UNL     1       8.052 -10.723   1.772  1.00  0.00     0.006 C 
BRANCH   7   8
ATOM      8  C   UNL     1       6.748  -9.930   1.923  1.00  0.00     0.053 C 
BRANCH   8   9
ATOM      9  C   UNL     1       6.110 -10.163   3.258  1.00  0.00     0.041 C 
ATOM     10  O   UNL     1       6.777 -10.665   4.202  1.00  0.00    -0.550 OA
ATOM     11  O   UNL     1       4.788  -9.793   3.471  1.00  0.00    -0.550 OA
ENDBRANCH   8   9
ENDBRANCH   7   8
ENDBRANCH   6   7
ENDBRANCH   5   6
ENDBRANCH   4   5
ENDBRANCH   3   4
ENDBRANCH   2   3
ENDBRANCH   1   2
BRANCH   1  12
ATOM     12  C   UNL     1       8.557  -9.156  -6.095  1.00  0.00     0.000 C 
BRANCH  12  13
ATOM     13  C   UNL     1       7.825  -9.395  -7.430  1.00  0.00    -0.000 C 
BRANCH  13  14
ATOM     14  C   UNL     1       8.623  -8.930  -8.667  1.00  0.00    -0.000 C 
BRANCH  14  15
ATOM     15  C   UNL     1       8.187  -7.539  -9.157  1.00  0.00    -0.000 C 
BRANCH  15  16
ATOM     16  C   UNL     1       8.925  -6.399  -8.437  1.00  0.00    -0.000 C 
BRANCH  16  17
ATOM     17  C   UNL     1       8.012  -5.610  -7.483  1.00  0.00    -0.000 C 
BRANCH  17  18
ATOM     18  C   UNL     1       8.775  -4.495  -6.736  1.00  0.00    -0.000 C 
BRANCH  18  19
ATOM     19  C   UNL     1       7.861  -3.549  -5.940  1.00  0.00    -0.003 C 
ATOM     20  C   UNL     1       7.266  -4.199  -4.693  1.00  0.00     0.004 C 
ENDBRANCH  18  19
ENDBRANCH  17  18
ENDBRANCH  16  17
ENDBRANCH  15  16
ENDBRANCH  14  15
ENDBRANCH  13  14
ENDBRANCH  12  13
ENDBRANCH   1  12
TORSDOF 16
ENDMDL
MODEL 8
REMARK VINA RESULT:    -4.178      4.217      9.390
REMARK INTER + INTRA:          -8.992
REMARK INTER:                  -8.145
REMARK INTRA:                  -0.847
REMARK UNBOUND:                -0.906
REMARK SMILES CCCCCCCCCCCCCCCCCC(=O)[O-]
REMARK SMILES IDX 10 1 11 2 12 3 13 4 14 5 15 6 16 7 17 8 18 9 19 10 20 11
REMARK SMILES IDX 9 12 8 13 7 14 6 15 5 16 4 17 3 18 2 19 1 20
REMARK H PARENT
REMARK Flexibility Score: inf
ROOT
ATOM      1  C   UNL     1       8.060  -5.885  -4.192  1.00  0.00     0.000 C 
ENDROOT
BRANCH   1   2
ATOM      2  C   UNL     1       7.395  -4.574  -4.652  1.00  0.00     0.000 C 
BRANCH   2   3
ATOM      3  C   UNL     1       8.255  -3.786  -5.649  1.00  0.00     0.000 C 
BRANCH   3   4
ATOM      4  C   UNL     1       8.947  -4.731  -6.643  1.00  0.00     0.000 C 
BRANCH   4   5
ATOM      5  C   UNL     1       7.967  -5.383  -7.636  1.00  0.00     0.000 C 
BRANCH   5   6
ATOM      6  C   UNL     1       8.532  -6.587  -8.411  1.00  0.00     0.000 C 
BRANCH   6   7
ATOM      7  C   UNL     1       7.482  -7.272  -9.302  1.00  0.00     0.006 C 
BRANCH   7   8
ATOM      8  C   UNL     1       7.009  -8.608  -8.716  1.00  0.00     0.053 C 
BRANCH   8   9
ATOM      9  C   UNL     1       8.126  -9.602  -8.633  1.00  0.00     0.041 C 
ATOM     10  O   UNL     1       8.787  -9.903  -9.663  1.00  0.00    -0.550 OA
ATOM     11  O   UNL     1       8.461 -10.171  -7.410  1.00  0.00    -0.550 OA
ENDBRANCH   8   9
ENDBRANCH   7   8
ENDBRANCH   6   7
ENDBRANCH   5   6
ENDBRANCH   4   5
ENDBRANCH   3   4
ENDBRANCH   2   3
ENDBRANCH   1   2
BRANCH   1  12
ATOM     12  C   UNL     1       8.684  -5.833  -2.785  1.00  0.00     0.000 C 
BRANCH  12  13
ATOM     13  C   UNL     1       9.054  -7.204  -2.186  1.00  0.00    -0.000 C 
BRANCH  13  14
ATOM     14  C   UNL     1       7.844  -8.143  -1.992  1.00  0.00    -0.000 C 
BRANCH  14  15
ATOM     15  C   UNL     1       8.215  -9.428  -1.232  1.00  0.00    -0.000 C 
BRANCH  15  16
ATOM     16  C   UNL     1       8.312  -9.212   0.287  1.00  0.00    -0.000 C 
BRANCH  16  17
ATOM     17  C   UNL     1       8.841 -10.451   1.029  1.00  0.00    -0.000 C 
BRANCH  17  18
ATOM     18  C   UNL     1       7.801 -11.028   2.012  1.00  0.00    -0.000 C 
BRANCH  18  19
ATOM     19  C   UNL     1       6.606 -10.093   2.266  1.00  0.00    -0.003 C 
ATOM     20  C   UNL     1       5.297 -10.844   2.501  1.00  0.00     0.004 C 
ENDBRANCH  18  19
ENDBRANCH  17  18
ENDBRANCH  16  17
ENDBRANCH  15  16
ENDBRANCH  14  15
ENDBRANCH  13  14
ENDBRANCH  12  13
ENDBRANCH   1  12
TORSDOF 16
ENDMDL
MODEL 9
REMARK VINA RESULT:    -4.025      2.756      3.784
REMARK INTER + INTRA:          -8.695
REMARK INTER:                  -7.818
REMARK INTRA:                  -0.877
REMARK UNBOUND:                -0.906
REMARK SMILES CCCCCCCCCCCCCCCCCC(=O)[O-]
REMARK SMILES IDX 10 1 11 2 12 3 13 4 14 5 15 6 16 7 17 8 18 9 19 10 20 11
REMARK SMILES IDX 9 12 8 13 7 14 6 15 5 16 4 17 3 18 2 19 1 20
REMARK H PARENT
REMARK Flexibility Score: inf
ROOT
ATOM      1  C   UNL     1       7.651  -8.525  -1.298  1.00  0.00     0.000 C 
ENDROOT
BRANCH   1   2
ATOM      2  C   UNL     1       8.598  -8.912  -0.147  1.00  0.00     0.000 C 
BRANCH   2   3
ATOM      3  C   UNL     1       7.926  -9.807   0.903  1.00  0.00     0.000 C 
BRANCH   3   4
ATOM      4  C   UNL     1       6.397  -9.666   0.847  1.00  0.00     0.000 C 
BRANCH   4   5
ATOM      5  C   UNL     1       5.682 -10.404   1.993  1.00  0.00     0.000 C 
BRANCH   5   6
ATOM      6  C   UNL     1       6.168 -10.037   3.407  1.00  0.00     0.000 C 
BRANCH   6   7
ATOM      7  C   UNL     1       5.142 -10.377   4.501  1.00  0.00     0.006 C 
BRANCH   7   8
ATOM      8  C   UNL     1       3.698 -10.197   4.017  1.00  0.00     0.053 C 
BRANCH   8   9
ATOM      9  C   UNL     1       3.124  -8.888   4.466  1.00  0.00     0.041 C 
ATOM     10  O   UNL     1       2.703  -8.055   3.619  1.00  0.00    -0.550 OA
ATOM     11  O   UNL     1       3.022  -8.602   5.822  1.00  0.00    -0.550 OA
ENDBRANCH   8   9
ENDBRANCH   7   8
ENDBRANCH   6   7
ENDBRANCH   5   6
ENDBRANCH   4   5
ENDBRANCH   3   4
ENDBRANCH   2   3
ENDBRANCH   1   2
BRANCH   1  12
ATOM     12  C   UNL     1       8.298  -7.678  -2.410  1.00  0.00     0.000 C 
BRANCH  12  13
ATOM     13  C   UNL     1       8.235  -8.296  -3.820  1.00  0.00    -0.000 C 
BRANCH  13  14
ATOM     14  C   UNL     1       7.550  -9.679  -3.861  1.00  0.00    -0.000 C 
BRANCH  14  15
ATOM     15  C   UNL     1       8.074 -10.559  -5.008  1.00  0.00    -0.000 C 
BRANCH  15  16
ATOM     16  C   UNL     1       8.354  -9.758  -6.290  1.00  0.00    -0.000 C 
BRANCH  16  17
ATOM     17  C   UNL     1       7.529 -10.253  -7.491  1.00  0.00    -0.000 C 
BRANCH  17  18
ATOM     18  C   UNL     1       7.068  -9.093  -8.398  1.00  0.00    -0.000 C 
BRANCH  18  19
ATOM     19  C   UNL     1       5.971  -9.491  -9.399  1.00  0.00    -0.003 C 
ATOM     20  C   UNL     1       4.596  -9.641  -8.752  1.00  0.00     0.004 C 
ENDBRANCH  18  19
ENDBRANCH  17  18
ENDBRANCH  16  17
ENDBRANCH  15  16
ENDBRANCH  14  15
ENDBRANCH  13  14
ENDBRANCH  12  13
ENDBRANCH   1  12
TORSDOF 16
ENDMDL
