MODEL 1
REMARK VINA RESULT:    -3.031      0.000      0.000
REMARK INTER + INTRA:          -6.946
REMARK INTER:                  -5.157
REMARK INTRA:                  -1.789
REMARK UNBOUND:                -1.789
REMARK SMILES CCCCCCCCCCCCCC(=O)[O-]
REMARK SMILES IDX 8 1 9 2 10 3 11 4 12 5 13 6 14 7 15 8 16 9 7 10 6 11 5 12
REMARK SMILES IDX 4 13 3 14 2 15 1 16
REMARK H PARENT
REMARK Flexibility Score: inf
ROOT
ATOM      1  C   UNL     1      52.778  81.749  31.644  1.00  0.00     0.000 C 
ENDROOT
BRANCH   1   2
ATOM      2  C   UNL     1      53.381  81.627  30.233  1.00  0.00     0.000 C 
BRANCH   2   3
ATOM      3  C   UNL     1      53.034  82.826  29.337  1.00  0.00     0.000 C 
BRANCH   3   4
ATOM      4  C   UNL     1      52.348  83.965  30.106  1.00  0.00     0.000 C 
BRANCH   4   5
ATOM      5  C   UNL     1      51.004  84.333  29.459  1.00  0.00     0.006 C 
BRANCH   5   6
ATOM      6  C   UNL     1      49.898  84.553  30.499  1.00  0.00     0.053 C 
BRANCH   6   7
ATOM      7  C   UNL     1      49.476  83.267  31.144  1.00  0.00     0.041 C 
ATOM      8  O   UNL     1      49.225  83.229  32.376  1.00  0.00    -0.550 OA
ATOM      9  O   UNL     1      49.394  82.104  30.388  1.00  0.00    -0.550 OA
ENDBRANCH   6   7
ENDBRANCH   5   6
ENDBRANCH   4   5
ENDBRANCH   3   4
ENDBRANCH   2   3
ENDBRANCH   1   2
BRANCH   1  10
ATOM     10  C   UNL     1      53.847  81.720  32.748  1.00  0.00     0.000 C 
BRANCH  10  11
ATOM     11  C   UNL     1      55.274  81.864  32.197  1.00  0.00    -0.000 C 
BRANCH  11  12
ATOM     12  C   UNL     1      55.983  83.073  32.820  1.00  0.00    -0.000 C 
BRANCH  12  13
ATOM     13  C   UNL     1      55.336  84.388  32.359  1.00  0.00    -0.000 C 
BRANCH  13  14
ATOM     14  C   UNL     1      55.753  84.796  30.935  1.00  0.00    -0.000 C 
BRANCH  14  15
ATOM     15  C   UNL     1      57.091  84.205  30.459  1.00  0.00    -0.003 C 
ATOM     16  C   UNL     1      56.962  83.391  29.172  1.00  0.00     0.004 C 
ENDBRANCH  14  15
ENDBRANCH  13  14
ENDBRANCH  12  13
ENDBRANCH  11  12
ENDBRANCH  10  11
ENDBRANCH   1  10
TORSDOF 12
ENDMDL
MODEL 2
REMARK VINA RESULT:    -2.918      1.403      2.521
REMARK INTER + INTRA:          -6.754
REMARK INTER:                  -4.736
REMARK INTRA:                  -2.018
REMARK UNBOUND:                -1.789
REMARK SMILES CCCCCCCCCCCCCC(=O)[O-]
REMARK SMILES IDX 8 1 9 2 10 3 11 4 12 5 13 6 14 7 15 8 16 9 7 10 6 11 5 12
REMARK SMILES IDX 4 13 3 14 2 15 1 16
REMARK H PARENT
REMARK Flexibility Score: inf
ROOT
ATOM      1  C   UNL     1      53.833  81.496  30.952  1.00  0.00     0.000 C 
ENDROOT
BRANCH   1   2
ATOM      2  C   UNL     1      52.549  82.306  31.208  1.00  0.00     0.000 C 
BRANCH   2   3
ATOM      3  C   UNL     1      52.405  83.501  30.253  1.00  0.00     0.000 C 
BRANCH   3   4
ATOM      4  C   UNL     1      51.842  84.752  30.945  1.00  0.00     0.000 C 
BRANCH   4   5
ATOM      5  C   UNL     1      51.875  84.596  32.472  1.00  0.00     0.006 C 
BRANCH   5   6
ATOM      6  C   UNL     1      50.555  85.020  33.129  1.00  0.00     0.053 C 
BRANCH   6   7
ATOM      7  C   UNL     1      49.375  84.356  32.487  1.00  0.00     0.041 C 
ATOM      8  O   UNL     1      49.237  83.107  32.554  1.00  0.00    -0.550 OA
ATOM      9  O   UNL     1      48.447  85.115  31.786  1.00  0.00    -0.550 OA
ENDBRANCH   6   7
ENDBRANCH   5   6
ENDBRANCH   4   5
ENDBRANCH   3   4
ENDBRANCH   2   3
ENDBRANCH   1   2
BRANCH   1  10
ATOM     10  C   UNL     1      54.256  81.511  29.474  1.00  0.00     0.000 C 
BRANCH  10  11
ATOM     11  C   UNL     1      55.760  81.761  29.288  1.00  0.00    -0.000 C 
BRANCH  11  12
ATOM     12  C   UNL     1      56.035  83.236  28.966  1.00  0.00    -0.000 C 
BRANCH  12  13
ATOM     13  C   UNL     1      56.669  83.953  30.167  1.00  0.00    -0.000 C 
BRANCH  13  14
ATOM     14  C   UNL     1      55.715  84.957  30.839  1.00  0.00    -0.000 C 
BRANCH  14  15
ATOM     15  C   UNL     1      55.378  84.645  32.308  1.00  0.00    -0.003 C 
ATOM     16  C   UNL     1      56.202  83.492  32.879  1.00  0.00     0.004 C 
ENDBRANCH  14  15
ENDBRANCH  13  14
ENDBRANCH  12  13
ENDBRANCH  11  12
ENDBRANCH  10  11
ENDBRANCH   1  10
TORSDOF 12
ENDMDL
MODEL 3
REMARK VINA RESULT:    -2.883      1.108      1.554
REMARK INTER + INTRA:          -6.695
REMARK INTER:                  -4.860
REMARK INTRA:                  -1.834
REMARK UNBOUND:                -1.789
REMARK SMILES CCCCCCCCCCCCCC(=O)[O-]
REMARK SMILES IDX 8 1 9 2 10 3 11 4 12 5 13 6 14 7 15 8 16 9 7 10 6 11 5 12
REMARK SMILES IDX 4 13 3 14 2 15 1 16
REMARK H PARENT
REMARK Flexibility Score: inf
ROOT
ATOM      1  C   UNL     1      52.394  81.324  31.437  1.00  0.00     0.000 C 
ENDROOT
BRANCH   1   2
ATOM      2  C   UNL     1      53.012  81.336  30.027  1.00  0.00     0.000 C 
BRANCH   2   3
ATOM      3  C   UNL     1      52.331  82.350  29.094  1.00  0.00     0.000 C 
BRANCH   3   4
ATOM      4  C   UNL     1      50.931  82.756  29.576  1.00  0.00     0.000 C 
BRANCH   4   5
ATOM      5  C   UNL     1      50.787  84.284  29.622  1.00  0.00     0.006 C 
BRANCH   5   6
ATOM      6  C   UNL     1      49.792  84.744  30.696  1.00  0.00     0.053 C 
BRANCH   6   7
ATOM      7  C   UNL     1      50.124  84.174  32.041  1.00  0.00     0.041 C 
ATOM      8  O   UNL     1      51.171  84.532  32.640  1.00  0.00    -0.550 OA
ATOM      9  O   UNL     1      49.292  83.223  32.618  1.00  0.00    -0.550 OA
ENDBRANCH   6   7
ENDBRANCH   5   6
ENDBRANCH   4   5
ENDBRANCH   3   4
ENDBRANCH   2   3
ENDBRANCH   1   2
BRANCH   1  10
ATOM     10  C   UNL     1      53.396  81.746  32.524  1.00  0.00     0.000 C 
BRANCH  10  11
ATOM     11  C   UNL     1      54.851  81.724  32.032  1.00  0.00    -0.000 C 
BRANCH  11  12
ATOM     12  C   UNL     1      55.766  82.496  32.991  1.00  0.00    -0.000 C 
BRANCH  12  13
ATOM     13  C   UNL     1      56.150  83.863  32.405  1.00  0.00    -0.000 C 
BRANCH  13  14
ATOM     14  C   UNL     1      56.414  83.814  30.889  1.00  0.00    -0.000 C 
BRANCH  14  15
ATOM     15  C   UNL     1      55.463  84.674  30.039  1.00  0.00    -0.003 C 
ATOM     16  C   UNL     1      54.219  85.124  30.805  1.00  0.00     0.004 C 
ENDBRANCH  14  15
ENDBRANCH  13  14
ENDBRANCH  12  13
ENDBRANCH  11  12
ENDBRANCH  10  11
ENDBRANCH   1  10
TORSDOF 12
ENDMDL
MODEL 4
REMARK VINA RESULT:    -2.720      1.448      2.498
REMARK INTER + INTRA:          -6.417
REMARK INTER:                  -4.875
REMARK INTRA:                  -1.543
REMARK UNBOUND:                -1.789
REMARK SMILES CCCCCCCCCCCCCC(=O)[O-]
REMARK SMILES IDX 8 1 9 2 10 3 11 4 12 5 13 6 14 7 15 8 16 9 7 10 6 11 5 12
REMARK SMILES IDX 4 13 3 14 2 15 1 16
REMARK H PARENT
REMARK Flexibility Score: inf
ROOT
ATOM      1  C   UNL     1      54.207  81.407  30.709  1.00  0.00     0.000 C 
ENDROOT
BRANCH   1   2
ATOM      2  C   UNL     1      52.919  82.170  31.068  1.00  0.00     0.000 C 
BRANCH   2   3
ATOM      3  C   UNL     1      51.679  81.596  30.365  1.00  0.00     0.000 C 
BRANCH   3   4
ATOM      4  C   UNL     1      51.050  82.581  29.369  1.00  0.00     0.000 C 
BRANCH   4   5
ATOM      5  C   UNL     1      50.187  83.623  30.096  1.00  0.00     0.006 C 
BRANCH   5   6
ATOM      6  C   UNL     1      49.235  82.981  31.113  1.00  0.00     0.053 C 
BRANCH   6   7
ATOM      7  C   UNL     1      49.359  83.611  32.467  1.00  0.00     0.041 C 
ATOM      8  O   UNL     1      50.398  84.252  32.774  1.00  0.00    -0.550 OA
ATOM      9  O   UNL     1      48.342  83.460  33.401  1.00  0.00    -0.550 OA
ENDBRANCH   6   7
ENDBRANCH   5   6
ENDBRANCH   4   5
ENDBRANCH   3   4
ENDBRANCH   2   3
ENDBRANCH   1   2
BRANCH   1  10
ATOM     10  C   UNL     1      54.640  81.632  29.251  1.00  0.00     0.000 C 
BRANCH  10  11
ATOM     11  C   UNL     1      55.101  83.073  28.984  1.00  0.00    -0.000 C 
BRANCH  11  12
ATOM     12  C   UNL     1      56.595  83.236  29.291  1.00  0.00    -0.000 C 
BRANCH  12  13
ATOM     13  C   UNL     1      56.836  84.420  30.240  1.00  0.00    -0.000 C 
BRANCH  13  14
ATOM     14  C   UNL     1      55.532  85.018  30.797  1.00  0.00    -0.000 C 
BRANCH  14  15
ATOM     15  C   UNL     1      55.295  84.769  32.297  1.00  0.00    -0.003 C 
ATOM     16  C   UNL     1      56.198  83.678  32.872  1.00  0.00     0.004 C 
ENDBRANCH  14  15
ENDBRANCH  13  14
ENDBRANCH  12  13
ENDBRANCH  11  12
ENDBRANCH  10  11
ENDBRANCH   1  10
TORSDOF 12
ENDMDL
MODEL 5
REMARK VINA RESULT:    -2.686      1.707      5.132
REMARK INTER + INTRA:          -6.359
REMARK INTER:                  -4.770
REMARK INTRA:                  -1.589
REMARK UNBOUND:                -1.789
REMARK SMILES CCCCCCCCCCCCCC(=O)[O-]
REMARK SMILES IDX 8 1 9 2 10 3 11 4 12 5 13 6 14 7 15 8 16 9 7 10 6 11 5 12
REMARK SMILES IDX 4 13 3 14 2 15 1 16
REMARK H PARENT
REMARK Flexibility Score: inf
ROOT
ATOM      1  C   UNL     1      55.713  84.957  29.812  1.00  0.00     0.000 C 
ENDROOT
BRANCH   1   2
ATOM      2  C   UNL     1      56.459  84.034  30.792  1.00  0.00     0.000 C 
BRANCH   2   3
ATOM      3  C   UNL     1      55.873  84.085  32.212  1.00  0.00     0.000 C 
BRANCH   3   4
ATOM      4  C   UNL     1      55.813  82.704  32.882  1.00  0.00     0.000 C 
BRANCH   4   5
ATOM      5  C   UNL     1      55.102  81.686  31.979  1.00  0.00     0.006 C 
BRANCH   5   6
ATOM      6  C   UNL     1      53.577  81.853  32.001  1.00  0.00     0.053 C 
BRANCH   6   7
ATOM      7  C   UNL     1      52.929  81.205  30.816  1.00  0.00     0.041 C 
ATOM      8  O   UNL     1      51.717  80.869  30.863  1.00  0.00    -0.550 OA
ATOM      9  O   UNL     1      53.673  80.942  29.673  1.00  0.00    -0.550 OA
ENDBRANCH   6   7
ENDBRANCH   5   6
ENDBRANCH   4   5
ENDBRANCH   3   4
ENDBRANCH   2   3
ENDBRANCH   1   2
BRANCH   1  10
ATOM     10  C   UNL     1      54.486  84.280  29.181  1.00  0.00     0.000 C 
BRANCH  10  11
ATOM     11  C   UNL     1      53.209  85.125  29.313  1.00  0.00    -0.000 C 
BRANCH  11  12
ATOM     12  C   UNL     1      52.649  85.053  30.739  1.00  0.00    -0.000 C 
BRANCH  12  13
ATOM     13  C   UNL     1      51.214  84.503  30.741  1.00  0.00    -0.000 C 
BRANCH  13  14
ATOM     14  C   UNL     1      50.676  84.234  32.157  1.00  0.00    -0.000 C 
BRANCH  14  15
ATOM     15  C   UNL     1      49.373  83.418  32.209  1.00  0.00    -0.003 C 
ATOM     16  C   UNL     1      48.902  82.953  30.832  1.00  0.00     0.004 C 
ENDBRANCH  14  15
ENDBRANCH  13  14
ENDBRANCH  12  13
ENDBRANCH  11  12
ENDBRANCH  10  11
ENDBRANCH   1  10
TORSDOF 12
ENDMDL
MODEL 6
REMARK VINA RESULT:    -2.651      1.453      2.018
REMARK INTER + INTRA:          -6.299
REMARK INTER:                  -4.658
REMARK INTRA:                  -1.641
REMARK UNBOUND:                -1.789
REMARK SMILES CCCCCCCCCCCCCC(=O)[O-]
REMARK SMILES IDX 8 1 9 2 10 3 11 4 12 5 13 6 14 7 15 8 16 9 7 10 6 11 5 12
REMARK SMILES IDX 4 13 3 14 2 15 1 16
REMARK H PARENT
REMARK Flexibility Score: inf
ROOT
ATOM      1  C   UNL     1      53.529  82.757  32.278  1.00  0.00     0.000 C 
ENDROOT
BRANCH   1   2
ATOM      2  C   UNL     1      52.310  82.067  31.641  1.00  0.00     0.000 C 
BRANCH   2   3
ATOM      3  C   UNL     1      51.949  82.656  30.268  1.00  0.00     0.000 C 
BRANCH   3   4
ATOM      4  C   UNL     1      50.469  83.052  30.160  1.00  0.00     0.000 C 
BRANCH   4   5
ATOM      5  C   UNL     1      50.286  84.560  30.391  1.00  0.00     0.006 C 
BRANCH   5   6
ATOM      6  C   UNL     1      49.092  84.868  31.304  1.00  0.00     0.053 C 
BRANCH   6   7
ATOM      7  C   UNL     1      49.330  84.404  32.708  1.00  0.00     0.041 C 
ATOM      8  O   UNL     1      50.254  84.912  33.395  1.00  0.00    -0.550 OA
ATOM      9  O   UNL     1      48.553  83.385  33.245  1.00  0.00    -0.550 OA
ENDBRANCH   6   7
ENDBRANCH   5   6
ENDBRANCH   4   5
ENDBRANCH   3   4
ENDBRANCH   2   3
ENDBRANCH   1   2
BRANCH   1  10
ATOM     10  C   UNL     1      53.443  84.291  32.209  1.00  0.00     0.000 C 
BRANCH  10  11
ATOM     11  C   UNL     1      54.820  84.967  32.292  1.00  0.00    -0.000 C 
BRANCH  11  12
ATOM     12  C   UNL     1      55.938  83.923  32.404  1.00  0.00    -0.000 C 
BRANCH  12  13
ATOM     13  C   UNL     1      56.826  83.931  31.150  1.00  0.00    -0.000 C 
BRANCH  13  14
ATOM     14  C   UNL     1      56.128  84.546  29.924  1.00  0.00    -0.000 C 
BRANCH  14  15
ATOM     15  C   UNL     1      55.404  83.535  29.018  1.00  0.00    -0.003 C 
ATOM     16  C   UNL     1      55.799  82.087  29.301  1.00  0.00     0.004 C 
ENDBRANCH  14  15
ENDBRANCH  13  14
ENDBRANCH  12  13
ENDBRANCH  11  12
ENDBRANCH  10  11
ENDBRANCH   1  10
TORSDOF 12
ENDMDL
MODEL 7
REMARK VINA RESULT:    -2.642      3.142      6.347
REMARK INTER + INTRA:          -6.284
REMARK INTER:                  -4.848
REMARK INTRA:                  -1.436
REMARK UNBOUND:                -1.789
REMARK SMILES CCCCCCCCCCCCCC(=O)[O-]
REMARK SMILES IDX 8 1 9 2 10 3 11 4 12 5 13 6 14 7 15 8 16 9 7 10 6 11 5 12
REMARK SMILES IDX 4 13 3 14 2 15 1 16
REMARK H PARENT
REMARK Flexibility Score: inf
ROOT
ATOM      1  C   UNL     1      51.695  82.364  31.610  1.00  0.00     0.000 C 
ENDROOT
BRANCH   1   2
ATOM      2  C   UNL     1      52.901  81.689  32.288  1.00  0.00     0.000 C 
BRANCH   2   3
ATOM      3  C   UNL     1      54.215  81.927  31.527  1.00  0.00     0.000 C 
BRANCH   3   4
ATOM      4  C   UNL     1      55.399  82.217  32.460  1.00  0.00     0.000 C 
BRANCH   4   5
ATOM      5  C   UNL     1      55.800  83.698  32.395  1.00  0.00     0.006 C 
BRANCH   5   6
ATOM      6  C   UNL     1      55.713  84.263  30.971  1.00  0.00     0.053 C 
BRANCH   6   7
ATOM      7  C   UNL     1      56.914  83.899  30.153  1.00  0.00     0.041 C 
ATOM      8  O   UNL     1      58.006  84.499  30.330  1.00  0.00    -0.550 OA
ATOM      9  O   UNL     1      56.818  82.920  29.172  1.00  0.00    -0.550 OA
ENDBRANCH   6   7
ENDBRANCH   5   6
ENDBRANCH   4   5
ENDBRANCH   3   4
ENDBRANCH   2   3
ENDBRANCH   1   2
BRANCH   1  10
ATOM     10  C   UNL     1      51.991  83.811  31.185  1.00  0.00     0.000 C 
BRANCH  10  11
ATOM     11  C   UNL     1      51.614  84.089  29.722  1.00  0.00    -0.000 C 
BRANCH  11  12
ATOM     12  C   UNL     1      50.440  83.206  29.281  1.00  0.00    -0.000 C 
BRANCH  12  13
ATOM     13  C   UNL     1      49.102  83.944  29.448  1.00  0.00    -0.000 C 
BRANCH  13  14
ATOM     14  C   UNL     1      48.307  83.473  30.679  1.00  0.00    -0.000 C 
BRANCH  14  15
ATOM     15  C   UNL     1      48.378  84.416  31.894  1.00  0.00    -0.003 C 
ATOM     16  C   UNL     1      48.401  83.671  33.228  1.00  0.00     0.004 C 
ENDBRANCH  14  15
ENDBRANCH  13  14
ENDBRANCH  12  13
ENDBRANCH  11  12
ENDBRANCH  10  11
ENDBRANCH   1  10
TORSDOF 12
ENDMDL
MODEL 8
REMARK VINA RESULT:    -2.597      2.751      5.410
REMARK INTER + INTRA:          -6.208
REMARK INTER:                  -4.810
REMARK INTRA:                  -1.398
REMARK UNBOUND:                -1.789
REMARK SMILES CCCCCCCCCCCCCC(=O)[O-]
REMARK SMILES IDX 8 1 9 2 10 3 11 4 12 5 13 6 14 7 15 8 16 9 7 10 6 11 5 12
REMARK SMILES IDX 4 13 3 14 2 15 1 16
REMARK H PARENT
REMARK Flexibility Score: inf
ROOT
ATOM      1  C   UNL     1      54.013  81.491  30.577  1.00  0.00     0.000 C 
ENDROOT
BRANCH   1   2
ATOM      2  C   UNL     1      54.804  81.320  29.268  1.00  0.00     0.000 C 
BRANCH   2   3
ATOM      3  C   UNL     1      55.575  82.590  28.875  1.00  0.00     0.000 C 
BRANCH   3   4
ATOM      4  C   UNL     1      54.895  83.876  29.368  1.00  0.00     0.000 C 
BRANCH   4   5
ATOM      5  C   UNL     1      55.891  84.771  30.119  1.00  0.00     0.006 C 
BRANCH   5   6
ATOM      6  C   UNL     1      56.717  83.988  31.147  1.00  0.00     0.053 C 
BRANCH   6   7
ATOM      7  C   UNL     1      55.984  83.825  32.444  1.00  0.00     0.041 C 
ATOM      8  O   UNL     1      55.424  84.815  32.983  1.00  0.00    -0.550 OA
ATOM      9  O   UNL     1      55.950  82.587  33.073  1.00  0.00    -0.550 OA
ENDBRANCH   6   7
ENDBRANCH   5   6
ENDBRANCH   4   5
ENDBRANCH   3   4
ENDBRANCH   2   3
ENDBRANCH   1   2
BRANCH   1  10
ATOM     10  C   UNL     1      52.509  81.229  30.397  1.00  0.00     0.000 C 
BRANCH  10  11
ATOM     11  C   UNL     1      51.657  81.870  31.503  1.00  0.00    -0.000 C 
BRANCH  11  12
ATOM     12  C   UNL     1      52.308  83.160  32.018  1.00  0.00    -0.000 C 
BRANCH  12  13
ATOM     13  C   UNL     1      51.429  84.382  31.712  1.00  0.00    -0.000 C 
BRANCH  13  14
ATOM     14  C   UNL     1      50.057  84.002  31.127  1.00  0.00    -0.000 C 
BRANCH  14  15
ATOM     15  C   UNL     1      48.849  84.588  31.878  1.00  0.00    -0.003 C 
ATOM     16  C   UNL     1      48.598  83.912  33.226  1.00  0.00     0.004 C 
ENDBRANCH  14  15
ENDBRANCH  13  14
ENDBRANCH  12  13
ENDBRANCH  11  12
ENDBRANCH  10  11
ENDBRANCH   1  10
TORSDOF 12
ENDMDL
MODEL 9
REMARK VINA RESULT:    -2.584      2.755      5.202
REMARK INTER + INTRA:          -6.185
REMARK INTER:                  -4.348
REMARK INTRA:                  -1.837
REMARK UNBOUND:                -1.789
REMARK SMILES CCCCCCCCCCCCCC(=O)[O-]
REMARK SMILES IDX 8 1 9 2 10 3 11 4 12 5 13 6 14 7 15 8 16 9 7 10 6 11 5 12
REMARK SMILES IDX 4 13 3 14 2 15 1 16
REMARK H PARENT
REMARK Flexibility Score: inf
ROOT
ATOM      1  C   UNL     1      53.780  81.390  30.418  1.00  0.00     0.000 C 
ENDROOT
BRANCH   1   2
ATOM      2  C   UNL     1      54.708  81.344  29.191  1.00  0.00     0.000 C 
BRANCH   2   3
ATOM      3  C   UNL     1      55.761  82.464  29.205  1.00  0.00     0.000 C 
BRANCH   3   4
ATOM      4  C   UNL     1      55.139  83.867  29.141  1.00  0.00     0.000 C 
BRANCH   4   5
ATOM      5  C   UNL     1      55.669  84.755  30.276  1.00  0.00     0.006 C 
BRANCH   5   6
ATOM      6  C   UNL     1      56.627  84.001  31.207  1.00  0.00     0.053 C 
BRANCH   6   7
ATOM      7  C   UNL     1      56.026  83.774  32.560  1.00  0.00     0.041 C 
ATOM      8  O   UNL     1      55.827  82.604  32.977  1.00  0.00    -0.550 OA
ATOM      9  O   UNL     1      55.654  84.858  33.347  1.00  0.00    -0.550 OA
ENDBRANCH   6   7
ENDBRANCH   5   6
ENDBRANCH   4   5
ENDBRANCH   3   4
ENDBRANCH   2   3
ENDBRANCH   1   2
BRANCH   1  10
ATOM     10  C   UNL     1      52.294  81.284  30.039  1.00  0.00     0.000 C 
BRANCH  10  11
ATOM     11  C   UNL     1      51.910  82.211  28.875  1.00  0.00    -0.000 C 
BRANCH  11  12
ATOM     12  C   UNL     1      50.532  82.842  29.109  1.00  0.00    -0.000 C 
BRANCH  12  13
ATOM     13  C   UNL     1      50.616  84.375  29.075  1.00  0.00    -0.000 C 
BRANCH  13  14
ATOM     14  C   UNL     1      51.520  84.952  30.180  1.00  0.00    -0.000 C 
BRANCH  14  15
ATOM     15  C   UNL     1      51.137  84.536  31.611  1.00  0.00    -0.003 C 
ATOM     16  C   UNL     1      52.350  84.234  32.491  1.00  0.00     0.004 C 
ENDBRANCH  14  15
ENDBRANCH  13  14
ENDBRANCH  12  13
ENDBRANCH  11  12
ENDBRANCH  10  11
ENDBRANCH   1  10
TORSDOF 12
ENDMDL
