MODEL 1
REMARK VINA RESULT:    -3.598      0.000      0.000
REMARK INTER + INTRA:          -3.704
REMARK INTER:                  -3.704
REMARK INTRA:                   0.000
REMARK UNBOUND:                 0.000
REMARK SMILES CC1(C)[C@H]2CC[C@](C)(C2)[C@@H]1O
REMARK SMILES IDX 1 1 2 2 4 3 5 4 6 5 7 6 9 7 10 8 8 9 3 10 11 11
REMARK H PARENT 11 12
REMARK Flexibility Score: inf
ROOT
ATOM      1  C   UNL     1     134.989 141.400 143.290  1.00  0.00     0.014 C 
ATOM      2  C   UNL     1     135.114 141.780 141.794  1.00  0.00    -0.006 C 
ATOM      3  C   UNL     1     134.740 140.613 140.819  1.00  0.00    -0.002 C 
ATOM      4  C   UNL     1     133.401 139.957 141.213  1.00  0.00     0.005 C 
ATOM      5  C   UNL     1     132.378 141.063 140.912  1.00  0.00     0.010 C 
ATOM      6  C   UNL     1     133.251 142.171 140.278  1.00  0.00    -0.006 C 
ATOM      7  C   UNL     1     134.310 141.359 139.567  1.00  0.00     0.013 C 
ATOM      8  C   UNL     1     134.065 142.874 141.399  1.00  0.00     0.126 C 
ATOM      9  C   UNL     1     132.461 143.115 139.363  1.00  0.00     0.014 C 
ATOM     10  C   UNL     1     136.584 142.213 141.550  1.00  0.00     0.014 C 
ENDROOT
BRANCH   8  11
ATOM     11  O   UNL     1     134.673 144.044 140.907  1.00  0.00    -0.392 OA
ATOM     12  H   UNL     1     135.102 144.488 141.684  1.00  0.00     0.211 HD
ENDBRANCH   8  11
TORSDOF 1
ENDMDL
MODEL 2
REMARK VINA RESULT:    -3.598      8.605      9.715
REMARK INTER + INTRA:          -3.703
REMARK INTER:                  -3.703
REMARK INTRA:                   0.000
REMARK UNBOUND:                 0.000
REMARK SMILES CC1(C)[C@H]2CC[C@](C)(C2)[C@@H]1O
REMARK SMILES IDX 1 1 2 2 4 3 5 4 6 5 7 6 9 7 10 8 8 9 3 10 11 11
REMARK H PARENT 11 12
REMARK Flexibility Score: inf
ROOT
ATOM      1  C   UNL     1     141.381 146.616 143.366  1.00  0.00     0.014 C 
ATOM      2  C   UNL     1     141.781 146.468 141.877  1.00  0.00    -0.006 C 
ATOM      3  C   UNL     1     140.611 146.775 140.881  1.00  0.00    -0.002 C 
ATOM      4  C   UNL     1     139.903 148.099 141.236  1.00  0.00     0.005 C 
ATOM      5  C   UNL     1     140.975 149.154 140.920  1.00  0.00     0.010 C 
ATOM      6  C   UNL     1     142.120 148.307 140.320  1.00  0.00    -0.006 C 
ATOM      7  C   UNL     1     141.355 147.202 139.626  1.00  0.00     0.013 C 
ATOM      8  C   UNL     1     142.841 147.547 141.467  1.00  0.00     0.126 C 
ATOM      9  C   UNL     1     143.045 149.108 139.394  1.00  0.00     0.014 C 
ATOM     10  C   UNL     1     142.270 145.010 141.673  1.00  0.00     0.014 C 
ENDROOT
BRANCH   8  11
ATOM     11  O   UNL     1     144.037 146.970 141.001  1.00  0.00    -0.392 OA
ATOM     12  H   UNL     1     144.765 147.325 141.576  1.00  0.00     0.211 HD
ENDBRANCH   8  11
TORSDOF 1
ENDMDL
MODEL 3
REMARK VINA RESULT:    -3.578     11.605     13.835
REMARK INTER + INTRA:          -3.682
REMARK INTER:                  -3.682
REMARK INTRA:                   0.000
REMARK UNBOUND:                 0.000
REMARK SMILES CC1(C)[C@H]2CC[C@](C)(C2)[C@@H]1O
REMARK SMILES IDX 1 1 2 2 4 3 5 4 6 5 7 6 9 7 10 8 8 9 3 10 11 11
REMARK H PARENT 11 12
REMARK Flexibility Score: inf
ROOT
ATOM      1  C   UNL     1     146.634 140.245 143.329  1.00  0.00     0.014 C 
ATOM      2  C   UNL     1     146.515 139.827 141.842  1.00  0.00    -0.006 C 
ATOM      3  C   UNL     1     146.853 140.982 140.839  1.00  0.00    -0.002 C 
ATOM      4  C   UNL     1     148.175 141.685 141.214  1.00  0.00     0.005 C 
ATOM      5  C   UNL     1     149.227 140.601 140.934  1.00  0.00     0.010 C 
ATOM      6  C   UNL     1     148.385 139.455 140.330  1.00  0.00    -0.006 C 
ATOM      7  C   UNL     1     147.301 140.220 139.603  1.00  0.00     0.013 C 
ATOM      8  C   UNL     1     147.594 138.755 141.469  1.00  0.00     0.126 C 
ATOM      9  C   UNL     1     149.198 138.512 139.433  1.00  0.00     0.014 C 
ATOM     10  C   UNL     1     145.058 139.347 141.613  1.00  0.00     0.014 C 
ENDROOT
BRANCH   8  11
ATOM     11  O   UNL     1     147.018 137.557 141.006  1.00  0.00    -0.392 OA
ATOM     12  H   UNL     1     147.490 136.818 141.471  1.00  0.00     0.211 HD
ENDBRANCH   8  11
TORSDOF 1
ENDMDL
MODEL 4
REMARK VINA RESULT:    -3.570      8.628      9.742
REMARK INTER + INTRA:          -3.674
REMARK INTER:                  -3.674
REMARK INTRA:                   0.000
REMARK UNBOUND:                 0.000
REMARK SMILES CC1(C)[C@H]2CC[C@](C)(C2)[C@@H]1O
REMARK SMILES IDX 1 1 2 2 4 3 5 4 6 5 7 6 9 7 10 8 8 9 3 10 11 11
REMARK H PARENT 11 12
REMARK Flexibility Score: inf
ROOT
ATOM      1  C   UNL     1     140.269 135.039 143.336  1.00  0.00     0.014 C 
ATOM      2  C   UNL     1     139.828 135.154 141.856  1.00  0.00    -0.006 C 
ATOM      3  C   UNL     1     140.967 134.813 140.835  1.00  0.00    -0.002 C 
ATOM      4  C   UNL     1     141.674 133.493 141.202  1.00  0.00     0.005 C 
ATOM      5  C   UNL     1     140.586 132.439 140.942  1.00  0.00     0.010 C 
ATOM      6  C   UNL     1     139.431 133.281 140.354  1.00  0.00    -0.006 C 
ATOM      7  C   UNL     1     140.184 134.363 139.613  1.00  0.00     0.013 C 
ATOM      8  C   UNL     1     138.749 134.074 141.502  1.00  0.00     0.126 C 
ATOM      9  C   UNL     1     138.474 132.465 139.475  1.00  0.00     0.014 C 
ATOM     10  C   UNL     1     139.345 136.611 141.631  1.00  0.00     0.014 C 
ENDROOT
BRANCH   8  11
ATOM     11  O   UNL     1     137.544 134.650 141.057  1.00  0.00    -0.392 OA
ATOM     12  H   UNL     1     136.917 134.625 141.827  1.00  0.00     0.211 HD
ENDBRANCH   8  11
TORSDOF 1
ENDMDL
MODEL 5
REMARK VINA RESULT:    -3.544      0.972      3.098
REMARK INTER + INTRA:          -3.647
REMARK INTER:                  -3.647
REMARK INTRA:                   0.000
REMARK UNBOUND:                 0.000
REMARK SMILES CC1(C)[C@H]2CC[C@](C)(C2)[C@@H]1O
REMARK SMILES IDX 1 1 2 2 4 3 5 4 6 5 7 6 9 7 10 8 8 9 3 10 11 11
REMARK H PARENT 11 12
REMARK Flexibility Score: inf
ROOT
ATOM      1  C   UNL     1     132.654 142.033 138.845  1.00  0.00     0.014 C 
ATOM      2  C   UNL     1     133.107 142.229 140.314  1.00  0.00    -0.006 C 
ATOM      3  C   UNL     1     133.252 140.887 141.108  1.00  0.00    -0.002 C 
ATOM      4  C   UNL     1     134.064 139.845 140.310  1.00  0.00     0.005 C 
ATOM      5  C   UNL     1     135.476 140.449 140.300  1.00  0.00     0.010 C 
ATOM      6  C   UNL     1     135.317 141.704 141.188  1.00  0.00    -0.006 C 
ATOM      7  C   UNL     1     134.268 141.249 142.179  1.00  0.00     0.013 C 
ATOM      8  C   UNL     1     134.565 142.799 140.384  1.00  0.00     0.126 C 
ATOM      9  C   UNL     1     136.632 142.163 141.831  1.00  0.00     0.014 C 
ATOM     10  C   UNL     1     132.053 143.133 141.005  1.00  0.00     0.014 C 
ENDROOT
BRANCH   8  11
ATOM     11  O   UNL     1     134.623 144.034 141.057  1.00  0.00    -0.392 OA
ATOM     12  H   UNL     1     135.544 144.382 140.931  1.00  0.00     0.211 HD
ENDBRANCH   8  11
TORSDOF 1
ENDMDL
MODEL 6
REMARK VINA RESULT:    -3.514     11.588     13.760
REMARK INTER + INTRA:          -3.617
REMARK INTER:                  -3.617
REMARK INTRA:                   0.000
REMARK UNBOUND:                 0.000
REMARK SMILES CC1(C)[C@H]2CC[C@](C)(C2)[C@@H]1O
REMARK SMILES IDX 1 1 2 2 4 3 5 4 6 5 7 6 9 7 10 8 8 9 3 10 11 11
REMARK H PARENT 11 12
REMARK Flexibility Score: inf
ROOT
ATOM      1  C   UNL     1     149.025 139.595 138.864  1.00  0.00     0.014 C 
ATOM      2  C   UNL     1     148.538 139.396 140.321  1.00  0.00    -0.006 C 
ATOM      3  C   UNL     1     148.374 140.736 141.114  1.00  0.00    -0.002 C 
ATOM      4  C   UNL     1     147.581 141.779 140.300  1.00  0.00     0.005 C 
ATOM      5  C   UNL     1     146.170 141.175 140.255  1.00  0.00     0.010 C 
ATOM      6  C   UNL     1     146.308 139.918 141.144  1.00  0.00    -0.006 C 
ATOM      7  C   UNL     1     147.333 140.371 142.160  1.00  0.00     0.013 C 
ATOM      8  C   UNL     1     147.079 138.825 140.355  1.00  0.00     0.126 C 
ATOM      9  C   UNL     1     144.978 139.458 141.754  1.00  0.00     0.014 C 
ATOM     10  C   UNL     1     149.576 138.490 141.034  1.00  0.00     0.014 C 
ENDROOT
BRANCH   8  11
ATOM     11  O   UNL     1     147.006 137.589 141.024  1.00  0.00    -0.392 OA
ATOM     12  H   UNL     1     146.048 137.439 141.237  1.00  0.00     0.211 HD
ENDBRANCH   8  11
TORSDOF 1
ENDMDL
MODEL 7
REMARK VINA RESULT:    -3.501      8.139      9.911
REMARK INTER + INTRA:          -3.603
REMARK INTER:                  -3.603
REMARK INTRA:                   0.000
REMARK UNBOUND:                 0.000
REMARK SMILES CC1(C)[C@H]2CC[C@](C)(C2)[C@@H]1O
REMARK SMILES IDX 1 1 2 2 4 3 5 4 6 5 7 6 9 7 10 8 8 9 3 10 11 11
REMARK H PARENT 11 12
REMARK Flexibility Score: inf
ROOT
ATOM      1  C   UNL     1     142.031 148.755 138.760  1.00  0.00     0.014 C 
ATOM      2  C   UNL     1     142.207 148.439 140.267  1.00  0.00    -0.006 C 
ATOM      3  C   UNL     1     140.853 148.353 141.050  1.00  0.00    -0.002 C 
ATOM      4  C   UNL     1     139.833 147.461 140.313  1.00  0.00     0.005 C 
ATOM      5  C   UNL     1     140.450 146.060 140.441  1.00  0.00     0.010 C 
ATOM      6  C   UNL     1     141.688 146.313 141.330  1.00  0.00    -0.006 C 
ATOM      7  C   UNL     1     141.208 147.443 142.214  1.00  0.00     0.013 C 
ATOM      8  C   UNL     1     142.790 147.000 140.478  1.00  0.00     0.126 C 
ATOM      9  C   UNL     1     142.149 145.066 142.097  1.00  0.00     0.014 C 
ATOM     10  C   UNL     1     143.090 149.561 140.872  1.00  0.00     0.014 C 
ENDROOT
BRANCH   8  11
ATOM     11  O   UNL     1     144.014 147.017 141.173  1.00  0.00    -0.392 OA
ATOM     12  H   UNL     1     144.492 146.184 140.923  1.00  0.00     0.211 HD
ENDBRANCH   8  11
TORSDOF 1
ENDMDL
MODEL 8
REMARK VINA RESULT:    -3.475      8.594      9.928
REMARK INTER + INTRA:          -3.576
REMARK INTER:                  -3.576
REMARK INTRA:                   0.000
REMARK UNBOUND:                 0.000
REMARK SMILES CC1(C)[C@H]2CC[C@](C)(C2)[C@@H]1O
REMARK SMILES IDX 1 1 2 2 4 3 5 4 6 5 7 6 9 7 10 8 8 9 3 10 11 11
REMARK H PARENT 11 12
REMARK Flexibility Score: inf
ROOT
ATOM      1  C   UNL     1     139.625 132.831 138.793  1.00  0.00     0.014 C 
ATOM      2  C   UNL     1     139.420 133.222 140.278  1.00  0.00    -0.006 C 
ATOM      3  C   UNL     1     140.759 133.349 141.081  1.00  0.00    -0.002 C 
ATOM      4  C   UNL     1     141.793 134.205 140.320  1.00  0.00     0.005 C 
ATOM      5  C   UNL     1     141.172 135.609 140.366  1.00  0.00     0.010 C 
ATOM      6  C   UNL     1     139.917 135.399 141.243  1.00  0.00    -0.006 C 
ATOM      7  C   UNL     1     140.381 134.316 142.191  1.00  0.00     0.013 C 
ATOM      8  C   UNL     1     138.832 134.668 140.405  1.00  0.00     0.126 C 
ATOM      9  C   UNL     1     139.441 136.682 141.938  1.00  0.00     0.014 C 
ATOM     10  C   UNL     1     138.527 132.130 140.922  1.00  0.00     0.014 C 
ENDROOT
BRANCH   8  11
ATOM     11  O   UNL     1     137.596 134.684 141.077  1.00  0.00    -0.392 OA
ATOM     12  H   UNL     1     137.775 134.390 142.008  1.00  0.00     0.211 HD
ENDBRANCH   8  11
TORSDOF 1
ENDMDL
MODEL 9
REMARK VINA RESULT:    -3.272     12.361     13.533
REMARK INTER + INTRA:          -3.368
REMARK INTER:                  -3.368
REMARK INTRA:                   0.000
REMARK UNBOUND:                 0.000
REMARK SMILES CC1(C)[C@H]2CC[C@](C)(C2)[C@@H]1O
REMARK SMILES IDX 1 1 2 2 4 3 5 4 6 5 7 6 9 7 10 8 8 9 3 10 11 11
REMARK H PARENT 11 12
REMARK Flexibility Score: inf
ROOT
ATOM      1  C   UNL     1     147.545 138.332 141.369  1.00  0.00     0.014 C 
ATOM      2  C   UNL     1     147.293 139.852 141.523  1.00  0.00    -0.006 C 
ATOM      3  C   UNL     1     148.590 140.719 141.378  1.00  0.00    -0.002 C 
ATOM      4  C   UNL     1     149.399 140.316 140.128  1.00  0.00     0.005 C 
ATOM      5  C   UNL     1     148.492 140.771 138.974  1.00  0.00     0.010 C 
ATOM      6  C   UNL     1     147.331 141.477 139.711  1.00  0.00    -0.006 C 
ATOM      7  C   UNL     1     148.038 142.057 140.916  1.00  0.00     0.013 C 
ATOM      8  C   UNL     1     146.411 140.400 140.349  1.00  0.00     0.126 C 
ATOM      9  C   UNL     1     146.606 142.516 138.846  1.00  0.00     0.014 C 
ATOM     10  C   UNL     1     146.669 140.077 142.925  1.00  0.00     0.014 C 
ENDROOT
BRANCH   8  11
ATOM     11  O   UNL     1     145.215 140.982 140.808  1.00  0.00    -0.392 OA
ATOM     12  H   UNL     1     145.353 141.965 140.790  1.00  0.00     0.211 HD
ENDBRANCH   8  11
TORSDOF 1
ENDMDL
