MODEL 1
REMARK VINA RESULT:    -0.168      0.000      0.000
REMARK INTER + INTRA:          -1.348
REMARK INTER:                  -0.363
REMARK INTRA:                  -0.984
REMARK UNBOUND:                -0.984
REMARK SMILES CCCCCCCCCCCCCCCCCCCCCC(=O)[O-]
REMARK SMILES IDX 12 1 11 2 10 3 9 4 8 5 7 6 6 7 5 8 4 9 3 10 2 11 1 12 13 13
REMARK SMILES IDX 14 14 15 15 16 16 17 17 18 18 19 19 20 20 21 21 22 22 23 23
REMARK SMILES IDX 24 24
REMARK H PARENT
REMARK Flexibility Score: inf
ROOT
ATOM      1  C   UNL     1      40.798  43.410  19.230  1.00  0.00     0.000 C 
ENDROOT
BRANCH   1   2
ATOM      2  C   UNL     1      40.205  42.038  18.860  1.00  0.00     0.000 C 
BRANCH   2   3
ATOM      3  C   UNL     1      40.961  41.273  17.756  1.00  0.00     0.000 C 
BRANCH   3   4
ATOM      4  C   UNL     1      40.876  39.745  17.918  1.00  0.00    -0.000 C 
BRANCH   4   5
ATOM      5  C   UNL     1      40.883  38.998  16.570  1.00  0.00    -0.000 C 
BRANCH   5   6
ATOM      6  C   UNL     1      40.685  37.474  16.667  1.00  0.00    -0.000 C 
BRANCH   6   7
ATOM      7  C   UNL     1      40.215  37.020  18.060  1.00  0.00    -0.000 C 
BRANCH   7   8
ATOM      8  C   UNL     1      39.716  35.566  18.072  1.00  0.00    -0.000 C 
BRANCH   8   9
ATOM      9  C   UNL     1      38.769  35.278  19.249  1.00  0.00    -0.000 C 
BRANCH   9  10
ATOM     10  C   UNL     1      37.756  36.413  19.495  1.00  0.00    -0.000 C 
BRANCH  10  11
ATOM     11  C   UNL     1      38.010  37.248  20.762  1.00  0.00    -0.003 C 
ATOM     12  C   UNL     1      37.724  38.738  20.567  1.00  0.00     0.004 C 
ENDBRANCH  10  11
ENDBRANCH   9  10
ENDBRANCH   8   9
ENDBRANCH   7   8
ENDBRANCH   6   7
ENDBRANCH   5   6
ENDBRANCH   4   5
ENDBRANCH   3   4
ENDBRANCH   2   3
ENDBRANCH   1   2
BRANCH   1  13
ATOM     13  C   UNL     1      41.103  43.550  20.732  1.00  0.00     0.000 C 
BRANCH  13  14
ATOM     14  C   UNL     1      41.125  45.025  21.190  1.00  0.00     0.000 C 
BRANCH  14  15
ATOM     15  C   UNL     1      40.853  45.215  22.696  1.00  0.00     0.000 C 
BRANCH  15  16
ATOM     16  C   UNL     1      39.513  45.889  23.034  1.00  0.00     0.000 C 
BRANCH  16  17
ATOM     17  C   UNL     1      38.827  45.270  24.262  1.00  0.00     0.000 C 
BRANCH  17  18
ATOM     18  C   UNL     1      37.567  46.058  24.638  1.00  0.00     0.000 C 
BRANCH  18  19
ATOM     19  C   UNL     1      36.543  46.039  23.493  1.00  0.00     0.000 C 
BRANCH  19  20
ATOM     20  C   UNL     1      35.640  47.289  23.471  1.00  0.00     0.006 C 
BRANCH  20  21
ATOM     21  C   UNL     1      34.517  47.265  24.521  1.00  0.00     0.053 C 
BRANCH  21  22
ATOM     22  C   UNL     1      33.895  45.911  24.668  1.00  0.00     0.041 C 
ATOM     23  O   UNL     1      34.217  45.168  25.631  1.00  0.00    -0.550 OA
ATOM     24  O   UNL     1      32.946  45.476  23.751  1.00  0.00    -0.550 OA
ENDBRANCH  21  22
ENDBRANCH  20  21
ENDBRANCH  19  20
ENDBRANCH  18  19
ENDBRANCH  17  18
ENDBRANCH  16  17
ENDBRANCH  15  16
ENDBRANCH  14  15
ENDBRANCH  13  14
ENDBRANCH   1  13
TORSDOF 20
ENDMDL
MODEL 2
REMARK VINA RESULT:     1.679      3.940     10.048
REMARK INTER + INTRA:           2.657
REMARK INTER:                   3.567
REMARK INTRA:                  -0.910
REMARK UNBOUND:                -0.984
REMARK SMILES CCCCCCCCCCCCCCCCCCCCCC(=O)[O-]
REMARK SMILES IDX 12 1 11 2 10 3 9 4 8 5 7 6 6 7 5 8 4 9 3 10 2 11 1 12 13 13
REMARK SMILES IDX 14 14 15 15 16 16 17 17 18 18 19 19 20 20 21 21 22 22 23 23
REMARK SMILES IDX 24 24
REMARK H PARENT
REMARK Flexibility Score: inf
ROOT
ATOM      1  C   UNL     1      40.835  44.624  22.332  1.00  0.00     0.000 C 
ENDROOT
BRANCH   1   2
ATOM      2  C   UNL     1      40.702  45.341  23.688  1.00  0.00     0.000 C 
BRANCH   2   3
ATOM      3  C   UNL     1      40.099  44.491  24.823  1.00  0.00     0.000 C 
BRANCH   3   4
ATOM      4  C   UNL     1      39.215  45.308  25.782  1.00  0.00    -0.000 C 
BRANCH   4   5
ATOM      5  C   UNL     1      38.360  46.364  25.056  1.00  0.00    -0.000 C 
BRANCH   5   6
ATOM      6  C   UNL     1      37.107  45.815  24.349  1.00  0.00    -0.000 C 
BRANCH   6   7
ATOM      7  C   UNL     1      36.657  46.691  23.166  1.00  0.00    -0.000 C 
BRANCH   7   8
ATOM      8  C   UNL     1      35.140  46.938  23.156  1.00  0.00    -0.000 C 
BRANCH   8   9
ATOM      9  C   UNL     1      34.658  47.687  24.410  1.00  0.00    -0.000 C 
BRANCH   9  10
ATOM     10  C   UNL     1      33.990  46.759  25.444  1.00  0.00    -0.000 C 
BRANCH  10  11
ATOM     11  C   UNL     1      33.648  45.351  24.927  1.00  0.00    -0.003 C 
ATOM     12  C   UNL     1      32.400  45.321  24.043  1.00  0.00     0.004 C 
ENDBRANCH  10  11
ENDBRANCH   9  10
ENDBRANCH   8   9
ENDBRANCH   7   8
ENDBRANCH   6   7
ENDBRANCH   5   6
ENDBRANCH   4   5
ENDBRANCH   3   4
ENDBRANCH   2   3
ENDBRANCH   1   2
BRANCH   1  13
ATOM     13  C   UNL     1      41.072  45.591  21.158  1.00  0.00     0.000 C 
BRANCH  13  14
ATOM     14  C   UNL     1      41.122  44.860  19.799  1.00  0.00     0.000 C 
BRANCH  14  15
ATOM     15  C   UNL     1      41.105  43.323  19.914  1.00  0.00     0.000 C 
BRANCH  15  16
ATOM     16  C   UNL     1      40.566  42.584  18.678  1.00  0.00     0.000 C 
BRANCH  16  17
ATOM     17  C   UNL     1      40.741  41.060  18.770  1.00  0.00     0.000 C 
BRANCH  17  18
ATOM     18  C   UNL     1      39.380  40.353  18.748  1.00  0.00     0.000 C 
BRANCH  18  19
ATOM     19  C   UNL     1      39.448  39.053  17.934  1.00  0.00     0.000 C 
BRANCH  19  20
ATOM     20  C   UNL     1      40.847  38.407  17.943  1.00  0.00     0.006 C 
BRANCH  20  21
ATOM     21  C   UNL     1      40.916  37.080  18.717  1.00  0.00     0.053 C 
BRANCH  21  22
ATOM     22  C   UNL     1      39.921  36.075  18.226  1.00  0.00     0.041 C 
ATOM     23  O   UNL     1      40.229  35.281  17.299  1.00  0.00    -0.550 OA
ATOM     24  O   UNL     1      38.659  36.003  18.803  1.00  0.00    -0.550 OA
ENDBRANCH  21  22
ENDBRANCH  20  21
ENDBRANCH  19  20
ENDBRANCH  18  19
ENDBRANCH  17  18
ENDBRANCH  16  17
ENDBRANCH  15  16
ENDBRANCH  14  15
ENDBRANCH  13  14
ENDBRANCH   1  13
TORSDOF 20
ENDMDL
MODEL 3
REMARK VINA RESULT:     2.550      1.457      2.047
REMARK INTER + INTRA:           4.548
REMARK INTER:                   5.511
REMARK INTRA:                  -0.963
REMARK UNBOUND:                -0.984
REMARK SMILES CCCCCCCCCCCCCCCCCCCCCC(=O)[O-]
REMARK SMILES IDX 12 1 11 2 10 3 9 4 8 5 7 6 6 7 5 8 4 9 3 10 2 11 1 12 13 13
REMARK SMILES IDX 14 14 15 15 16 16 17 17 18 18 19 19 20 20 21 21 22 22 23 23
REMARK SMILES IDX 24 24
REMARK H PARENT
REMARK Flexibility Score: inf
ROOT
ATOM      1  C   UNL     1      41.124  43.310  20.527  1.00  0.00     0.000 C 
ENDROOT
BRANCH   1   2
ATOM      2  C   UNL     1      40.286  42.994  19.274  1.00  0.00     0.000 C 
BRANCH   2   3
ATOM      3  C   UNL     1      40.863  41.897  18.359  1.00  0.00     0.000 C 
BRANCH   3   4
ATOM      4  C   UNL     1      40.218  40.519  18.591  1.00  0.00    -0.000 C 
BRANCH   4   5
ATOM      5  C   UNL     1      39.466  39.994  17.353  1.00  0.00    -0.000 C 
BRANCH   5   6
ATOM      6  C   UNL     1      40.293  39.091  16.420  1.00  0.00    -0.000 C 
BRANCH   6   7
ATOM      7  C   UNL     1      40.985  37.935  17.166  1.00  0.00    -0.000 C 
BRANCH   7   8
ATOM      8  C   UNL     1      40.810  36.583  16.455  1.00  0.00    -0.000 C 
BRANCH   8   9
ATOM      9  C   UNL     1      40.548  35.431  17.440  1.00  0.00    -0.000 C 
BRANCH   9  10
ATOM     10  C   UNL     1      39.066  35.310  17.841  1.00  0.00    -0.000 C 
BRANCH  10  11
ATOM     11  C   UNL     1      38.666  36.101  19.100  1.00  0.00    -0.003 C 
ATOM     12  C   UNL     1      38.462  35.214  20.328  1.00  0.00     0.004 C 
ENDBRANCH  10  11
ENDBRANCH   9  10
ENDBRANCH   8   9
ENDBRANCH   7   8
ENDBRANCH   6   7
ENDBRANCH   5   6
ENDBRANCH   4   5
ENDBRANCH   3   4
ENDBRANCH   2   3
ENDBRANCH   1   2
BRANCH   1  13
ATOM     13  C   UNL     1      40.711  44.624  21.214  1.00  0.00     0.000 C 
BRANCH  13  14
ATOM     14  C   UNL     1      40.963  44.592  22.738  1.00  0.00     0.000 C 
BRANCH  14  15
ATOM     15  C   UNL     1      40.074  45.565  23.539  1.00  0.00     0.000 C 
BRANCH  15  16
ATOM     16  C   UNL     1      39.092  46.393  22.693  1.00  0.00     0.000 C 
BRANCH  16  17
ATOM     17  C   UNL     1      37.674  46.423  23.285  1.00  0.00     0.000 C 
BRANCH  17  18
ATOM     18  C   UNL     1      36.667  46.962  22.261  1.00  0.00     0.000 C 
BRANCH  18  19
ATOM     19  C   UNL     1      35.228  46.829  22.781  1.00  0.00     0.000 C 
BRANCH  19  20
ATOM     20  C   UNL     1      35.146  46.754  24.318  1.00  0.00     0.006 C 
BRANCH  20  21
ATOM     21  C   UNL     1      33.711  46.647  24.862  1.00  0.00     0.053 C 
BRANCH  21  22
ATOM     22  C   UNL     1      33.594  47.127  26.275  1.00  0.00     0.041 C 
ATOM     23  O   UNL     1      33.261  48.317  26.513  1.00  0.00    -0.550 OA
ATOM     24  O   UNL     1      33.838  46.257  27.330  1.00  0.00    -0.550 OA
ENDBRANCH  21  22
ENDBRANCH  20  21
ENDBRANCH  19  20
ENDBRANCH  18  19
ENDBRANCH  17  18
ENDBRANCH  16  17
ENDBRANCH  15  16
ENDBRANCH  14  15
ENDBRANCH  13  14
ENDBRANCH   1  13
TORSDOF 20
ENDMDL
MODEL 4
REMARK VINA RESULT:     2.691      3.080      9.752
REMARK INTER + INTRA:           4.854
REMARK INTER:                   3.874
REMARK INTRA:                   0.980
REMARK UNBOUND:                -0.984
REMARK SMILES CCCCCCCCCCCCCCCCCCCCCC(=O)[O-]
REMARK SMILES IDX 12 1 11 2 10 3 9 4 8 5 7 6 6 7 5 8 4 9 3 10 2 11 1 12 13 13
REMARK SMILES IDX 14 14 15 15 16 16 17 17 18 18 19 19 20 20 21 21 22 22 23 23
REMARK SMILES IDX 24 24
REMARK H PARENT
REMARK Flexibility Score: inf
ROOT
ATOM      1  C   UNL     1      40.275  44.771  23.099  1.00  0.00     0.000 C 
ENDROOT
BRANCH   1   2
ATOM      2  C   UNL     1      40.140  45.278  24.547  1.00  0.00     0.000 C 
BRANCH   2   3
ATOM      3  C   UNL     1      38.753  45.074  25.187  1.00  0.00     0.000 C 
BRANCH   3   4
ATOM      4  C   UNL     1      37.795  46.251  24.936  1.00  0.00    -0.000 C 
BRANCH   4   5
ATOM      5  C   UNL     1      37.015  46.119  23.615  1.00  0.00    -0.000 C 
BRANCH   5   6
ATOM      6  C   UNL     1      36.134  47.328  23.252  1.00  0.00    -0.000 C 
BRANCH   6   7
ATOM      7  C   UNL     1      34.641  46.968  23.142  1.00  0.00    -0.000 C 
BRANCH   7   8
ATOM      8  C   UNL     1      34.263  45.746  23.994  1.00  0.00    -0.000 C 
BRANCH   8   9
ATOM      9  C   UNL     1      34.699  45.894  25.462  1.00  0.00    -0.000 C 
BRANCH   9  10
ATOM     10  C   UNL     1      33.616  46.540  26.347  1.00  0.00    -0.000 C 
BRANCH  10  11
ATOM     11  C   UNL     1      33.022  47.849  25.797  1.00  0.00    -0.003 C 
ATOM     12  C   UNL     1      32.981  48.973  26.833  1.00  0.00     0.004 C 
ENDBRANCH  10  11
ENDBRANCH   9  10
ENDBRANCH   8   9
ENDBRANCH   7   8
ENDBRANCH   6   7
ENDBRANCH   5   6
ENDBRANCH   4   5
ENDBRANCH   3   4
ENDBRANCH   2   3
ENDBRANCH   1   2
BRANCH   1  13
ATOM     13  C   UNL     1      41.069  45.730  22.194  1.00  0.00     0.000 C 
BRANCH  13  14
ATOM     14  C   UNL     1      40.932  45.372  20.698  1.00  0.00     0.000 C 
BRANCH  14  15
ATOM     15  C   UNL     1      41.123  43.873  20.394  1.00  0.00     0.000 C 
BRANCH  15  16
ATOM     16  C   UNL     1      41.111  43.506  18.901  1.00  0.00     0.000 C 
BRANCH  16  17
ATOM     17  C   UNL     1      41.108  41.988  18.659  1.00  0.00     0.000 C 
BRANCH  17  18
ATOM     18  C   UNL     1      39.873  41.337  19.293  1.00  0.00     0.000 C 
BRANCH  18  19
ATOM     19  C   UNL     1      39.301  40.239  18.384  1.00  0.00     0.000 C 
BRANCH  19  20
ATOM     20  C   UNL     1      40.156  38.957  18.376  1.00  0.00     0.006 C 
BRANCH  20  21
ATOM     21  C   UNL     1      39.344  37.665  18.566  1.00  0.00     0.053 C 
BRANCH  21  22
ATOM     22  C   UNL     1      38.300  37.793  19.631  1.00  0.00     0.041 C 
ATOM     23  O   UNL     1      37.596  36.799  19.949  1.00  0.00    -0.550 OA
ATOM     24  O   UNL     1      38.114  39.005  20.284  1.00  0.00    -0.550 OA
ENDBRANCH  21  22
ENDBRANCH  20  21
ENDBRANCH  19  20
ENDBRANCH  18  19
ENDBRANCH  17  18
ENDBRANCH  16  17
ENDBRANCH  15  16
ENDBRANCH  14  15
ENDBRANCH  13  14
ENDBRANCH   1  13
TORSDOF 20
ENDMDL
