MODEL 1
REMARK VINA RESULT:    -1.010      0.000      0.000
REMARK INTER + INTRA:          -4.522
REMARK INTER:                  -1.837
REMARK INTRA:                  -2.684
REMARK UNBOUND:                -2.684
REMARK SMILES CCCCCCCCCCCCCCCC(=O)[O-]
REMARK SMILES IDX 9 1 10 2 11 3 12 4 13 5 14 6 15 7 16 8 17 9 18 10 8 11 7 12
REMARK SMILES IDX 6 13 5 14 4 15 3 16 2 17 1 18
REMARK H PARENT
REMARK Flexibility Score: inf
ROOT
ATOM      1  C   UNL     1      29.311  -6.867  19.317  1.00  0.00     0.000 C 
ENDROOT
BRANCH   1   2
ATOM      2  C   UNL     1      28.642  -6.284  18.066  1.00  0.00     0.000 C 
BRANCH   2   3
ATOM      3  C   UNL     1      29.215  -6.913  16.791  1.00  0.00     0.000 C 
BRANCH   3   4
ATOM      4  C   UNL     1      28.095  -7.308  15.820  1.00  0.00     0.000 C 
BRANCH   4   5
ATOM      5  C   UNL     1      28.343  -8.666  15.139  1.00  0.00     0.000 C 
BRANCH   5   6
ATOM      6  C   UNL     1      29.806  -8.877  14.698  1.00  0.00     0.006 C 
BRANCH   6   7
ATOM      7  C   UNL     1      29.960 -10.072  13.747  1.00  0.00     0.053 C 
BRANCH   7   8
ATOM      8  C   UNL     1      30.266  -9.604  12.360  1.00  0.00     0.041 C 
ATOM      9  O   UNL     1      29.716  -8.566  11.906  1.00  0.00    -0.550 OA
ATOM     10  O   UNL     1      31.119 -10.343  11.550  1.00  0.00    -0.550 OA
ENDBRANCH   7   8
ENDBRANCH   6   7
ENDBRANCH   5   6
ENDBRANCH   4   5
ENDBRANCH   3   4
ENDBRANCH   2   3
ENDBRANCH   1   2
BRANCH   1  11
ATOM     11  C   UNL     1      30.668  -7.494  18.975  1.00  0.00     0.000 C 
BRANCH  11  12
ATOM     12  C   UNL     1      30.702  -8.976  19.364  1.00  0.00    -0.000 C 
BRANCH  12  13
ATOM     13  C   UNL     1      31.080  -9.852  18.164  1.00  0.00    -0.000 C 
BRANCH  13  14
ATOM     14  C   UNL     1      29.923 -10.780  17.772  1.00  0.00    -0.000 C 
BRANCH  14  15
ATOM     15  C   UNL     1      28.797 -10.725  18.816  1.00  0.00    -0.000 C 
BRANCH  15  16
ATOM     16  C   UNL     1      27.433 -10.351  18.207  1.00  0.00    -0.000 C 
BRANCH  16  17
ATOM     17  C   UNL     1      26.581  -9.401  19.066  1.00  0.00    -0.003 C 
ATOM     18  C   UNL     1      25.556  -8.614  18.249  1.00  0.00     0.004 C 
ENDBRANCH  16  17
ENDBRANCH  15  16
ENDBRANCH  14  15
ENDBRANCH  13  14
ENDBRANCH  12  13
ENDBRANCH  11  12
ENDBRANCH   1  11
TORSDOF 14
ENDMDL
MODEL 2
REMARK VINA RESULT:    -0.923      3.394      5.387
REMARK INTER + INTRA:          -4.364
REMARK INTER:                  -1.859
REMARK INTRA:                  -2.505
REMARK UNBOUND:                -2.684
REMARK SMILES CCCCCCCCCCCCCCCC(=O)[O-]
REMARK SMILES IDX 9 1 10 2 11 3 12 4 13 5 14 6 15 7 16 8 17 9 18 10 8 11 7 12
REMARK SMILES IDX 6 13 5 14 4 15 3 16 2 17 1 18
REMARK H PARENT
REMARK Flexibility Score: inf
ROOT
ATOM      1  C   UNL     1      27.788  -8.093  15.864  1.00  0.00     0.000 C 
ENDROOT
BRANCH   1   2
ATOM      2  C   UNL     1      28.592  -8.084  14.558  1.00  0.00     0.000 C 
BRANCH   2   3
ATOM      3  C   UNL     1      30.094  -8.214  14.836  1.00  0.00     0.000 C 
BRANCH   3   4
ATOM      4  C   UNL     1      30.685  -9.432  14.112  1.00  0.00     0.000 C 
BRANCH   4   5
ATOM      5  C   UNL     1      30.531 -10.737  14.912  1.00  0.00     0.000 C 
BRANCH   5   6
ATOM      6  C   UNL     1      31.024 -10.629  16.370  1.00  0.00     0.006 C 
BRANCH   6   7
ATOM      7  C   UNL     1      29.948 -11.052  17.380  1.00  0.00     0.053 C 
BRANCH   7   8
ATOM      8  C   UNL     1      29.932 -10.121  18.550  1.00  0.00     0.041 C 
ATOM      9  O   UNL     1      28.845  -9.631  18.955  1.00  0.00    -0.550 OA
ATOM     10  O   UNL     1      31.124  -9.753  19.162  1.00  0.00    -0.550 OA
ENDBRANCH   7   8
ENDBRANCH   6   7
ENDBRANCH   5   6
ENDBRANCH   4   5
ENDBRANCH   3   4
ENDBRANCH   2   3
ENDBRANCH   1   2
BRANCH   1  11
ATOM     11  C   UNL     1      26.968  -9.382  15.997  1.00  0.00     0.000 C 
BRANCH  11  12
ATOM     12  C   UNL     1      26.942 -10.158  14.675  1.00  0.00    -0.000 C 
BRANCH  12  13
ATOM     13  C   UNL     1      25.550 -10.109  14.035  1.00  0.00    -0.000 C 
BRANCH  13  14
ATOM     14  C   UNL     1      25.603  -9.449  12.652  1.00  0.00    -0.000 C 
BRANCH  14  15
ATOM     15  C   UNL     1      25.348  -7.938  12.753  1.00  0.00    -0.000 C 
BRANCH  15  16
ATOM     16  C   UNL     1      24.240  -7.582  13.760  1.00  0.00    -0.000 C 
BRANCH  16  17
ATOM     17  C   UNL     1      24.631  -6.522  14.804  1.00  0.00    -0.003 C 
ATOM     18  C   UNL     1      24.163  -6.873  16.217  1.00  0.00     0.004 C 
ENDBRANCH  16  17
ENDBRANCH  15  16
ENDBRANCH  14  15
ENDBRANCH  13  14
ENDBRANCH  12  13
ENDBRANCH  11  12
ENDBRANCH   1  11
TORSDOF 14
ENDMDL
MODEL 3
REMARK VINA RESULT:    -0.904      1.682      3.752
REMARK INTER + INTRA:          -4.329
REMARK INTER:                  -2.008
REMARK INTRA:                  -2.321
REMARK UNBOUND:                -2.684
REMARK SMILES CCCCCCCCCCCCCCCC(=O)[O-]
REMARK SMILES IDX 9 1 10 2 11 3 12 4 13 5 14 6 15 7 16 8 17 9 18 10 8 11 7 12
REMARK SMILES IDX 6 13 5 14 4 15 3 16 2 17 1 18
REMARK H PARENT
REMARK Flexibility Score: inf
ROOT
ATOM      1  C   UNL     1      28.145  -9.802  20.897  1.00  0.00     0.000 C 
ENDROOT
BRANCH   1   2
ATOM      2  C   UNL     1      29.665  -9.951  20.760  1.00  0.00     0.000 C 
BRANCH   2   3
ATOM      3  C   UNL     1      30.329  -8.595  20.494  1.00  0.00     0.000 C 
BRANCH   3   4
ATOM      4  C   UNL     1      31.120  -8.618  19.179  1.00  0.00     0.000 C 
BRANCH   4   5
ATOM      5  C   UNL     1      31.031  -9.969  18.450  1.00  0.00     0.000 C 
BRANCH   5   6
ATOM      6  C   UNL     1      31.094  -9.848  16.913  1.00  0.00     0.006 C 
BRANCH   6   7
ATOM      7  C   UNL     1      30.457 -11.052  16.207  1.00  0.00     0.053 C 
BRANCH   7   8
ATOM      8  C   UNL     1      30.124 -10.714  14.789  1.00  0.00     0.041 C 
ATOM      9  O   UNL     1      28.946 -10.851  14.365  1.00  0.00    -0.550 OA
ATOM     10  O   UNL     1      31.125 -10.297  13.921  1.00  0.00    -0.550 OA
ENDBRANCH   7   8
ENDBRANCH   6   7
ENDBRANCH   5   6
ENDBRANCH   4   5
ENDBRANCH   3   4
ENDBRANCH   2   3
ENDBRANCH   1   2
BRANCH   1  11
ATOM     11  C   UNL     1      27.423 -11.077  20.443  1.00  0.00     0.000 C 
BRANCH  11  12
ATOM     12  C   UNL     1      26.569 -10.811  19.199  1.00  0.00    -0.000 C 
BRANCH  12  13
ATOM     13  C   UNL     1      27.429 -10.290  18.042  1.00  0.00    -0.000 C 
BRANCH  13  14
ATOM     14  C   UNL     1      26.884  -8.959  17.507  1.00  0.00    -0.000 C 
BRANCH  14  15
ATOM     15  C   UNL     1      27.934  -8.242  16.645  1.00  0.00    -0.000 C 
BRANCH  15  16
ATOM     16  C   UNL     1      28.456  -6.946  17.290  1.00  0.00    -0.000 C 
BRANCH  16  17
ATOM     17  C   UNL     1      28.044  -6.741  18.758  1.00  0.00    -0.003 C 
ATOM     18  C   UNL     1      27.246  -5.457  18.981  1.00  0.00     0.004 C 
ENDBRANCH  16  17
ENDBRANCH  15  16
ENDBRANCH  14  15
ENDBRANCH  13  14
ENDBRANCH  12  13
ENDBRANCH  11  12
ENDBRANCH   1  11
TORSDOF 14
ENDMDL
MODEL 4
REMARK VINA RESULT:    -0.834      4.530      6.525
REMARK INTER + INTRA:          -4.202
REMARK INTER:                  -1.720
REMARK INTRA:                  -2.481
REMARK UNBOUND:                -2.684
REMARK SMILES CCCCCCCCCCCCCCCC(=O)[O-]
REMARK SMILES IDX 9 1 10 2 11 3 12 4 13 5 14 6 15 7 16 8 17 9 18 10 8 11 7 12
REMARK SMILES IDX 6 13 5 14 4 15 3 16 2 17 1 18
REMARK H PARENT
REMARK Flexibility Score: inf
ROOT
ATOM      1  C   UNL     1      30.062  -9.518  17.460  1.00  0.00     0.000 C 
ENDROOT
BRANCH   1   2
ATOM      2  C   UNL     1      28.945 -10.563  17.569  1.00  0.00     0.000 C 
BRANCH   2   3
ATOM      3  C   UNL     1      28.812 -11.078  19.007  1.00  0.00     0.000 C 
BRANCH   3   4
ATOM      4  C   UNL     1      27.411 -10.799  19.565  1.00  0.00     0.000 C 
BRANCH   4   5
ATOM      5  C   UNL     1      27.333 -10.956  21.094  1.00  0.00     0.000 C 
BRANCH   5   6
ATOM      6  C   UNL     1      27.524  -9.632  21.862  1.00  0.00     0.006 C 
BRANCH   6   7
ATOM      7  C   UNL     1      28.998  -9.361  22.196  1.00  0.00     0.053 C 
BRANCH   7   8
ATOM      8  C   UNL     1      29.371 -10.010  23.491  1.00  0.00     0.041 C 
ATOM      9  O   UNL     1      29.957 -11.124  23.495  1.00  0.00    -0.550 OA
ATOM     10  O   UNL     1      29.024  -9.408  24.694  1.00  0.00    -0.550 OA
ENDBRANCH   7   8
ENDBRANCH   6   7
ENDBRANCH   5   6
ENDBRANCH   4   5
ENDBRANCH   3   4
ENDBRANCH   2   3
ENDBRANCH   1   2
BRANCH   1  11
ATOM     11  C   UNL     1      30.832  -9.393  18.780  1.00  0.00     0.000 C 
BRANCH  11  12
ATOM     12  C   UNL     1      31.056  -7.923  19.149  1.00  0.00    -0.000 C 
BRANCH  12  13
ATOM     13  C   UNL     1      30.130  -7.006  18.342  1.00  0.00    -0.000 C 
BRANCH  13  14
ATOM     14  C   UNL     1      29.250  -6.158  19.269  1.00  0.00    -0.000 C 
BRANCH  14  15
ATOM     15  C   UNL     1      27.926  -6.874  19.577  1.00  0.00    -0.000 C 
BRANCH  15  16
ATOM     16  C   UNL     1      27.167  -7.302  18.308  1.00  0.00    -0.000 C 
BRANCH  16  17
ATOM     17  C   UNL     1      25.638  -7.144  18.385  1.00  0.00    -0.003 C 
ATOM     18  C   UNL     1      25.003  -8.001  19.479  1.00  0.00     0.004 C 
ENDBRANCH  16  17
ENDBRANCH  15  16
ENDBRANCH  14  15
ENDBRANCH  13  14
ENDBRANCH  12  13
ENDBRANCH  11  12
ENDBRANCH   1  11
TORSDOF 14
ENDMDL
MODEL 5
REMARK VINA RESULT:    -0.829      3.032      4.724
REMARK INTER + INTRA:          -4.192
REMARK INTER:                  -1.794
REMARK INTRA:                  -2.399
REMARK UNBOUND:                -2.684
REMARK SMILES CCCCCCCCCCCCCCCC(=O)[O-]
REMARK SMILES IDX 9 1 10 2 11 3 12 4 13 5 14 6 15 7 16 8 17 9 18 10 8 11 7 12
REMARK SMILES IDX 6 13 5 14 4 15 3 16 2 17 1 18
REMARK H PARENT
REMARK Flexibility Score: inf
ROOT
ATOM      1  C   UNL     1      28.806  -8.413  14.717  1.00  0.00     0.000 C 
ENDROOT
BRANCH   1   2
ATOM      2  C   UNL     1      30.006  -7.535  15.095  1.00  0.00     0.000 C 
BRANCH   2   3
ATOM      3  C   UNL     1      29.581  -6.394  16.027  1.00  0.00     0.000 C 
BRANCH   3   4
ATOM      4  C   UNL     1      29.166  -6.931  17.402  1.00  0.00     0.000 C 
BRANCH   4   5
ATOM      5  C   UNL     1      27.708  -6.594  17.761  1.00  0.00     0.000 C 
BRANCH   5   6
ATOM      6  C   UNL     1      26.958  -7.752  18.452  1.00  0.00     0.006 C 
BRANCH   6   7
ATOM      7  C   UNL     1      26.344  -8.731  17.443  1.00  0.00     0.053 C 
BRANCH   7   8
ATOM      8  C   UNL     1      25.517  -9.760  18.146  1.00  0.00     0.041 C 
ATOM      9  O   UNL     1      25.778 -10.985  18.009  1.00  0.00    -0.550 OA
ATOM     10  O   UNL     1      24.426  -9.370  18.913  1.00  0.00    -0.550 OA
ENDBRANCH   7   8
ENDBRANCH   6   7
ENDBRANCH   5   6
ENDBRANCH   4   5
ENDBRANCH   3   4
ENDBRANCH   2   3
ENDBRANCH   1   2
BRANCH   1  11
ATOM     11  C   UNL     1      29.218  -9.885  14.593  1.00  0.00     0.000 C 
BRANCH  11  12
ATOM     12  C   UNL     1      30.694 -10.077  14.958  1.00  0.00    -0.000 C 
BRANCH  12  13
ATOM     13  C   UNL     1      30.848 -11.043  16.138  1.00  0.00    -0.000 C 
BRANCH  13  14
ATOM     14  C   UNL     1      30.730 -10.302  17.475  1.00  0.00    -0.000 C 
BRANCH  14  15
ATOM     15  C   UNL     1      29.416 -10.657  18.187  1.00  0.00    -0.000 C 
BRANCH  15  16
ATOM     16  C   UNL     1      29.358 -10.137  19.635  1.00  0.00    -0.000 C 
BRANCH  16  17
ATOM     17  C   UNL     1      28.285 -10.798  20.517  1.00  0.00    -0.003 C 
ATOM     18  C   UNL     1      27.504  -9.792  21.363  1.00  0.00     0.004 C 
ENDBRANCH  16  17
ENDBRANCH  15  16
ENDBRANCH  14  15
ENDBRANCH  13  14
ENDBRANCH  12  13
ENDBRANCH  11  12
ENDBRANCH   1  11
TORSDOF 14
ENDMDL
MODEL 6
REMARK VINA RESULT:    -0.792      3.791      5.642
REMARK INTER + INTRA:          -4.124
REMARK INTER:                  -1.773
REMARK INTRA:                  -2.351
REMARK UNBOUND:                -2.684
REMARK SMILES CCCCCCCCCCCCCCCC(=O)[O-]
REMARK SMILES IDX 9 1 10 2 11 3 12 4 13 5 14 6 15 7 16 8 17 9 18 10 8 11 7 12
REMARK SMILES IDX 6 13 5 14 4 15 3 16 2 17 1 18
REMARK H PARENT
REMARK Flexibility Score: inf
ROOT
ATOM      1  C   UNL     1      28.904  -7.077  17.330  1.00  0.00     0.000 C 
ENDROOT
BRANCH   1   2
ATOM      2  C   UNL     1      27.554  -7.618  17.819  1.00  0.00     0.000 C 
BRANCH   2   3
ATOM      3  C   UNL     1      26.891  -6.641  18.796  1.00  0.00     0.000 C 
BRANCH   3   4
ATOM      4  C   UNL     1      26.648  -7.303  20.158  1.00  0.00     0.000 C 
BRANCH   4   5
ATOM      5  C   UNL     1      26.722  -8.839  20.099  1.00  0.00     0.000 C 
BRANCH   5   6
ATOM      6  C   UNL     1      27.667  -9.453  21.153  1.00  0.00     0.006 C 
BRANCH   6   7
ATOM      7  C   UNL     1      28.700  -8.441  21.668  1.00  0.00     0.053 C 
BRANCH   7   8
ATOM      8  C   UNL     1      30.009  -9.115  21.932  1.00  0.00     0.041 C 
ATOM      9  O   UNL     1      31.089  -8.534  21.646  1.00  0.00    -0.550 OA
ATOM     10  O   UNL     1      30.034 -10.405  22.446  1.00  0.00    -0.550 OA
ENDBRANCH   7   8
ENDBRANCH   6   7
ENDBRANCH   5   6
ENDBRANCH   4   5
ENDBRANCH   3   4
ENDBRANCH   2   3
ENDBRANCH   1   2
BRANCH   1  11
ATOM     11  C   UNL     1      30.063  -7.681  18.133  1.00  0.00     0.000 C 
BRANCH  11  12
ATOM     12  C   UNL     1      29.911  -9.201  18.260  1.00  0.00    -0.000 C 
BRANCH  12  13
ATOM     13  C   UNL     1      31.125  -9.927  17.669  1.00  0.00    -0.000 C 
BRANCH  13  14
ATOM     14  C   UNL     1      30.708 -10.849  16.517  1.00  0.00    -0.000 C 
BRANCH  14  15
ATOM     15  C   UNL     1      31.094 -10.243  15.159  1.00  0.00    -0.000 C 
BRANCH  15  16
ATOM     16  C   UNL     1      29.958  -9.419  14.525  1.00  0.00    -0.000 C 
BRANCH  16  17
ATOM     17  C   UNL     1      28.539  -9.887  14.890  1.00  0.00    -0.003 C 
ATOM     18  C   UNL     1      27.446  -9.001  14.292  1.00  0.00     0.004 C 
ENDBRANCH  16  17
ENDBRANCH  15  16
ENDBRANCH  14  15
ENDBRANCH  13  14
ENDBRANCH  12  13
ENDBRANCH  11  12
ENDBRANCH   1  11
TORSDOF 14
ENDMDL
MODEL 7
REMARK VINA RESULT:    -0.785     10.256     13.116
REMARK INTER + INTRA:          -4.113
REMARK INTER:                  -1.400
REMARK INTRA:                  -2.713
REMARK UNBOUND:                -2.684
REMARK SMILES CCCCCCCCCCCCCCCC(=O)[O-]
REMARK SMILES IDX 9 1 10 2 11 3 12 4 13 5 14 6 15 7 16 8 17 9 18 10 8 11 7 12
REMARK SMILES IDX 6 13 5 14 4 15 3 16 2 17 1 18
REMARK H PARENT
REMARK Flexibility Score: inf
ROOT
ATOM      1  C   UNL     1      18.590  -6.986  15.357  1.00  0.00     0.000 C 
ENDROOT
BRANCH   1   2
ATOM      2  C   UNL     1      17.258  -6.956  16.117  1.00  0.00     0.000 C 
BRANCH   2   3
ATOM      3  C   UNL     1      17.159  -8.125  17.103  1.00  0.00     0.000 C 
BRANCH   3   4
ATOM      4  C   UNL     1      18.117  -9.258  16.712  1.00  0.00     0.000 C 
BRANCH   4   5
ATOM      5  C   UNL     1      17.396 -10.464  16.086  1.00  0.00     0.000 C 
BRANCH   5   6
ATOM      6  C   UNL     1      15.880 -10.492  16.369  1.00  0.00     0.006 C 
BRANCH   6   7
ATOM      7  C   UNL     1      15.079 -11.059  15.189  1.00  0.00     0.053 C 
BRANCH   7   8
ATOM      8  C   UNL     1      13.995 -10.111  14.787  1.00  0.00     0.041 C 
ATOM      9  O   UNL     1      12.897 -10.550  14.354  1.00  0.00    -0.550 OA
ATOM     10  O   UNL     1      14.216  -8.740  14.840  1.00  0.00    -0.550 OA
ENDBRANCH   7   8
ENDBRANCH   6   7
ENDBRANCH   5   6
ENDBRANCH   4   5
ENDBRANCH   3   4
ENDBRANCH   2   3
ENDBRANCH   1   2
BRANCH   1  11
ATOM     11  C   UNL     1      18.365  -6.872  13.845  1.00  0.00     0.000 C 
BRANCH  11  12
ATOM     12  C   UNL     1      17.230  -7.794  13.386  1.00  0.00    -0.000 C 
BRANCH  12  13
ATOM     13  C   UNL     1      17.666  -8.652  12.193  1.00  0.00    -0.000 C 
BRANCH  13  14
ATOM     14  C   UNL     1      16.997 -10.032  12.234  1.00  0.00    -0.000 C 
BRANCH  14  15
ATOM     15  C   UNL     1      18.012 -11.125  12.602  1.00  0.00    -0.000 C 
BRANCH  15  16
ATOM     16  C   UNL     1      19.472 -10.646  12.502  1.00  0.00    -0.000 C 
BRANCH  16  17
ATOM     17  C   UNL     1      20.283 -10.766  13.804  1.00  0.00    -0.003 C 
ATOM     18  C   UNL     1      21.029  -9.482  14.165  1.00  0.00     0.004 C 
ENDBRANCH  16  17
ENDBRANCH  15  16
ENDBRANCH  14  15
ENDBRANCH  13  14
ENDBRANCH  12  13
ENDBRANCH  11  12
ENDBRANCH   1  11
TORSDOF 14
ENDMDL
MODEL 8
REMARK VINA RESULT:    -0.755     13.180     14.996
REMARK INTER + INTRA:          -4.057
REMARK INTER:                  -1.334
REMARK INTRA:                  -2.722
REMARK UNBOUND:                -2.684
REMARK SMILES CCCCCCCCCCCCCCCC(=O)[O-]
REMARK SMILES IDX 9 1 10 2 11 3 12 4 13 5 14 6 15 7 16 8 17 9 18 10 8 11 7 12
REMARK SMILES IDX 6 13 5 14 4 15 3 16 2 17 1 18
REMARK H PARENT
REMARK Flexibility Score: inf
ROOT
ATOM      1  C   UNL     1      14.983  -7.296  20.294  1.00  0.00     0.000 C 
ENDROOT
BRANCH   1   2
ATOM      2  C   UNL     1      14.937  -8.472  19.311  1.00  0.00     0.000 C 
BRANCH   2   3
ATOM      3  C   UNL     1      16.024  -9.504  19.635  1.00  0.00     0.000 C 
BRANCH   3   4
ATOM      4  C   UNL     1      15.681 -10.873  19.035  1.00  0.00     0.000 C 
BRANCH   4   5
ATOM      5  C   UNL     1      14.534 -10.808  18.011  1.00  0.00     0.000 C 
BRANCH   5   6
ATOM      6  C   UNL     1      14.976 -11.120  16.566  1.00  0.00     0.006 C 
BRANCH   6   7
ATOM      7  C   UNL     1      14.979  -9.870  15.676  1.00  0.00     0.053 C 
BRANCH   7   8
ATOM      8  C   UNL     1      16.281  -9.144  15.793  1.00  0.00     0.041 C 
ATOM      9  O   UNL     1      17.364  -9.786  15.820  1.00  0.00    -0.550 OA
ATOM     10  O   UNL     1      16.296  -7.762  15.926  1.00  0.00    -0.550 OA
ENDBRANCH   7   8
ENDBRANCH   6   7
ENDBRANCH   5   6
ENDBRANCH   4   5
ENDBRANCH   3   4
ENDBRANCH   2   3
ENDBRANCH   1   2
BRANCH   1  11
ATOM     11  C   UNL     1      15.387  -7.766  21.698  1.00  0.00     0.000 C 
BRANCH  11  12
ATOM     12  C   UNL     1      14.252  -7.536  22.702  1.00  0.00    -0.000 C 
BRANCH  12  13
ATOM     13  C   UNL     1      13.891  -8.836  23.430  1.00  0.00    -0.000 C 
BRANCH  13  14
ATOM     14  C   UNL     1      14.778  -9.996  22.960  1.00  0.00    -0.000 C 
BRANCH  14  15
ATOM     15  C   UNL     1      13.931 -11.125  22.354  1.00  0.00    -0.000 C 
BRANCH  15  16
ATOM     16  C   UNL     1      12.454 -10.734  22.168  1.00  0.00    -0.000 C 
BRANCH  16  17
ATOM     17  C   UNL     1      12.031 -10.473  20.712  1.00  0.00    -0.003 C 
ATOM     18  C   UNL     1      11.486  -9.062  20.491  1.00  0.00     0.004 C 
ENDBRANCH  16  17
ENDBRANCH  15  16
ENDBRANCH  14  15
ENDBRANCH  13  14
ENDBRANCH  12  13
ENDBRANCH  11  12
ENDBRANCH   1  11
TORSDOF 14
ENDMDL
MODEL 9
REMARK VINA RESULT:    -0.725      2.543      3.951
REMARK INTER + INTRA:          -4.002
REMARK INTER:                  -2.083
REMARK INTRA:                  -1.919
REMARK UNBOUND:                -2.684
REMARK SMILES CCCCCCCCCCCCCCCC(=O)[O-]
REMARK SMILES IDX 9 1 10 2 11 3 12 4 13 5 14 6 15 7 16 8 17 9 18 10 8 11 7 12
REMARK SMILES IDX 6 13 5 14 4 15 3 16 2 17 1 18
REMARK H PARENT
REMARK Flexibility Score: inf
ROOT
ATOM      1  C   UNL     1      27.446  -7.855  18.054  1.00  0.00     0.000 C 
ENDROOT
BRANCH   1   2
ATOM      2  C   UNL     1      28.883  -7.605  18.528  1.00  0.00     0.000 C 
BRANCH   2   3
ATOM      3  C   UNL     1      29.888  -7.860  17.399  1.00  0.00     0.000 C 
BRANCH   3   4
ATOM      4  C   UNL     1      30.942  -8.891  17.821  1.00  0.00     0.000 C 
BRANCH   4   5
ATOM      5  C   UNL     1      30.412 -10.336  17.793  1.00  0.00     0.000 C 
BRANCH   5   6
ATOM      6  C   UNL     1      29.788 -10.738  16.441  1.00  0.00     0.006 C 
BRANCH   6   7
ATOM      7  C   UNL     1      30.850 -11.125  15.403  1.00  0.00     0.053 C 
BRANCH   7   8
ATOM      8  C   UNL     1      30.768 -10.228  14.209  1.00  0.00     0.041 C 
ATOM      9  O   UNL     1      31.125  -9.023  14.295  1.00  0.00    -0.550 OA
ATOM     10  O   UNL     1      30.248 -10.708  13.013  1.00  0.00    -0.550 OA
ENDBRANCH   7   8
ENDBRANCH   6   7
ENDBRANCH   5   6
ENDBRANCH   4   5
ENDBRANCH   3   4
ENDBRANCH   2   3
ENDBRANCH   1   2
BRANCH   1  11
ATOM     11  C   UNL     1      26.701  -8.786  19.017  1.00  0.00     0.000 C 
BRANCH  11  12
ATOM     12  C   UNL     1      27.574  -9.141  20.226  1.00  0.00    -0.000 C 
BRANCH  12  13
ATOM     13  C   UNL     1      27.491 -10.638  20.544  1.00  0.00    -0.000 C 
BRANCH  13  14
ATOM     14  C   UNL     1      28.752 -11.116  21.276  1.00  0.00    -0.000 C 
BRANCH  14  15
ATOM     15  C   UNL     1      29.778  -9.981  21.403  1.00  0.00    -0.000 C 
BRANCH  15  16
ATOM     16  C   UNL     1      30.795 -10.215  22.536  1.00  0.00    -0.000 C 
BRANCH  16  17
ATOM     17  C   UNL     1      30.218 -10.886  23.794  1.00  0.00    -0.003 C 
ATOM     18  C   UNL     1      30.962 -10.500  25.072  1.00  0.00     0.004 C 
ENDBRANCH  16  17
ENDBRANCH  15  16
ENDBRANCH  14  15
ENDBRANCH  13  14
ENDBRANCH  12  13
ENDBRANCH  11  12
ENDBRANCH   1  11
TORSDOF 14
ENDMDL
