MODEL 1
REMARK VINA RESULT:    -5.605      0.000      0.000
REMARK INTER + INTRA:         -17.990
REMARK INTER:                 -14.125
REMARK INTRA:                  -3.865
REMARK UNBOUND:                -3.865
REMARK SMILES CCCCCCCCCCCCCCCCCCCCCCCCCCCC(=O)[O-]
REMARK SMILES IDX 15 1 16 2 17 3 18 4 19 5 20 6 21 7 22 8 23 9 24 10 25 11
REMARK SMILES IDX 26 12 27 13 28 14 29 15 30 16 14 17 13 18 12 19 11 20 10 21
REMARK SMILES IDX 9 22 8 23 7 24 6 25 5 26 4 27 3 28 2 29 1 30
REMARK H PARENT
REMARK Flexibility Score: inf
ROOT
ATOM      1  C   UNL     1     253.738 260.862 246.882  1.00  0.00     0.000 C 
ENDROOT
BRANCH   1   2
ATOM      2  C   UNL     1     252.238 260.778 247.205  1.00  0.00     0.000 C 
BRANCH   2   3
ATOM      3  C   UNL     1     251.639 259.396 246.880  1.00  0.00     0.000 C 
BRANCH   3   4
ATOM      4  C   UNL     1     250.125 259.332 247.143  1.00  0.00     0.000 C 
BRANCH   4   5
ATOM      5  C   UNL     1     249.667 257.927 247.571  1.00  0.00     0.000 C 
BRANCH   5   6
ATOM      6  C   UNL     1     248.573 257.355 246.657  1.00  0.00     0.000 C 
BRANCH   6   7
ATOM      7  C   UNL     1     249.131 256.388 245.598  1.00  0.00     0.000 C 
BRANCH   7   8
ATOM      8  C   UNL     1     250.176 255.421 246.175  1.00  0.00     0.000 C 
BRANCH   8   9
ATOM      9  C   UNL     1     251.353 255.170 245.217  1.00  0.00     0.000 C 
BRANCH   9  10
ATOM     10  C   UNL     1     252.637 255.900 245.647  1.00  0.00     0.000 C 
BRANCH  10  11
ATOM     11  C   UNL     1     253.045 255.617 247.109  1.00  0.00     0.000 C 
BRANCH  11  12
ATOM     12  C   UNL     1     254.223 256.496 247.563  1.00  0.00     0.006 C 
BRANCH  12  13
ATOM     13  C   UNL     1     254.864 255.943 248.839  1.00  0.00     0.053 C 
BRANCH  13  14
ATOM     14  C   UNL     1     256.149 255.245 248.524  1.00  0.00     0.041 C 
ATOM     15  O   UNL     1     256.216 254.452 247.547  1.00  0.00    -0.550 OA
ATOM     16  O   UNL     1     257.261 255.433 249.334  1.00  0.00    -0.550 OA
ENDBRANCH  13  14
ENDBRANCH  12  13
ENDBRANCH  11  12
ENDBRANCH  10  11
ENDBRANCH   9  10
ENDBRANCH   8   9
ENDBRANCH   7   8
ENDBRANCH   6   7
ENDBRANCH   5   6
ENDBRANCH   4   5
ENDBRANCH   3   4
ENDBRANCH   2   3
ENDBRANCH   1   2
BRANCH   1  17
ATOM     17  C   UNL     1     254.204 259.723 245.958  1.00  0.00     0.000 C 
BRANCH  17  18
ATOM     18  C   UNL     1     255.173 260.203 244.866  1.00  0.00     0.000 C 
BRANCH  18  19
ATOM     19  C   UNL     1     256.184 261.243 245.383  1.00  0.00     0.000 C 
BRANCH  19  20
ATOM     20  C   UNL     1     257.545 261.133 244.674  1.00  0.00     0.000 C 
BRANCH  20  21
ATOM     21  C   UNL     1     258.679 261.811 245.464  1.00  0.00     0.000 C 
BRANCH  21  22
ATOM     22  C   UNL     1     259.635 260.785 246.096  1.00  0.00    -0.000 C 
BRANCH  22  23
ATOM     23  C   UNL     1     259.147 260.321 247.479  1.00  0.00    -0.000 C 
BRANCH  23  24
ATOM     24  C   UNL     1     258.706 261.483 248.385  1.00  0.00    -0.000 C 
BRANCH  24  25
ATOM     25  C   UNL     1     257.274 261.332 248.941  1.00  0.00    -0.000 C 
BRANCH  25  26
ATOM     26  C   UNL     1     256.724 259.906 248.752  1.00  0.00    -0.000 C 
BRANCH  26  27
ATOM     27  C   UNL     1     255.525 259.610 249.676  1.00  0.00    -0.000 C 
BRANCH  27  28
ATOM     28  C   UNL     1     255.543 260.402 250.997  1.00  0.00    -0.000 C 
BRANCH  28  29
ATOM     29  C   UNL     1     254.583 261.603 251.046  1.00  0.00    -0.003 C 
ATOM     30  C   UNL     1     254.567 262.300 252.408  1.00  0.00     0.004 C 
ENDBRANCH  28  29
ENDBRANCH  27  28
ENDBRANCH  26  27
ENDBRANCH  25  26
ENDBRANCH  24  25
ENDBRANCH  23  24
ENDBRANCH  22  23
ENDBRANCH  21  22
ENDBRANCH  20  21
ENDBRANCH  19  20
ENDBRANCH  18  19
ENDBRANCH  17  18
ENDBRANCH   1  17
TORSDOF 26
ENDMDL
MODEL 2
REMARK VINA RESULT:    -5.511      2.259      7.303
REMARK INTER + INTRA:         -17.752
REMARK INTER:                 -13.772
REMARK INTRA:                  -3.980
REMARK UNBOUND:                -3.865
REMARK SMILES CCCCCCCCCCCCCCCCCCCCCCCCCCCC(=O)[O-]
REMARK SMILES IDX 15 1 16 2 17 3 18 4 19 5 20 6 21 7 22 8 23 9 24 10 25 11
REMARK SMILES IDX 26 12 27 13 28 14 29 15 30 16 14 17 13 18 12 19 11 20 10 21
REMARK SMILES IDX 9 22 8 23 7 24 6 25 5 26 4 27 3 28 2 29 1 30
REMARK H PARENT
REMARK Flexibility Score: inf
ROOT
ATOM      1  C   UNL     1     250.831 259.321 246.890  1.00  0.00     0.000 C 
ENDROOT
BRANCH   1   2
ATOM      2  C   UNL     1     250.596 260.839 246.909  1.00  0.00     0.000 C 
BRANCH   2   3
ATOM      3  C   UNL     1     251.873 261.633 247.245  1.00  0.00     0.000 C 
BRANCH   3   4
ATOM      4  C   UNL     1     253.130 260.748 247.264  1.00  0.00     0.000 C 
BRANCH   4   5
ATOM      5  C   UNL     1     254.018 260.969 246.025  1.00  0.00     0.000 C 
BRANCH   5   6
ATOM      6  C   UNL     1     255.409 260.337 246.171  1.00  0.00     0.000 C 
BRANCH   6   7
ATOM      7  C   UNL     1     256.539 261.282 245.723  1.00  0.00     0.000 C 
BRANCH   7   8
ATOM      8  C   UNL     1     257.495 261.642 246.871  1.00  0.00     0.000 C 
BRANCH   8   9
ATOM      9  C   UNL     1     257.458 260.621 248.022  1.00  0.00     0.000 C 
BRANCH   9  10
ATOM     10  C   UNL     1     256.981 261.237 249.349  1.00  0.00     0.000 C 
BRANCH  10  11
ATOM     11  C   UNL     1     255.709 260.569 249.915  1.00  0.00     0.000 C 
BRANCH  11  12
ATOM     12  C   UNL     1     255.048 261.418 251.014  1.00  0.00     0.006 C 
BRANCH  12  13
ATOM     13  C   UNL     1     256.091 261.964 251.992  1.00  0.00     0.053 C 
BRANCH  13  14
ATOM     14  C   UNL     1     255.779 261.534 253.391  1.00  0.00     0.041 C 
ATOM     15  O   UNL     1     255.761 262.382 254.324  1.00  0.00    -0.550 OA
ATOM     16  O   UNL     1     255.553 260.194 253.674  1.00  0.00    -0.550 OA
ENDBRANCH  13  14
ENDBRANCH  12  13
ENDBRANCH  11  12
ENDBRANCH  10  11
ENDBRANCH   9  10
ENDBRANCH   8   9
ENDBRANCH   7   8
ENDBRANCH   6   7
ENDBRANCH   5   6
ENDBRANCH   4   5
ENDBRANCH   3   4
ENDBRANCH   2   3
ENDBRANCH   1   2
BRANCH   1  17
ATOM     17  C   UNL     1     249.610 258.532 247.397  1.00  0.00     0.000 C 
BRANCH  17  18
ATOM     18  C   UNL     1     248.685 258.076 246.258  1.00  0.00     0.000 C 
BRANCH  18  19
ATOM     19  C   UNL     1     248.481 256.550 246.232  1.00  0.00     0.000 C 
BRANCH  19  20
ATOM     20  C   UNL     1     249.578 255.804 247.011  1.00  0.00     0.000 C 
BRANCH  20  21
ATOM     21  C   UNL     1     250.240 254.690 246.180  1.00  0.00     0.000 C 
BRANCH  21  22
ATOM     22  C   UNL     1     251.327 255.240 245.241  1.00  0.00    -0.000 C 
BRANCH  22  23
ATOM     23  C   UNL     1     252.711 255.255 245.911  1.00  0.00    -0.000 C 
BRANCH  23  24
ATOM     24  C   UNL     1     253.180 256.668 246.298  1.00  0.00    -0.000 C 
BRANCH  24  25
ATOM     25  C   UNL     1     253.253 256.907 247.821  1.00  0.00    -0.000 C 
BRANCH  25  26
ATOM     26  C   UNL     1     254.611 257.491 248.253  1.00  0.00    -0.000 C 
BRANCH  26  27
ATOM     27  C   UNL     1     255.351 256.581 249.255  1.00  0.00    -0.000 C 
BRANCH  27  28
ATOM     28  C   UNL     1     256.646 255.962 248.699  1.00  0.00    -0.000 C 
BRANCH  28  29
ATOM     29  C   UNL     1     256.464 254.615 247.980  1.00  0.00    -0.003 C 
ATOM     30  C   UNL     1     255.228 253.847 248.451  1.00  0.00     0.004 C 
ENDBRANCH  28  29
ENDBRANCH  27  28
ENDBRANCH  26  27
ENDBRANCH  25  26
ENDBRANCH  24  25
ENDBRANCH  23  24
ENDBRANCH  22  23
ENDBRANCH  21  22
ENDBRANCH  20  21
ENDBRANCH  19  20
ENDBRANCH  18  19
ENDBRANCH  17  18
ENDBRANCH   1  17
TORSDOF 26
ENDMDL
MODEL 3
REMARK VINA RESULT:    -5.389      2.774      6.877
REMARK INTER + INTRA:         -17.446
REMARK INTER:                 -12.405
REMARK INTRA:                  -5.041
REMARK UNBOUND:                -3.865
REMARK SMILES CCCCCCCCCCCCCCCCCCCCCCCCCCCC(=O)[O-]
REMARK SMILES IDX 15 1 16 2 17 3 18 4 19 5 20 6 21 7 22 8 23 9 24 10 25 11
REMARK SMILES IDX 26 12 27 13 28 14 29 15 30 16 14 17 13 18 12 19 11 20 10 21
REMARK SMILES IDX 9 22 8 23 7 24 6 25 5 26 4 27 3 28 2 29 1 30
REMARK H PARENT
REMARK Flexibility Score: inf
ROOT
ATOM      1  C   UNL     1     253.183 257.357 248.756  1.00  0.00     0.000 C 
ENDROOT
BRANCH   1   2
ATOM      2  C   UNL     1     253.313 257.168 247.237  1.00  0.00     0.000 C 
BRANCH   2   3
ATOM      3  C   UNL     1     252.932 258.434 246.447  1.00  0.00     0.000 C 
BRANCH   3   4
ATOM      4  C   UNL     1     254.142 259.085 245.756  1.00  0.00     0.000 C 
BRANCH   4   5
ATOM      5  C   UNL     1     254.400 260.517 246.257  1.00  0.00     0.000 C 
BRANCH   5   6
ATOM      6  C   UNL     1     253.432 260.940 247.371  1.00  0.00     0.000 C 
BRANCH   6   7
ATOM      7  C   UNL     1     254.127 261.088 248.736  1.00  0.00     0.000 C 
BRANCH   7   8
ATOM      8  C   UNL     1     255.548 260.504 248.739  1.00  0.00     0.000 C 
BRANCH   8   9
ATOM      9  C   UNL     1     256.289 260.740 250.067  1.00  0.00     0.000 C 
BRANCH   9  10
ATOM     10  C   UNL     1     257.351 261.849 249.967  1.00  0.00     0.000 C 
BRANCH  10  11
ATOM     11  C   UNL     1     258.058 261.901 248.595  1.00  0.00     0.000 C 
BRANCH  11  12
ATOM     12  C   UNL     1     259.057 260.745 248.413  1.00  0.00     0.006 C 
BRANCH  12  13
ATOM     13  C   UNL     1     260.148 261.112 247.404  1.00  0.00     0.053 C 
BRANCH  13  14
ATOM     14  C   UNL     1     259.948 260.374 246.118  1.00  0.00     0.041 C 
ATOM     15  O   UNL     1     260.637 259.351 245.862  1.00  0.00    -0.550 OA
ATOM     16  O   UNL     1     259.033 260.840 245.183  1.00  0.00    -0.550 OA
ENDBRANCH  13  14
ENDBRANCH  12  13
ENDBRANCH  11  12
ENDBRANCH  10  11
ENDBRANCH   9  10
ENDBRANCH   8   9
ENDBRANCH   7   8
ENDBRANCH   6   7
ENDBRANCH   5   6
ENDBRANCH   4   5
ENDBRANCH   3   4
ENDBRANCH   2   3
ENDBRANCH   1   2
BRANCH   1  17
ATOM     17  C   UNL     1     254.510 257.101 249.494  1.00  0.00     0.000 C 
BRANCH  17  18
ATOM     18  C   UNL     1     255.667 256.772 248.537  1.00  0.00     0.000 C 
BRANCH  18  19
ATOM     19  C   UNL     1     256.639 255.728 249.116  1.00  0.00     0.000 C 
BRANCH  19  20
ATOM     20  C   UNL     1     256.530 254.372 248.398  1.00  0.00     0.000 C 
BRANCH  20  21
ATOM     21  C   UNL     1     255.475 254.379 247.277  1.00  0.00     0.000 C 
BRANCH  21  22
ATOM     22  C   UNL     1     254.245 253.528 247.635  1.00  0.00    -0.000 C 
BRANCH  22  23
ATOM     23  C   UNL     1     254.346 252.942 249.054  1.00  0.00    -0.000 C 
BRANCH  23  24
ATOM     24  C   UNL     1     253.315 253.536 250.028  1.00  0.00    -0.000 C 
BRANCH  24  25
ATOM     25  C   UNL     1     253.923 254.026 251.360  1.00  0.00    -0.000 C 
BRANCH  25  26
ATOM     26  C   UNL     1     255.255 253.325 251.683  1.00  0.00    -0.000 C 
BRANCH  26  27
ATOM     27  C   UNL     1     256.153 254.166 252.613  1.00  0.00    -0.000 C 
BRANCH  27  28
ATOM     28  C   UNL     1     255.508 255.485 253.079  1.00  0.00    -0.000 C 
BRANCH  28  29
ATOM     29  C   UNL     1     256.315 256.752 252.754  1.00  0.00    -0.003 C 
ATOM     30  C   UNL     1     255.502 258.038 252.916  1.00  0.00     0.004 C 
ENDBRANCH  28  29
ENDBRANCH  27  28
ENDBRANCH  26  27
ENDBRANCH  25  26
ENDBRANCH  24  25
ENDBRANCH  23  24
ENDBRANCH  22  23
ENDBRANCH  21  22
ENDBRANCH  20  21
ENDBRANCH  19  20
ENDBRANCH  18  19
ENDBRANCH  17  18
ENDBRANCH   1  17
TORSDOF 26
ENDMDL
MODEL 4
REMARK VINA RESULT:    -5.374      2.531      8.160
REMARK INTER + INTRA:         -17.408
REMARK INTER:                 -14.622
REMARK INTRA:                  -2.786
REMARK UNBOUND:                -3.865
REMARK SMILES CCCCCCCCCCCCCCCCCCCCCCCCCCCC(=O)[O-]
REMARK SMILES IDX 15 1 16 2 17 3 18 4 19 5 20 6 21 7 22 8 23 9 24 10 25 11
REMARK SMILES IDX 26 12 27 13 28 14 29 15 30 16 14 17 13 18 12 19 11 20 10 21
REMARK SMILES IDX 9 22 8 23 7 24 6 25 5 26 4 27 3 28 2 29 1 30
REMARK H PARENT
REMARK Flexibility Score: inf
ROOT
ATOM      1  C   UNL     1     256.247 261.353 245.964  1.00  0.00     0.000 C 
ENDROOT
BRANCH   1   2
ATOM      2  C   UNL     1     256.986 260.879 244.703  1.00  0.00     0.000 C 
BRANCH   2   3
ATOM      3  C   UNL     1     258.402 261.473 244.587  1.00  0.00     0.000 C 
BRANCH   3   4
ATOM      4  C   UNL     1     259.035 261.763 245.959  1.00  0.00     0.000 C 
BRANCH   4   5
ATOM      5  C   UNL     1     259.594 260.492 246.623  1.00  0.00     0.000 C 
BRANCH   5   6
ATOM      6  C   UNL     1     259.807 260.656 248.135  1.00  0.00     0.000 C 
BRANCH   6   7
ATOM      7  C   UNL     1     260.280 262.070 248.517  1.00  0.00     0.000 C 
BRANCH   7   8
ATOM      8  C   UNL     1     259.656 262.564 249.832  1.00  0.00     0.000 C 
BRANCH   8   9
ATOM      9  C   UNL     1     258.160 262.899 249.695  1.00  0.00     0.000 C 
BRANCH   9  10
ATOM     10  C   UNL     1     257.279 262.100 250.671  1.00  0.00     0.000 C 
BRANCH  10  11
ATOM     11  C   UNL     1     256.235 261.207 249.965  1.00  0.00     0.000 C 
BRANCH  11  12
ATOM     12  C   UNL     1     255.021 260.915 250.863  1.00  0.00     0.006 C 
BRANCH  12  13
ATOM     13  C   UNL     1     254.716 262.102 251.782  1.00  0.00     0.053 C 
BRANCH  13  14
ATOM     14  C   UNL     1     254.478 261.636 253.184  1.00  0.00     0.041 C 
ATOM     15  O   UNL     1     254.825 262.357 254.157  1.00  0.00    -0.550 OA
ATOM     16  O   UNL     1     253.914 260.389 253.417  1.00  0.00    -0.550 OA
ENDBRANCH  13  14
ENDBRANCH  12  13
ENDBRANCH  11  12
ENDBRANCH  10  11
ENDBRANCH   9  10
ENDBRANCH   8   9
ENDBRANCH   7   8
ENDBRANCH   6   7
ENDBRANCH   5   6
ENDBRANCH   4   5
ENDBRANCH   3   4
ENDBRANCH   2   3
ENDBRANCH   1   2
BRANCH   1  17
ATOM     17  C   UNL     1     254.723 261.165 245.857  1.00  0.00     0.000 C 
BRANCH  17  18
ATOM     18  C   UNL     1     254.071 260.820 247.205  1.00  0.00     0.000 C 
BRANCH  18  19
ATOM     19  C   UNL     1     253.120 259.614 247.115  1.00  0.00     0.000 C 
BRANCH  19  20
ATOM     20  C   UNL     1     253.776 258.407 246.421  1.00  0.00     0.000 C 
BRANCH  20  21
ATOM     21  C   UNL     1     253.402 257.069 247.084  1.00  0.00     0.000 C 
BRANCH  21  22
ATOM     22  C   UNL     1     252.666 256.130 246.113  1.00  0.00    -0.000 C 
BRANCH  22  23
ATOM     23  C   UNL     1     251.269 255.747 246.633  1.00  0.00    -0.000 C 
BRANCH  23  24
ATOM     24  C   UNL     1     250.795 256.633 247.797  1.00  0.00    -0.000 C 
BRANCH  24  25
ATOM     25  C   UNL     1     249.378 257.214 247.603  1.00  0.00    -0.000 C 
BRANCH  25  26
ATOM     26  C   UNL     1     249.358 258.372 246.589  1.00  0.00    -0.000 C 
BRANCH  26  27
ATOM     27  C   UNL     1     249.908 259.685 247.183  1.00  0.00    -0.000 C 
BRANCH  27  28
ATOM     28  C   UNL     1     249.214 260.951 246.649  1.00  0.00    -0.000 C 
BRANCH  28  29
ATOM     29  C   UNL     1     250.020 262.251 246.812  1.00  0.00    -0.003 C 
ATOM     30  C   UNL     1     249.624 263.331 245.804  1.00  0.00     0.004 C 
ENDBRANCH  28  29
ENDBRANCH  27  28
ENDBRANCH  26  27
ENDBRANCH  25  26
ENDBRANCH  24  25
ENDBRANCH  23  24
ENDBRANCH  22  23
ENDBRANCH  21  22
ENDBRANCH  20  21
ENDBRANCH  19  20
ENDBRANCH  18  19
ENDBRANCH  17  18
ENDBRANCH   1  17
TORSDOF 26
ENDMDL
MODEL 5
REMARK VINA RESULT:    -5.355      2.619      7.881
REMARK INTER + INTRA:         -17.359
REMARK INTER:                 -13.586
REMARK INTRA:                  -3.773
REMARK UNBOUND:                -3.865
REMARK SMILES CCCCCCCCCCCCCCCCCCCCCCCCCCCC(=O)[O-]
REMARK SMILES IDX 15 1 16 2 17 3 18 4 19 5 20 6 21 7 22 8 23 9 24 10 25 11
REMARK SMILES IDX 26 12 27 13 28 14 29 15 30 16 14 17 13 18 12 19 11 20 10 21
REMARK SMILES IDX 9 22 8 23 7 24 6 25 5 26 4 27 3 28 2 29 1 30
REMARK H PARENT
REMARK Flexibility Score: inf
ROOT
ATOM      1  C   UNL     1     252.097 259.848 247.171  1.00  0.00     0.000 C 
ENDROOT
BRANCH   1   2
ATOM      2  C   UNL     1     253.029 258.706 246.736  1.00  0.00     0.000 C 
BRANCH   2   3
ATOM      3  C   UNL     1     254.134 259.177 245.773  1.00  0.00     0.000 C 
BRANCH   3   4
ATOM      4  C   UNL     1     254.592 260.618 246.058  1.00  0.00     0.000 C 
BRANCH   4   5
ATOM      5  C   UNL     1     255.962 260.929 245.430  1.00  0.00     0.000 C 
BRANCH   5   6
ATOM      6  C   UNL     1     256.980 261.452 246.454  1.00  0.00     0.000 C 
BRANCH   6   7
ATOM      7  C   UNL     1     257.108 260.536 247.685  1.00  0.00     0.000 C 
BRANCH   7   8
ATOM      8  C   UNL     1     257.265 261.326 248.993  1.00  0.00     0.000 C 
BRANCH   8   9
ATOM      9  C   UNL     1     256.133 261.050 249.998  1.00  0.00     0.000 C 
BRANCH   9  10
ATOM     10  C   UNL     1     255.307 259.804 249.636  1.00  0.00     0.000 C 
BRANCH  10  11
ATOM     11  C   UNL     1     254.874 258.976 250.865  1.00  0.00     0.000 C 
BRANCH  11  12
ATOM     12  C   UNL     1     255.391 259.580 252.183  1.00  0.00     0.006 C 
BRANCH  12  13
ATOM     13  C   UNL     1     254.234 260.071 253.056  1.00  0.00     0.053 C 
BRANCH  13  14
ATOM     14  C   UNL     1     254.310 261.552 253.251  1.00  0.00     0.041 C 
ATOM     15  O   UNL     1     253.962 262.331 252.324  1.00  0.00    -0.550 OA
ATOM     16  O   UNL     1     254.808 262.074 254.438  1.00  0.00    -0.550 OA
ENDBRANCH  13  14
ENDBRANCH  12  13
ENDBRANCH  11  12
ENDBRANCH  10  11
ENDBRANCH   9  10
ENDBRANCH   8   9
ENDBRANCH   7   8
ENDBRANCH   6   7
ENDBRANCH   5   6
ENDBRANCH   4   5
ENDBRANCH   3   4
ENDBRANCH   2   3
ENDBRANCH   1   2
BRANCH   1  17
ATOM     17  C   UNL     1     250.611 259.496 246.983  1.00  0.00     0.000 C 
BRANCH  17  18
ATOM     18  C   UNL     1     249.712 260.740 246.896  1.00  0.00     0.000 C 
BRANCH  18  19
ATOM     19  C   UNL     1     248.567 260.577 245.881  1.00  0.00     0.000 C 
BRANCH  19  20
ATOM     20  C   UNL     1     247.795 259.261 246.082  1.00  0.00     0.000 C 
BRANCH  20  21
ATOM     21  C   UNL     1     247.284 258.666 244.757  1.00  0.00     0.000 C 
BRANCH  21  22
ATOM     22  C   UNL     1     247.604 257.167 244.635  1.00  0.00    -0.000 C 
BRANCH  22  23
ATOM     23  C   UNL     1     248.484 256.671 245.795  1.00  0.00    -0.000 C 
BRANCH  23  24
ATOM     24  C   UNL     1     249.837 256.110 245.329  1.00  0.00    -0.000 C 
BRANCH  24  25
ATOM     25  C   UNL     1     250.611 255.352 246.430  1.00  0.00    -0.000 C 
BRANCH  25  26
ATOM     26  C   UNL     1     252.109 255.217 246.099  1.00  0.00    -0.000 C 
BRANCH  26  27
ATOM     27  C   UNL     1     252.918 254.618 247.267  1.00  0.00    -0.000 C 
BRANCH  27  28
ATOM     28  C   UNL     1     253.023 255.543 248.494  1.00  0.00    -0.000 C 
BRANCH  28  29
ATOM     29  C   UNL     1     254.424 255.632 249.121  1.00  0.00    -0.003 C 
ATOM     30  C   UNL     1     255.451 256.296 248.200  1.00  0.00     0.004 C 
ENDBRANCH  28  29
ENDBRANCH  27  28
ENDBRANCH  26  27
ENDBRANCH  25  26
ENDBRANCH  24  25
ENDBRANCH  23  24
ENDBRANCH  22  23
ENDBRANCH  21  22
ENDBRANCH  20  21
ENDBRANCH  19  20
ENDBRANCH  18  19
ENDBRANCH  17  18
ENDBRANCH   1  17
TORSDOF 26
ENDMDL
MODEL 6
REMARK VINA RESULT:    -5.340      3.532      6.660
REMARK INTER + INTRA:         -17.320
REMARK INTER:                 -12.291
REMARK INTRA:                  -5.030
REMARK UNBOUND:                -3.865
REMARK SMILES CCCCCCCCCCCCCCCCCCCCCCCCCCCC(=O)[O-]
REMARK SMILES IDX 15 1 16 2 17 3 18 4 19 5 20 6 21 7 22 8 23 9 24 10 25 11
REMARK SMILES IDX 26 12 27 13 28 14 29 15 30 16 14 17 13 18 12 19 11 20 10 21
REMARK SMILES IDX 9 22 8 23 7 24 6 25 5 26 4 27 3 28 2 29 1 30
REMARK H PARENT
REMARK Flexibility Score: inf
ROOT
ATOM      1  C   UNL     1     254.794 260.681 249.097  1.00  0.00     0.000 C 
ENDROOT
BRANCH   1   2
ATOM      2  C   UNL     1     254.067 260.829 247.751  1.00  0.00     0.000 C 
BRANCH   2   3
ATOM      3  C   UNL     1     254.721 259.998 246.631  1.00  0.00     0.000 C 
BRANCH   3   4
ATOM      4  C   UNL     1     253.744 258.997 245.991  1.00  0.00     0.000 C 
BRANCH   4   5
ATOM      5  C   UNL     1     252.503 258.751 246.869  1.00  0.00     0.000 C 
BRANCH   5   6
ATOM      6  C   UNL     1     252.213 257.259 247.083  1.00  0.00     0.000 C 
BRANCH   6   7
ATOM      7  C   UNL     1     253.019 256.356 246.132  1.00  0.00     0.000 C 
BRANCH   7   8
ATOM      8  C   UNL     1     252.164 255.235 245.520  1.00  0.00     0.000 C 
BRANCH   8   9
ATOM      9  C   UNL     1     250.664 255.576 245.490  1.00  0.00     0.000 C 
BRANCH   9  10
ATOM     10  C   UNL     1     249.806 254.560 246.264  1.00  0.00     0.000 C 
BRANCH  10  11
ATOM     11  C   UNL     1     248.968 255.198 247.393  1.00  0.00     0.000 C 
BRANCH  11  12
ATOM     12  C   UNL     1     247.810 256.049 246.845  1.00  0.00     0.006 C 
BRANCH  12  13
ATOM     13  C   UNL     1     248.199 257.528 246.771  1.00  0.00     0.053 C 
BRANCH  13  14
ATOM     14  C   UNL     1     247.691 258.145 245.506  1.00  0.00     0.041 C 
ATOM     15  O   UNL     1     247.323 259.350 245.493  1.00  0.00    -0.550 OA
ATOM     16  O   UNL     1     247.581 257.379 244.353  1.00  0.00    -0.550 OA
ENDBRANCH  13  14
ENDBRANCH  12  13
ENDBRANCH  11  12
ENDBRANCH  10  11
ENDBRANCH   9  10
ENDBRANCH   8   9
ENDBRANCH   7   8
ENDBRANCH   6   7
ENDBRANCH   5   6
ENDBRANCH   4   5
ENDBRANCH   3   4
ENDBRANCH   2   3
ENDBRANCH   1   2
BRANCH   1  17
ATOM     17  C   UNL     1     255.494 259.318 249.238  1.00  0.00     0.000 C 
BRANCH  17  18
ATOM     18  C   UNL     1     254.628 258.278 249.966  1.00  0.00     0.000 C 
BRANCH  18  19
ATOM     19  C   UNL     1     255.239 256.866 249.932  1.00  0.00     0.000 C 
BRANCH  19  20
ATOM     20  C   UNL     1     255.781 256.501 248.539  1.00  0.00     0.000 C 
BRANCH  20  21
ATOM     21  C   UNL     1     256.195 255.022 248.435  1.00  0.00     0.000 C 
BRANCH  21  22
ATOM     22  C   UNL     1     255.123 254.170 247.735  1.00  0.00    -0.000 C 
BRANCH  22  23
ATOM     23  C   UNL     1     254.632 253.017 248.628  1.00  0.00    -0.000 C 
BRANCH  23  24
ATOM     24  C   UNL     1     253.126 252.743 248.487  1.00  0.00    -0.000 C 
BRANCH  24  25
ATOM     25  C   UNL     1     252.232 253.920 248.932  1.00  0.00    -0.000 C 
BRANCH  25  26
ATOM     26  C   UNL     1     252.614 254.444 250.329  1.00  0.00    -0.000 C 
BRANCH  26  27
ATOM     27  C   UNL     1     252.410 253.384 251.431  1.00  0.00    -0.000 C 
BRANCH  27  28
ATOM     28  C   UNL     1     253.718 252.914 252.096  1.00  0.00    -0.000 C 
BRANCH  28  29
ATOM     29  C   UNL     1     254.777 254.012 252.290  1.00  0.00    -0.003 C 
ATOM     30  C   UNL     1     256.208 253.503 252.099  1.00  0.00     0.004 C 
ENDBRANCH  28  29
ENDBRANCH  27  28
ENDBRANCH  26  27
ENDBRANCH  25  26
ENDBRANCH  24  25
ENDBRANCH  23  24
ENDBRANCH  22  23
ENDBRANCH  21  22
ENDBRANCH  20  21
ENDBRANCH  19  20
ENDBRANCH  18  19
ENDBRANCH  17  18
ENDBRANCH   1  17
TORSDOF 26
ENDMDL
MODEL 7
REMARK VINA RESULT:    -5.306      2.739      7.577
REMARK INTER + INTRA:         -17.237
REMARK INTER:                 -13.057
REMARK INTRA:                  -4.180
REMARK UNBOUND:                -3.865
REMARK SMILES CCCCCCCCCCCCCCCCCCCCCCCCCCCC(=O)[O-]
REMARK SMILES IDX 15 1 16 2 17 3 18 4 19 5 20 6 21 7 22 8 23 9 24 10 25 11
REMARK SMILES IDX 26 12 27 13 28 14 29 15 30 16 14 17 13 18 12 19 11 20 10 21
REMARK SMILES IDX 9 22 8 23 7 24 6 25 5 26 4 27 3 28 2 29 1 30
REMARK H PARENT
REMARK Flexibility Score: inf
ROOT
ATOM      1  C   UNL     1     256.769 254.132 248.702  1.00  0.00     0.000 C 
ENDROOT
BRANCH   1   2
ATOM      2  C   UNL     1     256.771 255.664 248.819  1.00  0.00     0.000 C 
BRANCH   2   3
ATOM      3  C   UNL     1     255.509 256.306 248.214  1.00  0.00     0.000 C 
BRANCH   3   4
ATOM      4  C   UNL     1     254.673 257.063 249.260  1.00  0.00     0.000 C 
BRANCH   4   5
ATOM      5  C   UNL     1     253.398 257.676 248.654  1.00  0.00     0.000 C 
BRANCH   5   6
ATOM      6  C   UNL     1     253.308 257.479 247.134  1.00  0.00     0.000 C 
BRANCH   6   7
ATOM      7  C   UNL     1     252.994 258.786 246.384  1.00  0.00     0.000 C 
BRANCH   7   8
ATOM      8  C   UNL     1     254.190 259.296 245.565  1.00  0.00     0.000 C 
BRANCH   8   9
ATOM      9  C   UNL     1     254.621 260.719 245.960  1.00  0.00     0.000 C 
BRANCH   9  10
ATOM     10  C   UNL     1     254.822 260.882 247.476  1.00  0.00     0.000 C 
BRANCH  10  11
ATOM     11  C   UNL     1     256.163 260.308 247.983  1.00  0.00     0.000 C 
BRANCH  11  12
ATOM     12  C   UNL     1     256.333 260.486 249.502  1.00  0.00     0.006 C 
BRANCH  12  13
ATOM     13  C   UNL     1     255.013 260.897 250.160  1.00  0.00     0.053 C 
BRANCH  13  14
ATOM     14  C   UNL     1     255.267 261.677 251.411  1.00  0.00     0.041 C 
ATOM     15  O   UNL     1     256.346 262.311 251.554  1.00  0.00    -0.550 OA
ATOM     16  O   UNL     1     254.333 261.668 252.439  1.00  0.00    -0.550 OA
ENDBRANCH  13  14
ENDBRANCH  12  13
ENDBRANCH  11  12
ENDBRANCH  10  11
ENDBRANCH   9  10
ENDBRANCH   8   9
ENDBRANCH   7   8
ENDBRANCH   6   7
ENDBRANCH   5   6
ENDBRANCH   4   5
ENDBRANCH   3   4
ENDBRANCH   2   3
ENDBRANCH   1   2
BRANCH   1  17
ATOM     17  C   UNL     1     255.999 253.458 249.852  1.00  0.00     0.000 C 
BRANCH  17  18
ATOM     18  C   UNL     1     254.788 252.648 249.361  1.00  0.00     0.000 C 
BRANCH  18  19
ATOM     19  C   UNL     1     253.474 253.073 250.039  1.00  0.00     0.000 C 
BRANCH  19  20
ATOM     20  C   UNL     1     252.617 253.975 249.133  1.00  0.00     0.000 C 
BRANCH  20  21
ATOM     21  C   UNL     1     252.880 253.731 247.636  1.00  0.00     0.000 C 
BRANCH  21  22
ATOM     22  C   UNL     1     251.614 253.933 246.787  1.00  0.00    -0.000 C 
BRANCH  22  23
ATOM     23  C   UNL     1     251.819 254.994 245.693  1.00  0.00    -0.000 C 
BRANCH  23  24
ATOM     24  C   UNL     1     250.544 255.282 244.884  1.00  0.00    -0.000 C 
BRANCH  24  25
ATOM     25  C   UNL     1     249.494 256.117 245.648  1.00  0.00    -0.000 C 
BRANCH  25  26
ATOM     26  C   UNL     1     249.763 256.144 247.163  1.00  0.00    -0.000 C 
BRANCH  26  27
ATOM     27  C   UNL     1     249.760 257.575 247.737  1.00  0.00    -0.000 C 
BRANCH  27  28
ATOM     28  C   UNL     1     249.208 258.636 246.767  1.00  0.00    -0.000 C 
BRANCH  28  29
ATOM     29  C   UNL     1     249.619 260.083 247.085  1.00  0.00    -0.003 C 
ATOM     30  C   UNL     1     248.918 261.114 246.198  1.00  0.00     0.004 C 
ENDBRANCH  28  29
ENDBRANCH  27  28
ENDBRANCH  26  27
ENDBRANCH  25  26
ENDBRANCH  24  25
ENDBRANCH  23  24
ENDBRANCH  22  23
ENDBRANCH  21  22
ENDBRANCH  20  21
ENDBRANCH  19  20
ENDBRANCH  18  19
ENDBRANCH  17  18
ENDBRANCH   1  17
TORSDOF 26
ENDMDL
MODEL 8
REMARK VINA RESULT:    -5.281      2.736      4.901
REMARK INTER + INTRA:         -17.174
REMARK INTER:                 -12.509
REMARK INTRA:                  -4.665
REMARK UNBOUND:                -3.865
REMARK SMILES CCCCCCCCCCCCCCCCCCCCCCCCCCCC(=O)[O-]
REMARK SMILES IDX 15 1 16 2 17 3 18 4 19 5 20 6 21 7 22 8 23 9 24 10 25 11
REMARK SMILES IDX 26 12 27 13 28 14 29 15 30 16 14 17 13 18 12 19 11 20 10 21
REMARK SMILES IDX 9 22 8 23 7 24 6 25 5 26 4 27 3 28 2 29 1 30
REMARK H PARENT
REMARK Flexibility Score: inf
ROOT
ATOM      1  C   UNL     1     252.831 257.209 246.781  1.00  0.00     0.000 C 
ENDROOT
BRANCH   1   2
ATOM      2  C   UNL     1     251.958 258.173 247.600  1.00  0.00     0.000 C 
BRANCH   2   3
ATOM      3  C   UNL     1     250.656 258.556 246.873  1.00  0.00     0.000 C 
BRANCH   3   4
ATOM      4  C   UNL     1     249.412 257.918 247.513  1.00  0.00     0.000 C 
BRANCH   4   5
ATOM      5  C   UNL     1     248.580 257.115 246.497  1.00  0.00     0.000 C 
BRANCH   5   6
ATOM      6  C   UNL     1     249.445 256.226 245.592  1.00  0.00     0.000 C 
BRANCH   6   7
ATOM      7  C   UNL     1     249.619 254.803 246.150  1.00  0.00     0.000 C 
BRANCH   7   8
ATOM      8  C   UNL     1     248.486 254.404 247.108  1.00  0.00     0.000 C 
BRANCH   8   9
ATOM      9  C   UNL     1     248.921 253.353 248.144  1.00  0.00     0.000 C 
BRANCH   9  10
ATOM     10  C   UNL     1     250.418 253.011 248.053  1.00  0.00     0.000 C 
BRANCH  10  11
ATOM     11  C   UNL     1     250.936 252.191 249.255  1.00  0.00     0.000 C 
BRANCH  11  12
ATOM     12  C   UNL     1     252.047 252.927 250.023  1.00  0.00     0.006 C 
BRANCH  12  13
ATOM     13  C   UNL     1     253.168 251.965 250.426  1.00  0.00     0.053 C 
BRANCH  13  14
ATOM     14  C   UNL     1     253.255 251.849 251.915  1.00  0.00     0.041 C 
ATOM     15  O   UNL     1     253.744 252.790 252.596  1.00  0.00    -0.550 OA
ATOM     16  O   UNL     1     252.840 250.685 252.548  1.00  0.00    -0.550 OA
ENDBRANCH  13  14
ENDBRANCH  12  13
ENDBRANCH  11  12
ENDBRANCH  10  11
ENDBRANCH   9  10
ENDBRANCH   8   9
ENDBRANCH   7   8
ENDBRANCH   6   7
ENDBRANCH   5   6
ENDBRANCH   4   5
ENDBRANCH   3   4
ENDBRANCH   2   3
ENDBRANCH   1   2
BRANCH   1  17
ATOM     17  C   UNL     1     252.902 255.805 247.409  1.00  0.00     0.000 C 
BRANCH  17  18
ATOM     18  C   UNL     1     253.201 254.707 246.375  1.00  0.00     0.000 C 
BRANCH  18  19
ATOM     19  C   UNL     1     254.316 253.749 246.830  1.00  0.00     0.000 C 
BRANCH  19  20
ATOM     20  C   UNL     1     254.976 254.206 248.142  1.00  0.00     0.000 C 
BRANCH  20  21
ATOM     21  C   UNL     1     256.479 254.495 247.979  1.00  0.00     0.000 C 
BRANCH  21  22
ATOM     22  C   UNL     1     256.949 255.642 248.890  1.00  0.00    -0.000 C 
BRANCH  22  23
ATOM     23  C   UNL     1     256.032 256.872 248.784  1.00  0.00    -0.000 C 
BRANCH  23  24
ATOM     24  C   UNL     1     255.371 257.250 250.121  1.00  0.00    -0.000 C 
BRANCH  24  25
ATOM     25  C   UNL     1     254.514 258.532 250.053  1.00  0.00    -0.000 C 
BRANCH  25  26
ATOM     26  C   UNL     1     255.375 259.808 250.076  1.00  0.00    -0.000 C 
BRANCH  26  27
ATOM     27  C   UNL     1     255.002 260.789 248.945  1.00  0.00    -0.000 C 
BRANCH  27  28
ATOM     28  C   UNL     1     255.315 260.263 247.532  1.00  0.00    -0.000 C 
BRANCH  28  29
ATOM     29  C   UNL     1     254.344 260.732 246.436  1.00  0.00    -0.003 C 
ATOM     30  C   UNL     1     254.588 260.049 245.088  1.00  0.00     0.004 C 
ENDBRANCH  28  29
ENDBRANCH  27  28
ENDBRANCH  26  27
ENDBRANCH  25  26
ENDBRANCH  24  25
ENDBRANCH  23  24
ENDBRANCH  22  23
ENDBRANCH  21  22
ENDBRANCH  20  21
ENDBRANCH  19  20
ENDBRANCH  18  19
ENDBRANCH  17  18
ENDBRANCH   1  17
TORSDOF 26
ENDMDL
MODEL 9
REMARK VINA RESULT:    -5.258      2.353      7.201
REMARK INTER + INTRA:         -17.114
REMARK INTER:                 -12.752
REMARK INTRA:                  -4.362
REMARK UNBOUND:                -3.865
REMARK SMILES CCCCCCCCCCCCCCCCCCCCCCCCCCCC(=O)[O-]
REMARK SMILES IDX 15 1 16 2 17 3 18 4 19 5 20 6 21 7 22 8 23 9 24 10 25 11
REMARK SMILES IDX 26 12 27 13 28 14 29 15 30 16 14 17 13 18 12 19 11 20 10 21
REMARK SMILES IDX 9 22 8 23 7 24 6 25 5 26 4 27 3 28 2 29 1 30
REMARK H PARENT
REMARK Flexibility Score: inf
ROOT
ATOM      1  C   UNL     1     251.245 258.436 247.145  1.00  0.00     0.000 C 
ENDROOT
BRANCH   1   2
ATOM      2  C   UNL     1     252.415 257.740 247.858  1.00  0.00     0.000 C 
BRANCH   2   3
ATOM      3  C   UNL     1     253.620 257.505 246.927  1.00  0.00     0.000 C 
BRANCH   3   4
ATOM      4  C   UNL     1     253.695 258.534 245.787  1.00  0.00     0.000 C 
BRANCH   4   5
ATOM      5  C   UNL     1     254.601 259.728 246.137  1.00  0.00     0.000 C 
BRANCH   5   6
ATOM      6  C   UNL     1     253.807 260.992 246.496  1.00  0.00     0.000 C 
BRANCH   6   7
ATOM      7  C   UNL     1     253.736 261.236 248.014  1.00  0.00     0.000 C 
BRANCH   7   8
ATOM      8  C   UNL     1     254.724 260.358 248.798  1.00  0.00     0.000 C 
BRANCH   8   9
ATOM      9  C   UNL     1     255.473 261.134 249.895  1.00  0.00     0.000 C 
BRANCH   9  10
ATOM     10  C   UNL     1     256.970 261.307 249.586  1.00  0.00     0.000 C 
BRANCH  10  11
ATOM     11  C   UNL     1     257.443 260.489 248.363  1.00  0.00     0.000 C 
BRANCH  11  12
ATOM     12  C   UNL     1     258.886 260.834 247.958  1.00  0.00     0.006 C 
BRANCH  12  13
ATOM     13  C   UNL     1     258.920 262.028 247.000  1.00  0.00     0.053 C 
BRANCH  13  14
ATOM     14  C   UNL     1     258.286 261.673 245.692  1.00  0.00     0.041 C 
ATOM     15  O   UNL     1     258.870 260.887 244.898  1.00  0.00    -0.550 OA
ATOM     16  O   UNL     1     257.073 262.243 245.328  1.00  0.00    -0.550 OA
ENDBRANCH  13  14
ENDBRANCH  12  13
ENDBRANCH  11  12
ENDBRANCH  10  11
ENDBRANCH   9  10
ENDBRANCH   8   9
ENDBRANCH   7   8
ENDBRANCH   6   7
ENDBRANCH   5   6
ENDBRANCH   4   5
ENDBRANCH   3   4
ENDBRANCH   2   3
ENDBRANCH   1   2
BRANCH   1  17
ATOM     17  C   UNL     1     249.878 257.880 247.582  1.00  0.00     0.000 C 
BRANCH  17  18
ATOM     18  C   UNL     1     248.966 257.544 246.391  1.00  0.00     0.000 C 
BRANCH  18  19
ATOM     19  C   UNL     1     249.295 256.180 245.756  1.00  0.00     0.000 C 
BRANCH  19  20
ATOM     20  C   UNL     1     248.916 255.005 246.674  1.00  0.00     0.000 C 
BRANCH  20  21
ATOM     21  C   UNL     1     250.148 254.284 247.251  1.00  0.00     0.000 C 
BRANCH  21  22
ATOM     22  C   UNL     1     251.410 254.535 246.409  1.00  0.00    -0.000 C 
BRANCH  22  23
ATOM     23  C   UNL     1     252.583 253.646 246.855  1.00  0.00    -0.000 C 
BRANCH  23  24
ATOM     24  C   UNL     1     253.227 254.110 248.173  1.00  0.00    -0.000 C 
BRANCH  24  25
ATOM     25  C   UNL     1     254.677 253.616 248.368  1.00  0.00    -0.000 C 
BRANCH  25  26
ATOM     26  C   UNL     1     255.697 254.505 247.634  1.00  0.00    -0.000 C 
BRANCH  26  27
ATOM     27  C   UNL     1     256.426 255.475 248.586  1.00  0.00    -0.000 C 
BRANCH  27  28
ATOM     28  C   UNL     1     256.451 255.009 250.054  1.00  0.00    -0.000 C 
BRANCH  28  29
ATOM     29  C   UNL     1     255.667 255.901 251.031  1.00  0.00    -0.003 C 
ATOM     30  C   UNL     1     255.105 257.162 250.371  1.00  0.00     0.004 C 
ENDBRANCH  28  29
ENDBRANCH  27  28
ENDBRANCH  26  27
ENDBRANCH  25  26
ENDBRANCH  24  25
ENDBRANCH  23  24
ENDBRANCH  22  23
ENDBRANCH  21  22
ENDBRANCH  20  21
ENDBRANCH  19  20
ENDBRANCH  18  19
ENDBRANCH  17  18
ENDBRANCH   1  17
TORSDOF 26
ENDMDL
