MODEL 1
REMARK VINA RESULT:    -1.567      0.000      0.000
REMARK INTER + INTRA:          -6.112
REMARK INTER:                  -3.949
REMARK INTRA:                  -2.163
REMARK UNBOUND:                -2.163
REMARK SMILES CCCCCCCCCCCCCCCCCCCCCCCCCCCC(=O)[O-]
REMARK SMILES IDX 15 1 16 2 17 3 18 4 19 5 20 6 21 7 22 8 23 9 24 10 25 11
REMARK SMILES IDX 26 12 27 13 28 14 29 15 30 16 14 17 13 18 12 19 11 20 10 21
REMARK SMILES IDX 9 22 8 23 7 24 6 25 5 26 4 27 3 28 2 29 1 30
REMARK H PARENT
REMARK Flexibility Score: inf
ROOT
ATOM      1  C   UNL     1     -10.955  -4.645  -4.514  1.00  0.00     0.000 C 
ENDROOT
BRANCH   1   2
ATOM      2  C   UNL     1     -10.846  -4.077  -3.087  1.00  0.00     0.000 C 
BRANCH   2   3
ATOM      3  C   UNL     1      -9.476  -4.337  -2.442  1.00  0.00     0.000 C 
BRANCH   3   4
ATOM      4  C   UNL     1      -8.584  -3.088  -2.535  1.00  0.00     0.000 C 
BRANCH   4   5
ATOM      5  C   UNL     1      -8.131  -2.577  -1.152  1.00  0.00     0.000 C 
BRANCH   5   6
ATOM      6  C   UNL     1      -8.237  -1.049  -0.982  1.00  0.00     0.000 C 
BRANCH   6   7
ATOM      7  C   UNL     1      -7.012  -0.251  -1.461  1.00  0.00     0.000 C 
BRANCH   7   8
ATOM      8  C   UNL     1      -7.024   1.207  -0.979  1.00  0.00     0.000 C 
BRANCH   8   9
ATOM      9  C   UNL     1      -8.417   1.612  -0.476  1.00  0.00     0.000 C 
BRANCH   9  10
ATOM     10  C   UNL     1      -8.648   3.136  -0.579  1.00  0.00     0.000 C 
BRANCH  10  11
ATOM     11  C   UNL     1      -8.537   3.867   0.770  1.00  0.00     0.000 C 
BRANCH  11  12
ATOM     12  C   UNL     1      -8.715   5.389   0.639  1.00  0.00     0.006 C 
BRANCH  12  13
ATOM     13  C   UNL     1      -8.951   5.822  -0.814  1.00  0.00     0.053 C 
BRANCH  13  14
ATOM     14  C   UNL     1      -9.044   7.310  -0.946  1.00  0.00     0.041 C 
ATOM     15  O   UNL     1      -8.914   8.047   0.066  1.00  0.00    -0.550 OA
ATOM     16  O   UNL     1      -9.299   7.882  -2.186  1.00  0.00    -0.550 OA
ENDBRANCH  13  14
ENDBRANCH  12  13
ENDBRANCH  11  12
ENDBRANCH  10  11
ENDBRANCH   9  10
ENDBRANCH   8   9
ENDBRANCH   7   8
ENDBRANCH   6   7
ENDBRANCH   5   6
ENDBRANCH   4   5
ENDBRANCH   3   4
ENDBRANCH   2   3
ENDBRANCH   1   2
BRANCH   1  17
ATOM     17  C   UNL     1     -11.103  -3.590  -5.629  1.00  0.00     0.000 C 
BRANCH  17  18
ATOM     18  C   UNL     1     -11.083  -4.206  -7.039  1.00  0.00     0.000 C 
BRANCH  18  19
ATOM     19  C   UNL     1     -10.755  -3.183  -8.143  1.00  0.00     0.000 C 
BRANCH  19  20
ATOM     20  C   UNL     1     -10.981  -3.676  -9.588  1.00  0.00     0.000 C 
BRANCH  20  21
ATOM     21  C   UNL     1      -9.964  -4.717 -10.097  1.00  0.00     0.000 C 
BRANCH  21  22
ATOM     22  C   UNL     1      -8.546  -4.580  -9.512  1.00  0.00    -0.000 C 
BRANCH  22  23
ATOM     23  C   UNL     1      -7.926  -5.897  -9.014  1.00  0.00    -0.000 C 
BRANCH  23  24
ATOM     24  C   UNL     1      -8.810  -6.619  -7.982  1.00  0.00    -0.000 C 
BRANCH  24  25
ATOM     25  C   UNL     1      -7.975  -7.414  -6.954  1.00  0.00    -0.000 C 
BRANCH  25  26
ATOM     26  C   UNL     1      -8.088  -6.868  -5.519  1.00  0.00    -0.000 C 
BRANCH  26  27
ATOM     27  C   UNL     1      -6.735  -6.421  -4.940  1.00  0.00    -0.000 C 
BRANCH  27  28
ATOM     28  C   UNL     1      -5.928  -5.558  -5.933  1.00  0.00    -0.000 C 
BRANCH  28  29
ATOM     29  C   UNL     1      -4.427  -5.893  -5.957  1.00  0.00    -0.003 C 
ATOM     30  C   UNL     1      -3.540  -4.671  -5.738  1.00  0.00     0.004 C 
ENDBRANCH  28  29
ENDBRANCH  27  28
ENDBRANCH  26  27
ENDBRANCH  25  26
ENDBRANCH  24  25
ENDBRANCH  23  24
ENDBRANCH  22  23
ENDBRANCH  21  22
ENDBRANCH  20  21
ENDBRANCH  19  20
ENDBRANCH  18  19
ENDBRANCH  17  18
ENDBRANCH   1  17
TORSDOF 26
ENDMDL
MODEL 2
REMARK VINA RESULT:    -1.264      3.690     10.529
REMARK INTER + INTRA:          -5.348
REMARK INTER:                  -3.709
REMARK INTRA:                  -1.640
REMARK UNBOUND:                -2.163
REMARK SMILES CCCCCCCCCCCCCCCCCCCCCCCCCCCC(=O)[O-]
REMARK SMILES IDX 15 1 16 2 17 3 18 4 19 5 20 6 21 7 22 8 23 9 24 10 25 11
REMARK SMILES IDX 26 12 27 13 28 14 29 15 30 16 14 17 13 18 12 19 11 20 10 21
REMARK SMILES IDX 9 22 8 23 7 24 6 25 5 26 4 27 3 28 2 29 1 30
REMARK H PARENT
REMARK Flexibility Score: inf
ROOT
ATOM      1  C   UNL     1     -11.125  -4.129  -5.148  1.00  0.00     0.000 C 
ENDROOT
BRANCH   1   2
ATOM      2  C   UNL     1     -10.456  -4.627  -6.442  1.00  0.00     0.000 C 
BRANCH   2   3
ATOM      3  C   UNL     1     -11.052  -5.946  -6.956  1.00  0.00     0.000 C 
BRANCH   3   4
ATOM      4  C   UNL     1     -10.002  -6.753  -7.737  1.00  0.00     0.000 C 
BRANCH   4   5
ATOM      5  C   UNL     1     -10.174  -6.629  -9.265  1.00  0.00     0.000 C 
BRANCH   5   6
ATOM      6  C   UNL     1      -9.888  -5.219  -9.817  1.00  0.00     0.000 C 
BRANCH   6   7
ATOM      7  C   UNL     1      -8.579  -4.576  -9.327  1.00  0.00     0.000 C 
BRANCH   7   8
ATOM      8  C   UNL     1      -7.332  -5.369  -9.748  1.00  0.00     0.000 C 
BRANCH   8   9
ATOM      9  C   UNL     1      -6.652  -6.016  -8.533  1.00  0.00     0.000 C 
BRANCH   9  10
ATOM     10  C   UNL     1      -6.945  -5.244  -7.228  1.00  0.00     0.000 C 
BRANCH  10  11
ATOM     11  C   UNL     1      -6.813  -6.106  -5.961  1.00  0.00     0.000 C 
BRANCH  11  12
ATOM     12  C   UNL     1      -5.375  -6.153  -5.419  1.00  0.00     0.006 C 
BRANCH  12  13
ATOM     13  C   UNL     1      -4.374  -5.489  -6.374  1.00  0.00     0.053 C 
BRANCH  13  14
ATOM     14  C   UNL     1      -3.566  -4.430  -5.692  1.00  0.00     0.041 C 
ATOM     15  O   UNL     1      -4.089  -3.323  -5.398  1.00  0.00    -0.550 OA
ATOM     16  O   UNL     1      -2.227  -4.657  -5.402  1.00  0.00    -0.550 OA
ENDBRANCH  13  14
ENDBRANCH  12  13
ENDBRANCH  11  12
ENDBRANCH  10  11
ENDBRANCH   9  10
ENDBRANCH   8   9
ENDBRANCH   7   8
ENDBRANCH   6   7
ENDBRANCH   5   6
ENDBRANCH   4   5
ENDBRANCH   3   4
ENDBRANCH   2   3
ENDBRANCH   1   2
BRANCH   1  17
ATOM     17  C   UNL     1     -10.411  -4.535  -3.843  1.00  0.00     0.000 C 
BRANCH  17  18
ATOM     18  C   UNL     1     -11.054  -3.910  -2.592  1.00  0.00     0.000 C 
BRANCH  18  19
ATOM     19  C   UNL     1     -10.071  -3.762  -1.415  1.00  0.00     0.000 C 
BRANCH  19  20
ATOM     20  C   UNL     1      -8.663  -3.251  -1.792  1.00  0.00     0.000 C 
BRANCH  20  21
ATOM     21  C   UNL     1      -8.481  -1.722  -1.739  1.00  0.00     0.000 C 
BRANCH  21  22
ATOM     22  C   UNL     1      -7.112  -1.248  -1.213  1.00  0.00    -0.000 C 
BRANCH  22  23
ATOM     23  C   UNL     1      -6.897   0.274  -1.261  1.00  0.00    -0.000 C 
BRANCH  23  24
ATOM     24  C   UNL     1      -8.170   1.067  -0.918  1.00  0.00    -0.000 C 
BRANCH  24  25
ATOM     25  C   UNL     1      -7.879   2.258   0.021  1.00  0.00    -0.000 C 
BRANCH  25  26
ATOM     26  C   UNL     1      -8.628   3.545  -0.371  1.00  0.00    -0.000 C 
BRANCH  26  27
ATOM     27  C   UNL     1      -8.725   4.558   0.782  1.00  0.00    -0.000 C 
BRANCH  27  28
ATOM     28  C   UNL     1      -8.701   6.019   0.284  1.00  0.00    -0.000 C 
BRANCH  28  29
ATOM     29  C   UNL     1      -9.332   6.202  -1.107  1.00  0.00    -0.003 C 
ATOM     30  C   UNL     1      -9.105   7.597  -1.684  1.00  0.00     0.004 C 
ENDBRANCH  28  29
ENDBRANCH  27  28
ENDBRANCH  26  27
ENDBRANCH  25  26
ENDBRANCH  24  25
ENDBRANCH  23  24
ENDBRANCH  22  23
ENDBRANCH  21  22
ENDBRANCH  20  21
ENDBRANCH  19  20
ENDBRANCH  18  19
ENDBRANCH  17  18
ENDBRANCH   1  17
TORSDOF 26
ENDMDL
MODEL 3
REMARK VINA RESULT:    -0.727      3.618     10.869
REMARK INTER + INTRA:          -3.996
REMARK INTER:                  -2.310
REMARK INTRA:                  -1.686
REMARK UNBOUND:                -2.163
REMARK SMILES CCCCCCCCCCCCCCCCCCCCCCCCCCCC(=O)[O-]
REMARK SMILES IDX 15 1 16 2 17 3 18 4 19 5 20 6 21 7 22 8 23 9 24 10 25 11
REMARK SMILES IDX 26 12 27 13 28 14 29 15 30 16 14 17 13 18 12 19 11 20 10 21
REMARK SMILES IDX 9 22 8 23 7 24 6 25 5 26 4 27 3 28 2 29 1 30
REMARK H PARENT
REMARK Flexibility Score: inf
ROOT
ATOM      1  C   UNL     1     -10.147  -4.929  -3.781  1.00  0.00     0.000 C 
ENDROOT
BRANCH   1   2
ATOM      2  C   UNL     1     -11.125  -4.016  -4.542  1.00  0.00     0.000 C 
BRANCH   2   3
ATOM      3  C   UNL     1     -10.501  -3.381  -5.795  1.00  0.00     0.000 C 
BRANCH   3   4
ATOM      4  C   UNL     1     -10.870  -4.183  -7.054  1.00  0.00     0.000 C 
BRANCH   4   5
ATOM      5  C   UNL     1      -9.639  -4.814  -7.737  1.00  0.00     0.000 C 
BRANCH   5   6
ATOM      6  C   UNL     1      -9.732  -6.343  -7.911  1.00  0.00     0.000 C 
BRANCH   6   7
ATOM      7  C   UNL     1     -10.397  -7.095  -6.745  1.00  0.00     0.000 C 
BRANCH   7   8
ATOM      8  C   UNL     1      -9.543  -7.091  -5.469  1.00  0.00     0.000 C 
BRANCH   8   9
ATOM      9  C   UNL     1      -8.087  -7.470  -5.776  1.00  0.00     0.000 C 
BRANCH   9  10
ATOM     10  C   UNL     1      -7.090  -6.432  -5.217  1.00  0.00     0.000 C 
BRANCH  10  11
ATOM     11  C   UNL     1      -6.303  -5.685  -6.308  1.00  0.00     0.000 C 
BRANCH  11  12
ATOM     12  C   UNL     1      -4.820  -5.496  -5.951  1.00  0.00     0.006 C 
BRANCH  12  13
ATOM     13  C   UNL     1      -4.309  -4.097  -6.320  1.00  0.00     0.053 C 
BRANCH  13  14
ATOM     14  C   UNL     1      -3.254  -3.618  -5.372  1.00  0.00     0.041 C 
ATOM     15  O   UNL     1      -3.449  -2.589  -4.674  1.00  0.00    -0.550 OA
ATOM     16  O   UNL     1      -2.045  -4.295  -5.278  1.00  0.00    -0.550 OA
ENDBRANCH  13  14
ENDBRANCH  12  13
ENDBRANCH  11  12
ENDBRANCH  10  11
ENDBRANCH   9  10
ENDBRANCH   8   9
ENDBRANCH   7   8
ENDBRANCH   6   7
ENDBRANCH   5   6
ENDBRANCH   4   5
ENDBRANCH   3   4
ENDBRANCH   2   3
ENDBRANCH   1   2
BRANCH   1  17
ATOM     17  C   UNL     1      -9.339  -4.237  -2.665  1.00  0.00     0.000 C 
BRANCH  17  18
ATOM     18  C   UNL     1     -10.231  -3.691  -1.535  1.00  0.00     0.000 C 
BRANCH  18  19
ATOM     19  C   UNL     1      -9.661  -2.421  -0.874  1.00  0.00     0.000 C 
BRANCH  19  20
ATOM     20  C   UNL     1      -8.291  -1.955  -1.414  1.00  0.00     0.000 C 
BRANCH  20  21
ATOM     21  C   UNL     1      -7.707  -0.700  -0.737  1.00  0.00     0.000 C 
BRANCH  21  22
ATOM     22  C   UNL     1      -8.405   0.623  -1.106  1.00  0.00    -0.000 C 
BRANCH  22  23
ATOM     23  C   UNL     1      -7.952   1.840  -0.284  1.00  0.00    -0.000 C 
BRANCH  23  24
ATOM     24  C   UNL     1      -8.869   3.061  -0.470  1.00  0.00    -0.000 C 
BRANCH  24  25
ATOM     25  C   UNL     1      -8.728   4.078   0.684  1.00  0.00    -0.000 C 
BRANCH  25  26
ATOM     26  C   UNL     1      -8.400   5.505   0.205  1.00  0.00    -0.000 C 
BRANCH  26  27
ATOM     27  C   UNL     1      -9.155   5.895  -1.077  1.00  0.00    -0.000 C 
BRANCH  27  28
ATOM     28  C   UNL     1      -9.251   7.425  -1.260  1.00  0.00    -0.000 C 
BRANCH  28  29
ATOM     29  C   UNL     1      -8.702   8.220  -0.063  1.00  0.00    -0.003 C 
ATOM     30  C   UNL     1      -9.245   9.645   0.005  1.00  0.00     0.004 C 
ENDBRANCH  28  29
ENDBRANCH  27  28
ENDBRANCH  26  27
ENDBRANCH  25  26
ENDBRANCH  24  25
ENDBRANCH  23  24
ENDBRANCH  22  23
ENDBRANCH  21  22
ENDBRANCH  20  21
ENDBRANCH  19  20
ENDBRANCH  18  19
ENDBRANCH  17  18
ENDBRANCH   1  17
TORSDOF 26
ENDMDL
MODEL 4
REMARK VINA RESULT:    -0.428      4.230     11.121
REMARK INTER + INTRA:          -3.241
REMARK INTER:                  -2.483
REMARK INTRA:                  -0.758
REMARK UNBOUND:                -2.163
REMARK SMILES CCCCCCCCCCCCCCCCCCCCCCCCCCCC(=O)[O-]
REMARK SMILES IDX 15 1 16 2 17 3 18 4 19 5 20 6 21 7 22 8 23 9 24 10 25 11
REMARK SMILES IDX 26 12 27 13 28 14 29 15 30 16 14 17 13 18 12 19 11 20 10 21
REMARK SMILES IDX 9 22 8 23 7 24 6 25 5 26 4 27 3 28 2 29 1 30
REMARK H PARENT
REMARK Flexibility Score: inf
ROOT
ATOM      1  C   UNL     1     -10.202  -3.351  -3.960  1.00  0.00     0.000 C 
ENDROOT
BRANCH   1   2
ATOM      2  C   UNL     1     -11.044  -3.059  -5.215  1.00  0.00     0.000 C 
BRANCH   2   3
ATOM      3  C   UNL     1     -10.620  -3.898  -6.430  1.00  0.00     0.000 C 
BRANCH   3   4
ATOM      4  C   UNL     1     -10.577  -3.035  -7.701  1.00  0.00     0.000 C 
BRANCH   4   5
ATOM      5  C   UNL     1     -11.125  -3.774  -8.940  1.00  0.00     0.000 C 
BRANCH   5   6
ATOM      6  C   UNL     1     -10.071  -4.029 -10.036  1.00  0.00     0.000 C 
BRANCH   6   7
ATOM      7  C   UNL     1      -8.615  -4.079  -9.545  1.00  0.00     0.000 C 
BRANCH   7   8
ATOM      8  C   UNL     1      -7.906  -5.391  -9.911  1.00  0.00     0.000 C 
BRANCH   8   9
ATOM      9  C   UNL     1      -8.916  -6.532 -10.099  1.00  0.00     0.000 C 
BRANCH   9  10
ATOM     10  C   UNL     1      -9.028  -7.417  -8.838  1.00  0.00     0.000 C 
BRANCH  10  11
ATOM     11  C   UNL     1     -10.086  -6.926  -7.834  1.00  0.00     0.000 C 
BRANCH  11  12
ATOM     12  C   UNL     1      -9.811  -7.402  -6.398  1.00  0.00     0.006 C 
BRANCH  12  13
ATOM     13  C   UNL     1      -9.031  -6.363  -5.583  1.00  0.00     0.053 C 
BRANCH  13  14
ATOM     14  C   UNL     1      -7.553  -6.588  -5.657  1.00  0.00     0.041 C 
ATOM     15  O   UNL     1      -6.936  -7.080  -4.676  1.00  0.00    -0.550 OA
ATOM     16  O   UNL     1      -6.852  -6.229  -6.801  1.00  0.00    -0.550 OA
ENDBRANCH  13  14
ENDBRANCH  12  13
ENDBRANCH  11  12
ENDBRANCH  10  11
ENDBRANCH   9  10
ENDBRANCH   8   9
ENDBRANCH   7   8
ENDBRANCH   6   7
ENDBRANCH   5   6
ENDBRANCH   4   5
ENDBRANCH   3   4
ENDBRANCH   2   3
ENDBRANCH   1   2
BRANCH   1  17
ATOM     17  C   UNL     1     -10.728  -4.495  -3.070  1.00  0.00     0.000 C 
BRANCH  17  18
ATOM     18  C   UNL     1     -10.495  -4.239  -1.570  1.00  0.00     0.000 C 
BRANCH  18  19
ATOM     19  C   UNL     1      -9.835  -2.876  -1.284  1.00  0.00     0.000 C 
BRANCH  19  20
ATOM     20  C   UNL     1      -8.477  -2.642  -1.979  1.00  0.00     0.000 C 
BRANCH  20  21
ATOM     21  C   UNL     1      -7.561  -1.601  -1.307  1.00  0.00     0.000 C 
BRANCH  21  22
ATOM     22  C   UNL     1      -8.287  -0.363  -0.746  1.00  0.00    -0.000 C 
BRANCH  22  23
ATOM     23  C   UNL     1      -7.506   0.955  -0.880  1.00  0.00    -0.000 C 
BRANCH  23  24
ATOM     24  C   UNL     1      -8.403   2.197  -0.732  1.00  0.00    -0.000 C 
BRANCH  24  25
ATOM     25  C   UNL     1      -8.119   2.968   0.575  1.00  0.00    -0.000 C 
BRANCH  25  26
ATOM     26  C   UNL     1      -9.071   4.157   0.804  1.00  0.00    -0.000 C 
BRANCH  26  27
ATOM     27  C   UNL     1      -8.328   5.477   1.071  1.00  0.00    -0.000 C 
BRANCH  27  28
ATOM     28  C   UNL     1      -8.885   6.645   0.228  1.00  0.00    -0.000 C 
BRANCH  28  29
ATOM     29  C   UNL     1      -9.341   6.222  -1.179  1.00  0.00    -0.003 C 
ATOM     30  C   UNL     1      -9.101   7.300  -2.232  1.00  0.00     0.004 C 
ENDBRANCH  28  29
ENDBRANCH  27  28
ENDBRANCH  26  27
ENDBRANCH  25  26
ENDBRANCH  24  25
ENDBRANCH  23  24
ENDBRANCH  22  23
ENDBRANCH  21  22
ENDBRANCH  20  21
ENDBRANCH  19  20
ENDBRANCH  18  19
ENDBRANCH  17  18
ENDBRANCH   1  17
TORSDOF 26
ENDMDL
MODEL 5
REMARK VINA RESULT:    -0.239      1.272      3.641
REMARK INTER + INTRA:          -2.765
REMARK INTER:                  -0.800
REMARK INTRA:                  -1.965
REMARK UNBOUND:                -2.163
REMARK SMILES CCCCCCCCCCCCCCCCCCCCCCCCCCCC(=O)[O-]
REMARK SMILES IDX 15 1 16 2 17 3 18 4 19 5 20 6 21 7 22 8 23 9 24 10 25 11
REMARK SMILES IDX 26 12 27 13 28 14 29 15 30 16 14 17 13 18 12 19 11 20 10 21
REMARK SMILES IDX 9 22 8 23 7 24 6 25 5 26 4 27 3 28 2 29 1 30
REMARK H PARENT
REMARK Flexibility Score: inf
ROOT
ATOM      1  C   UNL     1     -11.124  -3.474  -4.600  1.00  0.00     0.000 C 
ENDROOT
BRANCH   1   2
ATOM      2  C   UNL     1     -10.146  -3.515  -3.412  1.00  0.00     0.000 C 
BRANCH   2   3
ATOM      3  C   UNL     1     -10.849  -3.383  -2.052  1.00  0.00     0.000 C 
BRANCH   3   4
ATOM      4  C   UNL     1      -9.959  -2.634  -1.048  1.00  0.00     0.000 C 
BRANCH   4   5
ATOM      5  C   UNL     1      -8.454  -2.824  -1.331  1.00  0.00     0.000 C 
BRANCH   5   6
ATOM      6  C   UNL     1      -7.781  -1.607  -1.996  1.00  0.00     0.000 C 
BRANCH   6   7
ATOM      7  C   UNL     1      -7.314  -0.507  -1.028  1.00  0.00     0.000 C 
BRANCH   7   8
ATOM      8  C   UNL     1      -8.431   0.483  -0.667  1.00  0.00     0.000 C 
BRANCH   8   9
ATOM      9  C   UNL     1      -7.901   1.924  -0.622  1.00  0.00     0.000 C 
BRANCH   9  10
ATOM     10  C   UNL     1      -8.552   2.744   0.514  1.00  0.00     0.000 C 
BRANCH  10  11
ATOM     11  C   UNL     1      -7.939   4.144   0.690  1.00  0.00     0.000 C 
BRANCH  11  12
ATOM     12  C   UNL     1      -8.993   5.263   0.666  1.00  0.00     0.006 C 
BRANCH  12  13
ATOM     13  C   UNL     1      -9.423   5.621  -0.763  1.00  0.00     0.053 C 
BRANCH  13  14
ATOM     14  C   UNL     1      -8.947   6.982  -1.167  1.00  0.00     0.041 C 
ATOM     15  O   UNL     1      -8.379   7.151  -2.277  1.00  0.00    -0.550 OA
ATOM     16  O   UNL     1      -9.109   8.058  -0.305  1.00  0.00    -0.550 OA
ENDBRANCH  13  14
ENDBRANCH  12  13
ENDBRANCH  11  12
ENDBRANCH  10  11
ENDBRANCH   9  10
ENDBRANCH   8   9
ENDBRANCH   7   8
ENDBRANCH   6   7
ENDBRANCH   5   6
ENDBRANCH   4   5
ENDBRANCH   3   4
ENDBRANCH   2   3
ENDBRANCH   1   2
BRANCH   1  17
ATOM     17  C   UNL     1     -10.991  -4.642  -5.598  1.00  0.00     0.000 C 
BRANCH  17  18
ATOM     18  C   UNL     1      -9.583  -5.264  -5.604  1.00  0.00     0.000 C 
BRANCH  18  19
ATOM     19  C   UNL     1      -9.562  -6.721  -5.103  1.00  0.00     0.000 C 
BRANCH  19  20
ATOM     20  C   UNL     1      -8.358  -7.564  -5.578  1.00  0.00     0.000 C 
BRANCH  20  21
ATOM     21  C   UNL     1      -6.974  -7.032  -5.159  1.00  0.00     0.000 C 
BRANCH  21  22
ATOM     22  C   UNL     1      -6.034  -6.677  -6.327  1.00  0.00    -0.000 C 
BRANCH  22  23
ATOM     23  C   UNL     1      -6.270  -5.288  -6.943  1.00  0.00    -0.000 C 
BRANCH  23  24
ATOM     24  C   UNL     1      -6.710  -5.356  -8.416  1.00  0.00    -0.000 C 
BRANCH  24  25
ATOM     25  C   UNL     1      -8.085  -4.692  -8.645  1.00  0.00    -0.000 C 
BRANCH  25  26
ATOM     26  C   UNL     1      -8.642  -4.909 -10.065  1.00  0.00    -0.000 C 
BRANCH  26  27
ATOM     27  C   UNL     1     -10.178  -4.980 -10.102  1.00  0.00    -0.000 C 
BRANCH  27  28
ATOM     28  C   UNL     1     -10.733  -6.135  -9.241  1.00  0.00    -0.000 C 
BRANCH  28  29
ATOM     29  C   UNL     1      -9.807  -7.363  -9.192  1.00  0.00    -0.003 C 
ATOM     30  C   UNL     1     -10.564  -8.684  -9.302  1.00  0.00     0.004 C 
ENDBRANCH  28  29
ENDBRANCH  27  28
ENDBRANCH  26  27
ENDBRANCH  25  26
ENDBRANCH  24  25
ENDBRANCH  23  24
ENDBRANCH  22  23
ENDBRANCH  21  22
ENDBRANCH  20  21
ENDBRANCH  19  20
ENDBRANCH  18  19
ENDBRANCH  17  18
ENDBRANCH   1  17
TORSDOF 26
ENDMDL
MODEL 6
REMARK VINA RESULT:    -0.030      4.256     10.895
REMARK INTER + INTRA:          -2.239
REMARK INTER:                  -1.337
REMARK INTRA:                  -0.902
REMARK UNBOUND:                -2.163
REMARK SMILES CCCCCCCCCCCCCCCCCCCCCCCCCCCC(=O)[O-]
REMARK SMILES IDX 15 1 16 2 17 3 18 4 19 5 20 6 21 7 22 8 23 9 24 10 25 11
REMARK SMILES IDX 26 12 27 13 28 14 29 15 30 16 14 17 13 18 12 19 11 20 10 21
REMARK SMILES IDX 9 22 8 23 7 24 6 25 5 26 4 27 3 28 2 29 1 30
REMARK H PARENT
REMARK Flexibility Score: inf
ROOT
ATOM      1  C   UNL     1     -11.067  -2.832  -2.900  1.00  0.00     0.000 C 
ENDROOT
BRANCH   1   2
ATOM      2  C   UNL     1     -10.928  -2.744  -4.430  1.00  0.00     0.000 C 
BRANCH   2   3
ATOM      3  C   UNL     1     -10.079  -3.880  -5.022  1.00  0.00     0.000 C 
BRANCH   3   4
ATOM      4  C   UNL     1     -10.922  -4.760  -5.959  1.00  0.00     0.000 C 
BRANCH   4   5
ATOM      5  C   UNL     1     -10.432  -6.223  -6.002  1.00  0.00     0.000 C 
BRANCH   5   6
ATOM      6  C   UNL     1     -10.738  -6.949  -7.326  1.00  0.00     0.000 C 
BRANCH   6   7
ATOM      7  C   UNL     1     -11.125  -6.034  -8.501  1.00  0.00     0.000 C 
BRANCH   7   8
ATOM      8  C   UNL     1      -9.931  -5.680  -9.399  1.00  0.00     0.000 C 
BRANCH   8   9
ATOM      9  C   UNL     1      -9.084  -6.923  -9.711  1.00  0.00     0.000 C 
BRANCH   9  10
ATOM     10  C   UNL     1      -7.748  -6.920  -8.937  1.00  0.00     0.000 C 
BRANCH  10  11
ATOM     11  C   UNL     1      -7.174  -5.511  -8.706  1.00  0.00     0.000 C 
BRANCH  11  12
ATOM     12  C   UNL     1      -6.985  -5.182  -7.216  1.00  0.00     0.006 C 
BRANCH  12  13
ATOM     13  C   UNL     1      -5.505  -5.157  -6.811  1.00  0.00     0.053 C 
BRANCH  13  14
ATOM     14  C   UNL     1      -5.183  -6.213  -5.801  1.00  0.00     0.041 C 
ATOM     15  O   UNL     1      -4.051  -6.241  -5.251  1.00  0.00    -0.550 OA
ATOM     16  O   UNL     1      -6.125  -7.184  -5.486  1.00  0.00    -0.550 OA
ENDBRANCH  13  14
ENDBRANCH  12  13
ENDBRANCH  11  12
ENDBRANCH  10  11
ENDBRANCH   9  10
ENDBRANCH   8   9
ENDBRANCH   7   8
ENDBRANCH   6   7
ENDBRANCH   5   6
ENDBRANCH   4   5
ENDBRANCH   3   4
ENDBRANCH   2   3
ENDBRANCH   1   2
BRANCH   1  17
ATOM     17  C   UNL     1     -10.827  -4.232  -2.300  1.00  0.00     0.000 C 
BRANCH  17  18
ATOM     18  C   UNL     1      -9.334  -4.600  -2.224  1.00  0.00     0.000 C 
BRANCH  18  19
ATOM     19  C   UNL     1      -8.439  -3.418  -1.805  1.00  0.00     0.000 C 
BRANCH  19  20
ATOM     20  C   UNL     1      -9.072  -2.438  -0.794  1.00  0.00     0.000 C 
BRANCH  20  21
ATOM     21  C   UNL     1      -8.461  -1.024  -0.773  1.00  0.00     0.000 C 
BRANCH  21  22
ATOM     22  C   UNL     1      -7.037  -0.923  -1.353  1.00  0.00    -0.000 C 
BRANCH  22  23
ATOM     23  C   UNL     1      -6.627   0.487  -1.810  1.00  0.00    -0.000 C 
BRANCH  23  24
ATOM     24  C   UNL     1      -6.839   1.553  -0.720  1.00  0.00    -0.000 C 
BRANCH  24  25
ATOM     25  C   UNL     1      -8.303   2.040  -0.658  1.00  0.00    -0.000 C 
BRANCH  25  26
ATOM     26  C   UNL     1      -8.478   3.354   0.126  1.00  0.00    -0.000 C 
BRANCH  26  27
ATOM     27  C   UNL     1      -8.944   4.522  -0.758  1.00  0.00    -0.000 C 
BRANCH  27  28
ATOM     28  C   UNL     1      -8.832   5.884  -0.040  1.00  0.00    -0.000 C 
BRANCH  28  29
ATOM     29  C   UNL     1      -8.780   7.082  -1.003  1.00  0.00    -0.003 C 
ATOM     30  C   UNL     1      -9.202   8.394  -0.345  1.00  0.00     0.004 C 
ENDBRANCH  28  29
ENDBRANCH  27  28
ENDBRANCH  26  27
ENDBRANCH  25  26
ENDBRANCH  24  25
ENDBRANCH  23  24
ENDBRANCH  22  23
ENDBRANCH  21  22
ENDBRANCH  20  21
ENDBRANCH  19  20
ENDBRANCH  18  19
ENDBRANCH  17  18
ENDBRANCH   1  17
TORSDOF 26
ENDMDL
MODEL 7
REMARK VINA RESULT:     0.361      5.869     14.446
REMARK INTER + INTRA:          -1.254
REMARK INTER:                  -0.109
REMARK INTRA:                  -1.145
REMARK UNBOUND:                -2.163
REMARK SMILES CCCCCCCCCCCCCCCCCCCCCCCCCCCC(=O)[O-]
REMARK SMILES IDX 15 1 16 2 17 3 18 4 19 5 20 6 21 7 22 8 23 9 24 10 25 11
REMARK SMILES IDX 26 12 27 13 28 14 29 15 30 16 14 17 13 18 12 19 11 20 10 21
REMARK SMILES IDX 9 22 8 23 7 24 6 25 5 26 4 27 3 28 2 29 1 30
REMARK H PARENT
REMARK Flexibility Score: inf
ROOT
ATOM      1  C   UNL     1      -8.178   2.928   0.071  1.00  0.00     0.000 C 
ENDROOT
BRANCH   1   2
ATOM      2  C   UNL     1      -8.265   1.529  -0.565  1.00  0.00     0.000 C 
BRANCH   2   3
ATOM      3  C   UNL     1      -6.916   1.032  -1.108  1.00  0.00     0.000 C 
BRANCH   3   4
ATOM      4  C   UNL     1      -7.012  -0.439  -1.544  1.00  0.00     0.000 C 
BRANCH   4   5
ATOM      5  C   UNL     1      -8.229  -1.163  -0.930  1.00  0.00     0.000 C 
BRANCH   5   6
ATOM      6  C   UNL     1      -8.387  -2.626  -1.389  1.00  0.00     0.000 C 
BRANCH   6   7
ATOM      7  C   UNL     1      -9.839  -3.105  -1.558  1.00  0.00     0.000 C 
BRANCH   7   8
ATOM      8  C   UNL     1     -10.450  -2.694  -2.905  1.00  0.00     0.000 C 
BRANCH   8   9
ATOM      9  C   UNL     1     -10.993  -3.915  -3.662  1.00  0.00     0.000 C 
BRANCH   9  10
ATOM     10  C   UNL     1      -9.917  -5.007  -3.845  1.00  0.00     0.000 C 
BRANCH  10  11
ATOM     11  C   UNL     1     -10.251  -6.021  -4.952  1.00  0.00     0.000 C 
BRANCH  11  12
ATOM     12  C   UNL     1     -10.111  -5.429  -6.364  1.00  0.00     0.006 C 
BRANCH  12  13
ATOM     13  C   UNL     1      -9.371  -6.376  -7.318  1.00  0.00     0.053 C 
BRANCH  13  14
ATOM     14  C   UNL     1      -7.887  -6.318  -7.125  1.00  0.00     0.041 C 
ATOM     15  O   UNL     1      -7.365  -6.780  -6.077  1.00  0.00    -0.550 OA
ATOM     16  O   UNL     1      -7.084  -5.730  -8.093  1.00  0.00    -0.550 OA
ENDBRANCH  13  14
ENDBRANCH  12  13
ENDBRANCH  11  12
ENDBRANCH  10  11
ENDBRANCH   9  10
ENDBRANCH   8   9
ENDBRANCH   7   8
ENDBRANCH   6   7
ENDBRANCH   5   6
ENDBRANCH   4   5
ENDBRANCH   3   4
ENDBRANCH   2   3
ENDBRANCH   1   2
BRANCH   1  17
ATOM     17  C   UNL     1      -8.928   4.040  -0.688  1.00  0.00     0.000 C 
BRANCH  17  18
ATOM     18  C   UNL     1      -8.938   5.379   0.072  1.00  0.00     0.000 C 
BRANCH  18  19
ATOM     19  C   UNL     1      -8.841   5.208   1.600  1.00  0.00     0.000 C 
BRANCH  19  20
ATOM     20  C   UNL     1     -10.098   5.627   2.392  1.00  0.00     0.000 C 
BRANCH  20  21
ATOM     21  C   UNL     1      -9.829   6.350   3.725  1.00  0.00     0.000 C 
BRANCH  21  22
ATOM     22  C   UNL     1     -10.733   7.567   4.000  1.00  0.00    -0.000 C 
BRANCH  22  23
ATOM     23  C   UNL     1     -10.894   7.926   5.487  1.00  0.00    -0.000 C 
BRANCH  23  24
ATOM     24  C   UNL     1     -10.955   9.444   5.731  1.00  0.00    -0.000 C 
BRANCH  24  25
ATOM     25  C   UNL     1     -10.858   9.797   7.231  1.00  0.00    -0.000 C 
BRANCH  25  26
ATOM     26  C   UNL     1      -9.976   8.823   8.034  1.00  0.00    -0.000 C 
BRANCH  26  27
ATOM     27  C   UNL     1      -8.653   9.456   8.498  1.00  0.00    -0.000 C 
BRANCH  27  28
ATOM     28  C   UNL     1      -7.911   8.576   9.527  1.00  0.00    -0.000 C 
BRANCH  28  29
ATOM     29  C   UNL     1      -7.926   7.078   9.176  1.00  0.00    -0.003 C 
ATOM     30  C   UNL     1      -7.060   6.741   7.966  1.00  0.00     0.004 C 
ENDBRANCH  28  29
ENDBRANCH  27  28
ENDBRANCH  26  27
ENDBRANCH  25  26
ENDBRANCH  24  25
ENDBRANCH  23  24
ENDBRANCH  22  23
ENDBRANCH  21  22
ENDBRANCH  20  21
ENDBRANCH  19  20
ENDBRANCH  18  19
ENDBRANCH  17  18
ENDBRANCH   1  17
TORSDOF 26
ENDMDL
MODEL 8
REMARK VINA RESULT:     0.746      4.942      8.308
REMARK INTER + INTRA:          -0.283
REMARK INTER:                   0.724
REMARK INTRA:                  -1.007
REMARK UNBOUND:                -2.163
REMARK SMILES CCCCCCCCCCCCCCCCCCCCCCCCCCCC(=O)[O-]
REMARK SMILES IDX 15 1 16 2 17 3 18 4 19 5 20 6 21 7 22 8 23 9 24 10 25 11
REMARK SMILES IDX 26 12 27 13 28 14 29 15 30 16 14 17 13 18 12 19 11 20 10 21
REMARK SMILES IDX 9 22 8 23 7 24 6 25 5 26 4 27 3 28 2 29 1 30
REMARK H PARENT
REMARK Flexibility Score: inf
ROOT
ATOM      1  C   UNL     1      -8.495   2.340  -0.499  1.00  0.00     0.000 C 
ENDROOT
BRANCH   1   2
ATOM      2  C   UNL     1      -8.098   3.157   0.743  1.00  0.00     0.000 C 
BRANCH   2   3
ATOM      3  C   UNL     1      -8.682   4.579   0.736  1.00  0.00     0.000 C 
BRANCH   3   4
ATOM      4  C   UNL     1      -9.630   4.785   1.928  1.00  0.00     0.000 C 
BRANCH   4   5
ATOM      5  C   UNL     1      -9.777   6.270   2.320  1.00  0.00     0.000 C 
BRANCH   5   6
ATOM      6  C   UNL     1     -10.048   6.501   3.820  1.00  0.00     0.000 C 
BRANCH   6   7
ATOM      7  C   UNL     1     -10.789   7.805   4.159  1.00  0.00     0.000 C 
BRANCH   7   8
ATOM      8  C   UNL     1     -10.874   8.068   5.670  1.00  0.00     0.000 C 
BRANCH   8   9
ATOM      9  C   UNL     1     -11.056   9.565   5.962  1.00  0.00     0.000 C 
BRANCH   9  10
ATOM     10  C   UNL     1     -10.821   9.895   7.452  1.00  0.00     0.000 C 
BRANCH  10  11
ATOM     11  C   UNL     1     -10.606   8.652   8.331  1.00  0.00     0.000 C 
BRANCH  11  12
ATOM     12  C   UNL     1     -10.021   8.991   9.712  1.00  0.00     0.006 C 
BRANCH  12  13
ATOM     13  C   UNL     1      -8.656   9.685   9.608  1.00  0.00     0.053 C 
BRANCH  13  14
ATOM     14  C   UNL     1      -7.616   8.788   9.014  1.00  0.00     0.041 C 
ATOM     15  O   UNL     1      -6.711   9.264   8.280  1.00  0.00    -0.550 OA
ATOM     16  O   UNL     1      -7.661   7.420   9.251  1.00  0.00    -0.550 OA
ENDBRANCH  13  14
ENDBRANCH  12  13
ENDBRANCH  11  12
ENDBRANCH  10  11
ENDBRANCH   9  10
ENDBRANCH   8   9
ENDBRANCH   7   8
ENDBRANCH   6   7
ENDBRANCH   5   6
ENDBRANCH   4   5
ENDBRANCH   3   4
ENDBRANCH   2   3
ENDBRANCH   1   2
BRANCH   1  17
ATOM     17  C   UNL     1      -7.654   1.071  -0.744  1.00  0.00     0.000 C 
BRANCH  17  18
ATOM     18  C   UNL     1      -8.493  -0.219  -0.696  1.00  0.00     0.000 C 
BRANCH  18  19
ATOM     19  C   UNL     1      -7.869  -1.378  -1.498  1.00  0.00     0.000 C 
BRANCH  19  20
ATOM     20  C   UNL     1      -8.425  -2.780  -1.171  1.00  0.00     0.000 C 
BRANCH  20  21
ATOM     21  C   UNL     1      -8.807  -3.640  -2.392  1.00  0.00     0.000 C 
BRANCH  21  22
ATOM     22  C   UNL     1     -10.312  -3.673  -2.719  1.00  0.00    -0.000 C 
BRANCH  22  23
ATOM     23  C   UNL     1     -10.680  -3.118  -4.105  1.00  0.00    -0.000 C 
BRANCH  23  24
ATOM     24  C   UNL     1     -10.847  -4.222  -5.164  1.00  0.00    -0.000 C 
BRANCH  24  25
ATOM     25  C   UNL     1     -10.491  -5.619  -4.611  1.00  0.00    -0.000 C 
BRANCH  25  26
ATOM     26  C   UNL     1     -10.164  -6.648  -5.710  1.00  0.00    -0.000 C 
BRANCH  26  27
ATOM     27  C   UNL     1     -10.115  -6.027  -7.116  1.00  0.00    -0.000 C 
BRANCH  27  28
ATOM     28  C   UNL     1      -8.896  -6.511  -7.929  1.00  0.00    -0.000 C 
BRANCH  28  29
ATOM     29  C   UNL     1      -7.862  -5.405  -8.199  1.00  0.00    -0.003 C 
ATOM     30  C   UNL     1      -6.987  -5.691  -9.417  1.00  0.00     0.004 C 
ENDBRANCH  28  29
ENDBRANCH  27  28
ENDBRANCH  26  27
ENDBRANCH  25  26
ENDBRANCH  24  25
ENDBRANCH  23  24
ENDBRANCH  22  23
ENDBRANCH  21  22
ENDBRANCH  20  21
ENDBRANCH  19  20
ENDBRANCH  18  19
ENDBRANCH  17  18
ENDBRANCH   1  17
TORSDOF 26
ENDMDL
