MODEL 1
REMARK VINA RESULT:    -4.777      0.000      0.000
REMARK INTER + INTRA:         -11.338
REMARK INTER:                  -8.686
REMARK INTRA:                  -2.652
REMARK UNBOUND:                -2.652
REMARK SMILES CCCCCCCCCCCCCCCC(=O)[O-]
REMARK SMILES IDX 9 1 10 2 11 3 12 4 13 5 14 6 15 7 16 8 17 9 18 10 8 11 7 12
REMARK SMILES IDX 6 13 5 14 4 15 3 16 2 17 1 18
REMARK H PARENT
REMARK Flexibility Score: inf
ROOT
ATOM      1  C   UNL     1      16.835  55.881  16.114  1.00  0.00     0.000 C 
ENDROOT
BRANCH   1   2
ATOM      2  C   UNL     1      18.110  56.726  16.222  1.00  0.00     0.000 C 
BRANCH   2   3
ATOM      3  C   UNL     1      18.820  56.483  17.563  1.00  0.00     0.000 C 
BRANCH   3   4
ATOM      4  C   UNL     1      20.338  56.711  17.477  1.00  0.00     0.000 C 
BRANCH   4   5
ATOM      5  C   UNL     1      20.818  56.955  16.037  1.00  0.00     0.000 C 
BRANCH   5   6
ATOM      6  C   UNL     1      22.337  56.760  15.875  1.00  0.00     0.006 C 
BRANCH   6   7
ATOM      7  C   UNL     1      22.914  55.596  16.696  1.00  0.00     0.053 C 
BRANCH   7   8
ATOM      8  C   UNL     1      24.392  55.452  16.502  1.00  0.00     0.041 C 
ATOM      9  O   UNL     1      24.963  54.362  16.767  1.00  0.00    -0.550 OA
ATOM     10  O   UNL     1      25.145  56.533  16.059  1.00  0.00    -0.550 OA
ENDBRANCH   7   8
ENDBRANCH   6   7
ENDBRANCH   5   6
ENDBRANCH   4   5
ENDBRANCH   3   4
ENDBRANCH   2   3
ENDBRANCH   1   2
BRANCH   1  11
ATOM     11  C   UNL     1      16.796  55.112  14.785  1.00  0.00     0.000 C 
BRANCH  11  12
ATOM     12  C   UNL     1      18.007  55.415  13.887  1.00  0.00    -0.000 C 
BRANCH  12  13
ATOM     13  C   UNL     1      18.795  54.148  13.512  1.00  0.00    -0.000 C 
BRANCH  13  14
ATOM     14  C   UNL     1      20.231  54.149  14.069  1.00  0.00    -0.000 C 
BRANCH  14  15
ATOM     15  C   UNL     1      20.426  53.361  15.379  1.00  0.00    -0.000 C 
BRANCH  15  16
ATOM     16  C   UNL     1      19.187  52.587  15.868  1.00  0.00    -0.000 C 
BRANCH  16  17
ATOM     17  C   UNL     1      18.939  52.705  17.387  1.00  0.00    -0.003 C 
ATOM     18  C   UNL     1      20.203  53.066  18.165  1.00  0.00     0.004 C 
ENDBRANCH  16  17
ENDBRANCH  15  16
ENDBRANCH  14  15
ENDBRANCH  13  14
ENDBRANCH  12  13
ENDBRANCH  11  12
ENDBRANCH   1  11
TORSDOF 14
ENDMDL
MODEL 2
REMARK VINA RESULT:    -4.755      3.602      6.170
REMARK INTER + INTRA:         -11.299
REMARK INTER:                  -8.742
REMARK INTRA:                  -2.557
REMARK UNBOUND:                -2.652
REMARK SMILES CCCCCCCCCCCCCCCC(=O)[O-]
REMARK SMILES IDX 9 1 10 2 11 3 12 4 13 5 14 6 15 7 16 8 17 9 18 10 8 11 7 12
REMARK SMILES IDX 6 13 5 14 4 15 3 16 2 17 1 18
REMARK H PARENT
REMARK Flexibility Score: inf
ROOT
ATOM      1  C   UNL     1      20.004  53.179  15.429  1.00  0.00     0.000 C 
ENDROOT
BRANCH   1   2
ATOM      2  C   UNL     1      19.778  53.762  14.028  1.00  0.00     0.000 C 
BRANCH   2   3
ATOM      3  C   UNL     1      18.793  54.941  14.076  1.00  0.00     0.000 C 
BRANCH   3   4
ATOM      4  C   UNL     1      17.827  54.951  12.879  1.00  0.00     0.000 C 
BRANCH   4   5
ATOM      5  C   UNL     1      16.352  54.900  13.310  1.00  0.00     0.000 C 
BRANCH   5   6
ATOM      6  C   UNL     1      16.179  54.874  14.840  1.00  0.00     0.006 C 
BRANCH   6   7
ATOM      7  C   UNL     1      14.772  55.260  15.323  1.00  0.00     0.053 C 
BRANCH   7   8
ATOM      8  C   UNL     1      14.818  56.228  16.466  1.00  0.00     0.041 C 
ATOM      9  O   UNL     1      15.324  57.370  16.309  1.00  0.00    -0.550 OA
ATOM     10  O   UNL     1      14.330  55.856  17.713  1.00  0.00    -0.550 OA
ENDBRANCH   7   8
ENDBRANCH   6   7
ENDBRANCH   5   6
ENDBRANCH   4   5
ENDBRANCH   3   4
ENDBRANCH   2   3
ENDBRANCH   1   2
BRANCH   1  11
ATOM     11  C   UNL     1      18.758  52.423  15.917  1.00  0.00     0.000 C 
BRANCH  11  12
ATOM     12  C   UNL     1      18.271  52.907  17.292  1.00  0.00    -0.000 C 
BRANCH  12  13
ATOM     13  C   UNL     1      19.023  54.157  17.778  1.00  0.00    -0.000 C 
BRANCH  13  14
ATOM     14  C   UNL     1      18.107  55.385  17.935  1.00  0.00    -0.000 C 
BRANCH  14  15
ATOM     15  C   UNL     1      18.653  56.692  17.328  1.00  0.00    -0.000 C 
BRANCH  15  16
ATOM     16  C   UNL     1      20.155  56.943  17.558  1.00  0.00    -0.000 C 
BRANCH  16  17
ATOM     17  C   UNL     1      21.000  56.890  16.268  1.00  0.00    -0.003 C 
ATOM     18  C   UNL     1      22.211  55.967  16.393  1.00  0.00     0.004 C 
ENDBRANCH  16  17
ENDBRANCH  15  16
ENDBRANCH  14  15
ENDBRANCH  13  14
ENDBRANCH  12  13
ENDBRANCH  11  12
ENDBRANCH   1  11
TORSDOF 14
ENDMDL
MODEL 3
REMARK VINA RESULT:    -4.640      1.390      3.798
REMARK INTER + INTRA:         -11.090
REMARK INTER:                  -8.855
REMARK INTRA:                  -2.235
REMARK UNBOUND:                -2.652
REMARK SMILES CCCCCCCCCCCCCCCC(=O)[O-]
REMARK SMILES IDX 9 1 10 2 11 3 12 4 13 5 14 6 15 7 16 8 17 9 18 10 8 11 7 12
REMARK SMILES IDX 6 13 5 14 4 15 3 16 2 17 1 18
REMARK H PARENT
REMARK Flexibility Score: inf
ROOT
ATOM      1  C   UNL     1      18.362  54.590  13.393  1.00  0.00     0.000 C 
ENDROOT
BRANCH   1   2
ATOM      2  C   UNL     1      19.642  53.922  13.910  1.00  0.00     0.000 C 
BRANCH   2   3
ATOM      3  C   UNL     1      19.327  52.933  15.043  1.00  0.00     0.000 C 
BRANCH   3   4
ATOM      4  C   UNL     1      20.277  53.088  16.242  1.00  0.00     0.000 C 
BRANCH   4   5
ATOM      5  C   UNL     1      21.557  53.862  15.885  1.00  0.00     0.000 C 
BRANCH   5   6
ATOM      6  C   UNL     1      21.857  55.004  16.875  1.00  0.00     0.006 C 
BRANCH   6   7
ATOM      7  C   UNL     1      22.349  56.300  16.213  1.00  0.00     0.053 C 
BRANCH   7   8
ATOM      8  C   UNL     1      23.845  56.382  16.185  1.00  0.00     0.041 C 
ATOM      9  O   UNL     1      24.421  57.209  15.430  1.00  0.00    -0.550 OA
ATOM     10  O   UNL     1      24.604  55.524  16.971  1.00  0.00    -0.550 OA
ENDBRANCH   7   8
ENDBRANCH   6   7
ENDBRANCH   5   6
ENDBRANCH   4   5
ENDBRANCH   3   4
ENDBRANCH   2   3
ENDBRANCH   1   2
BRANCH   1  11
ATOM     11  C   UNL     1      17.736  55.487  14.471  1.00  0.00     0.000 C 
BRANCH  11  12
ATOM     12  C   UNL     1      18.762  56.417  15.140  1.00  0.00    -0.000 C 
BRANCH  12  13
ATOM     13  C   UNL     1      18.260  56.984  16.479  1.00  0.00    -0.000 C 
BRANCH  13  14
ATOM     14  C   UNL     1      18.454  56.006  17.652  1.00  0.00    -0.000 C 
BRANCH  14  15
ATOM     15  C   UNL     1      17.159  55.371  18.196  1.00  0.00    -0.000 C 
BRANCH  15  16
ATOM     16  C   UNL     1      15.947  56.318  18.272  1.00  0.00    -0.000 C 
BRANCH  16  17
ATOM     17  C   UNL     1      14.733  55.844  17.445  1.00  0.00    -0.003 C 
ATOM     18  C   UNL     1      14.569  56.619  16.139  1.00  0.00     0.004 C 
ENDBRANCH  16  17
ENDBRANCH  15  16
ENDBRANCH  14  15
ENDBRANCH  13  14
ENDBRANCH  12  13
ENDBRANCH  11  12
ENDBRANCH   1  11
TORSDOF 14
ENDMDL
MODEL 4
REMARK VINA RESULT:    -4.613      0.812      2.886
REMARK INTER + INTRA:         -11.040
REMARK INTER:                  -8.477
REMARK INTRA:                  -2.563
REMARK UNBOUND:                -2.652
REMARK SMILES CCCCCCCCCCCCCCCC(=O)[O-]
REMARK SMILES IDX 9 1 10 2 11 3 12 4 13 5 14 6 15 7 16 8 17 9 18 10 8 11 7 12
REMARK SMILES IDX 6 13 5 14 4 15 3 16 2 17 1 18
REMARK H PARENT
REMARK Flexibility Score: inf
ROOT
ATOM      1  C   UNL     1      19.006  53.499  17.656  1.00  0.00     0.000 C 
ENDROOT
BRANCH   1   2
ATOM      2  C   UNL     1      18.984  54.737  18.562  1.00  0.00     0.000 C 
BRANCH   2   3
ATOM      3  C   UNL     1      18.890  56.025  17.732  1.00  0.00     0.000 C 
BRANCH   3   4
ATOM      4  C   UNL     1      20.245  56.739  17.594  1.00  0.00     0.000 C 
BRANCH   4   5
ATOM      5  C   UNL     1      20.590  57.075  16.133  1.00  0.00     0.000 C 
BRANCH   5   6
ATOM      6  C   UNL     1      21.976  56.550  15.714  1.00  0.00     0.006 C 
BRANCH   6   7
ATOM      7  C   UNL     1      22.844  56.057  16.882  1.00  0.00     0.053 C 
BRANCH   7   8
ATOM      8  C   UNL     1      24.262  55.817  16.464  1.00  0.00     0.041 C 
ATOM      9  O   UNL     1      24.921  56.730  15.901  1.00  0.00    -0.550 OA
ATOM     10  O   UNL     1      24.846  54.573  16.668  1.00  0.00    -0.550 OA
ENDBRANCH   7   8
ENDBRANCH   6   7
ENDBRANCH   5   6
ENDBRANCH   4   5
ENDBRANCH   3   4
ENDBRANCH   2   3
ENDBRANCH   1   2
BRANCH   1  11
ATOM     11  C   UNL     1      20.443  52.995  17.450  1.00  0.00     0.000 C 
BRANCH  11  12
ATOM     12  C   UNL     1      20.927  53.156  16.000  1.00  0.00    -0.000 C 
BRANCH  12  13
ATOM     13  C   UNL     1      19.788  53.008  14.978  1.00  0.00    -0.000 C 
BRANCH  13  14
ATOM     14  C   UNL     1      19.763  54.146  13.940  1.00  0.00    -0.000 C 
BRANCH  14  15
ATOM     15  C   UNL     1      18.359  54.576  13.474  1.00  0.00    -0.000 C 
BRANCH  15  16
ATOM     16  C   UNL     1      17.657  55.608  14.376  1.00  0.00    -0.000 C 
BRANCH  16  17
ATOM     17  C   UNL     1      16.205  55.231  14.741  1.00  0.00    -0.003 C 
ATOM     18  C   UNL     1      16.125  54.029  15.680  1.00  0.00     0.004 C 
ENDBRANCH  16  17
ENDBRANCH  15  16
ENDBRANCH  14  15
ENDBRANCH  13  14
ENDBRANCH  12  13
ENDBRANCH  11  12
ENDBRANCH   1  11
TORSDOF 14
ENDMDL
MODEL 5
REMARK VINA RESULT:    -4.593      3.950      5.968
REMARK INTER + INTRA:         -11.004
REMARK INTER:                  -8.425
REMARK INTRA:                  -2.580
REMARK UNBOUND:                -2.652
REMARK SMILES CCCCCCCCCCCCCCCC(=O)[O-]
REMARK SMILES IDX 9 1 10 2 11 3 12 4 13 5 14 6 15 7 16 8 17 9 18 10 8 11 7 12
REMARK SMILES IDX 6 13 5 14 4 15 3 16 2 17 1 18
REMARK H PARENT
REMARK Flexibility Score: inf
ROOT
ATOM      1  C   UNL     1      21.083  53.728  16.001  1.00  0.00     0.000 C 
ENDROOT
BRANCH   1   2
ATOM      2  C   UNL     1      19.859  53.253  16.792  1.00  0.00     0.000 C 
BRANCH   2   3
ATOM      3  C   UNL     1      20.183  53.133  18.289  1.00  0.00     0.000 C 
BRANCH   3   4
ATOM      4  C   UNL     1      18.943  53.317  19.178  1.00  0.00     0.000 C 
BRANCH   4   5
ATOM      5  C   UNL     1      17.631  53.279  18.377  1.00  0.00     0.000 C 
BRANCH   5   6
ATOM      6  C   UNL     1      16.401  53.637  19.232  1.00  0.00     0.006 C 
BRANCH   6   7
ATOM      7  C   UNL     1      16.133  55.146  19.351  1.00  0.00     0.053 C 
BRANCH   7   8
ATOM      8  C   UNL     1      14.874  55.549  18.647  1.00  0.00     0.041 C 
ATOM      9  O   UNL     1      14.144  54.678  18.106  1.00  0.00    -0.550 OA
ATOM     10  O   UNL     1      14.525  56.891  18.559  1.00  0.00    -0.550 OA
ENDBRANCH   7   8
ENDBRANCH   6   7
ENDBRANCH   5   6
ENDBRANCH   4   5
ENDBRANCH   3   4
ENDBRANCH   2   3
ENDBRANCH   1   2
BRANCH   1  11
ATOM     11  C   UNL     1      20.659  54.437  14.705  1.00  0.00     0.000 C 
BRANCH  11  12
ATOM     12  C   UNL     1      19.314  53.927  14.162  1.00  0.00    -0.000 C 
BRANCH  12  13
ATOM     13  C   UNL     1      18.415  55.066  13.651  1.00  0.00    -0.000 C 
BRANCH  13  14
ATOM     14  C   UNL     1      17.038  55.098  14.340  1.00  0.00    -0.000 C 
BRANCH  14  15
ATOM     15  C   UNL     1      17.029  55.708  15.756  1.00  0.00    -0.000 C 
BRANCH  15  16
ATOM     16  C   UNL     1      18.087  56.799  16.005  1.00  0.00    -0.000 C 
BRANCH  16  17
ATOM     17  C   UNL     1      18.694  56.765  17.423  1.00  0.00    -0.003 C 
ATOM     18  C   UNL     1      20.185  57.097  17.436  1.00  0.00     0.004 C 
ENDBRANCH  16  17
ENDBRANCH  15  16
ENDBRANCH  14  15
ENDBRANCH  13  14
ENDBRANCH  12  13
ENDBRANCH  11  12
ENDBRANCH   1  11
TORSDOF 14
ENDMDL
MODEL 6
REMARK VINA RESULT:    -4.577      1.387      3.340
REMARK INTER + INTRA:         -10.974
REMARK INTER:                  -8.829
REMARK INTRA:                  -2.145
REMARK UNBOUND:                -2.652
REMARK SMILES CCCCCCCCCCCCCCCC(=O)[O-]
REMARK SMILES IDX 9 1 10 2 11 3 12 4 13 5 14 6 15 7 16 8 17 9 18 10 8 11 7 12
REMARK SMILES IDX 6 13 5 14 4 15 3 16 2 17 1 18
REMARK H PARENT
REMARK Flexibility Score: inf
ROOT
ATOM      1  C   UNL     1      17.635  55.185  12.867  1.00  0.00     0.000 C 
ENDROOT
BRANCH   1   2
ATOM      2  C   UNL     1      18.640  55.153  14.025  1.00  0.00     0.000 C 
BRANCH   2   3
ATOM      3  C   UNL     1      19.624  53.983  13.868  1.00  0.00     0.000 C 
BRANCH   3   4
ATOM      4  C   UNL     1      19.499  52.951  15.000  1.00  0.00     0.000 C 
BRANCH   4   5
ATOM      5  C   UNL     1      20.661  53.032  16.005  1.00  0.00     0.000 C 
BRANCH   5   6
ATOM      6  C   UNL     1      21.489  54.323  15.854  1.00  0.00     0.006 C 
BRANCH   6   7
ATOM      7  C   UNL     1      22.798  54.330  16.658  1.00  0.00     0.053 C 
BRANCH   7   8
ATOM      8  C   UNL     1      23.525  55.634  16.534  1.00  0.00     0.041 C 
ATOM      9  O   UNL     1      24.658  55.781  17.063  1.00  0.00    -0.550 OA
ATOM     10  O   UNL     1      22.937  56.698  15.861  1.00  0.00    -0.550 OA
ENDBRANCH   7   8
ENDBRANCH   6   7
ENDBRANCH   5   6
ENDBRANCH   4   5
ENDBRANCH   3   4
ENDBRANCH   2   3
ENDBRANCH   1   2
BRANCH   1  11
ATOM     11  C   UNL     1      16.254  54.692  13.324  1.00  0.00     0.000 C 
BRANCH  11  12
ATOM     12  C   UNL     1      15.925  55.101  14.770  1.00  0.00    -0.000 C 
BRANCH  12  13
ATOM     13  C   UNL     1      15.508  53.905  15.641  1.00  0.00    -0.000 C 
BRANCH  13  14
ATOM     14  C   UNL     1      16.535  53.579  16.742  1.00  0.00    -0.000 C 
BRANCH  14  15
ATOM     15  C   UNL     1      16.774  54.704  17.767  1.00  0.00    -0.000 C 
BRANCH  15  16
ATOM     16  C   UNL     1      18.240  55.151  17.917  1.00  0.00    -0.000 C 
BRANCH  16  17
ATOM     17  C   UNL     1      18.509  56.584  17.409  1.00  0.00    -0.003 C 
ATOM     18  C   UNL     1      19.910  57.082  17.759  1.00  0.00     0.004 C 
ENDBRANCH  16  17
ENDBRANCH  15  16
ENDBRANCH  14  15
ENDBRANCH  13  14
ENDBRANCH  12  13
ENDBRANCH  11  12
ENDBRANCH   1  11
TORSDOF 14
ENDMDL
MODEL 7
REMARK VINA RESULT:    -4.505      2.359      4.245
REMARK INTER + INTRA:         -10.844
REMARK INTER:                  -8.483
REMARK INTRA:                  -2.360
REMARK UNBOUND:                -2.652
REMARK SMILES CCCCCCCCCCCCCCCC(=O)[O-]
REMARK SMILES IDX 9 1 10 2 11 3 12 4 13 5 14 6 15 7 16 8 17 9 18 10 8 11 7 12
REMARK SMILES IDX 6 13 5 14 4 15 3 16 2 17 1 18
REMARK H PARENT
REMARK Flexibility Score: inf
ROOT
ATOM      1  C   UNL     1      18.026  56.331  15.122  1.00  0.00     0.000 C 
ENDROOT
BRANCH   1   2
ATOM      2  C   UNL     1      17.477  55.052  14.476  1.00  0.00     0.000 C 
BRANCH   2   3
ATOM      3  C   UNL     1      18.345  54.620  13.285  1.00  0.00     0.000 C 
BRANCH   3   4
ATOM      4  C   UNL     1      19.648  53.931  13.724  1.00  0.00     0.000 C 
BRANCH   4   5
ATOM      5  C   UNL     1      19.440  52.980  14.915  1.00  0.00     0.000 C 
BRANCH   5   6
ATOM      6  C   UNL     1      20.601  53.031  15.926  1.00  0.00     0.006 C 
BRANCH   6   7
ATOM      7  C   UNL     1      21.369  54.362  15.938  1.00  0.00     0.053 C 
BRANCH   7   8
ATOM      8  C   UNL     1      20.924  55.255  17.055  1.00  0.00     0.041 C 
ATOM      9  O   UNL     1      20.165  54.813  17.957  1.00  0.00    -0.550 OA
ATOM     10  O   UNL     1      21.322  56.586  17.083  1.00  0.00    -0.550 OA
ENDBRANCH   7   8
ENDBRANCH   6   7
ENDBRANCH   5   6
ENDBRANCH   4   5
ENDBRANCH   3   4
ENDBRANCH   2   3
ENDBRANCH   1   2
BRANCH   1  11
ATOM     11  C   UNL     1      17.375  56.578  16.491  1.00  0.00     0.000 C 
BRANCH  11  12
ATOM     12  C   UNL     1      15.856  56.797  16.396  1.00  0.00    -0.000 C 
BRANCH  12  13
ATOM     13  C   UNL     1      15.148  56.619  17.750  1.00  0.00    -0.000 C 
BRANCH  13  14
ATOM     14  C   UNL     1      16.077  56.053  18.840  1.00  0.00    -0.000 C 
BRANCH  14  15
ATOM     15  C   UNL     1      15.815  54.584  19.225  1.00  0.00    -0.000 C 
BRANCH  15  16
ATOM     16  C   UNL     1      17.008  53.632  19.023  1.00  0.00    -0.000 C 
BRANCH  16  17
ATOM     17  C   UNL     1      17.056  52.983  17.623  1.00  0.00    -0.003 C 
ATOM     18  C   UNL     1      15.688  52.941  16.944  1.00  0.00     0.004 C 
ENDBRANCH  16  17
ENDBRANCH  15  16
ENDBRANCH  14  15
ENDBRANCH  13  14
ENDBRANCH  12  13
ENDBRANCH  11  12
ENDBRANCH   1  11
TORSDOF 14
ENDMDL
MODEL 8
REMARK VINA RESULT:    -4.492      1.557      3.807
REMARK INTER + INTRA:         -10.821
REMARK INTER:                  -8.818
REMARK INTRA:                  -2.004
REMARK UNBOUND:                -2.652
REMARK SMILES CCCCCCCCCCCCCCCC(=O)[O-]
REMARK SMILES IDX 9 1 10 2 11 3 12 4 13 5 14 6 15 7 16 8 17 9 18 10 8 11 7 12
REMARK SMILES IDX 6 13 5 14 4 15 3 16 2 17 1 18
REMARK H PARENT
REMARK Flexibility Score: inf
ROOT
ATOM      1  C   UNL     1      19.875  53.075  15.131  1.00  0.00     0.000 C 
ENDROOT
BRANCH   1   2
ATOM      2  C   UNL     1      18.717  53.016  16.135  1.00  0.00     0.000 C 
BRANCH   2   3
ATOM      3  C   UNL     1      19.148  53.562  17.505  1.00  0.00     0.000 C 
BRANCH   3   4
ATOM      4  C   UNL     1      18.289  54.753  17.962  1.00  0.00     0.000 C 
BRANCH   4   5
ATOM      5  C   UNL     1      18.731  56.080  17.324  1.00  0.00     0.000 C 
BRANCH   5   6
ATOM      6  C   UNL     1      20.216  56.398  17.581  1.00  0.00     0.006 C 
BRANCH   6   7
ATOM      7  C   UNL     1      21.014  56.748  16.315  1.00  0.00     0.053 C 
BRANCH   7   8
ATOM      8  C   UNL     1      22.326  56.027  16.263  1.00  0.00     0.041 C 
ATOM      9  O   UNL     1      22.404  54.825  16.631  1.00  0.00    -0.550 OA
ATOM     10  O   UNL     1      23.470  56.692  15.837  1.00  0.00    -0.550 OA
ENDBRANCH   7   8
ENDBRANCH   6   7
ENDBRANCH   5   6
ENDBRANCH   4   5
ENDBRANCH   3   4
ENDBRANCH   2   3
ENDBRANCH   1   2
BRANCH   1  11
ATOM     11  C   UNL     1      19.421  53.707  13.806  1.00  0.00     0.000 C 
BRANCH  11  12
ATOM     12  C   UNL     1      18.761  55.082  13.998  1.00  0.00    -0.000 C 
BRANCH  12  13
ATOM     13  C   UNL     1      17.556  55.293  13.066  1.00  0.00    -0.000 C 
BRANCH  13  14
ATOM     14  C   UNL     1      16.234  54.786  13.672  1.00  0.00    -0.000 C 
BRANCH  14  15
ATOM     15  C   UNL     1      15.988  55.191  15.138  1.00  0.00    -0.000 C 
BRANCH  15  16
ATOM     16  C   UNL     1      14.515  55.167  15.586  1.00  0.00    -0.000 C 
BRANCH  16  17
ATOM     17  C   UNL     1      13.875  56.567  15.695  1.00  0.00    -0.003 C 
ATOM     18  C   UNL     1      14.651  57.501  16.623  1.00  0.00     0.004 C 
ENDBRANCH  16  17
ENDBRANCH  15  16
ENDBRANCH  14  15
ENDBRANCH  13  14
ENDBRANCH  12  13
ENDBRANCH  11  12
ENDBRANCH   1  11
TORSDOF 14
ENDMDL
MODEL 9
REMARK VINA RESULT:    -4.479      3.399      5.499
REMARK INTER + INTRA:         -10.797
REMARK INTER:                  -8.327
REMARK INTRA:                  -2.470
REMARK UNBOUND:                -2.652
REMARK SMILES CCCCCCCCCCCCCCCC(=O)[O-]
REMARK SMILES IDX 9 1 10 2 11 3 12 4 13 5 14 6 15 7 16 8 17 9 18 10 8 11 7 12
REMARK SMILES IDX 6 13 5 14 4 15 3 16 2 17 1 18
REMARK H PARENT
REMARK Flexibility Score: inf
ROOT
ATOM      1  C   UNL     1      21.775  55.600  15.835  1.00  0.00     0.000 C 
ENDROOT
BRANCH   1   2
ATOM      2  C   UNL     1      21.040  56.659  16.665  1.00  0.00     0.000 C 
BRANCH   2   3
ATOM      3  C   UNL     1      19.700  57.035  16.015  1.00  0.00     0.000 C 
BRANCH   3   4
ATOM      4  C   UNL     1      18.540  57.056  17.024  1.00  0.00     0.000 C 
BRANCH   4   5
ATOM      5  C   UNL     1      17.163  56.960  16.344  1.00  0.00     0.000 C 
BRANCH   5   6
ATOM      6  C   UNL     1      16.238  55.929  17.017  1.00  0.00     0.006 C 
BRANCH   6   7
ATOM      7  C   UNL     1      16.921  55.080  18.100  1.00  0.00     0.053 C 
BRANCH   7   8
ATOM      8  C   UNL     1      16.213  53.779  18.322  1.00  0.00     0.041 C 
ATOM      9  O   UNL     1      15.986  53.008  17.354  1.00  0.00    -0.550 OA
ATOM     10  O   UNL     1      15.775  53.434  19.595  1.00  0.00    -0.550 OA
ENDBRANCH   7   8
ENDBRANCH   6   7
ENDBRANCH   5   6
ENDBRANCH   4   5
ENDBRANCH   3   4
ENDBRANCH   2   3
ENDBRANCH   1   2
BRANCH   1  11
ATOM     11  C   UNL     1      21.793  54.246  16.561  1.00  0.00     0.000 C 
BRANCH  11  12
ATOM     12  C   UNL     1      20.548  54.026  17.437  1.00  0.00    -0.000 C 
BRANCH  12  13
ATOM     13  C   UNL     1      19.797  52.732  17.080  1.00  0.00    -0.000 C 
BRANCH  13  14
ATOM     14  C   UNL     1      19.486  52.616  15.577  1.00  0.00    -0.000 C 
BRANCH  14  15
ATOM     15  C   UNL     1      18.544  53.700  15.017  1.00  0.00    -0.000 C 
BRANCH  15  16
ATOM     16  C   UNL     1      19.013  54.365  13.711  1.00  0.00    -0.000 C 
BRANCH  16  17
ATOM     17  C   UNL     1      17.858  54.851  12.809  1.00  0.00    -0.003 C 
ATOM     18  C   UNL     1      16.502  54.805  13.511  1.00  0.00     0.004 C 
ENDBRANCH  16  17
ENDBRANCH  15  16
ENDBRANCH  14  15
ENDBRANCH  13  14
ENDBRANCH  12  13
ENDBRANCH  11  12
ENDBRANCH   1  11
TORSDOF 14
ENDMDL
