MODEL 1
REMARK VINA RESULT:    -6.782      0.000      0.000
REMARK INTER + INTRA:          -6.828
REMARK INTER:                  -7.376
REMARK INTRA:                   0.548
REMARK UNBOUND:                 0.548
REMARK SMILES C[C@@H]1[C@H](C)CC[C@@]2(C(=O)[O-])CC[C@@]3(C)C(=CC[C@@H]4[C@@]5(C)CC[C@@H](O)C(C)(C)[C@H]5CC[C@@]43C)[C@H]12
REMARK SMILES IDX 7 1 6 2 11 3 33 4 5 5 12 6 15 7 2 8 3 9 13 10 16 11 1 12
REMARK SMILES IDX 4 13 14 14 31 15 17 16 18 17 30 18 32 19 19 20 29 21 28 22
REMARK SMILES IDX 21 23 20 24 25 25 22 26 23 27 26 28 27 29 8 30 9 31 10 32
REMARK SMILES IDX 24 33
REMARK H PARENT 24 34
REMARK Flexibility Score: inf
ROOT
ATOM      1  C   UNL     1      12.721  31.918  55.231  1.00  0.00     0.017 C 
ATOM      2  C   UNL     1      12.068  30.887  56.228  1.00  0.00     0.014 C 
ATOM      3  C   UNL     1      14.220  32.118  55.558  1.00  0.00     0.014 C 
ATOM      4  C   UNL     1      12.639  31.364  53.771  1.00  0.00     0.030 C 
ATOM      5  C   UNL     1      11.900  29.465  55.663  1.00  0.00     0.004 C 
ATOM      6  C   UNL     1      14.945  33.035  54.533  1.00  0.00     0.013 C 
ATOM      7  C   UNL     1      13.333  32.300  52.773  1.00  0.00    -0.063 C 
ATOM      8  C   UNL     1      11.246  30.729  53.458  1.00  0.00    -0.003 C 
ATOM      9  C   UNL     1      11.110  29.416  54.316  1.00  0.00    -0.011 C 
ATOM     10  C   UNL     1      14.826  32.606  53.016  1.00  0.00    -0.006 C 
ATOM     11  C   UNL     1      12.624  32.921  51.828  1.00  0.00    -0.027 C 
ATOM     12  C   UNL     1      10.046  31.693  53.648  1.00  0.00     0.008 C 
ATOM     13  C   UNL     1       9.663  28.941  54.532  1.00  0.00     0.008 C 
ATOM     14  C   UNL     1      15.624  31.273  52.831  1.00  0.00     0.017 C 
ATOM     15  C   UNL     1      15.434  33.741  52.012  1.00  0.00    -0.020 C 
ATOM     16  C   UNL     1      13.058  34.166  51.147  1.00  0.00     0.032 C 
ATOM     17  C   UNL     1      14.354  34.855  51.701  1.00  0.00     0.006 C 
ATOM     18  C   UNL     1      15.846  33.157  50.627  1.00  0.00     0.008 C 
ATOM     19  C   UNL     1      16.728  34.309  52.688  1.00  0.00     0.012 C 
ATOM     20  C   UNL     1      14.784  36.038  50.694  1.00  0.00    -0.025 C 
ATOM     21  C   UNL     1      16.339  34.210  49.617  1.00  0.00     0.005 C 
ATOM     22  C   UNL     1      15.409  35.438  49.358  1.00  0.00     0.003 C 
ATOM     23  C   UNL     1      15.753  37.071  51.363  1.00  0.00     0.010 C 
ATOM     24  C   UNL     1      13.483  36.859  50.375  1.00  0.00     0.012 C 
ATOM     25  C   UNL     1      16.099  36.512  48.395  1.00  0.00    -0.006 C 
ATOM     26  C   UNL     1      16.327  38.125  50.400  1.00  0.00     0.033 C 
ATOM     27  C   UNL     1      17.025  37.492  49.190  1.00  0.00     0.120 C 
ATOM     28  C   UNL     1      15.030  37.326  47.605  1.00  0.00     0.014 C 
ATOM     29  C   UNL     1      16.947  35.820  47.284  1.00  0.00     0.014 C 
ENDROOT
BRANCH   1  30
ATOM     30  C   UNL     1      12.040  33.277  55.425  1.00  0.00     0.048 C 
ATOM     31  O   UNL     1      11.240  33.449  56.384  1.00  0.00    -0.550 OA
ATOM     32  O   UNL     1      12.371  34.377  54.644  1.00  0.00    -0.550 OA
ENDBRANCH   1  30
BRANCH  27  33
ATOM     33  O   UNL     1      18.188  36.842  49.642  1.00  0.00    -0.393 OA
ATOM     34  H   UNL     1      17.970  36.405  50.507  1.00  0.00     0.210 HD
ENDBRANCH  27  33
TORSDOF 2
ENDMDL
MODEL 2
REMARK VINA RESULT:    -6.748      5.678      9.264
REMARK INTER + INTRA:          -6.792
REMARK INTER:                  -7.329
REMARK INTRA:                   0.537
REMARK UNBOUND:                 0.548
REMARK SMILES C[C@@H]1[C@H](C)CC[C@@]2(C(=O)[O-])CC[C@@]3(C)C(=CC[C@@H]4[C@@]5(C)CC[C@@H](O)C(C)(C)[C@H]5CC[C@@]43C)[C@H]12
REMARK SMILES IDX 7 1 6 2 11 3 33 4 5 5 12 6 15 7 2 8 3 9 13 10 16 11 1 12
REMARK SMILES IDX 4 13 14 14 31 15 17 16 18 17 30 18 32 19 19 20 29 21 28 22
REMARK SMILES IDX 21 23 20 24 25 25 22 26 23 27 26 28 27 29 8 30 9 31 10 32
REMARK SMILES IDX 24 33
REMARK H PARENT 24 34
REMARK Flexibility Score: inf
ROOT
ATOM      1  C   UNL     1      18.547  29.046  60.487  1.00  0.00     0.017 C 
ATOM      2  C   UNL     1      19.660  28.609  61.513  1.00  0.00     0.014 C 
ATOM      3  C   UNL     1      17.322  28.105  60.577  1.00  0.00     0.014 C 
ATOM      4  C   UNL     1      18.046  30.487  60.833  1.00  0.00     0.030 C 
ATOM      5  C   UNL     1      19.704  29.443  62.807  1.00  0.00     0.004 C 
ATOM      6  C   UNL     1      16.143  28.559  59.671  1.00  0.00     0.013 C 
ATOM      7  C   UNL     1      16.905  30.925  59.907  1.00  0.00    -0.063 C 
ATOM      8  C   UNL     1      19.224  31.451  61.188  1.00  0.00    -0.003 C 
ATOM      9  C   UNL     1      19.840  30.979  62.557  1.00  0.00    -0.011 C 
ATOM     10  C   UNL     1      15.639  30.042  59.882  1.00  0.00    -0.006 C 
ATOM     11  C   UNL     1      17.076  31.947  59.065  1.00  0.00    -0.027 C 
ATOM     12  C   UNL     1      20.290  31.595  60.071  1.00  0.00     0.008 C 
ATOM     13  C   UNL     1      21.277  31.464  62.812  1.00  0.00     0.008 C 
ATOM     14  C   UNL     1      14.970  30.125  61.294  1.00  0.00     0.017 C 
ATOM     15  C   UNL     1      14.554  30.485  58.746  1.00  0.00    -0.020 C 
ATOM     16  C   UNL     1      16.275  32.151  57.832  1.00  0.00     0.032 C 
ATOM     17  C   UNL     1      15.283  31.001  57.440  1.00  0.00     0.006 C 
ATOM     18  C   UNL     1      13.645  31.662  59.212  1.00  0.00     0.008 C 
ATOM     19  C   UNL     1      13.627  29.248  58.487  1.00  0.00     0.012 C 
ATOM     20  C   UNL     1      14.351  31.510  56.227  1.00  0.00    -0.025 C 
ATOM     21  C   UNL     1      12.667  32.172  58.136  1.00  0.00     0.005 C 
ATOM     22  C   UNL     1      13.274  32.560  56.750  1.00  0.00     0.003 C 
ATOM     23  C   UNL     1      13.670  30.328  55.459  1.00  0.00     0.010 C 
ATOM     24  C   UNL     1      15.304  32.177  55.171  1.00  0.00     0.012 C 
ATOM     25  C   UNL     1      12.138  32.943  55.692  1.00  0.00    -0.006 C 
ATOM     26  C   UNL     1      12.640  30.762  54.401  1.00  0.00     0.033 C 
ATOM     27  C   UNL     1      11.554  31.676  54.983  1.00  0.00     0.120 C 
ATOM     28  C   UNL     1      12.681  33.937  54.621  1.00  0.00     0.014 C 
ATOM     29  C   UNL     1      10.965  33.717  56.369  1.00  0.00     0.014 C 
ENDROOT
BRANCH   1  30
ATOM     30  C   UNL     1      19.112  28.903  59.070  1.00  0.00     0.048 C 
ATOM     31  O   UNL     1      20.273  28.443  58.899  1.00  0.00    -0.550 OA
ATOM     32  O   UNL     1      18.334  29.149  57.946  1.00  0.00    -0.550 OA
ENDBRANCH   1  30
BRANCH  27  33
ATOM     33  O   UNL     1      10.766  30.915  55.867  1.00  0.00    -0.393 OA
ATOM     34  H   UNL     1      11.360  30.587  56.592  1.00  0.00     0.210 HD
ENDBRANCH  27  33
TORSDOF 2
ENDMDL
MODEL 3
REMARK VINA RESULT:    -6.540      1.541      7.850
REMARK INTER + INTRA:          -6.565
REMARK INTER:                  -7.110
REMARK INTRA:                   0.545
REMARK UNBOUND:                 0.548
REMARK SMILES C[C@@H]1[C@H](C)CC[C@@]2(C(=O)[O-])CC[C@@]3(C)C(=CC[C@@H]4[C@@]5(C)CC[C@@H](O)C(C)(C)[C@H]5CC[C@@]43C)[C@H]12
REMARK SMILES IDX 7 1 6 2 11 3 33 4 5 5 12 6 15 7 2 8 3 9 13 10 16 11 1 12
REMARK SMILES IDX 4 13 14 14 31 15 17 16 18 17 30 18 32 19 19 20 29 21 28 22
REMARK SMILES IDX 21 23 20 24 25 25 22 26 23 27 26 28 27 29 8 30 9 31 10 32
REMARK SMILES IDX 24 33
REMARK H PARENT 24 34
REMARK Flexibility Score: inf
ROOT
ATOM      1  C   UNL     1      14.976  36.724  49.318  1.00  0.00     0.017 C 
ATOM      2  C   UNL     1      15.224  37.539  47.993  1.00  0.00     0.014 C 
ATOM      3  C   UNL     1      13.548  36.978  49.856  1.00  0.00     0.014 C 
ATOM      4  C   UNL     1      15.090  35.191  49.024  1.00  0.00     0.030 C 
ATOM      5  C   UNL     1      15.095  36.717  46.699  1.00  0.00     0.004 C 
ATOM      6  C   UNL     1      13.205  36.107  51.098  1.00  0.00     0.013 C 
ATOM      7  C   UNL     1      14.778  34.353  50.270  1.00  0.00    -0.063 C 
ATOM      8  C   UNL     1      16.305  34.857  48.100  1.00  0.00    -0.003 C 
ATOM      9  C   UNL     1      16.002  35.445  46.672  1.00  0.00    -0.011 C 
ATOM     10  C   UNL     1      13.392  34.547  50.922  1.00  0.00    -0.006 C 
ATOM     11  C   UNL     1      15.729  33.602  50.830  1.00  0.00    -0.027 C 
ATOM     12  C   UNL     1      17.677  35.318  48.657  1.00  0.00     0.008 C 
ATOM     13  C   UNL     1      17.247  35.663  45.794  1.00  0.00     0.008 C 
ATOM     14  C   UNL     1      12.313  34.046  49.906  1.00  0.00     0.017 C 
ATOM     15  C   UNL     1      13.215  33.749  52.334  1.00  0.00    -0.020 C 
ATOM     16  C   UNL     1      15.707  33.152  52.245  1.00  0.00     0.032 C 
ATOM     17  C   UNL     1      14.570  33.740  53.152  1.00  0.00     0.006 C 
ATOM     18  C   UNL     1      12.837  32.249  52.131  1.00  0.00     0.008 C 
ATOM     19  C   UNL     1      12.034  34.431  53.104  1.00  0.00     0.012 C 
ATOM     20  C   UNL     1      14.575  32.960  54.562  1.00  0.00    -0.025 C 
ATOM     21  C   UNL     1      12.750  31.436  53.437  1.00  0.00     0.005 C 
ATOM     22  C   UNL     1      13.984  31.491  54.393  1.00  0.00     0.003 C 
ATOM     23  C   UNL     1      13.824  33.751  55.686  1.00  0.00     0.010 C 
ATOM     24  C   UNL     1      16.069  32.901  55.043  1.00  0.00     0.012 C 
ATOM     25  C   UNL     1      13.706  30.715  55.763  1.00  0.00    -0.006 C 
ATOM     26  C   UNL     1      13.654  32.979  57.006  1.00  0.00     0.033 C 
ATOM     27  C   UNL     1      12.969  31.621  56.804  1.00  0.00     0.120 C 
ATOM     28  C   UNL     1      15.032  30.178  56.382  1.00  0.00     0.014 C 
ATOM     29  C   UNL     1      12.850  29.432  55.529  1.00  0.00     0.014 C 
ENDROOT
BRANCH   1  30
ATOM     30  C   UNL     1      15.949  37.230  50.388  1.00  0.00     0.048 C 
ATOM     31  O   UNL     1      16.802  38.112  50.097  1.00  0.00    -0.550 OA
ATOM     32  O   UNL     1      15.844  36.836  51.716  1.00  0.00    -0.550 OA
ENDBRANCH   1  30
BRANCH  27  33
ATOM     33  O   UNL     1      11.634  31.853  56.424  1.00  0.00    -0.393 OA
ATOM     34  H   UNL     1      11.188  32.330  57.172  1.00  0.00     0.210 HD
ENDBRANCH  27  33
TORSDOF 2
ENDMDL
MODEL 4
REMARK VINA RESULT:    -6.217      2.268      7.903
REMARK INTER + INTRA:          -6.214
REMARK INTER:                  -6.756
REMARK INTRA:                   0.542
REMARK UNBOUND:                 0.548
REMARK SMILES C[C@@H]1[C@H](C)CC[C@@]2(C(=O)[O-])CC[C@@]3(C)C(=CC[C@@H]4[C@@]5(C)CC[C@@H](O)C(C)(C)[C@H]5CC[C@@]43C)[C@H]12
REMARK SMILES IDX 7 1 6 2 11 3 33 4 5 5 12 6 15 7 2 8 3 9 13 10 16 11 1 12
REMARK SMILES IDX 4 13 14 14 31 15 17 16 18 17 30 18 32 19 19 20 29 21 28 22
REMARK SMILES IDX 21 23 20 24 25 25 22 26 23 27 26 28 27 29 8 30 9 31 10 32
REMARK SMILES IDX 24 33
REMARK H PARENT 24 34
REMARK Flexibility Score: inf
ROOT
ATOM      1  C   UNL     1      15.388  33.986  49.950  1.00  0.00     0.017 C 
ATOM      2  C   UNL     1      15.791  34.660  48.584  1.00  0.00     0.014 C 
ATOM      3  C   UNL     1      16.008  32.573  50.064  1.00  0.00     0.014 C 
ATOM      4  C   UNL     1      15.948  34.831  51.141  1.00  0.00     0.030 C 
ATOM      5  C   UNL     1      16.938  35.682  48.686  1.00  0.00     0.004 C 
ATOM      6  C   UNL     1      15.743  31.905  51.443  1.00  0.00     0.013 C 
ATOM      7  C   UNL     1      15.647  34.170  52.492  1.00  0.00    -0.063 C 
ATOM      8  C   UNL     1      15.745  36.365  50.921  1.00  0.00    -0.003 C 
ATOM      9  C   UNL     1      16.679  36.810  49.735  1.00  0.00    -0.011 C 
ATOM     10  C   UNL     1      16.183  32.739  52.712  1.00  0.00    -0.006 C 
ATOM     11  C   UNL     1      14.835  34.767  53.367  1.00  0.00    -0.027 C 
ATOM     12  C   UNL     1      14.270  36.792  50.713  1.00  0.00     0.008 C 
ATOM     13  C   UNL     1      16.262  38.125  49.054  1.00  0.00     0.008 C 
ATOM     14  C   UNL     1      17.746  32.811  52.719  1.00  0.00     0.017 C 
ATOM     15  C   UNL     1      15.670  32.053  54.101  1.00  0.00    -0.020 C 
ATOM     16  C   UNL     1      14.103  34.054  54.444  1.00  0.00     0.032 C 
ATOM     17  C   UNL     1      14.184  32.487  54.429  1.00  0.00     0.006 C 
ATOM     18  C   UNL     1      16.517  32.492  55.334  1.00  0.00     0.008 C 
ATOM     19  C   UNL     1      15.839  30.504  53.940  1.00  0.00     0.012 C 
ATOM     20  C   UNL     1      13.534  31.921  55.791  1.00  0.00    -0.025 C 
ATOM     21  C   UNL     1      16.010  31.939  56.680  1.00  0.00     0.005 C 
ATOM     22  C   UNL     1      14.506  32.179  57.026  1.00  0.00     0.003 C 
ATOM     23  C   UNL     1      13.139  30.410  55.683  1.00  0.00     0.010 C 
ATOM     24  C   UNL     1      12.172  32.678  55.993  1.00  0.00     0.012 C 
ATOM     25  C   UNL     1      14.084  31.442  58.381  1.00  0.00    -0.006 C 
ATOM     26  C   UNL     1      12.670  29.776  57.004  1.00  0.00     0.033 C 
ATOM     27  C   UNL     1      13.696  29.947  58.131  1.00  0.00     0.120 C 
ATOM     28  C   UNL     1      12.900  32.180  59.076  1.00  0.00     0.014 C 
ATOM     29  C   UNL     1      15.232  31.487  59.436  1.00  0.00     0.014 C 
ENDROOT
BRANCH   1  30
ATOM     30  C   UNL     1      13.867  33.804  49.970  1.00  0.00     0.048 C 
ATOM     31  O   UNL     1      13.182  34.117  48.958  1.00  0.00    -0.550 OA
ATOM     32  O   UNL     1      13.220  33.184  51.032  1.00  0.00    -0.550 OA
ENDBRANCH   1  30
BRANCH  27  33
ATOM     33  O   UNL     1      14.828  29.172  57.817  1.00  0.00    -0.393 OA
ATOM     34  H   UNL     1      14.747  28.894  56.867  1.00  0.00     0.210 HD
ENDBRANCH  27  33
TORSDOF 2
ENDMDL
MODEL 5
REMARK VINA RESULT:    -6.131      2.460      4.288
REMARK INTER + INTRA:          -6.121
REMARK INTER:                  -6.659
REMARK INTRA:                   0.538
REMARK UNBOUND:                 0.548
REMARK SMILES C[C@@H]1[C@H](C)CC[C@@]2(C(=O)[O-])CC[C@@]3(C)C(=CC[C@@H]4[C@@]5(C)CC[C@@H](O)C(C)(C)[C@H]5CC[C@@]43C)[C@H]12
REMARK SMILES IDX 7 1 6 2 11 3 33 4 5 5 12 6 15 7 2 8 3 9 13 10 16 11 1 12
REMARK SMILES IDX 4 13 14 14 31 15 17 16 18 17 30 18 32 19 19 20 29 21 28 22
REMARK SMILES IDX 21 23 20 24 25 25 22 26 23 27 26 28 27 29 8 30 9 31 10 32
REMARK SMILES IDX 24 33
REMARK H PARENT 24 34
REMARK Flexibility Score: inf
ROOT
ATOM      1  C   UNL     1      14.594  30.850  55.704  1.00  0.00     0.017 C 
ATOM      2  C   UNL     1      14.231  30.111  57.047  1.00  0.00     0.014 C 
ATOM      3  C   UNL     1      13.312  31.194  54.907  1.00  0.00     0.014 C 
ATOM      4  C   UNL     1      15.312  32.203  56.023  1.00  0.00     0.030 C 
ATOM      5  C   UNL     1      14.255  31.006  58.300  1.00  0.00     0.004 C 
ATOM      6  C   UNL     1      13.601  32.030  53.629  1.00  0.00     0.013 C 
ATOM      7  C   UNL     1      15.615  32.996  54.746  1.00  0.00    -0.063 C 
ATOM      8  C   UNL     1      16.375  32.051  57.159  1.00  0.00    -0.003 C 
ATOM      9  C   UNL     1      15.607  31.762  58.503  1.00  0.00    -0.011 C 
ATOM     10  C   UNL     1      14.417  33.366  53.846  1.00  0.00    -0.006 C 
ATOM     11  C   UNL     1      16.878  33.220  54.377  1.00  0.00    -0.027 C 
ATOM     12  C   UNL     1      17.481  31.005  56.866  1.00  0.00     0.008 C 
ATOM     13  C   UNL     1      16.462  31.098  59.596  1.00  0.00     0.008 C 
ATOM     14  C   UNL     1      13.509  34.359  54.644  1.00  0.00     0.017 C 
ATOM     15  C   UNL     1      14.849  34.054  52.430  1.00  0.00    -0.020 C 
ATOM     16  C   UNL     1      17.296  33.526  52.986  1.00  0.00     0.032 C 
ATOM     17  C   UNL     1      16.189  33.416  51.879  1.00  0.00     0.006 C 
ATOM     18  C   UNL     1      15.136  35.580  52.567  1.00  0.00     0.008 C 
ATOM     19  C   UNL     1      13.639  33.888  51.448  1.00  0.00     0.012 C 
ATOM     20  C   UNL     1      16.775  34.009  50.499  1.00  0.00    -0.025 C 
ATOM     21  C   UNL     1      15.636  36.250  51.273  1.00  0.00     0.005 C 
ATOM     22  C   UNL     1      16.864  35.597  50.563  1.00  0.00     0.003 C 
ATOM     23  C   UNL     1      15.958  33.534  49.250  1.00  0.00     0.010 C 
ATOM     24  C   UNL     1      18.203  33.382  50.305  1.00  0.00     0.012 C 
ATOM     25  C   UNL     1      17.192  36.311  49.170  1.00  0.00    -0.006 C 
ATOM     26  C   UNL     1      16.369  34.201  47.926  1.00  0.00     0.033 C 
ATOM     27  C   UNL     1      16.322  35.732  48.004  1.00  0.00     0.120 C 
ATOM     28  C   UNL     1      18.703  36.176  48.812  1.00  0.00     0.014 C 
ATOM     29  C   UNL     1      16.955  37.850  49.248  1.00  0.00     0.014 C 
ENDROOT
BRANCH   1  30
ATOM     30  C   UNL     1      15.414  29.895  54.831  1.00  0.00     0.048 C 
ATOM     31  O   UNL     1      15.637  28.717  55.224  1.00  0.00    -0.550 OA
ATOM     32  O   UNL     1      15.824  30.246  53.551  1.00  0.00    -0.550 OA
ENDBRANCH   1  30
BRANCH  27  33
ATOM     33  O   UNL     1      14.977  36.126  48.127  1.00  0.00    -0.393 OA
ATOM     34  H   UNL     1      14.739  36.640  47.312  1.00  0.00     0.210 HD
ENDBRANCH  27  33
TORSDOF 2
ENDMDL
MODEL 6
REMARK VINA RESULT:    -5.814      3.665      6.130
REMARK INTER + INTRA:          -5.776
REMARK INTER:                  -6.318
REMARK INTRA:                   0.542
REMARK UNBOUND:                 0.548
REMARK SMILES C[C@@H]1[C@H](C)CC[C@@]2(C(=O)[O-])CC[C@@]3(C)C(=CC[C@@H]4[C@@]5(C)CC[C@@H](O)C(C)(C)[C@H]5CC[C@@]43C)[C@H]12
REMARK SMILES IDX 7 1 6 2 11 3 33 4 5 5 12 6 15 7 2 8 3 9 13 10 16 11 1 12
REMARK SMILES IDX 4 13 14 14 31 15 17 16 18 17 30 18 32 19 19 20 29 21 28 22
REMARK SMILES IDX 21 23 20 24 25 25 22 26 23 27 26 28 27 29 8 30 9 31 10 32
REMARK SMILES IDX 24 33
REMARK H PARENT 24 34
REMARK Flexibility Score: inf
ROOT
ATOM      1  C   UNL     1      14.058  29.008  59.008  1.00  0.00     0.017 C 
ATOM      2  C   UNL     1      13.793  28.290  60.386  1.00  0.00     0.014 C 
ATOM      3  C   UNL     1      12.772  29.025  58.147  1.00  0.00     0.014 C 
ATOM      4  C   UNL     1      14.463  30.497  59.258  1.00  0.00     0.030 C 
ATOM      5  C   UNL     1      13.571  29.243  61.575  1.00  0.00     0.004 C 
ATOM      6  C   UNL     1      12.941  29.826  56.825  1.00  0.00     0.013 C 
ATOM      7  C   UNL     1      14.655  31.259  57.941  1.00  0.00    -0.063 C 
ATOM      8  C   UNL     1      15.479  30.641  60.438  1.00  0.00    -0.003 C 
ATOM      9  C   UNL     1      14.725  30.277  61.771  1.00  0.00    -0.011 C 
ATOM     10  C   UNL     1      13.450  31.314  56.978  1.00  0.00    -0.006 C 
ATOM     11  C   UNL     1      15.859  31.722  57.601  1.00  0.00    -0.027 C 
ATOM     12  C   UNL     1      16.791  29.836  60.254  1.00  0.00     0.008 C 
ATOM     13  C   UNL     1      15.647  29.875  62.936  1.00  0.00     0.008 C 
ATOM     14  C   UNL     1      12.318  32.139  57.676  1.00  0.00     0.017 C 
ATOM     15  C   UNL     1      13.796  31.992  55.534  1.00  0.00    -0.020 C 
ATOM     16  C   UNL     1      16.270  32.026  56.207  1.00  0.00     0.032 C 
ATOM     17  C   UNL     1      15.264  31.619  55.073  1.00  0.00     0.006 C 
ATOM     18  C   UNL     1      13.752  33.550  55.576  1.00  0.00     0.008 C 
ATOM     19  C   UNL     1      12.695  31.516  54.525  1.00  0.00     0.012 C 
ATOM     20  C   UNL     1      15.778  32.238  53.677  1.00  0.00    -0.025 C 
ATOM     21  C   UNL     1      14.162  34.231  54.257  1.00  0.00     0.005 C 
ATOM     22  C   UNL     1      15.532  33.811  53.635  1.00  0.00     0.003 C 
ATOM     23  C   UNL     1      15.139  31.528  52.436  1.00  0.00     0.010 C 
ATOM     24  C   UNL     1      17.313  31.916  53.575  1.00  0.00     0.012 C 
ATOM     25  C   UNL     1      15.770  34.493  52.209  1.00  0.00    -0.006 C 
ATOM     26  C   UNL     1      15.464  32.187  51.084  1.00  0.00     0.033 C 
ATOM     27  C   UNL     1      15.096  33.675  51.056  1.00  0.00     0.120 C 
ATOM     28  C   UNL     1      17.291  34.658  51.912  1.00  0.00     0.014 C 
ATOM     29  C   UNL     1      15.215  35.949  52.173  1.00  0.00     0.014 C 
ENDROOT
BRANCH   1  30
ATOM     30  C   UNL     1      15.100  28.196  58.231  1.00  0.00     0.048 C 
ATOM     31  O   UNL     1      15.537  27.113  58.707  1.00  0.00    -0.550 OA
ATOM     32  O   UNL     1      15.494  28.553  56.948  1.00  0.00    -0.550 OA
ENDBRANCH   1  30
BRANCH  27  33
ATOM     33  O   UNL     1      13.694  33.783  51.107  1.00  0.00    -0.393 OA
ATOM     34  H   UNL     1      13.422  33.712  52.059  1.00  0.00     0.210 HD
ENDBRANCH  27  33
TORSDOF 2
ENDMDL
MODEL 7
REMARK VINA RESULT:    -5.781      2.546      4.222
REMARK INTER + INTRA:          -5.740
REMARK INTER:                  -6.285
REMARK INTRA:                   0.546
REMARK UNBOUND:                 0.548
REMARK SMILES C[C@@H]1[C@H](C)CC[C@@]2(C(=O)[O-])CC[C@@]3(C)C(=CC[C@@H]4[C@@]5(C)CC[C@@H](O)C(C)(C)[C@H]5CC[C@@]43C)[C@H]12
REMARK SMILES IDX 7 1 6 2 11 3 33 4 5 5 12 6 15 7 2 8 3 9 13 10 16 11 1 12
REMARK SMILES IDX 4 13 14 14 31 15 17 16 18 17 30 18 32 19 19 20 29 21 28 22
REMARK SMILES IDX 21 23 20 24 25 25 22 26 23 27 26 28 27 29 8 30 9 31 10 32
REMARK SMILES IDX 24 33
REMARK H PARENT 24 34
REMARK Flexibility Score: inf
ROOT
ATOM      1  C   UNL     1      14.571  29.851  56.443  1.00  0.00     0.017 C 
ATOM      2  C   UNL     1      14.467  28.898  57.693  1.00  0.00     0.014 C 
ATOM      3  C   UNL     1      14.042  29.145  55.172  1.00  0.00     0.014 C 
ATOM      4  C   UNL     1      13.681  31.118  56.668  1.00  0.00     0.030 C 
ATOM      5  C   UNL     1      13.261  29.171  58.611  1.00  0.00     0.004 C 
ATOM      6  C   UNL     1      14.010  30.078  53.929  1.00  0.00     0.013 C 
ATOM      7  C   UNL     1      13.690  32.039  55.443  1.00  0.00    -0.063 C 
ATOM      8  C   UNL     1      13.823  31.687  58.117  1.00  0.00    -0.003 C 
ATOM      9  C   UNL     1      13.177  30.649  59.110  1.00  0.00    -0.011 C 
ATOM     10  C   UNL     1      13.217  31.434  54.103  1.00  0.00    -0.006 C 
ATOM     11  C   UNL     1      14.219  33.261  55.524  1.00  0.00    -0.027 C 
ATOM     12  C   UNL     1      15.272  32.072  58.514  1.00  0.00     0.008 C 
ATOM     13  C   UNL     1      13.654  30.778  60.566  1.00  0.00     0.008 C 
ATOM     14  C   UNL     1      11.698  31.086  54.246  1.00  0.00     0.017 C 
ATOM     15  C   UNL     1      13.423  32.429  52.826  1.00  0.00    -0.020 C 
ATOM     16  C   UNL     1      14.715  34.031  54.355  1.00  0.00     0.032 C 
ATOM     17  C   UNL     1      14.751  33.277  52.980  1.00  0.00     0.006 C 
ATOM     18  C   UNL     1      12.272  33.473  52.687  1.00  0.00     0.008 C 
ATOM     19  C   UNL     1      13.407  31.537  51.539  1.00  0.00     0.012 C 
ATOM     20  C   UNL     1      15.087  34.338  51.814  1.00  0.00    -0.025 C 
ATOM     21  C   UNL     1      12.475  34.491  51.549  1.00  0.00     0.005 C 
ATOM     22  C   UNL     1      13.828  35.269  51.523  1.00  0.00     0.003 C 
ATOM     23  C   UNL     1      15.601  33.648  50.507  1.00  0.00     0.010 C 
ATOM     24  C   UNL     1      16.303  35.197  52.319  1.00  0.00     0.012 C 
ATOM     25  C   UNL     1      13.958  36.189  50.221  1.00  0.00    -0.006 C 
ATOM     26  C   UNL     1      15.778  34.598  49.309  1.00  0.00     0.033 C 
ATOM     27  C   UNL     1      14.498  35.383  48.993  1.00  0.00     0.120 C 
ATOM     28  C   UNL     1      14.882  37.415  50.490  1.00  0.00     0.014 C 
ATOM     29  C   UNL     1      12.588  36.824  49.832  1.00  0.00     0.014 C 
ENDROOT
BRANCH   1  30
ATOM     30  C   UNL     1      16.051  30.162  56.193  1.00  0.00     0.048 C 
ATOM     31  O   UNL     1      16.936  29.640  56.924  1.00  0.00    -0.550 OA
ATOM     32  O   UNL     1      16.465  30.911  55.099  1.00  0.00    -0.550 OA
ENDBRANCH   1  30
BRANCH  27  33
ATOM     33  O   UNL     1      13.534  34.478  48.512  1.00  0.00    -0.393 OA
ATOM     34  H   UNL     1      12.640  34.886  48.658  1.00  0.00     0.210 HD
ENDBRANCH  27  33
TORSDOF 2
ENDMDL
MODEL 8
REMARK VINA RESULT:    -5.758      2.380      8.199
REMARK INTER + INTRA:          -5.715
REMARK INTER:                  -6.259
REMARK INTRA:                   0.544
REMARK UNBOUND:                 0.548
REMARK SMILES C[C@@H]1[C@H](C)CC[C@@]2(C(=O)[O-])CC[C@@]3(C)C(=CC[C@@H]4[C@@]5(C)CC[C@@H](O)C(C)(C)[C@H]5CC[C@@]43C)[C@H]12
REMARK SMILES IDX 7 1 6 2 11 3 33 4 5 5 12 6 15 7 2 8 3 9 13 10 16 11 1 12
REMARK SMILES IDX 4 13 14 14 31 15 17 16 18 17 30 18 32 19 19 20 29 21 28 22
REMARK SMILES IDX 21 23 20 24 25 25 22 26 23 27 26 28 27 29 8 30 9 31 10 32
REMARK SMILES IDX 24 33
REMARK H PARENT 24 34
REMARK Flexibility Score: inf
ROOT
ATOM      1  C   UNL     1      15.306  33.215  52.343  1.00  0.00     0.017 C 
ATOM      2  C   UNL     1      16.667  33.768  51.774  1.00  0.00     0.014 C 
ATOM      3  C   UNL     1      15.541  32.438  53.660  1.00  0.00     0.014 C 
ATOM      4  C   UNL     1      14.350  34.407  52.677  1.00  0.00     0.030 C 
ATOM      5  C   UNL     1      16.924  35.259  52.060  1.00  0.00     0.004 C 
ATOM      6  C   UNL     1      14.218  31.969  54.330  1.00  0.00     0.013 C 
ATOM      7  C   UNL     1      13.040  33.920  53.308  1.00  0.00    -0.063 C 
ATOM      8  C   UNL     1      14.359  35.501  51.561  1.00  0.00    -0.003 C 
ATOM      9  C   UNL     1      15.771  36.196  51.578  1.00  0.00    -0.011 C 
ATOM     10  C   UNL     1      13.148  33.098  54.611  1.00  0.00    -0.006 C 
ATOM     11  C   UNL     1      11.881  34.088  52.667  1.00  0.00    -0.027 C 
ATOM     12  C   UNL     1      13.966  34.982  50.154  1.00  0.00     0.008 C 
ATOM     13  C   UNL     1      16.143  36.917  50.271  1.00  0.00     0.008 C 
ATOM     14  C   UNL     1      13.721  34.038  55.722  1.00  0.00     0.017 C 
ATOM     15  C   UNL     1      11.724  32.477  55.113  1.00  0.00    -0.020 C 
ATOM     16  C   UNL     1      10.667  33.271  52.916  1.00  0.00     0.032 C 
ATOM     17  C   UNL     1      10.831  32.044  53.881  1.00  0.00     0.006 C 
ATOM     18  C   UNL     1      10.869  33.508  55.911  1.00  0.00     0.008 C 
ATOM     19  C   UNL     1      12.055  31.290  56.081  1.00  0.00     0.012 C 
ATOM     20  C   UNL     1       9.372  31.439  54.204  1.00  0.00    -0.025 C 
ATOM     21  C   UNL     1       9.478  32.991  56.325  1.00  0.00     0.005 C 
ATOM     22  C   UNL     1       8.576  32.395  55.198  1.00  0.00     0.003 C 
ATOM     23  C   UNL     1       9.440  29.974  54.753  1.00  0.00     0.010 C 
ATOM     24  C   UNL     1       8.617  31.317  52.831  1.00  0.00     0.012 C 
ATOM     25  C   UNL     1       7.223  31.778  55.786  1.00  0.00    -0.006 C 
ATOM     26  C   UNL     1       8.093  29.409  55.234  1.00  0.00     0.033 C 
ATOM     27  C   UNL     1       7.423  30.307  56.282  1.00  0.00     0.120 C 
ATOM     28  C   UNL     1       6.080  31.821  54.727  1.00  0.00     0.014 C 
ATOM     29  C   UNL     1       6.675  32.630  56.971  1.00  0.00     0.014 C 
ENDROOT
BRANCH   1  30
ATOM     30  C   UNL     1      14.731  32.214  51.335  1.00  0.00     0.048 C 
ATOM     31  O   UNL     1      15.374  31.935  50.287  1.00  0.00    -0.550 OA
ATOM     32  O   UNL     1      13.567  31.501  51.597  1.00  0.00    -0.550 OA
ENDBRANCH   1  30
BRANCH  27  33
ATOM     33  O   UNL     1       8.197  30.266  57.457  1.00  0.00    -0.393 OA
ATOM     34  H   UNL     1       8.698  29.409  57.456  1.00  0.00     0.210 HD
ENDBRANCH  27  33
TORSDOF 2
ENDMDL
MODEL 9
REMARK VINA RESULT:    -5.749     12.217     14.424
REMARK INTER + INTRA:          -5.705
REMARK INTER:                  -6.247
REMARK INTRA:                   0.542
REMARK UNBOUND:                 0.548
REMARK SMILES C[C@@H]1[C@H](C)CC[C@@]2(C(=O)[O-])CC[C@@]3(C)C(=CC[C@@H]4[C@@]5(C)CC[C@@H](O)C(C)(C)[C@H]5CC[C@@]43C)[C@H]12
REMARK SMILES IDX 7 1 6 2 11 3 33 4 5 5 12 6 15 7 2 8 3 9 13 10 16 11 1 12
REMARK SMILES IDX 4 13 14 14 31 15 17 16 18 17 30 18 32 19 19 20 29 21 28 22
REMARK SMILES IDX 21 23 20 24 25 25 22 26 23 27 26 28 27 29 8 30 9 31 10 32
REMARK SMILES IDX 24 33
REMARK H PARENT 24 34
REMARK Flexibility Score: inf
ROOT
ATOM      1  C   UNL     1      14.062  20.476  52.416  1.00  0.00     0.017 C 
ATOM      2  C   UNL     1      14.171  20.505  53.988  1.00  0.00     0.014 C 
ATOM      3  C   UNL     1      13.452  21.796  51.888  1.00  0.00     0.014 C 
ATOM      4  C   UNL     1      15.490  20.348  51.790  1.00  0.00     0.030 C 
ATOM      5  C   UNL     1      15.576  20.825  54.529  1.00  0.00     0.004 C 
ATOM      6  C   UNL     1      13.429  21.874  50.335  1.00  0.00     0.013 C 
ATOM      7  C   UNL     1      15.441  20.395  50.258  1.00  0.00    -0.063 C 
ATOM      8  C   UNL     1      16.372  19.302  52.545  1.00  0.00    -0.003 C 
ATOM      9  C   UNL     1      16.690  19.880  53.975  1.00  0.00    -0.011 C 
ATOM     10  C   UNL     1      14.817  21.650  49.611  1.00  0.00    -0.006 C 
ATOM     11  C   UNL     1      15.796  19.327  49.541  1.00  0.00    -0.027 C 
ATOM     12  C   UNL     1      15.768  17.875  52.599  1.00  0.00     0.008 C 
ATOM     13  C   UNL     1      17.098  18.823  55.015  1.00  0.00     0.008 C 
ATOM     14  C   UNL     1      15.737  22.870  49.951  1.00  0.00     0.017 C 
ATOM     15  C   UNL     1      14.649  21.538  47.992  1.00  0.00    -0.020 C 
ATOM     16  C   UNL     1      15.352  19.077  48.146  1.00  0.00     0.032 C 
ATOM     17  C   UNL     1      14.277  20.060  47.564  1.00  0.00     0.006 C 
ATOM     18  C   UNL     1      15.965  21.877  47.228  1.00  0.00     0.008 C 
ATOM     19  C   UNL     1      13.572  22.593  47.566  1.00  0.00     0.012 C 
ATOM     20  C   UNL     1      14.107  19.770  45.988  1.00  0.00    -0.025 C 
ATOM     21  C   UNL     1      15.876  21.695  45.701  1.00  0.00     0.005 C 
ATOM     22  C   UNL     1      15.365  20.315  45.178  1.00  0.00     0.003 C 
ATOM     23  C   UNL     1      12.767  20.343  45.415  1.00  0.00     0.010 C 
ATOM     24  C   UNL     1      13.978  18.212  45.825  1.00  0.00     0.012 C 
ATOM     25  C   UNL     1      15.196  20.309  43.588  1.00  0.00    -0.006 C 
ATOM     26  C   UNL     1      12.631  20.241  43.886  1.00  0.00     0.033 C 
ATOM     27  C   UNL     1      13.810  20.889  43.150  1.00  0.00     0.120 C 
ATOM     28  C   UNL     1      15.368  18.871  43.011  1.00  0.00     0.014 C 
ATOM     29  C   UNL     1      16.322  21.134  42.892  1.00  0.00     0.014 C 
ENDROOT
BRANCH   1  30
ATOM     30  C   UNL     1      13.100  19.353  52.017  1.00  0.00     0.048 C 
ATOM     31  O   UNL     1      12.479  18.710  52.907  1.00  0.00    -0.550 OA
ATOM     32  O   UNL     1      12.789  19.095  50.688  1.00  0.00    -0.550 OA
ENDBRANCH   1  30
BRANCH  27  33
ATOM     33  O   UNL     1      13.750  22.280  43.359  1.00  0.00    -0.393 OA
ATOM     34  H   UNL     1      12.949  22.465  43.916  1.00  0.00     0.210 HD
ENDBRANCH  27  33
TORSDOF 2
ENDMDL
