MODEL 1
REMARK VINA RESULT:    -5.907      0.000      0.000
REMARK INTER + INTRA:          -7.446
REMARK INTER:                  -7.115
REMARK INTRA:                  -0.331
REMARK UNBOUND:                -0.331
REMARK SMILES O=c1c(O)c(-c2ccc(O)c(O)c2)oc2cc(O)cc(O)c12
REMARK SMILES IDX 5 1 3 2 2 3 1 4 22 5 20 6 19 7 17 8 16 9 15 10 14 11 6 12
REMARK SMILES IDX 7 13 8 14 9 15 13 16 11 17 10 18 12 20 4 22 21 24 18 26
REMARK H PARENT 10 19 12 21 4 23 21 25 18 27
REMARK Flexibility Score: inf
ROOT
ATOM      1  C   UNL     1       7.149  -2.214  16.592  1.00  0.00     0.180 A 
ATOM      2  C   UNL     1       5.906  -1.962  15.985  1.00  0.00     0.208 A 
ATOM      3  C   UNL     1       4.993  -3.019  15.842  1.00  0.00     0.238 A 
ATOM      4  O   UNL     1       3.904  -2.801  15.248  1.00  0.00    -0.285 OA
ATOM      5  C   UNL     1       5.326  -4.308  16.322  1.00  0.00     0.111 A 
ATOM      6  C   UNL     1       4.461  -5.443  16.265  1.00  0.00     0.134 A 
ATOM      7  C   UNL     1       4.944  -6.699  16.652  1.00  0.00     0.093 A 
ATOM      8  C   UNL     1       6.239  -6.850  17.153  1.00  0.00     0.123 A 
ATOM      9  C   UNL     1       7.070  -5.738  17.266  1.00  0.00     0.094 A 
ATOM     10  C   UNL     1       6.630  -4.478  16.856  1.00  0.00     0.146 A 
ATOM     11  O   UNL     1       7.458  -3.447  16.971  1.00  0.00    -0.452 OA
ENDROOT
BRANCH   1  12
ATOM     12  C   UNL     1       8.154  -1.146  16.800  1.00  0.00     0.025 A 
ATOM     13  C   UNL     1       8.119  -0.320  17.937  1.00  0.00     0.016 A 
ATOM     14  C   UNL     1       9.092   0.666  18.125  1.00  0.00     0.051 A 
ATOM     15  C   UNL     1      10.120   0.832  17.188  1.00  0.00     0.157 A 
ATOM     16  C   UNL     1       9.198  -0.988  15.875  1.00  0.00     0.062 A 
ATOM     17  C   UNL     1      10.174  -0.003  16.059  1.00  0.00     0.158 A 
BRANCH  15  18
ATOM     18  O   UNL     1      11.088   1.817  17.377  1.00  0.00    -0.504 OA
ATOM     19  H   UNL     1      10.899   2.649  17.924  1.00  0.00     0.293 HD
ENDBRANCH  15  18
BRANCH  17  20
ATOM     20  O   UNL     1      11.188   0.133  15.112  1.00  0.00    -0.504 OA
ATOM     21  H   UNL     1      12.104  -0.280  15.240  1.00  0.00     0.293 HD
ENDBRANCH  17  20
ENDBRANCH   1  12
BRANCH   2  22
ATOM     22  O   UNL     1       5.606  -0.687  15.498  1.00  0.00    -0.502 OA
ATOM     23  H   UNL     1       4.823  -0.511  14.881  1.00  0.00     0.293 HD
ENDBRANCH   2  22
BRANCH   6  24
ATOM     24  O   UNL     1       3.122  -5.383  15.869  1.00  0.00    -0.507 OA
ATOM     25  H   UNL     1       2.560  -4.546  15.865  1.00  0.00     0.293 HD
ENDBRANCH   6  24
BRANCH   8  26
ATOM     26  O   UNL     1       6.707  -8.101  17.549  1.00  0.00    -0.508 OA
ATOM     27  H   UNL     1       6.142  -8.723  18.116  1.00  0.00     0.293 HD
ENDBRANCH   8  26
TORSDOF 6
ENDMDL
MODEL 2
REMARK VINA RESULT:    -5.720      3.245      6.870
REMARK INTER + INTRA:          -7.221
REMARK INTER:                  -7.297
REMARK INTRA:                   0.076
REMARK UNBOUND:                -0.331
REMARK SMILES O=c1c(O)c(-c2ccc(O)c(O)c2)oc2cc(O)cc(O)c12
REMARK SMILES IDX 5 1 3 2 2 3 1 4 22 5 20 6 19 7 17 8 16 9 15 10 14 11 6 12
REMARK SMILES IDX 7 13 8 14 9 15 13 16 11 17 10 18 12 20 4 22 21 24 18 26
REMARK H PARENT 10 19 12 21 4 23 21 25 18 27
REMARK Flexibility Score: inf
ROOT
ATOM      1  C   UNL     1       4.282  -3.364  16.965  1.00  0.00     0.180 A 
ATOM      2  C   UNL     1       5.169  -2.319  16.652  1.00  0.00     0.208 A 
ATOM      3  C   UNL     1       4.691  -0.999  16.646  1.00  0.00     0.238 A 
ATOM      4  O   UNL     1       5.476  -0.073  16.312  1.00  0.00    -0.285 OA
ATOM      5  C   UNL     1       3.338  -0.739  16.969  1.00  0.00     0.111 A 
ATOM      6  C   UNL     1       2.755   0.563  17.032  1.00  0.00     0.134 A 
ATOM      7  C   UNL     1       1.376   0.694  17.234  1.00  0.00     0.093 A 
ATOM      8  C   UNL     1       0.569  -0.428  17.438  1.00  0.00     0.123 A 
ATOM      9  C   UNL     1       1.137  -1.699  17.436  1.00  0.00     0.094 A 
ATOM     10  C   UNL     1       2.504  -1.864  17.202  1.00  0.00     0.146 A 
ATOM     11  O   UNL     1       3.004  -3.094  17.198  1.00  0.00    -0.452 OA
ENDROOT
BRANCH   1  12
ATOM     12  C   UNL     1       4.718  -4.778  17.016  1.00  0.00     0.025 A 
ATOM     13  C   UNL     1       4.353  -5.619  18.082  1.00  0.00     0.016 A 
ATOM     14  C   UNL     1       4.757  -6.957  18.098  1.00  0.00     0.051 A 
ATOM     15  C   UNL     1       5.517  -7.478  17.044  1.00  0.00     0.157 A 
ATOM     16  C   UNL     1       5.464  -5.312  15.952  1.00  0.00     0.062 A 
ATOM     17  C   UNL     1       5.869  -6.651  15.964  1.00  0.00     0.158 A 
BRANCH  15  18
ATOM     18  O   UNL     1       5.920  -8.813  17.062  1.00  0.00    -0.504 OA
ATOM     19  H   UNL     1       5.281  -9.562  16.821  1.00  0.00     0.293 HD
ENDBRANCH  15  18
BRANCH  17  20
ATOM     20  O   UNL     1       6.620  -7.141  14.896  1.00  0.00    -0.504 OA
ATOM     21  H   UNL     1       6.190  -7.457  14.035  1.00  0.00     0.293 HD
ENDBRANCH  17  20
ENDBRANCH   1  12
BRANCH   2  22
ATOM     22  O   UNL     1       6.496  -2.600  16.315  1.00  0.00    -0.502 OA
ATOM     23  H   UNL     1       7.220  -2.722  17.013  1.00  0.00     0.293 HD
ENDBRANCH   2  22
BRANCH   6  24
ATOM     24  O   UNL     1       3.487   1.750  16.934  1.00  0.00    -0.507 OA
ATOM     25  H   UNL     1       4.487   1.801  16.817  1.00  0.00     0.293 HD
ENDBRANCH   6  24
BRANCH   8  26
ATOM     26  O   UNL     1      -0.801  -0.289  17.653  1.00  0.00    -0.508 OA
ATOM     27  H   UNL     1      -1.163   0.252  18.430  1.00  0.00     0.293 HD
ENDBRANCH   8  26
TORSDOF 6
ENDMDL
MODEL 3
REMARK VINA RESULT:    -5.668      4.517      7.373
REMARK INTER + INTRA:          -7.158
REMARK INTER:                  -6.874
REMARK INTRA:                  -0.284
REMARK UNBOUND:                -0.331
REMARK SMILES O=c1c(O)c(-c2ccc(O)c(O)c2)oc2cc(O)cc(O)c12
REMARK SMILES IDX 5 1 3 2 2 3 1 4 22 5 20 6 19 7 17 8 16 9 15 10 14 11 6 12
REMARK SMILES IDX 7 13 8 14 9 15 13 16 11 17 10 18 12 20 4 22 21 24 18 26
REMARK H PARENT 10 19 12 21 4 23 21 25 18 27
REMARK Flexibility Score: inf
ROOT
ATOM      1  C   UNL     1       2.848  -3.626  17.227  1.00  0.00     0.180 A 
ATOM      2  C   UNL     1       1.514  -3.768  17.645  1.00  0.00     0.208 A 
ATOM      3  C   UNL     1       0.692  -2.630  17.695  1.00  0.00     0.238 A 
ATOM      4  O   UNL     1      -0.486  -2.754  18.123  1.00  0.00    -0.285 OA
ATOM      5  C   UNL     1       1.209  -1.370  17.311  1.00  0.00     0.111 A 
ATOM      6  C   UNL     1       0.455  -0.158  17.285  1.00  0.00     0.134 A 
ATOM      7  C   UNL     1       1.104   1.053  17.012  1.00  0.00     0.093 A 
ATOM      8  C   UNL     1       2.465   1.087  16.703  1.00  0.00     0.123 A 
ATOM      9  C   UNL     1       3.197  -0.097  16.668  1.00  0.00     0.094 A 
ATOM     10  C   UNL     1       2.587  -1.317  16.970  1.00  0.00     0.146 A 
ATOM     11  O   UNL     1       3.322  -2.422  16.936  1.00  0.00    -0.452 OA
ENDROOT
BRANCH   1  12
ATOM     12  C   UNL     1       3.768  -4.782  17.124  1.00  0.00     0.025 A 
ATOM     13  C   UNL     1       4.718  -5.053  18.124  1.00  0.00     0.016 A 
ATOM     14  C   UNL     1       5.560  -6.164  18.018  1.00  0.00     0.051 A 
ATOM     15  C   UNL     1       5.457  -7.026  16.920  1.00  0.00     0.157 A 
ATOM     16  C   UNL     1       3.655  -5.662  16.035  1.00  0.00     0.062 A 
ATOM     17  C   UNL     1       4.496  -6.775  15.925  1.00  0.00     0.158 A 
BRANCH  15  18
ATOM     18  O   UNL     1       6.298  -8.133  16.814  1.00  0.00    -0.504 OA
ATOM     19  H   UNL     1       7.227  -8.056  16.416  1.00  0.00     0.293 HD
ENDBRANCH  15  18
BRANCH  17  20
ATOM     20  O   UNL     1       4.363  -7.618  14.823  1.00  0.00    -0.504 OA
ATOM     21  H   UNL     1       3.613  -7.511  14.150  1.00  0.00     0.293 HD
ENDBRANCH  17  20
ENDBRANCH   1  12
BRANCH   2  22
ATOM     22  O   UNL     1       1.030  -5.017  18.041  1.00  0.00    -0.502 OA
ATOM     23  H   UNL     1       0.926  -5.276  19.015  1.00  0.00     0.293 HD
ENDBRANCH   2  22
BRANCH   6  24
ATOM     24  O   UNL     1      -0.926  -0.095  17.488  1.00  0.00    -0.507 OA
ATOM     25  H   UNL     1      -1.412   0.686  17.901  1.00  0.00     0.293 HD
ENDBRANCH   6  24
BRANCH   8  26
ATOM     26  O   UNL     1       3.100   2.294  16.419  1.00  0.00    -0.508 OA
ATOM     27  H   UNL     1       2.719   3.180  16.732  1.00  0.00     0.293 HD
ENDBRANCH   8  26
TORSDOF 6
ENDMDL
MODEL 4
REMARK VINA RESULT:    -5.651      2.987      6.787
REMARK INTER + INTRA:          -7.137
REMARK INTER:                  -6.910
REMARK INTRA:                  -0.228
REMARK UNBOUND:                -0.331
REMARK SMILES O=c1c(O)c(-c2ccc(O)c(O)c2)oc2cc(O)cc(O)c12
REMARK SMILES IDX 5 1 3 2 2 3 1 4 22 5 20 6 19 7 17 8 16 9 15 10 14 11 6 12
REMARK SMILES IDX 7 13 8 14 9 15 13 16 11 17 10 18 12 20 4 22 21 24 18 26
REMARK H PARENT 10 19 12 21 4 23 21 25 18 27
REMARK Flexibility Score: inf
ROOT
ATOM      1  C   UNL     1       4.122  -3.629  17.071  1.00  0.00     0.180 A 
ATOM      2  C   UNL     1       2.787  -3.303  16.775  1.00  0.00     0.208 A 
ATOM      3  C   UNL     1       2.408  -1.951  16.744  1.00  0.00     0.238 A 
ATOM      4  O   UNL     1       1.200  -1.667  16.533  1.00  0.00    -0.285 OA
ATOM      5  C   UNL     1       3.371  -0.944  16.992  1.00  0.00     0.111 A 
ATOM      6  C   UNL     1       3.107   0.459  16.948  1.00  0.00     0.134 A 
ATOM      7  C   UNL     1       4.103   1.362  17.338  1.00  0.00     0.093 A 
ATOM      8  C   UNL     1       5.374   0.916  17.710  1.00  0.00     0.123 A 
ATOM      9  C   UNL     1       5.659  -0.447  17.700  1.00  0.00     0.094 A 
ATOM     10  C   UNL     1       4.676  -1.375  17.350  1.00  0.00     0.146 A 
ATOM     11  O   UNL     1       4.986  -2.666  17.364  1.00  0.00    -0.452 OA
ENDROOT
BRANCH   1  12
ATOM     12  C   UNL     1       4.603  -5.030  17.097  1.00  0.00     0.025 A 
ATOM     13  C   UNL     1       4.228  -5.913  18.125  1.00  0.00     0.016 A 
ATOM     14  C   UNL     1       4.675  -7.238  18.116  1.00  0.00     0.051 A 
ATOM     15  C   UNL     1       5.490  -7.702  17.077  1.00  0.00     0.157 A 
ATOM     16  C   UNL     1       5.404  -5.506  16.047  1.00  0.00     0.062 A 
ATOM     17  C   UNL     1       5.853  -6.832  16.035  1.00  0.00     0.158 A 
BRANCH  15  18
ATOM     18  O   UNL     1       5.936  -9.023  17.071  1.00  0.00    -0.504 OA
ATOM     19  H   UNL     1       5.615  -9.688  16.376  1.00  0.00     0.293 HD
ENDBRANCH  15  18
BRANCH  17  20
ATOM     20  O   UNL     1       6.658  -7.264  14.982  1.00  0.00    -0.504 OA
ATOM     21  H   UNL     1       7.096  -6.617  14.337  1.00  0.00     0.293 HD
ENDBRANCH  17  20
ENDBRANCH   1  12
BRANCH   2  22
ATOM     22  O   UNL     1       1.848  -4.314  16.555  1.00  0.00    -0.502 OA
ATOM     23  H   UNL     1       1.724  -5.089  17.195  1.00  0.00     0.293 HD
ENDBRANCH   2  22
BRANCH   6  24
ATOM     24  O   UNL     1       1.902   1.011  16.503  1.00  0.00    -0.507 OA
ATOM     25  H   UNL     1       1.770   1.462  15.611  1.00  0.00     0.293 HD
ENDBRANCH   6  24
BRANCH   8  26
ATOM     26  O   UNL     1       6.364   1.822  18.083  1.00  0.00    -0.508 OA
ATOM     27  H   UNL     1       7.342   1.555  18.117  1.00  0.00     0.293 HD
ENDBRANCH   8  26
TORSDOF 6
ENDMDL
MODEL 5
REMARK VINA RESULT:    -5.514      2.039      3.870
REMARK INTER + INTRA:          -6.973
REMARK INTER:                  -6.737
REMARK INTRA:                  -0.236
REMARK UNBOUND:                -0.331
REMARK SMILES O=c1c(O)c(-c2ccc(O)c(O)c2)oc2cc(O)cc(O)c12
REMARK SMILES IDX 5 1 3 2 2 3 1 4 22 5 20 6 19 7 17 8 16 9 15 10 14 11 6 12
REMARK SMILES IDX 7 13 8 14 9 15 13 16 11 17 10 18 12 20 4 22 21 24 18 26
REMARK H PARENT 10 19 12 21 4 23 21 25 18 27
REMARK Flexibility Score: inf
ROOT
ATOM      1  C   UNL     1       9.660  -1.634  16.997  1.00  0.00     0.180 A 
ATOM      2  C   UNL     1       9.812  -2.925  17.534  1.00  0.00     0.208 A 
ATOM      3  C   UNL     1       8.694  -3.773  17.593  1.00  0.00     0.238 A 
ATOM      4  O   UNL     1       8.824  -4.906  18.125  1.00  0.00    -0.285 OA
ATOM      5  C   UNL     1       7.444  -3.327  17.100  1.00  0.00     0.111 A 
ATOM      6  C   UNL     1       6.255  -4.116  17.074  1.00  0.00     0.134 A 
ATOM      7  C   UNL     1       5.045  -3.530  16.685  1.00  0.00     0.093 A 
ATOM      8  C   UNL     1       4.994  -2.200  16.259  1.00  0.00     0.123 A 
ATOM      9  C   UNL     1       6.159  -1.439  16.226  1.00  0.00     0.094 A 
ATOM     10  C   UNL     1       7.375  -1.985  16.642  1.00  0.00     0.146 A 
ATOM     11  O   UNL     1       8.461  -1.222  16.604  1.00  0.00    -0.452 OA
ENDROOT
BRANCH   1  12
ATOM     12  C   UNL     1      10.796  -0.692  16.878  1.00  0.00     0.025 A 
ATOM     13  C   UNL     1      11.351  -0.068  18.009  1.00  0.00     0.016 A 
ATOM     14  C   UNL     1      12.439   0.800  17.875  1.00  0.00     0.051 A 
ATOM     15  C   UNL     1      12.996   1.046  16.614  1.00  0.00     0.157 A 
ATOM     16  C   UNL     1      11.371  -0.457  15.618  1.00  0.00     0.062 A 
ATOM     17  C   UNL     1      12.461   0.410  15.480  1.00  0.00     0.158 A 
BRANCH  15  18
ATOM     18  O   UNL     1      14.080   1.913  16.482  1.00  0.00    -0.504 OA
ATOM     19  H   UNL     1      14.915   1.807  17.047  1.00  0.00     0.293 HD
ENDBRANCH  15  18
BRANCH  17  20
ATOM     20  O   UNL     1      12.996   0.628  14.212  1.00  0.00    -0.504 OA
ATOM     21  H   UNL     1      12.796   0.016  13.430  1.00  0.00     0.293 HD
ENDBRANCH  17  20
ENDBRANCH   1  12
BRANCH   2  22
ATOM     22  O   UNL     1      11.049  -3.336  18.035  1.00  0.00    -0.502 OA
ATOM     23  H   UNL     1      11.174  -4.216  18.523  1.00  0.00     0.293 HD
ENDBRANCH   2  22
BRANCH   6  24
ATOM     24  O   UNL     1       6.216  -5.477  17.391  1.00  0.00    -0.507 OA
ATOM     25  H   UNL     1       7.010  -6.022  17.688  1.00  0.00     0.293 HD
ENDBRANCH   6  24
BRANCH   8  26
ATOM     26  O   UNL     1       3.788  -1.627  15.860  1.00  0.00    -0.508 OA
ATOM     27  H   UNL     1       3.459  -1.699  14.903  1.00  0.00     0.293 HD
ENDBRANCH   8  26
TORSDOF 6
ENDMDL
MODEL 6
REMARK VINA RESULT:    -5.457      2.027      6.965
REMARK INTER + INTRA:          -6.904
REMARK INTER:                  -6.809
REMARK INTRA:                  -0.095
REMARK UNBOUND:                -0.331
REMARK SMILES O=c1c(O)c(-c2ccc(O)c(O)c2)oc2cc(O)cc(O)c12
REMARK SMILES IDX 5 1 3 2 2 3 1 4 22 5 20 6 19 7 17 8 16 9 15 10 14 11 6 12
REMARK SMILES IDX 7 13 8 14 9 15 13 16 11 17 10 18 12 20 4 22 21 24 18 26
REMARK H PARENT 10 19 12 21 4 23 21 25 18 27
REMARK Flexibility Score: inf
ROOT
ATOM      1  C   UNL     1       6.997  -3.190  17.290  1.00  0.00     0.180 A 
ATOM      2  C   UNL     1       7.931  -4.141  17.737  1.00  0.00     0.208 A 
ATOM      3  C   UNL     1       9.290  -3.793  17.777  1.00  0.00     0.238 A 
ATOM      4  O   UNL     1      10.127  -4.667  18.125  1.00  0.00    -0.285 OA
ATOM      5  C   UNL     1       9.697  -2.495  17.387  1.00  0.00     0.111 A 
ATOM      6  C   UNL     1      11.044  -2.022  17.425  1.00  0.00     0.134 A 
ATOM      7  C   UNL     1      11.349  -0.763  16.893  1.00  0.00     0.093 A 
ATOM      8  C   UNL     1      10.346   0.065  16.382  1.00  0.00     0.123 A 
ATOM      9  C   UNL     1       9.022  -0.364  16.394  1.00  0.00     0.094 A 
ATOM     10  C   UNL     1       8.690  -1.629  16.885  1.00  0.00     0.146 A 
ATOM     11  O   UNL     1       7.417  -2.004  16.868  1.00  0.00    -0.452 OA
ENDROOT
BRANCH   1  12
ATOM     12  C   UNL     1       5.544  -3.474  17.243  1.00  0.00     0.025 A 
ATOM     13  C   UNL     1       4.621  -2.689  17.956  1.00  0.00     0.016 A 
ATOM     14  C   UNL     1       3.253  -2.961  17.878  1.00  0.00     0.051 A 
ATOM     15  C   UNL     1       2.785  -4.010  17.077  1.00  0.00     0.157 A 
ATOM     16  C   UNL     1       5.068  -4.511  16.425  1.00  0.00     0.062 A 
ATOM     17  C   UNL     1       3.699  -4.787  16.344  1.00  0.00     0.158 A 
BRANCH  15  18
ATOM     18  O   UNL     1       1.419  -4.281  17.002  1.00  0.00    -0.504 OA
ATOM     19  H   UNL     1       1.074  -5.187  16.707  1.00  0.00     0.293 HD
ENDBRANCH  15  18
BRANCH  17  20
ATOM     20  O   UNL     1       3.265  -5.834  15.532  1.00  0.00    -0.504 OA
ATOM     21  H   UNL     1       3.743  -6.085  14.675  1.00  0.00     0.293 HD
ENDBRANCH  17  20
ENDBRANCH   1  12
BRANCH   2  22
ATOM     22  O   UNL     1       7.510  -5.424  18.096  1.00  0.00    -0.502 OA
ATOM     23  H   UNL     1       7.086  -6.063  17.434  1.00  0.00     0.293 HD
ENDBRANCH   2  22
BRANCH   6  24
ATOM     24  O   UNL     1      12.103  -2.731  17.998  1.00  0.00    -0.507 OA
ATOM     25  H   UNL     1      12.834  -3.193  17.478  1.00  0.00     0.293 HD
ENDBRANCH   6  24
BRANCH   8  26
ATOM     26  O   UNL     1      10.656   1.322  15.867  1.00  0.00    -0.508 OA
ATOM     27  H   UNL     1      10.644   2.152  16.451  1.00  0.00     0.293 HD
ENDBRANCH   8  26
TORSDOF 6
ENDMDL
MODEL 7
REMARK VINA RESULT:    -5.448      2.424      6.923
REMARK INTER + INTRA:          -6.894
REMARK INTER:                  -6.588
REMARK INTRA:                  -0.306
REMARK UNBOUND:                -0.331
REMARK SMILES O=c1c(O)c(-c2ccc(O)c(O)c2)oc2cc(O)cc(O)c12
REMARK SMILES IDX 5 1 3 2 2 3 1 4 22 5 20 6 19 7 17 8 16 9 15 10 14 11 6 12
REMARK SMILES IDX 7 13 8 14 9 15 13 16 11 17 10 18 12 20 4 22 21 24 18 26
REMARK H PARENT 10 19 12 21 4 23 21 25 18 27
REMARK Flexibility Score: inf
ROOT
ATOM      1  C   UNL     1       7.717  -1.987  16.950  1.00  0.00     0.180 A 
ATOM      2  C   UNL     1       8.500  -3.032  17.473  1.00  0.00     0.208 A 
ATOM      3  C   UNL     1       9.880  -2.832  17.633  1.00  0.00     0.238 A 
ATOM      4  O   UNL     1      10.585  -3.789  18.049  1.00  0.00    -0.285 OA
ATOM      5  C   UNL     1      10.458  -1.587  17.285  1.00  0.00     0.111 A 
ATOM      6  C   UNL     1      11.839  -1.262  17.443  1.00  0.00     0.134 A 
ATOM      7  C   UNL     1      12.323  -0.046  16.945  1.00  0.00     0.093 A 
ATOM      8  C   UNL     1      11.464   0.882  16.352  1.00  0.00     0.123 A 
ATOM      9  C   UNL     1      10.105   0.599  16.246  1.00  0.00     0.094 A 
ATOM     10  C   UNL     1       9.598  -0.620  16.701  1.00  0.00     0.146 A 
ATOM     11  O   UNL     1       8.297  -0.856  16.572  1.00  0.00    -0.452 OA
ENDROOT
BRANCH   1  12
ATOM     12  C   UNL     1       6.252  -2.113  16.775  1.00  0.00     0.025 A 
ATOM     13  C   UNL     1       5.370  -1.974  17.861  1.00  0.00     0.016 A 
ATOM     14  C   UNL     1       3.989  -2.073  17.668  1.00  0.00     0.051 A 
ATOM     15  C   UNL     1       3.469  -2.300  16.388  1.00  0.00     0.157 A 
ATOM     16  C   UNL     1       5.723  -2.320  15.490  1.00  0.00     0.062 A 
ATOM     17  C   UNL     1       4.342  -2.420  15.293  1.00  0.00     0.158 A 
BRANCH  15  18
ATOM     18  O   UNL     1       2.091  -2.400  16.198  1.00  0.00    -0.504 OA
ATOM     19  H   UNL     1       1.685  -3.150  15.651  1.00  0.00     0.293 HD
ENDBRANCH  15  18
BRANCH  17  20
ATOM     20  O   UNL     1       3.855  -2.639  14.005  1.00  0.00    -0.504 OA
ATOM     21  H   UNL     1       3.945  -3.534  13.540  1.00  0.00     0.293 HD
ENDBRANCH  17  20
ENDBRANCH   1  12
BRANCH   2  22
ATOM     22  O   UNL     1       7.913  -4.260  17.789  1.00  0.00    -0.502 OA
ATOM     23  H   UNL     1       7.361  -4.786  17.122  1.00  0.00     0.293 HD
ENDBRANCH   2  22
BRANCH   6  24
ATOM     24  O   UNL     1      12.761  -2.078  18.103  1.00  0.00    -0.507 OA
ATOM     25  H   UNL     1      13.756  -2.075  17.936  1.00  0.00     0.293 HD
ENDBRANCH   6  24
BRANCH   8  26
ATOM     26  O   UNL     1      11.951   2.096  15.872  1.00  0.00    -0.508 OA
ATOM     27  H   UNL     1      11.328   2.852  15.612  1.00  0.00     0.293 HD
ENDBRANCH   8  26
TORSDOF 6
ENDMDL
MODEL 8
REMARK VINA RESULT:    -5.362      1.620      6.648
REMARK INTER + INTRA:          -6.790
REMARK INTER:                  -6.474
REMARK INTRA:                  -0.317
REMARK UNBOUND:                -0.331
REMARK SMILES O=c1c(O)c(-c2ccc(O)c(O)c2)oc2cc(O)cc(O)c12
REMARK SMILES IDX 5 1 3 2 2 3 1 4 22 5 20 6 19 7 17 8 16 9 15 10 14 11 6 12
REMARK SMILES IDX 7 13 8 14 9 15 13 16 11 17 10 18 12 20 4 22 21 24 18 26
REMARK H PARENT 10 19 12 21 4 23 21 25 18 27
REMARK Flexibility Score: inf
ROOT
ATOM      1  C   UNL     1       6.467  -3.747  16.899  1.00  0.00     0.180 A 
ATOM      2  C   UNL     1       5.610  -2.679  16.581  1.00  0.00     0.208 A 
ATOM      3  C   UNL     1       6.131  -1.376  16.543  1.00  0.00     0.238 A 
ATOM      4  O   UNL     1       5.347  -0.418  16.312  1.00  0.00    -0.285 OA
ATOM      5  C   UNL     1       7.505  -1.159  16.807  1.00  0.00     0.111 A 
ATOM      6  C   UNL     1       8.148   0.114  16.758  1.00  0.00     0.134 A 
ATOM      7  C   UNL     1       9.483   0.230  17.164  1.00  0.00     0.093 A 
ATOM      8  C   UNL     1      10.216  -0.893  17.557  1.00  0.00     0.123 A 
ATOM      9  C   UNL     1       9.614  -2.148  17.552  1.00  0.00     0.094 A 
ATOM     10  C   UNL     1       8.273  -2.291  17.186  1.00  0.00     0.146 A 
ATOM     11  O   UNL     1       7.735  -3.504  17.206  1.00  0.00    -0.452 OA
ENDROOT
BRANCH   1  12
ATOM     12  C   UNL     1       5.997  -5.151  16.934  1.00  0.00     0.025 A 
ATOM     13  C   UNL     1       5.394  -5.693  18.083  1.00  0.00     0.016 A 
ATOM     14  C   UNL     1       4.936  -7.014  18.085  1.00  0.00     0.051 A 
ATOM     15  C   UNL     1       5.061  -7.807  16.938  1.00  0.00     0.157 A 
ATOM     16  C   UNL     1       6.101  -5.945  15.780  1.00  0.00     0.062 A 
ATOM     17  C   UNL     1       5.643  -7.267  15.778  1.00  0.00     0.158 A 
BRANCH  15  18
ATOM     18  O   UNL     1       4.605  -9.125  16.942  1.00  0.00    -0.504 OA
ATOM     19  H   UNL     1       4.077  -9.500  17.722  1.00  0.00     0.293 HD
ENDBRANCH  15  18
BRANCH  17  20
ATOM     20  O   UNL     1       5.776  -8.028  14.617  1.00  0.00    -0.504 OA
ATOM     21  H   UNL     1       6.615  -8.560  14.415  1.00  0.00     0.293 HD
ENDBRANCH  17  20
ENDBRANCH   1  12
BRANCH   2  22
ATOM     22  O   UNL     1       4.252  -2.914  16.346  1.00  0.00    -0.502 OA
ATOM     23  H   UNL     1       3.836  -2.825  15.426  1.00  0.00     0.293 HD
ENDBRANCH   2  22
BRANCH   6  24
ATOM     24  O   UNL     1       7.534   1.281  16.293  1.00  0.00    -0.507 OA
ATOM     25  H   UNL     1       6.561   1.510  16.424  1.00  0.00     0.293 HD
ENDBRANCH   6  24
BRANCH   8  26
ATOM     26  O   UNL     1      11.548  -0.772  17.946  1.00  0.00    -0.508 OA
ATOM     27  H   UNL     1      11.967  -1.413  18.611  1.00  0.00     0.293 HD
ENDBRANCH   8  26
TORSDOF 6
ENDMDL
MODEL 9
REMARK VINA RESULT:    -5.313      1.850      3.492
REMARK INTER + INTRA:          -6.730
REMARK INTER:                  -6.856
REMARK INTRA:                   0.126
REMARK UNBOUND:                -0.331
REMARK SMILES O=c1c(O)c(-c2ccc(O)c(O)c2)oc2cc(O)cc(O)c12
REMARK SMILES IDX 5 1 3 2 2 3 1 4 22 5 20 6 19 7 17 8 16 9 15 10 14 11 6 12
REMARK SMILES IDX 7 13 8 14 9 15 13 16 11 17 10 18 12 20 4 22 21 24 18 26
REMARK H PARENT 10 19 12 21 4 23 21 25 18 27
REMARK Flexibility Score: inf
ROOT
ATOM      1  C   UNL     1       7.180  -2.612  16.903  1.00  0.00     0.180 A 
ATOM      2  C   UNL     1       6.996  -4.005  16.860  1.00  0.00     0.208 A 
ATOM      3  C   UNL     1       5.702  -4.515  16.670  1.00  0.00     0.238 A 
ATOM      4  O   UNL     1       5.536  -5.763  16.688  1.00  0.00    -0.285 OA
ATOM      5  C   UNL     1       4.612  -3.627  16.508  1.00  0.00     0.111 A 
ATOM      6  C   UNL     1       3.264  -4.034  16.269  1.00  0.00     0.134 A 
ATOM      7  C   UNL     1       2.246  -3.074  16.254  1.00  0.00     0.093 A 
ATOM      8  C   UNL     1       2.534  -1.715  16.406  1.00  0.00     0.123 A 
ATOM      9  C   UNL     1       3.853  -1.304  16.581  1.00  0.00     0.094 A 
ATOM     10  C   UNL     1       4.887  -2.241  16.636  1.00  0.00     0.146 A 
ATOM     11  O   UNL     1       6.129  -1.807  16.814  1.00  0.00    -0.452 OA
ENDROOT
BRANCH   1  12
ATOM     12  C   UNL     1       8.517  -1.999  17.076  1.00  0.00     0.025 A 
ATOM     13  C   UNL     1       9.446  -2.515  17.996  1.00  0.00     0.016 A 
ATOM     14  C   UNL     1      10.711  -1.935  18.125  1.00  0.00     0.051 A 
ATOM     15  C   UNL     1      11.071  -0.840  17.328  1.00  0.00     0.157 A 
ATOM     16  C   UNL     1       8.891  -0.914  16.265  1.00  0.00     0.062 A 
ATOM     17  C   UNL     1      10.156  -0.331  16.391  1.00  0.00     0.158 A 
BRANCH  15  18
ATOM     18  O   UNL     1      12.333  -0.262  17.459  1.00  0.00    -0.504 OA
ATOM     19  H   UNL     1      13.089  -0.741  17.935  1.00  0.00     0.293 HD
ENDBRANCH  15  18
BRANCH  17  20
ATOM     20  O   UNL     1      10.486   0.753  15.578  1.00  0.00    -0.504 OA
ATOM     21  H   UNL     1      10.787   1.641  15.961  1.00  0.00     0.293 HD
ENDBRANCH  17  20
ENDBRANCH   1  12
BRANCH   2  22
ATOM     22  O   UNL     1       8.083  -4.864  17.045  1.00  0.00    -0.502 OA
ATOM     23  H   UNL     1       9.031  -4.524  17.162  1.00  0.00     0.293 HD
ENDBRANCH   2  22
BRANCH   6  24
ATOM     24  O   UNL     1       2.882  -5.354  16.013  1.00  0.00    -0.507 OA
ATOM     25  H   UNL     1       3.467  -6.048  15.576  1.00  0.00     0.293 HD
ENDBRANCH   6  24
BRANCH   8  26
ATOM     26  O   UNL     1       1.516  -0.764  16.376  1.00  0.00    -0.508 OA
ATOM     27  H   UNL     1       1.399  -0.138  15.587  1.00  0.00     0.293 HD
ENDBRANCH   8  26
TORSDOF 6
ENDMDL
