MODEL 1
REMARK VINA RESULT:    -4.041      0.000      0.000
REMARK INTER + INTRA:          -4.997
REMARK INTER:                  -4.749
REMARK INTRA:                  -0.248
REMARK UNBOUND:                -0.248
REMARK SMILES O=C([O-])C=Cc1ccc(O)c(O)c1
REMARK SMILES IDX 6 1 13 2 7 3 11 4 8 5 9 6 5 7 4 8 2 9 1 10 3 11 12 12 10 14
REMARK H PARENT 12 13 10 15
REMARK Flexibility Score: inf
ROOT
ATOM      1  C   UNL     1       7.733   5.615  26.549  1.00  0.00    -0.022 A 
ATOM      2  C   UNL     1       7.452   4.626  25.591  1.00  0.00     0.058 A 
ATOM      3  C   UNL     1       8.644   6.633  26.237  1.00  0.00     0.012 A 
ATOM      4  C   UNL     1       8.035   4.686  24.317  1.00  0.00     0.157 A 
ATOM      5  C   UNL     1       9.225   6.695  24.967  1.00  0.00     0.051 A 
ATOM      6  C   UNL     1       8.920   5.726  24.003  1.00  0.00     0.157 A 
ENDROOT
BRANCH   1   7
ATOM      7  C   UNL     1       7.171   5.541  27.914  1.00  0.00     0.010 C 
ATOM      8  C   UNL     1       6.028   6.117  28.317  1.00  0.00     0.025 C 
BRANCH   8   9
ATOM      9  C   UNL     1       5.219   7.070  27.532  1.00  0.00     0.064 C 
ATOM     10  O   UNL     1       5.614   8.246  27.311  1.00  0.00    -0.545 OA
ATOM     11  O   UNL     1       3.963   6.683  27.084  1.00  0.00    -0.545 OA
ENDBRANCH   8   9
ENDBRANCH   1   7
BRANCH   4  12
ATOM     12  O   UNL     1       7.743   3.715  23.361  1.00  0.00    -0.504 OA
ATOM     13  H   UNL     1       6.844   3.249  23.336  1.00  0.00     0.293 HD
ENDBRANCH   4  12
BRANCH   6  14
ATOM     14  O   UNL     1       9.495   5.785  22.734  1.00  0.00    -0.504 OA
ATOM     15  H   UNL     1       9.080   6.334  21.991  1.00  0.00     0.293 HD
ENDBRANCH   6  14
TORSDOF 4
ENDMDL
MODEL 2
REMARK VINA RESULT:    -3.925     14.405     15.710
REMARK INTER + INTRA:          -4.861
REMARK INTER:                  -4.628
REMARK INTRA:                  -0.234
REMARK UNBOUND:                -0.248
REMARK SMILES O=C([O-])C=Cc1ccc(O)c(O)c1
REMARK SMILES IDX 6 1 13 2 7 3 11 4 8 5 9 6 5 7 4 8 2 9 1 10 3 11 12 12 10 14
REMARK H PARENT 12 13 10 15
REMARK Flexibility Score: inf
ROOT
ATOM      1  C   UNL     1      17.280   5.700  35.933  1.00  0.00    -0.022 A 
ATOM      2  C   UNL     1      17.562   4.729  36.909  1.00  0.00     0.058 A 
ATOM      3  C   UNL     1      16.372   6.727  36.229  1.00  0.00     0.012 A 
ATOM      4  C   UNL     1      16.983   4.814  38.183  1.00  0.00     0.157 A 
ATOM      5  C   UNL     1      15.795   6.814  37.500  1.00  0.00     0.051 A 
ATOM      6  C   UNL     1      16.102   5.863  38.481  1.00  0.00     0.157 A 
ENDROOT
BRANCH   1   7
ATOM      7  C   UNL     1      17.837   5.599  34.568  1.00  0.00     0.010 C 
ATOM      8  C   UNL     1      18.982   6.161  34.151  1.00  0.00     0.025 C 
BRANCH   8   9
ATOM      9  C   UNL     1      19.799   7.123  34.917  1.00  0.00     0.064 C 
ATOM     10  O   UNL     1      19.387   8.287  35.167  1.00  0.00    -0.545 OA
ATOM     11  O   UNL     1      21.079   6.758  35.313  1.00  0.00    -0.545 OA
ENDBRANCH   8   9
ENDBRANCH   1   7
BRANCH   4  12
ATOM     12  O   UNL     1      17.276   3.861  39.157  1.00  0.00    -0.504 OA
ATOM     13  H   UNL     1      18.221   3.722  39.495  1.00  0.00     0.293 HD
ENDBRANCH   4  12
BRANCH   6  14
ATOM     14  O   UNL     1      15.531   5.947  39.750  1.00  0.00    -0.504 OA
ATOM     15  H   UNL     1      15.688   6.749  40.348  1.00  0.00     0.293 HD
ENDBRANCH   6  14
TORSDOF 4
ENDMDL
MODEL 3
REMARK VINA RESULT:    -3.918      1.060      2.010
REMARK INTER + INTRA:          -4.853
REMARK INTER:                  -4.578
REMARK INTRA:                  -0.276
REMARK UNBOUND:                -0.248
REMARK SMILES O=C([O-])C=Cc1ccc(O)c(O)c1
REMARK SMILES IDX 6 1 13 2 7 3 11 4 8 5 9 6 5 7 4 8 2 9 1 10 3 11 12 12 10 14
REMARK H PARENT 12 13 10 15
REMARK Flexibility Score: inf
ROOT
ATOM      1  C   UNL     1       7.141   5.943  27.194  1.00  0.00    -0.022 A 
ATOM      2  C   UNL     1       8.021   6.777  26.484  1.00  0.00     0.058 A 
ATOM      3  C   UNL     1       6.763   4.712  26.639  1.00  0.00     0.012 A 
ATOM      4  C   UNL     1       8.560   6.360  25.258  1.00  0.00     0.157 A 
ATOM      5  C   UNL     1       7.300   4.295  25.417  1.00  0.00     0.051 A 
ATOM      6  C   UNL     1       8.201   5.113  24.726  1.00  0.00     0.157 A 
ENDROOT
BRANCH   1   7
ATOM      7  C   UNL     1       6.521   6.386  28.461  1.00  0.00     0.010 C 
ATOM      8  C   UNL     1       5.345   7.023  28.571  1.00  0.00     0.025 C 
BRANCH   8   9
ATOM      9  C   UNL     1       4.545   7.554  27.450  1.00  0.00     0.064 C 
ATOM     10  O   UNL     1       4.825   8.653  26.901  1.00  0.00    -0.545 OA
ATOM     11  O   UNL     1       3.415   6.860  27.037  1.00  0.00    -0.545 OA
ENDBRANCH   8   9
ENDBRANCH   1   7
BRANCH   4  12
ATOM     12  O   UNL     1       9.447   7.178  24.561  1.00  0.00    -0.504 OA
ATOM     13  H   UNL     1       9.982   6.831  23.773  1.00  0.00     0.293 HD
ENDBRANCH   4  12
BRANCH   6  14
ATOM     14  O   UNL     1       8.741   4.700  23.509  1.00  0.00    -0.504 OA
ATOM     15  H   UNL     1       8.195   4.716  22.656  1.00  0.00     0.293 HD
ENDBRANCH   6  14
TORSDOF 4
ENDMDL
MODEL 4
REMARK VINA RESULT:    -3.917      5.644      7.763
REMARK INTER + INTRA:          -4.853
REMARK INTER:                  -4.584
REMARK INTRA:                  -0.268
REMARK UNBOUND:                -0.248
REMARK SMILES O=C([O-])C=Cc1ccc(O)c(O)c1
REMARK SMILES IDX 6 1 13 2 7 3 11 4 8 5 9 6 5 7 4 8 2 9 1 10 3 11 12 12 10 14
REMARK H PARENT 12 13 10 15
REMARK Flexibility Score: inf
ROOT
ATOM      1  C   UNL     1      12.875   7.919  21.347  1.00  0.00    -0.022 A 
ATOM      2  C   UNL     1      11.588   7.632  21.835  1.00  0.00     0.058 A 
ATOM      3  C   UNL     1      13.828   6.893  21.281  1.00  0.00     0.012 A 
ATOM      4  C   UNL     1      11.243   6.323  22.200  1.00  0.00     0.157 A 
ATOM      5  C   UNL     1      13.485   5.587  21.643  1.00  0.00     0.051 A 
ATOM      6  C   UNL     1      12.193   5.297  22.100  1.00  0.00     0.157 A 
ENDROOT
BRANCH   1   7
ATOM      7  C   UNL     1      13.275   9.300  21.007  1.00  0.00     0.010 C 
ATOM      8  C   UNL     1      13.979  10.124  21.799  1.00  0.00     0.025 C 
BRANCH   8   9
ATOM      9  C   UNL     1      14.329   9.872  23.211  1.00  0.00     0.064 C 
ATOM     10  O   UNL     1      15.479   9.484  23.547  1.00  0.00    -0.545 OA
ATOM     11  O   UNL     1      13.347   9.999  24.184  1.00  0.00    -0.545 OA
ENDBRANCH   8   9
ENDBRANCH   1   7
BRANCH   4  12
ATOM     12  O   UNL     1       9.962   6.035  22.667  1.00  0.00    -0.504 OA
ATOM     13  H   UNL     1       9.213   5.778  22.035  1.00  0.00     0.293 HD
ENDBRANCH   4  12
BRANCH   6  14
ATOM     14  O   UNL     1      11.845   3.996  22.460  1.00  0.00    -0.504 OA
ATOM     15  H   UNL     1      12.049   3.208  21.857  1.00  0.00     0.293 HD
ENDBRANCH   6  14
TORSDOF 4
ENDMDL
MODEL 5
REMARK VINA RESULT:    -3.895     14.485     15.802
REMARK INTER + INTRA:          -4.826
REMARK INTER:                  -4.545
REMARK INTRA:                  -0.281
REMARK UNBOUND:                -0.248
REMARK SMILES O=C([O-])C=Cc1ccc(O)c(O)c1
REMARK SMILES IDX 6 1 13 2 7 3 11 4 8 5 9 6 5 7 4 8 2 9 1 10 3 11 12 12 10 14
REMARK H PARENT 12 13 10 15
REMARK Flexibility Score: inf
ROOT
ATOM      1  C   UNL     1      17.981   5.990  35.251  1.00  0.00    -0.022 A 
ATOM      2  C   UNL     1      17.126   6.819  35.998  1.00  0.00     0.058 A 
ATOM      3  C   UNL     1      18.326   4.728  35.757  1.00  0.00     0.012 A 
ATOM      4  C   UNL     1      16.581   6.371  37.209  1.00  0.00     0.157 A 
ATOM      5  C   UNL     1      17.782   4.279  36.964  1.00  0.00     0.051 A 
ATOM      6  C   UNL     1      16.906   5.095  37.691  1.00  0.00     0.157 A 
ENDROOT
BRANCH   1   7
ATOM      7  C   UNL     1      18.607   6.464  34.000  1.00  0.00     0.010 C 
ATOM      8  C   UNL     1      19.799   7.074  33.909  1.00  0.00     0.025 C 
BRANCH   8   9
ATOM      9  C   UNL     1      20.616   7.542  35.046  1.00  0.00     0.064 C 
ATOM     10  O   UNL     1      20.451   8.684  35.552  1.00  0.00    -0.545 OA
ATOM     11  O   UNL     1      21.638   6.732  35.523  1.00  0.00    -0.545 OA
ENDBRANCH   8   9
ENDBRANCH   1   7
BRANCH   4  12
ATOM     12  O   UNL     1      15.719   7.186  37.941  1.00  0.00    -0.504 OA
ATOM     13  H   UNL     1      15.221   6.838  38.752  1.00  0.00     0.293 HD
ENDBRANCH   4  12
BRANCH   6  14
ATOM     14  O   UNL     1      16.359   4.650  38.894  1.00  0.00    -0.504 OA
ATOM     15  H   UNL     1      16.821   4.821  39.779  1.00  0.00     0.293 HD
ENDBRANCH   6  14
TORSDOF 4
ENDMDL
MODEL 6
REMARK VINA RESULT:    -3.828      4.099      6.854
REMARK INTER + INTRA:          -4.748
REMARK INTER:                  -4.736
REMARK INTRA:                  -0.012
REMARK UNBOUND:                -0.248
REMARK SMILES O=C([O-])C=Cc1ccc(O)c(O)c1
REMARK SMILES IDX 6 1 13 2 7 3 11 4 8 5 9 6 5 7 4 8 2 9 1 10 3 11 12 12 10 14
REMARK H PARENT 12 13 10 15
REMARK Flexibility Score: inf
ROOT
ATOM      1  C   UNL     1      11.661   6.656  23.361  1.00  0.00    -0.022 A 
ATOM      2  C   UNL     1      10.547   6.656  24.218  1.00  0.00     0.058 A 
ATOM      3  C   UNL     1      12.946   6.790  23.906  1.00  0.00     0.012 A 
ATOM      4  C   UNL     1      10.720   6.734  25.607  1.00  0.00     0.157 A 
ATOM      5  C   UNL     1      13.120   6.866  25.291  1.00  0.00     0.051 A 
ATOM      6  C   UNL     1      12.010   6.835  26.145  1.00  0.00     0.157 A 
ENDROOT
BRANCH   1   7
ATOM      7  C   UNL     1      11.497   6.628  21.893  1.00  0.00     0.010 C 
ATOM      8  C   UNL     1      11.934   7.572  21.043  1.00  0.00     0.025 C 
BRANCH   8   9
ATOM      9  C   UNL     1      12.492   8.883  21.425  1.00  0.00     0.064 C 
ATOM     10  O   UNL     1      11.800   9.745  22.029  1.00  0.00    -0.545 OA
ATOM     11  O   UNL     1      13.790   9.201  21.048  1.00  0.00    -0.545 OA
ENDBRANCH   8   9
ENDBRANCH   1   7
BRANCH   4  12
ATOM     12  O   UNL     1       9.617   6.715  26.459  1.00  0.00    -0.504 OA
ATOM     13  H   UNL     1       9.647   7.145  27.376  1.00  0.00     0.293 HD
ENDBRANCH   4  12
BRANCH   6  14
ATOM     14  O   UNL     1      12.179   6.908  27.527  1.00  0.00    -0.504 OA
ATOM     15  H   UNL     1      11.884   7.722  28.053  1.00  0.00     0.293 HD
ENDBRANCH   6  14
TORSDOF 4
ENDMDL
MODEL 7
REMARK VINA RESULT:    -3.762      3.601      6.123
REMARK INTER + INTRA:          -4.670
REMARK INTER:                  -4.389
REMARK INTRA:                  -0.281
REMARK UNBOUND:                -0.248
REMARK SMILES O=C([O-])C=Cc1ccc(O)c(O)c1
REMARK SMILES IDX 6 1 13 2 7 3 11 4 8 5 9 6 5 7 4 8 2 9 1 10 3 11 12 12 10 14
REMARK H PARENT 12 13 10 15
REMARK Flexibility Score: inf
ROOT
ATOM      1  C   UNL     1      12.153   6.634  24.320  1.00  0.00    -0.022 A 
ATOM      2  C   UNL     1      11.231   6.295  23.314  1.00  0.00     0.058 A 
ATOM      3  C   UNL     1      11.703   6.787  25.639  1.00  0.00     0.012 A 
ATOM      4  C   UNL     1       9.886   6.060  23.634  1.00  0.00     0.157 A 
ATOM      5  C   UNL     1      10.363   6.552  25.960  1.00  0.00     0.051 A 
ATOM      6  C   UNL     1       9.452   6.184  24.961  1.00  0.00     0.157 A 
ENDROOT
BRANCH   1   7
ATOM      7  C   UNL     1      13.562   6.937  23.996  1.00  0.00     0.010 C 
ATOM      8  C   UNL     1      14.070   8.166  23.808  1.00  0.00     0.025 C 
BRANCH   8   9
ATOM      9  C   UNL     1      13.291   9.415  23.713  1.00  0.00     0.064 C 
ATOM     10  O   UNL     1      13.051  10.123  24.728  1.00  0.00    -0.545 OA
ATOM     11  O   UNL     1      12.750   9.784  22.489  1.00  0.00    -0.545 OA
ENDBRANCH   8   9
ENDBRANCH   1   7
BRANCH   4  12
ATOM     12  O   UNL     1       8.976   5.706  22.640  1.00  0.00    -0.504 OA
ATOM     13  H   UNL     1       9.267   5.565  21.680  1.00  0.00     0.293 HD
ENDBRANCH   4  12
BRANCH   6  14
ATOM     14  O   UNL     1       8.115   5.946  25.276  1.00  0.00    -0.504 OA
ATOM     15  H   UNL     1       7.846   5.538  26.163  1.00  0.00     0.293 HD
ENDBRANCH   6  14
TORSDOF 4
ENDMDL
MODEL 8
REMARK VINA RESULT:    -3.750      3.852      6.903
REMARK INTER + INTRA:          -4.656
REMARK INTER:                  -4.393
REMARK INTRA:                  -0.263
REMARK UNBOUND:                -0.248
REMARK SMILES O=C([O-])C=Cc1ccc(O)c(O)c1
REMARK SMILES IDX 6 1 13 2 7 3 11 4 8 5 9 6 5 7 4 8 2 9 1 10 3 11 12 12 10 14
REMARK H PARENT 12 13 10 15
REMARK Flexibility Score: inf
ROOT
ATOM      1  C   UNL     1      11.881   6.164  23.441  1.00  0.00    -0.022 A 
ATOM      2  C   UNL     1      12.315   6.478  24.740  1.00  0.00     0.058 A 
ATOM      3  C   UNL     1      10.512   5.983  23.200  1.00  0.00     0.012 A 
ATOM      4  C   UNL     1      11.385   6.662  25.774  1.00  0.00     0.157 A 
ATOM      5  C   UNL     1       9.584   6.167  24.229  1.00  0.00     0.051 A 
ATOM      6  C   UNL     1      10.016   6.511  25.516  1.00  0.00     0.157 A 
ENDROOT
BRANCH   1   7
ATOM      7  C   UNL     1      12.846   5.914  22.350  1.00  0.00     0.010 C 
ATOM      8  C   UNL     1      13.400   6.856  21.570  1.00  0.00     0.025 C 
BRANCH   8   9
ATOM      9  C   UNL     1      13.019   8.281  21.537  1.00  0.00     0.064 C 
ATOM     10  O   UNL     1      11.933   8.661  21.024  1.00  0.00    -0.545 OA
ATOM     11  O   UNL     1      13.908   9.231  22.020  1.00  0.00    -0.545 OA
ENDBRANCH   8   9
ENDBRANCH   1   7
BRANCH   4  12
ATOM     12  O   UNL     1      11.814   6.991  27.058  1.00  0.00    -0.504 OA
ATOM     13  H   UNL     1      11.423   7.778  27.563  1.00  0.00     0.293 HD
ENDBRANCH   4  12
BRANCH   6  14
ATOM     14  O   UNL     1       9.094   6.698  26.545  1.00  0.00    -0.504 OA
ATOM     15  H   UNL     1       8.107   6.818  26.355  1.00  0.00     0.293 HD
ENDBRANCH   6  14
TORSDOF 4
ENDMDL
MODEL 9
REMARK VINA RESULT:    -3.705      3.896      6.132
REMARK INTER + INTRA:          -4.603
REMARK INTER:                  -4.374
REMARK INTRA:                  -0.229
REMARK UNBOUND:                -0.248
REMARK SMILES O=C([O-])C=Cc1ccc(O)c(O)c1
REMARK SMILES IDX 6 1 13 2 7 3 11 4 8 5 9 6 5 7 4 8 2 9 1 10 3 11 12 12 10 14
REMARK H PARENT 12 13 10 15
REMARK Flexibility Score: inf
ROOT
ATOM      1  C   UNL     1      12.189   6.157  22.673  1.00  0.00    -0.022 A 
ATOM      2  C   UNL     1      12.530   7.216  23.532  1.00  0.00     0.058 A 
ATOM      3  C   UNL     1      11.798   6.440  21.357  1.00  0.00     0.012 A 
ATOM      4  C   UNL     1      12.532   8.538  23.064  1.00  0.00     0.157 A 
ATOM      5  C   UNL     1      11.800   7.757  20.888  1.00  0.00     0.051 A 
ATOM      6  C   UNL     1      12.170   8.808  21.737  1.00  0.00     0.157 A 
ENDROOT
BRANCH   1   7
ATOM      7  C   UNL     1      12.130   4.764  23.161  1.00  0.00     0.010 C 
ATOM      8  C   UNL     1      11.123   4.230  23.871  1.00  0.00     0.025 C 
BRANCH   8   9
ATOM      9  C   UNL     1       9.984   4.973  24.444  1.00  0.00     0.064 C 
ATOM     10  O   UNL     1       8.924   5.163  23.791  1.00  0.00    -0.545 OA
ATOM     11  O   UNL     1      10.110   5.536  25.707  1.00  0.00    -0.545 OA
ENDBRANCH   8   9
ENDBRANCH   1   7
BRANCH   4  12
ATOM     12  O   UNL     1      12.887   9.586  23.910  1.00  0.00    -0.504 OA
ATOM     13  H   UNL     1      12.219  10.002  24.549  1.00  0.00     0.293 HD
ENDBRANCH   4  12
BRANCH   6  14
ATOM     14  O   UNL     1      12.177  10.123  21.273  1.00  0.00    -0.504 OA
ATOM     15  H   UNL     1      12.760  10.832  21.701  1.00  0.00     0.293 HD
ENDBRANCH   6  14
TORSDOF 4
ENDMDL
