MODEL 1
REMARK VINA RESULT:    -6.500      0.000      0.000
REMARK INTER + INTRA:          -7.890
REMARK INTER:                  -7.830
REMARK INTRA:                  -0.060
REMARK UNBOUND:                -0.060
REMARK SMILES O=c1c(O)c(-c2ccc(O)c(O)c2)oc2cc(O)cc(O)c12
REMARK SMILES IDX 5 1 3 2 2 3 1 4 22 5 20 6 19 7 17 8 16 9 15 10 14 11 6 12
REMARK SMILES IDX 7 13 8 14 9 15 13 16 11 17 10 18 12 20 4 22 21 24 18 26
REMARK H PARENT 10 19 12 21 4 23 21 25 18 27
REMARK Flexibility Score: inf
ROOT
ATOM      1  C   UNL     1       5.395   4.727 -32.277  1.00  0.00     0.180 A 
ATOM      2  C   UNL     1       5.633   3.682 -33.190  1.00  0.00     0.208 A 
ATOM      3  C   UNL     1       6.906   3.564 -33.769  1.00  0.00     0.238 A 
ATOM      4  O   UNL     1       7.128   2.639 -34.597  1.00  0.00    -0.285 OA
ATOM      5  C   UNL     1       7.921   4.474 -33.411  1.00  0.00     0.111 A 
ATOM      6  C   UNL     1       9.232   4.422 -33.945  1.00  0.00     0.134 A 
ATOM      7  C   UNL     1      10.190   5.359 -33.531  1.00  0.00     0.093 A 
ATOM      8  C   UNL     1       9.862   6.346 -32.595  1.00  0.00     0.123 A 
ATOM      9  C   UNL     1       8.571   6.403 -32.066  1.00  0.00     0.094 A 
ATOM     10  C   UNL     1       7.602   5.478 -32.467  1.00  0.00     0.146 A 
ATOM     11  O   UNL     1       6.380   5.558 -31.952  1.00  0.00    -0.452 OA
ENDROOT
BRANCH   1  12
ATOM     12  C   UNL     1       4.074   4.929 -31.639  1.00  0.00     0.025 A 
ATOM     13  C   UNL     1       3.927   4.912 -30.241  1.00  0.00     0.016 A 
ATOM     14  C   UNL     1       2.666   5.079 -29.661  1.00  0.00     0.051 A 
ATOM     15  C   UNL     1       1.535   5.253 -30.464  1.00  0.00     0.157 A 
ATOM     16  C   UNL     1       2.933   5.082 -32.443  1.00  0.00     0.062 A 
ATOM     17  C   UNL     1       1.668   5.251 -31.863  1.00  0.00     0.158 A 
BRANCH  15  18
ATOM     18  O   UNL     1       0.292   5.420 -29.858  1.00  0.00    -0.504 OA
ATOM     19  H   UNL     1      -0.207   6.301 -29.887  1.00  0.00     0.293 HD
ENDBRANCH  15  18
BRANCH  17  20
ATOM     20  O   UNL     1       0.543   5.416 -32.671  1.00  0.00    -0.504 OA
ATOM     21  H   UNL     1       0.310   6.314 -33.079  1.00  0.00     0.293 HD
ENDBRANCH  17  20
ENDBRANCH   1  12
BRANCH   2  22
ATOM     22  O   UNL     1       4.624   2.763 -33.490  1.00  0.00    -0.502 OA
ATOM     23  H   UNL     1       4.820   1.852 -33.888  1.00  0.00     0.293 HD
ENDBRANCH   2  22
BRANCH   6  24
ATOM     24  O   UNL     1       9.588   3.449 -34.880  1.00  0.00    -0.507 OA
ATOM     25  H   UNL     1      10.490   3.458 -35.342  1.00  0.00     0.293 HD
ENDBRANCH   6  24
BRANCH   8  26
ATOM     26  O   UNL     1      10.813   7.278 -32.183  1.00  0.00    -0.508 OA
ATOM     27  H   UNL     1      10.630   8.274 -32.222  1.00  0.00     0.293 HD
ENDBRANCH   8  26
TORSDOF 6
ENDMDL
MODEL 2
REMARK VINA RESULT:    -6.283      1.569      6.842
REMARK INTER + INTRA:          -7.628
REMARK INTER:                  -7.903
REMARK INTRA:                   0.275
REMARK UNBOUND:                -0.060
REMARK SMILES O=c1c(O)c(-c2ccc(O)c(O)c2)oc2cc(O)cc(O)c12
REMARK SMILES IDX 5 1 3 2 2 3 1 4 22 5 20 6 19 7 17 8 16 9 15 10 14 11 6 12
REMARK SMILES IDX 7 13 8 14 9 15 13 16 11 17 10 18 12 20 4 22 21 24 18 26
REMARK H PARENT 10 19 12 21 4 23 21 25 18 27
REMARK Flexibility Score: inf
ROOT
ATOM      1  C   UNL     1       6.602   5.552 -32.713  1.00  0.00     0.180 A 
ATOM      2  C   UNL     1       5.819   5.310 -33.858  1.00  0.00     0.208 A 
ATOM      3  C   UNL     1       4.437   5.114 -33.706  1.00  0.00     0.238 A 
ATOM      4  O   UNL     1       3.728   4.886 -34.723  1.00  0.00    -0.285 OA
ATOM      5  C   UNL     1       3.860   5.185 -32.422  1.00  0.00     0.111 A 
ATOM      6  C   UNL     1       2.476   5.004 -32.183  1.00  0.00     0.134 A 
ATOM      7  C   UNL     1       1.977   5.098 -30.876  1.00  0.00     0.093 A 
ATOM      8  C   UNL     1       2.835   5.369 -29.804  1.00  0.00     0.123 A 
ATOM      9  C   UNL     1       4.200   5.548 -30.034  1.00  0.00     0.094 A 
ATOM     10  C   UNL     1       4.717   5.457 -31.330  1.00  0.00     0.146 A 
ATOM     11  O   UNL     1       6.021   5.626 -31.519  1.00  0.00    -0.452 OA
ENDROOT
BRANCH   1  12
ATOM     12  C   UNL     1       8.067   5.749 -32.788  1.00  0.00     0.025 A 
ATOM     13  C   UNL     1       8.829   5.180 -33.823  1.00  0.00     0.016 A 
ATOM     14  C   UNL     1      10.215   5.359 -33.861  1.00  0.00     0.051 A 
ATOM     15  C   UNL     1      10.861   6.095 -32.864  1.00  0.00     0.157 A 
ATOM     16  C   UNL     1       8.721   6.471 -31.777  1.00  0.00     0.062 A 
ATOM     17  C   UNL     1      10.111   6.652 -31.814  1.00  0.00     0.158 A 
BRANCH  15  18
ATOM     18  O   UNL     1      12.243   6.259 -32.929  1.00  0.00    -0.504 OA
ATOM     19  H   UNL     1      12.772   6.679 -32.174  1.00  0.00     0.293 HD
ENDBRANCH  15  18
BRANCH  17  20
ATOM     20  O   UNL     1      10.749   7.382 -30.810  1.00  0.00    -0.504 OA
ATOM     21  H   UNL     1      11.124   6.932 -29.984  1.00  0.00     0.293 HD
ENDBRANCH  17  20
ENDBRANCH   1  12
BRANCH   2  22
ATOM     22  O   UNL     1       6.407   5.295 -35.125  1.00  0.00    -0.502 OA
ATOM     23  H   UNL     1       7.171   4.672 -35.362  1.00  0.00     0.293 HD
ENDBRANCH   2  22
BRANCH   6  24
ATOM     24  O   UNL     1       1.596   4.732 -33.232  1.00  0.00    -0.507 OA
ATOM     25  H   UNL     1       0.638   4.449 -33.064  1.00  0.00     0.293 HD
ENDBRANCH   6  24
BRANCH   8  26
ATOM     26  O   UNL     1       2.340   5.464 -28.505  1.00  0.00    -0.508 OA
ATOM     27  H   UNL     1       2.618   4.808 -27.783  1.00  0.00     0.293 HD
ENDBRANCH   8  26
TORSDOF 6
ENDMDL
MODEL 3
REMARK VINA RESULT:    -6.113      1.399      6.808
REMARK INTER + INTRA:          -7.425
REMARK INTER:                  -7.474
REMARK INTRA:                   0.049
REMARK UNBOUND:                -0.060
REMARK SMILES O=c1c(O)c(-c2ccc(O)c(O)c2)oc2cc(O)cc(O)c12
REMARK SMILES IDX 5 1 3 2 2 3 1 4 22 5 20 6 19 7 17 8 16 9 15 10 14 11 6 12
REMARK SMILES IDX 7 13 8 14 9 15 13 16 11 17 10 18 12 20 4 22 21 24 18 26
REMARK H PARENT 10 19 12 21 4 23 21 25 18 27
REMARK Flexibility Score: inf
ROOT
ATOM      1  C   UNL     1       6.528   5.529 -32.712  1.00  0.00     0.180 A 
ATOM      2  C   UNL     1       5.754   5.289 -33.863  1.00  0.00     0.208 A 
ATOM      3  C   UNL     1       4.370   5.105 -33.723  1.00  0.00     0.238 A 
ATOM      4  O   UNL     1       3.667   4.879 -34.746  1.00  0.00    -0.285 OA
ATOM      5  C   UNL     1       3.782   5.183 -32.444  1.00  0.00     0.111 A 
ATOM      6  C   UNL     1       2.394   5.013 -32.217  1.00  0.00     0.134 A 
ATOM      7  C   UNL     1       1.884   5.115 -30.915  1.00  0.00     0.093 A 
ATOM      8  C   UNL     1       2.735   5.383 -29.836  1.00  0.00     0.123 A 
ATOM      9  C   UNL     1       4.104   5.551 -30.054  1.00  0.00     0.094 A 
ATOM     10  C   UNL     1       4.631   5.452 -31.345  1.00  0.00     0.146 A 
ATOM     11  O   UNL     1       5.938   5.611 -31.523  1.00  0.00    -0.452 OA
ENDROOT
BRANCH   1  12
ATOM     12  C   UNL     1       7.996   5.715 -32.775  1.00  0.00     0.025 A 
ATOM     13  C   UNL     1       8.621   6.814 -32.161  1.00  0.00     0.016 A 
ATOM     14  C   UNL     1      10.005   6.983 -32.255  1.00  0.00     0.051 A 
ATOM     15  C   UNL     1      10.782   6.069 -32.972  1.00  0.00     0.157 A 
ATOM     16  C   UNL     1       8.777   4.810 -33.512  1.00  0.00     0.062 A 
ATOM     17  C   UNL     1      10.166   4.978 -33.607  1.00  0.00     0.158 A 
BRANCH  15  18
ATOM     18  O   UNL     1      12.161   6.263 -33.046  1.00  0.00    -0.504 OA
ATOM     19  H   UNL     1      12.591   7.156 -32.839  1.00  0.00     0.293 HD
ENDBRANCH  15  18
BRANCH  17  20
ATOM     20  O   UNL     1      10.934   4.066 -34.331  1.00  0.00    -0.504 OA
ATOM     21  H   UNL     1      10.516   3.258 -34.778  1.00  0.00     0.293 HD
ENDBRANCH  17  20
ENDBRANCH   1  12
BRANCH   2  22
ATOM     22  O   UNL     1       6.353   5.266 -35.125  1.00  0.00    -0.502 OA
ATOM     23  H   UNL     1       7.348   5.119 -35.251  1.00  0.00     0.293 HD
ENDBRANCH   2  22
BRANCH   6  24
ATOM     24  O   UNL     1       1.522   4.745 -33.273  1.00  0.00    -0.507 OA
ATOM     25  H   UNL     1       1.579   3.886 -33.807  1.00  0.00     0.293 HD
ENDBRANCH   6  24
BRANCH   8  26
ATOM     26  O   UNL     1       2.229   5.485 -28.542  1.00  0.00    -0.508 OA
ATOM     27  H   UNL     1       2.260   4.703 -27.898  1.00  0.00     0.293 HD
ENDBRANCH   8  26
TORSDOF 6
ENDMDL
MODEL 4
REMARK VINA RESULT:    -6.052      1.239      2.849
REMARK INTER + INTRA:          -7.350
REMARK INTER:                  -7.104
REMARK INTRA:                  -0.246
REMARK UNBOUND:                -0.060
REMARK SMILES O=c1c(O)c(-c2ccc(O)c(O)c2)oc2cc(O)cc(O)c12
REMARK SMILES IDX 5 1 3 2 2 3 1 4 22 5 20 6 19 7 17 8 16 9 15 10 14 11 6 12
REMARK SMILES IDX 7 13 8 14 9 15 13 16 11 17 10 18 12 20 4 22 21 24 18 26
REMARK H PARENT 10 19 12 21 4 23 21 25 18 27
REMARK Flexibility Score: inf
ROOT
ATOM      1  C   UNL     1       5.640   5.081 -32.033  1.00  0.00     0.180 A 
ATOM      2  C   UNL     1       6.548   6.149 -31.904  1.00  0.00     0.208 A 
ATOM      3  C   UNL     1       7.836   6.013 -32.446  1.00  0.00     0.238 A 
ATOM      4  O   UNL     1       8.661   6.959 -32.327  1.00  0.00    -0.285 OA
ATOM      5  C   UNL     1       8.186   4.827 -33.122  1.00  0.00     0.111 A 
ATOM      6  C   UNL     1       9.461   4.612 -33.700  1.00  0.00     0.134 A 
ATOM      7  C   UNL     1       9.729   3.407 -34.365  1.00  0.00     0.093 A 
ATOM      8  C   UNL     1       8.748   2.414 -34.463  1.00  0.00     0.123 A 
ATOM      9  C   UNL     1       7.490   2.621 -33.895  1.00  0.00     0.094 A 
ATOM     10  C   UNL     1       7.204   3.815 -33.227  1.00  0.00     0.146 A 
ATOM     11  O   UNL     1       6.000   3.983 -32.690  1.00  0.00    -0.452 OA
ENDROOT
BRANCH   1  12
ATOM     12  C   UNL     1       4.270   5.140 -31.473  1.00  0.00     0.025 A 
ATOM     13  C   UNL     1       4.045   5.099 -30.086  1.00  0.00     0.016 A 
ATOM     14  C   UNL     1       2.742   5.131 -29.581  1.00  0.00     0.051 A 
ATOM     15  C   UNL     1       1.648   5.192 -30.448  1.00  0.00     0.157 A 
ATOM     16  C   UNL     1       3.168   5.180 -32.342  1.00  0.00     0.062 A 
ATOM     17  C   UNL     1       1.861   5.214 -31.837  1.00  0.00     0.158 A 
BRANCH  15  18
ATOM     18  O   UNL     1       0.361   5.226 -29.915  1.00  0.00    -0.504 OA
ATOM     19  H   UNL     1      -0.447   5.480 -30.472  1.00  0.00     0.293 HD
ENDBRANCH  15  18
BRANCH  17  20
ATOM     20  O   UNL     1       0.774   5.266 -32.709  1.00  0.00    -0.504 OA
ATOM     21  H   UNL     1      -0.099   4.798 -32.498  1.00  0.00     0.293 HD
ENDBRANCH  17  20
ENDBRANCH   1  12
BRANCH   2  22
ATOM     22  O   UNL     1       6.160   7.333 -31.273  1.00  0.00    -0.502 OA
ATOM     23  H   UNL     1       6.029   8.201 -31.779  1.00  0.00     0.293 HD
ENDBRANCH   2  22
BRANCH   6  24
ATOM     24  O   UNL     1      10.459   5.584 -33.619  1.00  0.00    -0.507 OA
ATOM     25  H   UNL     1      11.428   5.340 -33.453  1.00  0.00     0.293 HD
ENDBRANCH   6  24
BRANCH   8  26
ATOM     26  O   UNL     1       9.013   1.217 -35.125  1.00  0.00    -0.508 OA
ATOM     27  H   UNL     1       8.289   0.523 -35.275  1.00  0.00     0.293 HD
ENDBRANCH   8  26
TORSDOF 6
ENDMDL
MODEL 5
REMARK VINA RESULT:    -6.029      2.013      7.200
REMARK INTER + INTRA:          -7.323
REMARK INTER:                  -6.998
REMARK INTRA:                  -0.325
REMARK UNBOUND:                -0.060
REMARK SMILES O=c1c(O)c(-c2ccc(O)c(O)c2)oc2cc(O)cc(O)c12
REMARK SMILES IDX 5 1 3 2 2 3 1 4 22 5 20 6 19 7 17 8 16 9 15 10 14 11 6 12
REMARK SMILES IDX 7 13 8 14 9 15 13 16 11 17 10 18 12 20 4 22 21 24 18 26
REMARK H PARENT 10 19 12 21 4 23 21 25 18 27
REMARK Flexibility Score: inf
ROOT
ATOM      1  C   UNL     1       6.572   5.955 -32.745  1.00  0.00     0.180 A 
ATOM      2  C   UNL     1       6.193   6.367 -31.453  1.00  0.00     0.208 A 
ATOM      3  C   UNL     1       4.886   6.105 -31.014  1.00  0.00     0.238 A 
ATOM      4  O   UNL     1       4.531   6.479 -29.864  1.00  0.00    -0.285 OA
ATOM      5  C   UNL     1       3.991   5.418 -31.860  1.00  0.00     0.111 A 
ATOM      6  C   UNL     1       2.658   5.111 -31.493  1.00  0.00     0.134 A 
ATOM      7  C   UNL     1       1.832   4.417 -32.388  1.00  0.00     0.093 A 
ATOM      8  C   UNL     1       2.312   4.025 -33.643  1.00  0.00     0.123 A 
ATOM      9  C   UNL     1       3.625   4.327 -34.011  1.00  0.00     0.094 A 
ATOM     10  C   UNL     1       4.463   5.019 -33.132  1.00  0.00     0.146 A 
ATOM     11  O   UNL     1       5.706   5.297 -33.510  1.00  0.00    -0.452 OA
ENDROOT
BRANCH   1  12
ATOM     12  C   UNL     1       7.927   6.211 -33.287  1.00  0.00     0.025 A 
ATOM     13  C   UNL     1       8.973   5.290 -33.107  1.00  0.00     0.016 A 
ATOM     14  C   UNL     1      10.249   5.564 -33.606  1.00  0.00     0.051 A 
ATOM     15  C   UNL     1      10.504   6.763 -34.277  1.00  0.00     0.157 A 
ATOM     16  C   UNL     1       8.190   7.424 -33.943  1.00  0.00     0.062 A 
ATOM     17  C   UNL     1       9.470   7.700 -34.445  1.00  0.00     0.158 A 
BRANCH  15  18
ATOM     18  O   UNL     1      11.786   7.009 -34.766  1.00  0.00    -0.504 OA
ATOM     19  H   UNL     1      12.569   7.196 -34.151  1.00  0.00     0.293 HD
ENDBRANCH  15  18
BRANCH  17  20
ATOM     20  O   UNL     1       9.718   8.903 -35.108  1.00  0.00    -0.504 OA
ATOM     21  H   UNL     1       9.716   8.961 -36.119  1.00  0.00     0.293 HD
ENDBRANCH  17  20
ENDBRANCH   1  12
BRANCH   2  22
ATOM     22  O   UNL     1       7.114   7.001 -30.615  1.00  0.00    -0.502 OA
ATOM     23  H   UNL     1       7.674   7.789 -30.920  1.00  0.00     0.293 HD
ENDBRANCH   2  22
BRANCH   6  24
ATOM     24  O   UNL     1       2.151   5.489 -30.248  1.00  0.00    -0.507 OA
ATOM     25  H   UNL     1       1.213   5.241 -29.957  1.00  0.00     0.293 HD
ENDBRANCH   6  24
BRANCH   8  26
ATOM     26  O   UNL     1       1.492   3.335 -34.533  1.00  0.00    -0.508 OA
ATOM     27  H   UNL     1       0.659   2.849 -34.219  1.00  0.00     0.293 HD
ENDBRANCH   8  26
TORSDOF 6
ENDMDL
MODEL 6
REMARK VINA RESULT:    -5.744      3.933      6.943
REMARK INTER + INTRA:          -6.979
REMARK INTER:                  -6.665
REMARK INTRA:                  -0.314
REMARK UNBOUND:                -0.060
REMARK SMILES O=c1c(O)c(-c2ccc(O)c(O)c2)oc2cc(O)cc(O)c12
REMARK SMILES IDX 5 1 3 2 2 3 1 4 22 5 20 6 19 7 17 8 16 9 15 10 14 11 6 12
REMARK SMILES IDX 7 13 8 14 9 15 13 16 11 17 10 18 12 20 4 22 21 24 18 26
REMARK H PARENT 10 19 12 21 4 23 21 25 18 27
REMARK Flexibility Score: inf
ROOT
ATOM      1  C   UNL     1      11.819   5.813 -32.971  1.00  0.00     0.180 A 
ATOM      2  C   UNL     1      12.594   6.334 -34.025  1.00  0.00     0.208 A 
ATOM      3  C   UNL     1      13.990   6.213 -33.965  1.00  0.00     0.238 A 
ATOM      4  O   UNL     1      14.695   6.686 -34.898  1.00  0.00    -0.285 OA
ATOM      5  C   UNL     1      14.587   5.558 -32.869  1.00  0.00     0.111 A 
ATOM      6  C   UNL     1      15.986   5.390 -32.734  1.00  0.00     0.134 A 
ATOM      7  C   UNL     1      16.503   4.718 -31.616  1.00  0.00     0.093 A 
ATOM      8  C   UNL     1      15.647   4.211 -30.632  1.00  0.00     0.123 A 
ATOM      9  C   UNL     1      14.266   4.374 -30.760  1.00  0.00     0.094 A 
ATOM     10  C   UNL     1      13.733   5.042 -31.866  1.00  0.00     0.146 A 
ATOM     11  O   UNL     1      12.415   5.189 -31.959  1.00  0.00    -0.452 OA
ENDROOT
BRANCH   1  12
ATOM     12  C   UNL     1      10.342   5.918 -32.952  1.00  0.00     0.025 A 
ATOM     13  C   UNL     1       9.690   6.933 -32.231  1.00  0.00     0.016 A 
ATOM     14  C   UNL     1       8.294   6.997 -32.207  1.00  0.00     0.051 A 
ATOM     15  C   UNL     1       7.530   6.047 -32.890  1.00  0.00     0.157 A 
ATOM     16  C   UNL     1       9.572   4.952 -33.620  1.00  0.00     0.062 A 
ATOM     17  C   UNL     1       8.171   5.016 -33.598  1.00  0.00     0.158 A 
BRANCH  15  18
ATOM     18  O   UNL     1       6.140   6.138 -32.851  1.00  0.00    -0.504 OA
ATOM     19  H   UNL     1       5.573   6.091 -33.689  1.00  0.00     0.293 HD
ENDBRANCH  15  18
BRANCH  17  20
ATOM     20  O   UNL     1       7.416   4.059 -34.276  1.00  0.00    -0.504 OA
ATOM     21  H   UNL     1       7.094   4.212 -35.224  1.00  0.00     0.293 HD
ENDBRANCH  17  20
ENDBRANCH   1  12
BRANCH   2  22
ATOM     22  O   UNL     1      11.976   6.935 -35.125  1.00  0.00    -0.502 OA
ATOM     23  H   UNL     1      11.189   7.567 -35.028  1.00  0.00     0.293 HD
ENDBRANCH   2  22
BRANCH   6  24
ATOM     24  O   UNL     1      16.865   5.884 -33.699  1.00  0.00    -0.507 OA
ATOM     25  H   UNL     1      17.355   6.763 -33.575  1.00  0.00     0.293 HD
ENDBRANCH   6  24
BRANCH   8  26
ATOM     26  O   UNL     1      16.158   3.542 -29.522  1.00  0.00    -0.508 OA
ATOM     27  H   UNL     1      17.000   2.981 -29.583  1.00  0.00     0.293 HD
ENDBRANCH   8  26
TORSDOF 6
ENDMDL
MODEL 7
REMARK VINA RESULT:    -5.694      3.104      8.630
REMARK INTER + INTRA:          -6.920
REMARK INTER:                  -6.594
REMARK INTRA:                  -0.326
REMARK UNBOUND:                -0.060
REMARK SMILES O=c1c(O)c(-c2ccc(O)c(O)c2)oc2cc(O)cc(O)c12
REMARK SMILES IDX 5 1 3 2 2 3 1 4 22 5 20 6 19 7 17 8 16 9 15 10 14 11 6 12
REMARK SMILES IDX 7 13 8 14 9 15 13 16 11 17 10 18 12 20 4 22 21 24 18 26
REMARK H PARENT 10 19 12 21 4 23 21 25 18 27
REMARK Flexibility Score: inf
ROOT
ATOM      1  C   UNL     1      11.446   5.614 -33.797  1.00  0.00     0.180 A 
ATOM      2  C   UNL     1      11.114   4.373 -34.373  1.00  0.00     0.208 A 
ATOM      3  C   UNL     1       9.814   3.873 -34.202  1.00  0.00     0.238 A 
ATOM      4  O   UNL     1       9.507   2.757 -34.704  1.00  0.00    -0.285 OA
ATOM      5  C   UNL     1       8.866   4.628 -33.482  1.00  0.00     0.111 A 
ATOM      6  C   UNL     1       7.533   4.198 -33.268  1.00  0.00     0.134 A 
ATOM      7  C   UNL     1       6.647   5.011 -32.547  1.00  0.00     0.093 A 
ATOM      8  C   UNL     1       7.066   6.244 -32.037  1.00  0.00     0.123 A 
ATOM      9  C   UNL     1       8.379   6.673 -32.244  1.00  0.00     0.094 A 
ATOM     10  C   UNL     1       9.278   5.876 -32.959  1.00  0.00     0.146 A 
ATOM     11  O   UNL     1      10.522   6.305 -33.137  1.00  0.00    -0.452 OA
ENDROOT
BRANCH   1  12
ATOM     12  C   UNL     1      12.802   6.200 -33.917  1.00  0.00     0.025 A 
ATOM     13  C   UNL     1      13.148   7.025 -35.001  1.00  0.00     0.016 A 
ATOM     14  C   UNL     1      14.441   7.546 -35.107  1.00  0.00     0.051 A 
ATOM     15  C   UNL     1      15.407   7.242 -34.144  1.00  0.00     0.157 A 
ATOM     16  C   UNL     1      13.780   5.879 -32.963  1.00  0.00     0.062 A 
ATOM     17  C   UNL     1      15.077   6.402 -33.067  1.00  0.00     0.158 A 
BRANCH  15  18
ATOM     18  O   UNL     1      16.687   7.779 -34.274  1.00  0.00    -0.504 OA
ATOM     19  H   UNL     1      16.854   8.671 -34.725  1.00  0.00     0.293 HD
ENDBRANCH  15  18
BRANCH  17  20
ATOM     20  O   UNL     1      16.038   6.087 -32.106  1.00  0.00    -0.504 OA
ATOM     21  H   UNL     1      16.893   6.623 -32.016  1.00  0.00     0.293 HD
ENDBRANCH  17  20
ENDBRANCH   1  12
BRANCH   2  22
ATOM     22  O   UNL     1      12.057   3.668 -35.125  1.00  0.00    -0.502 OA
ATOM     23  H   UNL     1      12.289   2.700 -34.935  1.00  0.00     0.293 HD
ENDBRANCH   2  22
BRANCH   6  24
ATOM     24  O   UNL     1       7.086   2.972 -33.765  1.00  0.00    -0.507 OA
ATOM     25  H   UNL     1       7.687   2.368 -34.313  1.00  0.00     0.293 HD
ENDBRANCH   6  24
BRANCH   8  26
ATOM     26  O   UNL     1       6.186   7.053 -31.321  1.00  0.00    -0.508 OA
ATOM     27  H   UNL     1       5.851   7.933 -31.698  1.00  0.00     0.293 HD
ENDBRANCH   8  26
TORSDOF 6
ENDMDL
MODEL 8
REMARK VINA RESULT:    -5.544      8.833     12.202
REMARK INTER + INTRA:          -6.738
REMARK INTER:                  -6.421
REMARK INTRA:                  -0.317
REMARK UNBOUND:                -0.060
REMARK SMILES O=c1c(O)c(-c2ccc(O)c(O)c2)oc2cc(O)cc(O)c12
REMARK SMILES IDX 5 1 3 2 2 3 1 4 22 5 20 6 19 7 17 8 16 9 15 10 14 11 6 12
REMARK SMILES IDX 7 13 8 14 9 15 13 16 11 17 10 18 12 20 4 22 21 24 18 26
REMARK H PARENT 10 19 12 21 4 23 21 25 18 27
REMARK Flexibility Score: inf
ROOT
ATOM      1  C   UNL     1      16.677   2.937 -31.440  1.00  0.00     0.180 A 
ATOM      2  C   UNL     1      17.435   3.089 -30.264  1.00  0.00     0.208 A 
ATOM      3  C   UNL     1      18.006   1.951 -29.673  1.00  0.00     0.238 A 
ATOM      4  O   UNL     1      18.678   2.072 -28.613  1.00  0.00    -0.285 OA
ATOM      5  C   UNL     1      17.829   0.689 -30.278  1.00  0.00     0.111 A 
ATOM      6  C   UNL     1      18.374  -0.507 -29.750  1.00  0.00     0.134 A 
ATOM      7  C   UNL     1      18.161  -1.722 -30.415  1.00  0.00     0.093 A 
ATOM      8  C   UNL     1      17.413  -1.765 -31.597  1.00  0.00     0.123 A 
ATOM      9  C   UNL     1      16.873  -0.589 -32.121  1.00  0.00     0.094 A 
ATOM     10  C   UNL     1      17.074   0.632 -31.472  1.00  0.00     0.146 A 
ATOM     11  O   UNL     1      16.543   1.734 -31.990  1.00  0.00    -0.452 OA
ENDROOT
BRANCH   1  12
ATOM     12  C   UNL     1      16.028   4.087 -32.112  1.00  0.00     0.025 A 
ATOM     13  C   UNL     1      16.668   4.783 -33.152  1.00  0.00     0.016 A 
ATOM     14  C   UNL     1      16.047   5.880 -33.754  1.00  0.00     0.051 A 
ATOM     15  C   UNL     1      14.788   6.307 -33.321  1.00  0.00     0.157 A 
ATOM     16  C   UNL     1      14.773   4.530 -31.665  1.00  0.00     0.062 A 
ATOM     17  C   UNL     1      14.148   5.631 -32.269  1.00  0.00     0.158 A 
BRANCH  15  18
ATOM     18  O   UNL     1      14.193   7.403 -33.942  1.00  0.00    -0.504 OA
ATOM     19  H   UNL     1      13.753   7.333 -34.852  1.00  0.00     0.293 HD
ENDBRANCH  15  18
BRANCH  17  20
ATOM     20  O   UNL     1      12.895   6.055 -31.826  1.00  0.00    -0.504 OA
ATOM     21  H   UNL     1      12.047   5.817 -32.326  1.00  0.00     0.293 HD
ENDBRANCH  17  20
ENDBRANCH   1  12
BRANCH   2  22
ATOM     22  O   UNL     1      17.638   4.356 -29.712  1.00  0.00    -0.502 OA
ATOM     23  H   UNL     1      17.076   4.713 -28.948  1.00  0.00     0.293 HD
ENDBRANCH   2  22
BRANCH   6  24
ATOM     24  O   UNL     1      19.125  -0.495 -28.572  1.00  0.00    -0.507 OA
ATOM     25  H   UNL     1      19.453   0.370 -28.158  1.00  0.00     0.293 HD
ENDBRANCH   6  24
BRANCH   8  26
ATOM     26  O   UNL     1      17.201  -2.972 -32.259  1.00  0.00    -0.508 OA
ATOM     27  H   UNL     1      16.354  -3.143 -32.791  1.00  0.00     0.293 HD
ENDBRANCH   8  26
TORSDOF 6
ENDMDL
MODEL 9
REMARK VINA RESULT:    -5.524      7.622     10.966
REMARK INTER + INTRA:          -6.714
REMARK INTER:                  -6.468
REMARK INTRA:                  -0.246
REMARK UNBOUND:                -0.060
REMARK SMILES O=c1c(O)c(-c2ccc(O)c(O)c2)oc2cc(O)cc(O)c12
REMARK SMILES IDX 5 1 3 2 2 3 1 4 22 5 20 6 19 7 17 8 16 9 15 10 14 11 6 12
REMARK SMILES IDX 7 13 8 14 9 15 13 16 11 17 10 18 12 20 4 22 21 24 18 26
REMARK H PARENT 10 19 12 21 4 23 21 25 18 27
REMARK Flexibility Score: inf
ROOT
ATOM      1  C   UNL     1      15.742   3.783 -31.375  1.00  0.00     0.180 A 
ATOM      2  C   UNL     1      16.002   2.428 -31.656  1.00  0.00     0.208 A 
ATOM      3  C   UNL     1      16.890   1.723 -30.830  1.00  0.00     0.238 A 
ATOM      4  O   UNL     1      17.140   0.512 -31.078  1.00  0.00    -0.285 OA
ATOM      5  C   UNL     1      17.485   2.373 -29.729  1.00  0.00     0.111 A 
ATOM      6  C   UNL     1      18.387   1.733 -28.845  1.00  0.00     0.134 A 
ATOM      7  C   UNL     1      18.930   2.447 -27.767  1.00  0.00     0.093 A 
ATOM      8  C   UNL     1      18.588   3.787 -27.556  1.00  0.00     0.123 A 
ATOM      9  C   UNL     1      17.698   4.423 -28.425  1.00  0.00     0.094 A 
ATOM     10  C   UNL     1      17.148   3.729 -29.506  1.00  0.00     0.146 A 
ATOM     11  O   UNL     1      16.309   4.360 -30.320  1.00  0.00    -0.452 OA
ENDROOT
BRANCH   1  12
ATOM     12  C   UNL     1      14.832   4.600 -32.211  1.00  0.00     0.025 A 
ATOM     13  C   UNL     1      15.190   4.995 -33.511  1.00  0.00     0.016 A 
ATOM     14  C   UNL     1      14.326   5.787 -34.272  1.00  0.00     0.051 A 
ATOM     15  C   UNL     1      13.100   6.205 -33.745  1.00  0.00     0.157 A 
ATOM     16  C   UNL     1      13.610   5.039 -31.676  1.00  0.00     0.062 A 
ATOM     17  C   UNL     1      12.741   5.832 -32.439  1.00  0.00     0.158 A 
BRANCH  15  18
ATOM     18  O   UNL     1      12.258   6.991 -34.529  1.00  0.00    -0.504 OA
ATOM     19  H   UNL     1      12.316   8.003 -34.533  1.00  0.00     0.293 HD
ENDBRANCH  15  18
BRANCH  17  20
ATOM     20  O   UNL     1      11.523   6.252 -31.903  1.00  0.00    -0.504 OA
ATOM     21  H   UNL     1      11.271   7.232 -31.862  1.00  0.00     0.293 HD
ENDBRANCH  17  20
ENDBRANCH   1  12
BRANCH   2  22
ATOM     22  O   UNL     1      15.362   1.793 -32.723  1.00  0.00    -0.502 OA
ATOM     23  H   UNL     1      14.527   1.232 -32.599  1.00  0.00     0.293 HD
ENDBRANCH   2  22
BRANCH   6  24
ATOM     24  O   UNL     1      18.748   0.397 -29.031  1.00  0.00    -0.507 OA
ATOM     25  H   UNL     1      18.057  -0.344 -29.043  1.00  0.00     0.293 HD
ENDBRANCH   6  24
BRANCH   8  26
ATOM     26  O   UNL     1      19.125   4.497 -26.485  1.00  0.00    -0.508 OA
ATOM     27  H   UNL     1      20.097   4.394 -26.215  1.00  0.00     0.293 HD
ENDBRANCH   8  26
TORSDOF 6
ENDMDL
