MODEL 1
REMARK VINA RESULT:    -5.599      0.000      0.000
REMARK INTER + INTRA:         -15.645
REMARK INTER:                 -12.800
REMARK INTRA:                  -2.845
REMARK UNBOUND:                -2.845
REMARK SMILES CCCCCCCCCCCCCCCCCCCCCCCC(=O)[O-]
REMARK SMILES IDX 13 1 14 2 15 3 16 4 17 5 18 6 19 7 20 8 21 9 22 10 23 11
REMARK SMILES IDX 24 12 25 13 26 14 12 15 11 16 10 17 9 18 8 19 7 20 6 21 5 22
REMARK SMILES IDX 4 23 3 24 2 25 1 26
REMARK H PARENT
REMARK Flexibility Score: inf
ROOT
ATOM      1  C   UNL     1      12.538   5.272  53.316  1.00  0.00     0.000 C 
ENDROOT
BRANCH   1   2
ATOM      2  C   UNL     1      11.742   4.024  52.901  1.00  0.00     0.000 C 
BRANCH   2   3
ATOM      3  C   UNL     1      11.160   3.270  54.108  1.00  0.00     0.000 C 
BRANCH   3   4
ATOM      4  C   UNL     1       9.763   3.772  54.501  1.00  0.00     0.000 C 
BRANCH   4   5
ATOM      5  C   UNL     1       9.663   4.136  55.994  1.00  0.00     0.000 C 
BRANCH   5   6
ATOM      6  C   UNL     1      10.944   4.828  56.511  1.00  0.00     0.000 C 
BRANCH   6   7
ATOM      7  C   UNL     1      11.951   3.852  57.142  1.00  0.00     0.000 C 
BRANCH   7   8
ATOM      8  C   UNL     1      13.404   4.151  56.737  1.00  0.00     0.000 C 
BRANCH   8   9
ATOM      9  C   UNL     1      14.221   2.880  56.444  1.00  0.00     0.000 C 
BRANCH   9  10
ATOM     10  C   UNL     1      15.350   3.058  55.413  1.00  0.00     0.006 C 
BRANCH  10  11
ATOM     11  C   UNL     1      16.648   2.342  55.813  1.00  0.00     0.053 C 
BRANCH  11  12
ATOM     12  C   UNL     1      16.360   0.940  56.251  1.00  0.00     0.041 C 
ATOM     13  O   UNL     1      16.440  -0.011  55.427  1.00  0.00    -0.550 OA
ATOM     14  O   UNL     1      16.032   0.677  57.574  1.00  0.00    -0.550 OA
ENDBRANCH  11  12
ENDBRANCH  10  11
ENDBRANCH   9  10
ENDBRANCH   8   9
ENDBRANCH   7   8
ENDBRANCH   6   7
ENDBRANCH   5   6
ENDBRANCH   4   5
ENDBRANCH   3   4
ENDBRANCH   2   3
ENDBRANCH   1   2
BRANCH   1  15
ATOM     15  C   UNL     1      11.950   6.567  52.729  1.00  0.00     0.000 C 
BRANCH  15  16
ATOM     16  C   UNL     1      10.841   7.173  53.607  1.00  0.00     0.000 C 
BRANCH  16  17
ATOM     17  C   UNL     1      11.345   8.236  54.605  1.00  0.00     0.000 C 
BRANCH  17  18
ATOM     18  C   UNL     1      10.190   8.912  55.367  1.00  0.00    -0.000 C 
BRANCH  18  19
ATOM     19  C   UNL     1       8.895   8.085  55.341  1.00  0.00    -0.000 C 
BRANCH  19  20
ATOM     20  C   UNL     1       7.632   8.960  55.385  1.00  0.00    -0.000 C 
BRANCH  20  21
ATOM     21  C   UNL     1       7.461   9.741  54.073  1.00  0.00    -0.000 C 
BRANCH  21  22
ATOM     22  C   UNL     1       7.144   8.830  52.874  1.00  0.00    -0.000 C 
BRANCH  22  23
ATOM     23  C   UNL     1       7.497   9.420  51.494  1.00  0.00    -0.000 C 
BRANCH  23  24
ATOM     24  C   UNL     1       8.952   9.909  51.341  1.00  0.00    -0.000 C 
BRANCH  24  25
ATOM     25  C   UNL     1       9.686   9.374  50.098  1.00  0.00    -0.003 C 
ATOM     26  C   UNL     1       9.763   7.848  50.066  1.00  0.00     0.004 C 
ENDBRANCH  24  25
ENDBRANCH  23  24
ENDBRANCH  22  23
ENDBRANCH  21  22
ENDBRANCH  20  21
ENDBRANCH  19  20
ENDBRANCH  18  19
ENDBRANCH  17  18
ENDBRANCH  16  17
ENDBRANCH  15  16
ENDBRANCH   1  15
TORSDOF 22
ENDMDL
MODEL 2
REMARK VINA RESULT:    -5.412      0.934      2.034
REMARK INTER + INTRA:         -15.216
REMARK INTER:                 -12.471
REMARK INTRA:                  -2.745
REMARK UNBOUND:                -2.845
REMARK SMILES CCCCCCCCCCCCCCCCCCCCCCCC(=O)[O-]
REMARK SMILES IDX 13 1 14 2 15 3 16 4 17 5 18 6 19 7 20 8 21 9 22 10 23 11
REMARK SMILES IDX 24 12 25 13 26 14 12 15 11 16 10 17 9 18 8 19 7 20 6 21 5 22
REMARK SMILES IDX 4 23 3 24 2 25 1 26
REMARK H PARENT
REMARK Flexibility Score: inf
ROOT
ATOM      1  C   UNL     1      11.880   3.817  53.920  1.00  0.00     0.000 C 
ENDROOT
BRANCH   1   2
ATOM      2  C   UNL     1      10.439   3.436  54.295  1.00  0.00     0.000 C 
BRANCH   2   3
ATOM      3  C   UNL     1       9.986   4.077  55.617  1.00  0.00     0.000 C 
BRANCH   3   4
ATOM      4  C   UNL     1      11.141   4.750  56.373  1.00  0.00     0.000 C 
BRANCH   4   5
ATOM      5  C   UNL     1      11.238   4.286  57.838  1.00  0.00     0.000 C 
BRANCH   5   6
ATOM      6  C   UNL     1      12.471   3.387  58.084  1.00  0.00     0.000 C 
BRANCH   6   7
ATOM      7  C   UNL     1      13.205   2.995  56.790  1.00  0.00     0.000 C 
BRANCH   7   8
ATOM      8  C   UNL     1      14.497   3.800  56.571  1.00  0.00     0.000 C 
BRANCH   8   9
ATOM      9  C   UNL     1      15.275   3.360  55.319  1.00  0.00     0.000 C 
BRANCH   9  10
ATOM     10  C   UNL     1      16.578   2.590  55.602  1.00  0.00     0.006 C 
BRANCH  10  11
ATOM     11  C   UNL     1      16.378   1.070  55.662  1.00  0.00     0.053 C 
BRANCH  11  12
ATOM     12  C   UNL     1      16.481   0.582  57.073  1.00  0.00     0.041 C 
ATOM     13  O   UNL     1      17.545   0.045  57.483  1.00  0.00    -0.550 OA
ATOM     14  O   UNL     1      15.414   0.747  57.947  1.00  0.00    -0.550 OA
ENDBRANCH  11  12
ENDBRANCH  10  11
ENDBRANCH   9  10
ENDBRANCH   8   9
ENDBRANCH   7   8
ENDBRANCH   6   7
ENDBRANCH   5   6
ENDBRANCH   4   5
ENDBRANCH   3   4
ENDBRANCH   2   3
ENDBRANCH   1   2
BRANCH   1  15
ATOM     15  C   UNL     1      12.013   4.239  52.446  1.00  0.00     0.000 C 
BRANCH  15  16
ATOM     16  C   UNL     1      12.146   5.761  52.270  1.00  0.00     0.000 C 
BRANCH  16  17
ATOM     17  C   UNL     1      12.374   6.526  53.591  1.00  0.00     0.000 C 
BRANCH  17  18
ATOM     18  C   UNL     1      11.292   7.592  53.839  1.00  0.00    -0.000 C 
BRANCH  18  19
ATOM     19  C   UNL     1      11.423   8.263  55.215  1.00  0.00    -0.000 C 
BRANCH  19  20
ATOM     20  C   UNL     1      10.165   9.053  55.613  1.00  0.00    -0.000 C 
BRANCH  20  21
ATOM     21  C   UNL     1       8.897   8.218  55.379  1.00  0.00    -0.000 C 
BRANCH  21  22
ATOM     22  C   UNL     1       7.629   9.082  55.257  1.00  0.00    -0.000 C 
BRANCH  22  23
ATOM     23  C   UNL     1       7.111   9.283  53.819  1.00  0.00    -0.000 C 
BRANCH  23  24
ATOM     24  C   UNL     1       8.200   9.540  52.758  1.00  0.00    -0.000 C 
BRANCH  24  25
ATOM     25  C   UNL     1       8.066   8.697  51.478  1.00  0.00    -0.003 C 
ATOM     26  C   UNL     1       9.418   8.296  50.887  1.00  0.00     0.004 C 
ENDBRANCH  24  25
ENDBRANCH  23  24
ENDBRANCH  22  23
ENDBRANCH  21  22
ENDBRANCH  20  21
ENDBRANCH  19  20
ENDBRANCH  18  19
ENDBRANCH  17  18
ENDBRANCH  16  17
ENDBRANCH  15  16
ENDBRANCH   1  15
TORSDOF 22
ENDMDL
MODEL 3
REMARK VINA RESULT:    -5.382      3.555      8.613
REMARK INTER + INTRA:         -15.149
REMARK INTER:                 -12.289
REMARK INTRA:                  -2.859
REMARK UNBOUND:                -2.845
REMARK SMILES CCCCCCCCCCCCCCCCCCCCCCCC(=O)[O-]
REMARK SMILES IDX 13 1 14 2 15 3 16 4 17 5 18 6 19 7 20 8 21 9 22 10 23 11
REMARK SMILES IDX 24 12 25 13 26 14 12 15 11 16 10 17 9 18 8 19 7 20 6 21 5 22
REMARK SMILES IDX 4 23 3 24 2 25 1 26
REMARK H PARENT
REMARK Flexibility Score: inf
ROOT
ATOM      1  C   UNL     1      12.479   5.186  53.666  1.00  0.00     0.000 C 
ENDROOT
BRANCH   1   2
ATOM      2  C   UNL     1      12.165   6.443  52.838  1.00  0.00     0.000 C 
BRANCH   2   3
ATOM      3  C   UNL     1      10.710   6.910  53.007  1.00  0.00     0.000 C 
BRANCH   3   4
ATOM      4  C   UNL     1      10.497   7.730  54.287  1.00  0.00     0.000 C 
BRANCH   4   5
ATOM      5  C   UNL     1       9.143   7.437  54.960  1.00  0.00     0.000 C 
BRANCH   5   6
ATOM      6  C   UNL     1       8.378   8.730  55.316  1.00  0.00     0.000 C 
BRANCH   6   7
ATOM      7  C   UNL     1       8.096   9.626  54.097  1.00  0.00     0.000 C 
BRANCH   7   8
ATOM      8  C   UNL     1       7.202   8.942  53.049  1.00  0.00     0.000 C 
BRANCH   8   9
ATOM      9  C   UNL     1       7.545   9.352  51.607  1.00  0.00     0.000 C 
BRANCH   9  10
ATOM     10  C   UNL     1       9.034   9.654  51.354  1.00  0.00     0.006 C 
BRANCH  10  11
ATOM     11  C   UNL     1       9.330  10.048  49.901  1.00  0.00     0.053 C 
BRANCH  11  12
ATOM     12  C   UNL     1       9.977   8.913  49.171  1.00  0.00     0.041 C 
ATOM     13  O   UNL     1       9.928   7.745  49.643  1.00  0.00    -0.550 OA
ATOM     14  O   UNL     1      10.608   9.136  47.954  1.00  0.00    -0.550 OA
ENDBRANCH  11  12
ENDBRANCH  10  11
ENDBRANCH   9  10
ENDBRANCH   8   9
ENDBRANCH   7   8
ENDBRANCH   6   7
ENDBRANCH   5   6
ENDBRANCH   4   5
ENDBRANCH   3   4
ENDBRANCH   2   3
ENDBRANCH   1   2
BRANCH   1  15
ATOM     15  C   UNL     1      11.784   3.929  53.114  1.00  0.00     0.000 C 
BRANCH  15  16
ATOM     16  C   UNL     1      11.013   3.149  54.193  1.00  0.00     0.000 C 
BRANCH  16  17
ATOM     17  C   UNL     1       9.711   3.838  54.652  1.00  0.00     0.000 C 
BRANCH  17  18
ATOM     18  C   UNL     1       9.718   4.148  56.160  1.00  0.00    -0.000 C 
BRANCH  18  19
ATOM     19  C   UNL     1      11.053   4.740  56.640  1.00  0.00    -0.000 C 
BRANCH  19  20
ATOM     20  C   UNL     1      11.636   3.987  57.846  1.00  0.00    -0.000 C 
BRANCH  20  21
ATOM     21  C   UNL     1      13.015   3.399  57.511  1.00  0.00    -0.000 C 
BRANCH  21  22
ATOM     22  C   UNL     1      12.926   2.013  56.846  1.00  0.00    -0.000 C 
BRANCH  22  23
ATOM     23  C   UNL     1      13.725   0.898  57.551  1.00  0.00    -0.000 C 
BRANCH  23  24
ATOM     24  C   UNL     1      15.242   1.148  57.666  1.00  0.00    -0.000 C 
BRANCH  24  25
ATOM     25  C   UNL     1      16.063   0.708  56.441  1.00  0.00    -0.003 C 
ATOM     26  C   UNL     1      16.412   1.870  55.511  1.00  0.00     0.004 C 
ENDBRANCH  24  25
ENDBRANCH  23  24
ENDBRANCH  22  23
ENDBRANCH  21  22
ENDBRANCH  20  21
ENDBRANCH  19  20
ENDBRANCH  18  19
ENDBRANCH  17  18
ENDBRANCH  16  17
ENDBRANCH  15  16
ENDBRANCH   1  15
TORSDOF 22
ENDMDL
MODEL 4
REMARK VINA RESULT:    -5.304      3.613      8.753
REMARK INTER + INTRA:         -14.971
REMARK INTER:                 -11.839
REMARK INTRA:                  -3.132
REMARK UNBOUND:                -2.845
REMARK SMILES CCCCCCCCCCCCCCCCCCCCCCCC(=O)[O-]
REMARK SMILES IDX 13 1 14 2 15 3 16 4 17 5 18 6 19 7 20 8 21 9 22 10 23 11
REMARK SMILES IDX 24 12 25 13 26 14 12 15 11 16 10 17 9 18 8 19 7 20 6 21 5 22
REMARK SMILES IDX 4 23 3 24 2 25 1 26
REMARK H PARENT
REMARK Flexibility Score: inf
ROOT
ATOM      1  C   UNL     1      10.766   3.055  54.111  1.00  0.00     0.000 C 
ENDROOT
BRANCH   1   2
ATOM      2  C   UNL     1       9.571   3.687  54.843  1.00  0.00     0.000 C 
BRANCH   2   3
ATOM      3  C   UNL     1       9.417   5.185  54.531  1.00  0.00     0.000 C 
BRANCH   3   4
ATOM      4  C   UNL     1       9.535   6.065  55.785  1.00  0.00     0.000 C 
BRANCH   4   5
ATOM      5  C   UNL     1      10.603   7.164  55.637  1.00  0.00     0.000 C 
BRANCH   5   6
ATOM      6  C   UNL     1      10.375   8.033  54.380  1.00  0.00     0.000 C 
BRANCH   6   7
ATOM      7  C   UNL     1      10.061   9.503  54.705  1.00  0.00     0.000 C 
BRANCH   7   8
ATOM      8  C   UNL     1       8.583   9.732  55.062  1.00  0.00     0.000 C 
BRANCH   8   9
ATOM      9  C   UNL     1       7.616   8.987  54.126  1.00  0.00     0.000 C 
BRANCH   9  10
ATOM     10  C   UNL     1       7.176   9.782  52.883  1.00  0.00     0.006 C 
BRANCH  10  11
ATOM     11  C   UNL     1       7.356   9.000  51.574  1.00  0.00     0.053 C 
BRANCH  11  12
ATOM     12  C   UNL     1       8.798   8.964  51.179  1.00  0.00     0.041 C 
ATOM     13  O   UNL     1       9.321   7.887  50.783  1.00  0.00    -0.550 OA
ATOM     14  O   UNL     1       9.561  10.125  51.217  1.00  0.00    -0.550 OA
ENDBRANCH  11  12
ENDBRANCH  10  11
ENDBRANCH   9  10
ENDBRANCH   8   9
ENDBRANCH   7   8
ENDBRANCH   6   7
ENDBRANCH   5   6
ENDBRANCH   4   5
ENDBRANCH   3   4
ENDBRANCH   2   3
ENDBRANCH   1   2
BRANCH   1  15
ATOM     15  C   UNL     1      11.527   4.069  53.240  1.00  0.00     0.000 C 
BRANCH  15  16
ATOM     16  C   UNL     1      12.805   4.597  53.914  1.00  0.00     0.000 C 
BRANCH  16  17
ATOM     17  C   UNL     1      13.211   3.816  55.181  1.00  0.00     0.000 C 
BRANCH  17  18
ATOM     18  C   UNL     1      12.922   4.606  56.470  1.00  0.00    -0.000 C 
BRANCH  18  19
ATOM     19  C   UNL     1      12.160   3.779  57.517  1.00  0.00    -0.000 C 
BRANCH  19  20
ATOM     20  C   UNL     1      12.428   2.271  57.392  1.00  0.00    -0.000 C 
BRANCH  20  21
ATOM     21  C   UNL     1      13.662   1.864  58.212  1.00  0.00    -0.000 C 
BRANCH  21  22
ATOM     22  C   UNL     1      14.362   0.611  57.652  1.00  0.00    -0.000 C 
BRANCH  22  23
ATOM     23  C   UNL     1      15.901   0.695  57.595  1.00  0.00    -0.000 C 
BRANCH  23  24
ATOM     24  C   UNL     1      16.535   0.240  56.265  1.00  0.00    -0.000 C 
BRANCH  24  25
ATOM     25  C   UNL     1      16.517   1.297  55.146  1.00  0.00    -0.003 C 
ATOM     26  C   UNL     1      16.241   2.708  55.666  1.00  0.00     0.004 C 
ENDBRANCH  24  25
ENDBRANCH  23  24
ENDBRANCH  22  23
ENDBRANCH  21  22
ENDBRANCH  20  21
ENDBRANCH  19  20
ENDBRANCH  18  19
ENDBRANCH  17  18
ENDBRANCH  16  17
ENDBRANCH  15  16
ENDBRANCH   1  15
TORSDOF 22
ENDMDL
MODEL 5
REMARK VINA RESULT:    -5.195      1.609      3.146
REMARK INTER + INTRA:         -14.720
REMARK INTER:                 -12.152
REMARK INTRA:                  -2.568
REMARK UNBOUND:                -2.845
REMARK SMILES CCCCCCCCCCCCCCCCCCCCCCCC(=O)[O-]
REMARK SMILES IDX 13 1 14 2 15 3 16 4 17 5 18 6 19 7 20 8 21 9 22 10 23 11
REMARK SMILES IDX 24 12 25 13 26 14 12 15 11 16 10 17 9 18 8 19 7 20 6 21 5 22
REMARK SMILES IDX 4 23 3 24 2 25 1 26
REMARK H PARENT
REMARK Flexibility Score: inf
ROOT
ATOM      1  C   UNL     1      10.857   3.028  54.454  1.00  0.00     0.000 C 
ENDROOT
BRANCH   1   2
ATOM      2  C   UNL     1      11.767   3.639  53.377  1.00  0.00     0.000 C 
BRANCH   2   3
ATOM      3  C   UNL     1      12.441   4.940  53.846  1.00  0.00     0.000 C 
BRANCH   3   4
ATOM      4  C   UNL     1      13.064   4.811  55.244  1.00  0.00     0.000 C 
BRANCH   4   5
ATOM      5  C   UNL     1      14.029   3.616  55.354  1.00  0.00     0.000 C 
BRANCH   5   6
ATOM      6  C   UNL     1      15.458   4.055  55.743  1.00  0.00     0.000 C 
BRANCH   6   7
ATOM      7  C   UNL     1      16.544   3.067  55.287  1.00  0.00     0.000 C 
BRANCH   7   8
ATOM      8  C   UNL     1      16.111   1.598  55.429  1.00  0.00     0.000 C 
BRANCH   8   9
ATOM      9  C   UNL     1      16.756   0.894  56.635  1.00  0.00     0.000 C 
BRANCH   9  10
ATOM     10  C   UNL     1      15.764   0.372  57.690  1.00  0.00     0.006 C 
BRANCH  10  11
ATOM     11  C   UNL     1      14.324   0.846  57.448  1.00  0.00     0.053 C 
BRANCH  11  12
ATOM     12  C   UNL     1      13.795   1.553  58.655  1.00  0.00     0.041 C 
ATOM     13  O   UNL     1      14.026   1.100  59.808  1.00  0.00    -0.550 OA
ATOM     14  O   UNL     1      13.071   2.731  58.512  1.00  0.00    -0.550 OA
ENDBRANCH  11  12
ENDBRANCH  10  11
ENDBRANCH   9  10
ENDBRANCH   8   9
ENDBRANCH   7   8
ENDBRANCH   6   7
ENDBRANCH   5   6
ENDBRANCH   4   5
ENDBRANCH   3   4
ENDBRANCH   2   3
ENDBRANCH   1   2
BRANCH   1  15
ATOM     15  C   UNL     1       9.500   3.746  54.555  1.00  0.00     0.000 C 
BRANCH  15  16
ATOM     16  C   UNL     1       9.168   4.201  55.987  1.00  0.00     0.000 C 
BRANCH  16  17
ATOM     17  C   UNL     1       9.525   5.675  56.272  1.00  0.00     0.000 C 
BRANCH  17  18
ATOM     18  C   UNL     1       9.292   6.578  55.047  1.00  0.00    -0.000 C 
BRANCH  18  19
ATOM     19  C   UNL     1       9.365   8.075  55.388  1.00  0.00    -0.000 C 
BRANCH  19  20
ATOM     20  C   UNL     1       8.009   8.784  55.243  1.00  0.00    -0.000 C 
BRANCH  20  21
ATOM     21  C   UNL     1       7.961   9.616  53.953  1.00  0.00    -0.000 C 
BRANCH  21  22
ATOM     22  C   UNL     1       7.191   8.914  52.820  1.00  0.00    -0.000 C 
BRANCH  22  23
ATOM     23  C   UNL     1       7.540   9.397  51.397  1.00  0.00    -0.000 C 
BRANCH  23  24
ATOM     24  C   UNL     1       9.022   9.252  50.998  1.00  0.00    -0.000 C 
BRANCH  24  25
ATOM     25  C   UNL     1       9.542   7.804  50.960  1.00  0.00    -0.003 C 
ATOM     26  C   UNL     1      10.646   7.542  51.984  1.00  0.00     0.004 C 
ENDBRANCH  24  25
ENDBRANCH  23  24
ENDBRANCH  22  23
ENDBRANCH  21  22
ENDBRANCH  20  21
ENDBRANCH  19  20
ENDBRANCH  18  19
ENDBRANCH  17  18
ENDBRANCH  16  17
ENDBRANCH  15  16
ENDBRANCH   1  15
TORSDOF 22
ENDMDL
MODEL 6
REMARK VINA RESULT:    -5.080      0.966      3.600
REMARK INTER + INTRA:         -14.459
REMARK INTER:                 -11.143
REMARK INTRA:                  -3.316
REMARK UNBOUND:                -2.845
REMARK SMILES CCCCCCCCCCCCCCCCCCCCCCCC(=O)[O-]
REMARK SMILES IDX 13 1 14 2 15 3 16 4 17 5 18 6 19 7 20 8 21 9 22 10 23 11
REMARK SMILES IDX 24 12 25 13 26 14 12 15 11 16 10 17 9 18 8 19 7 20 6 21 5 22
REMARK SMILES IDX 4 23 3 24 2 25 1 26
REMARK H PARENT
REMARK Flexibility Score: inf
ROOT
ATOM      1  C   UNL     1       8.689   7.801  55.591  1.00  0.00     0.000 C 
ENDROOT
BRANCH   1   2
ATOM      2  C   UNL     1       9.633   6.653  55.979  1.00  0.00     0.000 C 
BRANCH   2   3
ATOM      3  C   UNL     1       9.181   5.300  55.405  1.00  0.00     0.000 C 
BRANCH   3   4
ATOM      4  C   UNL     1       9.996   4.121  55.957  1.00  0.00     0.000 C 
BRANCH   4   5
ATOM      5  C   UNL     1      11.337   4.566  56.571  1.00  0.00     0.000 C 
BRANCH   5   6
ATOM      6  C   UNL     1      11.754   3.678  57.764  1.00  0.00     0.000 C 
BRANCH   6   7
ATOM      7  C   UNL     1      12.979   2.796  57.468  1.00  0.00     0.000 C 
BRANCH   7   8
ATOM      8  C   UNL     1      13.567   3.043  56.069  1.00  0.00     0.000 C 
BRANCH   8   9
ATOM      9  C   UNL     1      15.005   3.587  56.108  1.00  0.00     0.000 C 
BRANCH   9  10
ATOM     10  C   UNL     1      16.010   2.830  55.221  1.00  0.00     0.006 C 
BRANCH  10  11
ATOM     11  C   UNL     1      16.996   1.973  56.026  1.00  0.00     0.053 C 
BRANCH  11  12
ATOM     12  C   UNL     1      16.364   0.676  56.421  1.00  0.00     0.041 C 
ATOM     13  O   UNL     1      15.649   0.608  57.458  1.00  0.00    -0.550 OA
ATOM     14  O   UNL     1      16.536  -0.453  55.631  1.00  0.00    -0.550 OA
ENDBRANCH  11  12
ENDBRANCH  10  11
ENDBRANCH   9  10
ENDBRANCH   8   9
ENDBRANCH   7   8
ENDBRANCH   6   7
ENDBRANCH   5   6
ENDBRANCH   4   5
ENDBRANCH   3   4
ENDBRANCH   2   3
ENDBRANCH   1   2
BRANCH   1  15
ATOM     15  C   UNL     1       9.385   9.173  55.625  1.00  0.00     0.000 C 
BRANCH  15  16
ATOM     16  C   UNL     1       8.889  10.125  54.523  1.00  0.00     0.000 C 
BRANCH  16  17
ATOM     17  C   UNL     1       7.581   9.666  53.844  1.00  0.00     0.000 C 
BRANCH  17  18
ATOM     18  C   UNL     1       7.610   9.883  52.321  1.00  0.00    -0.000 C 
BRANCH  18  19
ATOM     19  C   UNL     1       7.902   8.592  51.540  1.00  0.00    -0.000 C 
BRANCH  19  20
ATOM     20  C   UNL     1       9.069   8.748  50.552  1.00  0.00    -0.000 C 
BRANCH  20  21
ATOM     21  C   UNL     1      10.120   7.648  50.766  1.00  0.00    -0.000 C 
BRANCH  21  22
ATOM     22  C   UNL     1      10.218   7.197  52.236  1.00  0.00    -0.000 C 
BRANCH  22  23
ATOM     23  C   UNL     1      11.528   7.585  52.951  1.00  0.00    -0.000 C 
BRANCH  23  24
ATOM     24  C   UNL     1      12.276   6.420  53.631  1.00  0.00    -0.000 C 
BRANCH  24  25
ATOM     25  C   UNL     1      12.623   5.245  52.699  1.00  0.00    -0.003 C 
ATOM     26  C   UNL     1      11.735   4.022  52.929  1.00  0.00     0.004 C 
ENDBRANCH  24  25
ENDBRANCH  23  24
ENDBRANCH  22  23
ENDBRANCH  21  22
ENDBRANCH  20  21
ENDBRANCH  19  20
ENDBRANCH  18  19
ENDBRANCH  17  18
ENDBRANCH  16  17
ENDBRANCH  15  16
ENDBRANCH   1  15
TORSDOF 22
ENDMDL
MODEL 7
REMARK VINA RESULT:    -5.071      3.854      9.263
REMARK INTER + INTRA:         -14.438
REMARK INTER:                 -12.208
REMARK INTRA:                  -2.231
REMARK UNBOUND:                -2.845
REMARK SMILES CCCCCCCCCCCCCCCCCCCCCCCC(=O)[O-]
REMARK SMILES IDX 13 1 14 2 15 3 16 4 17 5 18 6 19 7 20 8 21 9 22 10 23 11
REMARK SMILES IDX 24 12 25 13 26 14 12 15 11 16 10 17 9 18 8 19 7 20 6 21 5 22
REMARK SMILES IDX 4 23 3 24 2 25 1 26
REMARK H PARENT
REMARK Flexibility Score: inf
ROOT
ATOM      1  C   UNL     1      12.216   4.998  53.464  1.00  0.00     0.000 C 
ENDROOT
BRANCH   1   2
ATOM      2  C   UNL     1      11.553   5.993  52.498  1.00  0.00     0.000 C 
BRANCH   2   3
ATOM      3  C   UNL     1      11.149   7.304  53.191  1.00  0.00     0.000 C 
BRANCH   3   4
ATOM      4  C   UNL     1      11.817   7.478  54.563  1.00  0.00     0.000 C 
BRANCH   4   5
ATOM      5  C   UNL     1      10.907   8.196  55.577  1.00  0.00     0.000 C 
BRANCH   5   6
ATOM      6  C   UNL     1      10.293   9.489  54.995  1.00  0.00     0.000 C 
BRANCH   6   7
ATOM      7  C   UNL     1       8.976   9.897  55.677  1.00  0.00     0.000 C 
BRANCH   7   8
ATOM      8  C   UNL     1       7.818   8.935  55.362  1.00  0.00     0.000 C 
BRANCH   8   9
ATOM      9  C   UNL     1       7.107   9.263  54.038  1.00  0.00     0.000 C 
BRANCH   9  10
ATOM     10  C   UNL     1       7.612   8.473  52.816  1.00  0.00     0.006 C 
BRANCH  10  11
ATOM     11  C   UNL     1       7.319   9.175  51.484  1.00  0.00     0.053 C 
BRANCH  11  12
ATOM     12  C   UNL     1       8.563   9.797  50.933  1.00  0.00     0.041 C 
ATOM     13  O   UNL     1       8.651  10.058  49.702  1.00  0.00    -0.550 OA
ATOM     14  O   UNL     1       9.616  10.119  51.780  1.00  0.00    -0.550 OA
ENDBRANCH  11  12
ENDBRANCH  10  11
ENDBRANCH   9  10
ENDBRANCH   8   9
ENDBRANCH   7   8
ENDBRANCH   6   7
ENDBRANCH   5   6
ENDBRANCH   4   5
ENDBRANCH   3   4
ENDBRANCH   2   3
ENDBRANCH   1   2
BRANCH   1  15
ATOM     15  C   UNL     1      11.350   3.749  53.709  1.00  0.00     0.000 C 
BRANCH  15  16
ATOM     16  C   UNL     1      10.446   3.881  54.946  1.00  0.00     0.000 C 
BRANCH  16  17
ATOM     17  C   UNL     1      11.126   4.576  56.145  1.00  0.00     0.000 C 
BRANCH  17  18
ATOM     18  C   UNL     1      11.595   3.569  57.211  1.00  0.00    -0.000 C 
BRANCH  18  19
ATOM     19  C   UNL     1      13.126   3.450  57.284  1.00  0.00    -0.000 C 
BRANCH  19  20
ATOM     20  C   UNL     1      13.740   2.897  55.988  1.00  0.00    -0.000 C 
BRANCH  20  21
ATOM     21  C   UNL     1      15.052   3.621  55.651  1.00  0.00    -0.000 C 
BRANCH  21  22
ATOM     22  C   UNL     1      16.280   2.695  55.725  1.00  0.00    -0.000 C 
BRANCH  22  23
ATOM     23  C   UNL     1      15.966   1.218  56.034  1.00  0.00    -0.000 C 
BRANCH  23  24
ATOM     24  C   UNL     1      16.283   0.765  57.473  1.00  0.00    -0.000 C 
BRANCH  24  25
ATOM     25  C   UNL     1      17.563  -0.076  57.618  1.00  0.00    -0.003 C 
ATOM     26  C   UNL     1      17.973  -0.287  59.076  1.00  0.00     0.004 C 
ENDBRANCH  24  25
ENDBRANCH  23  24
ENDBRANCH  22  23
ENDBRANCH  21  22
ENDBRANCH  20  21
ENDBRANCH  19  20
ENDBRANCH  18  19
ENDBRANCH  17  18
ENDBRANCH  16  17
ENDBRANCH  15  16
ENDBRANCH   1  15
TORSDOF 22
ENDMDL
MODEL 8
REMARK VINA RESULT:    -5.049      1.275      3.621
REMARK INTER + INTRA:         -14.386
REMARK INTER:                 -11.859
REMARK INTRA:                  -2.527
REMARK UNBOUND:                -2.845
REMARK SMILES CCCCCCCCCCCCCCCCCCCCCCCC(=O)[O-]
REMARK SMILES IDX 13 1 14 2 15 3 16 4 17 5 18 6 19 7 20 8 21 9 22 10 23 11
REMARK SMILES IDX 24 12 25 13 26 14 12 15 11 16 10 17 9 18 8 19 7 20 6 21 5 22
REMARK SMILES IDX 4 23 3 24 2 25 1 26
REMARK H PARENT
REMARK Flexibility Score: inf
ROOT
ATOM      1  C   UNL     1       9.327   6.620  55.009  1.00  0.00     0.000 C 
ENDROOT
BRANCH   1   2
ATOM      2  C   UNL     1       9.316   5.445  56.000  1.00  0.00     0.000 C 
BRANCH   2   3
ATOM      3  C   UNL     1      10.706   5.163  56.594  1.00  0.00     0.000 C 
BRANCH   3   4
ATOM      4  C   UNL     1      11.125   3.694  56.444  1.00  0.00     0.000 C 
BRANCH   4   5
ATOM      5  C   UNL     1      12.089   3.237  57.555  1.00  0.00     0.000 C 
BRANCH   5   6
ATOM      6  C   UNL     1      13.396   2.644  56.985  1.00  0.00     0.000 C 
BRANCH   6   7
ATOM      7  C   UNL     1      14.366   3.711  56.448  1.00  0.00     0.000 C 
BRANCH   7   8
ATOM      8  C   UNL     1      15.261   3.185  55.314  1.00  0.00     0.000 C 
BRANCH   8   9
ATOM      9  C   UNL     1      16.470   2.383  55.824  1.00  0.00     0.000 C 
BRANCH   9  10
ATOM     10  C   UNL     1      16.183   0.902  56.135  1.00  0.00     0.006 C 
BRANCH  10  11
ATOM     11  C   UNL     1      17.226   0.270  57.066  1.00  0.00     0.053 C 
BRANCH  11  12
ATOM     12  C   UNL     1      16.738   0.276  58.481  1.00  0.00     0.041 C 
ATOM     13  O   UNL     1      15.526   0.510  58.733  1.00  0.00    -0.550 OA
ATOM     14  O   UNL     1      17.614  -0.007  59.521  1.00  0.00    -0.550 OA
ENDBRANCH  11  12
ENDBRANCH  10  11
ENDBRANCH   9  10
ENDBRANCH   8   9
ENDBRANCH   7   8
ENDBRANCH   6   7
ENDBRANCH   5   6
ENDBRANCH   4   5
ENDBRANCH   3   4
ENDBRANCH   2   3
ENDBRANCH   1   2
BRANCH   1  15
ATOM     15  C   UNL     1       8.799   7.923  55.634  1.00  0.00     0.000 C 
BRANCH  15  16
ATOM     16  C   UNL     1       9.462   9.181  55.047  1.00  0.00     0.000 C 
BRANCH  16  17
ATOM     17  C   UNL     1       8.587   9.924  54.016  1.00  0.00     0.000 C 
BRANCH  17  18
ATOM     18  C   UNL     1       7.269   9.183  53.729  1.00  0.00    -0.000 C 
BRANCH  18  19
ATOM     19  C   UNL     1       7.228   8.566  52.322  1.00  0.00    -0.000 C 
BRANCH  19  20
ATOM     20  C   UNL     1       8.265   9.185  51.372  1.00  0.00    -0.000 C 
BRANCH  20  21
ATOM     21  C   UNL     1       9.285   8.131  50.914  1.00  0.00    -0.000 C 
BRANCH  21  22
ATOM     22  C   UNL     1      10.532   8.078  51.815  1.00  0.00    -0.000 C 
BRANCH  22  23
ATOM     23  C   UNL     1      10.985   6.660  52.219  1.00  0.00    -0.000 C 
BRANCH  23  24
ATOM     24  C   UNL     1      12.220   6.602  53.141  1.00  0.00    -0.000 C 
BRANCH  24  25
ATOM     25  C   UNL     1      12.741   5.184  53.435  1.00  0.00    -0.003 C 
ATOM     26  C   UNL     1      11.778   4.091  52.975  1.00  0.00     0.004 C 
ENDBRANCH  24  25
ENDBRANCH  23  24
ENDBRANCH  22  23
ENDBRANCH  21  22
ENDBRANCH  20  21
ENDBRANCH  19  20
ENDBRANCH  18  19
ENDBRANCH  17  18
ENDBRANCH  16  17
ENDBRANCH  15  16
ENDBRANCH   1  15
TORSDOF 22
ENDMDL
MODEL 9
REMARK VINA RESULT:    -4.993      1.503      3.734
REMARK INTER + INTRA:         -14.259
REMARK INTER:                 -11.709
REMARK INTRA:                  -2.550
REMARK UNBOUND:                -2.845
REMARK SMILES CCCCCCCCCCCCCCCCCCCCCCCC(=O)[O-]
REMARK SMILES IDX 13 1 14 2 15 3 16 4 17 5 18 6 19 7 20 8 21 9 22 10 23 11
REMARK SMILES IDX 24 12 25 13 26 14 12 15 11 16 10 17 9 18 8 19 7 20 6 21 5 22
REMARK SMILES IDX 4 23 3 24 2 25 1 26
REMARK H PARENT
REMARK Flexibility Score: inf
ROOT
ATOM      1  C   UNL     1      11.999   6.073  52.754  1.00  0.00     0.000 C 
ENDROOT
BRANCH   1   2
ATOM      2  C   UNL     1      12.160   4.562  52.526  1.00  0.00     0.000 C 
BRANCH   2   3
ATOM      3  C   UNL     1      12.204   3.769  53.843  1.00  0.00     0.000 C 
BRANCH   3   4
ATOM      4  C   UNL     1      13.209   4.349  54.848  1.00  0.00     0.000 C 
BRANCH   4   5
ATOM      5  C   UNL     1      13.121   3.674  56.229  1.00  0.00     0.000 C 
BRANCH   5   6
ATOM      6  C   UNL     1      14.475   3.080  56.675  1.00  0.00     0.000 C 
BRANCH   6   7
ATOM      7  C   UNL     1      15.461   2.873  55.512  1.00  0.00     0.000 C 
BRANCH   7   8
ATOM      8  C   UNL     1      16.640   1.960  55.886  1.00  0.00     0.000 C 
BRANCH   8   9
ATOM      9  C   UNL     1      16.288   0.464  55.819  1.00  0.00     0.000 C 
BRANCH   9  10
ATOM     10  C   UNL     1      17.039  -0.426  56.827  1.00  0.00     0.006 C 
BRANCH  10  11
ATOM     11  C   UNL     1      17.676   0.370  57.974  1.00  0.00     0.053 C 
BRANCH  11  12
ATOM     12  C   UNL     1      17.094  -0.046  59.288  1.00  0.00     0.041 C 
ATOM     13  O   UNL     1      16.016   0.466  59.696  1.00  0.00    -0.550 OA
ATOM     14  O   UNL     1      17.722  -1.022  60.051  1.00  0.00    -0.550 OA
ENDBRANCH  11  12
ENDBRANCH  10  11
ENDBRANCH   9  10
ENDBRANCH   8   9
ENDBRANCH   7   8
ENDBRANCH   6   7
ENDBRANCH   5   6
ENDBRANCH   4   5
ENDBRANCH   3   4
ENDBRANCH   2   3
ENDBRANCH   1   2
BRANCH   1  15
ATOM     15  C   UNL     1      10.741   6.641  52.074  1.00  0.00     0.000 C 
BRANCH  15  16
ATOM     16  C   UNL     1      10.626   8.169  52.207  1.00  0.00     0.000 C 
BRANCH  16  17
ATOM     17  C   UNL     1       9.544   8.795  51.302  1.00  0.00     0.000 C 
BRANCH  17  18
ATOM     18  C   UNL     1       8.120   8.471  51.788  1.00  0.00    -0.000 C 
BRANCH  18  19
ATOM     19  C   UNL     1       7.456   9.650  52.516  1.00  0.00    -0.000 C 
BRANCH  19  20
ATOM     20  C   UNL     1       7.188   9.357  54.000  1.00  0.00    -0.000 C 
BRANCH  20  21
ATOM     21  C   UNL     1       8.179  10.114  54.897  1.00  0.00    -0.000 C 
BRANCH  21  22
ATOM     22  C   UNL     1       9.248   9.192  55.513  1.00  0.00    -0.000 C 
BRANCH  22  23
ATOM     23  C   UNL     1       8.815   7.725  55.702  1.00  0.00    -0.000 C 
BRANCH  23  24
ATOM     24  C   UNL     1       9.928   6.678  55.494  1.00  0.00    -0.000 C 
BRANCH  24  25
ATOM     25  C   UNL     1       9.687   5.330  56.196  1.00  0.00    -0.003 C 
ATOM     26  C   UNL     1       9.288   4.218  55.226  1.00  0.00     0.004 C 
ENDBRANCH  24  25
ENDBRANCH  23  24
ENDBRANCH  22  23
ENDBRANCH  21  22
ENDBRANCH  20  21
ENDBRANCH  19  20
ENDBRANCH  18  19
ENDBRANCH  17  18
ENDBRANCH  16  17
ENDBRANCH  15  16
ENDBRANCH   1  15
TORSDOF 22
ENDMDL
