MODEL 1
REMARK VINA RESULT:    -5.567      0.000      0.000
REMARK INTER + INTRA:          -6.416
REMARK INTER:                  -6.707
REMARK INTRA:                   0.291
REMARK UNBOUND:                 0.291
REMARK SMILES O=c1c(O)c(-c2ccc(O)c(O)c2)oc2cc(O)cc(O)c12
REMARK SMILES IDX 5 1 3 2 2 3 1 4 22 5 20 6 19 7 17 8 16 9 15 10 14 11 6 12
REMARK SMILES IDX 7 13 8 14 9 15 13 16 11 17 10 18 12 20 4 22 21 24 18 26
REMARK H PARENT 10 19 12 21 4 23 21 25 18 27
REMARK Flexibility Score: inf
ROOT
ATOM      1  C   UNL     1     -21.584  56.510   1.179  1.00  0.00     0.180 A 
ATOM      2  C   UNL     1     -21.409  55.463   2.104  1.00  0.00     0.208 A 
ATOM      3  C   UNL     1     -22.540  54.899   2.712  1.00  0.00     0.238 A 
ATOM      4  O   UNL     1     -22.394  53.968   3.550  1.00  0.00    -0.285 OA
ATOM      5  C   UNL     1     -23.824  55.374   2.373  1.00  0.00     0.111 A 
ATOM      6  C   UNL     1     -25.015  54.858   2.938  1.00  0.00     0.134 A 
ATOM      7  C   UNL     1     -26.255  55.378   2.542  1.00  0.00     0.093 A 
ATOM      8  C   UNL     1     -26.328  56.404   1.592  1.00  0.00     0.123 A 
ATOM      9  C   UNL     1     -25.155  56.917   1.034  1.00  0.00     0.094 A 
ATOM     10  C   UNL     1     -23.909  56.412   1.416  1.00  0.00     0.146 A 
ATOM     11  O   UNL     1     -22.810  56.923   0.872  1.00  0.00    -0.452 OA
ENDROOT
BRANCH   1  12
ATOM     12  C   UNL     1     -20.439  57.168   0.509  1.00  0.00     0.025 A 
ATOM     13  C   UNL     1     -19.164  57.197   1.099  1.00  0.00     0.016 A 
ATOM     14  C   UNL     1     -18.103  57.846   0.460  1.00  0.00     0.051 A 
ATOM     15  C   UNL     1     -18.302  58.486  -0.767  1.00  0.00     0.157 A 
ATOM     16  C   UNL     1     -20.640  57.831  -0.713  1.00  0.00     0.062 A 
ATOM     17  C   UNL     1     -19.577  58.482  -1.356  1.00  0.00     0.158 A 
BRANCH  15  18
ATOM     18  O   UNL     1     -17.225  59.123  -1.381  1.00  0.00    -0.504 OA
ATOM     19  H   UNL     1     -17.328  59.637  -2.249  1.00  0.00     0.293 HD
ENDBRANCH  15  18
BRANCH  17  20
ATOM     20  O   UNL     1     -19.785  59.125  -2.576  1.00  0.00    -0.504 OA
ATOM     21  H   UNL     1     -19.550  60.102  -2.707  1.00  0.00     0.293 HD
ENDBRANCH  17  20
ENDBRANCH   1  12
BRANCH   2  22
ATOM     22  O   UNL     1     -20.129  54.977   2.385  1.00  0.00    -0.502 OA
ATOM     23  H   UNL     1     -19.825  54.054   2.098  1.00  0.00     0.293 HD
ENDBRANCH   2  22
BRANCH   6  24
ATOM     24  O   UNL     1     -24.976  53.834   3.886  1.00  0.00    -0.507 OA
ATOM     25  H   UNL     1     -25.712  53.141   3.954  1.00  0.00     0.293 HD
ENDBRANCH   6  24
BRANCH   8  26
ATOM     26  O   UNL     1     -27.559  56.921   1.197  1.00  0.00    -0.508 OA
ATOM     27  H   UNL     1     -28.428  56.446   1.416  1.00  0.00     0.293 HD
ENDBRANCH   8  26
TORSDOF 6
ENDMDL
MODEL 2
REMARK VINA RESULT:    -5.422      2.156      6.486
REMARK INTER + INTRA:          -6.241
REMARK INTER:                  -5.920
REMARK INTRA:                  -0.321
REMARK UNBOUND:                 0.291
REMARK SMILES O=c1c(O)c(-c2ccc(O)c(O)c2)oc2cc(O)cc(O)c12
REMARK SMILES IDX 5 1 3 2 2 3 1 4 22 5 20 6 19 7 17 8 16 9 15 10 14 11 6 12
REMARK SMILES IDX 7 13 8 14 9 15 13 16 11 17 10 18 12 20 4 22 21 24 18 26
REMARK H PARENT 10 19 12 21 4 23 21 25 18 27
REMARK Flexibility Score: inf
ROOT
ATOM      1  C   UNL     1     -22.973  56.869   1.809  1.00  0.00     0.180 A 
ATOM      2  C   UNL     1     -21.595  57.146   1.891  1.00  0.00     0.208 A 
ATOM      3  C   UNL     1     -20.963  57.771   0.805  1.00  0.00     0.238 A 
ATOM      4  O   UNL     1     -19.727  58.014   0.863  1.00  0.00    -0.285 OA
ATOM      5  C   UNL     1     -21.719  58.126  -0.332  1.00  0.00     0.111 A 
ATOM      6  C   UNL     1     -21.159  58.761  -1.466  1.00  0.00     0.134 A 
ATOM      7  C   UNL     1     -21.980  59.091  -2.554  1.00  0.00     0.093 A 
ATOM      8  C   UNL     1     -23.348  58.797  -2.529  1.00  0.00     0.123 A 
ATOM      9  C   UNL     1     -23.904  58.169  -1.413  1.00  0.00     0.094 A 
ATOM     10  C   UNL     1     -23.103  57.832  -0.318  1.00  0.00     0.146 A 
ATOM     11  O   UNL     1     -23.657  57.231   0.728  1.00  0.00    -0.452 OA
ENDROOT
BRANCH   1  12
ATOM     12  C   UNL     1     -23.707  56.196   2.906  1.00  0.00     0.025 A 
ATOM     13  C   UNL     1     -24.238  56.922   3.985  1.00  0.00     0.016 A 
ATOM     14  C   UNL     1     -24.905  56.261   5.021  1.00  0.00     0.051 A 
ATOM     15  C   UNL     1     -25.040  54.870   5.002  1.00  0.00     0.157 A 
ATOM     16  C   UNL     1     -23.825  54.796   2.900  1.00  0.00     0.062 A 
ATOM     17  C   UNL     1     -24.494  54.132   3.938  1.00  0.00     0.158 A 
BRANCH  15  18
ATOM     18  O   UNL     1     -25.712  54.240   6.048  1.00  0.00    -0.504 OA
ATOM     19  H   UNL     1     -26.652  54.504   6.321  1.00  0.00     0.293 HD
ENDBRANCH  15  18
BRANCH  17  20
ATOM     20  O   UNL     1     -24.618  52.743   3.916  1.00  0.00    -0.504 OA
ATOM     21  H   UNL     1     -25.160  52.270   3.203  1.00  0.00     0.293 HD
ENDBRANCH  17  20
ENDBRANCH   1  12
BRANCH   2  22
ATOM     22  O   UNL     1     -20.879  56.829   3.049  1.00  0.00    -0.502 OA
ATOM     23  H   UNL     1     -19.896  57.050   3.155  1.00  0.00     0.293 HD
ENDBRANCH   2  22
BRANCH   6  24
ATOM     24  O   UNL     1     -19.799  59.068  -1.520  1.00  0.00    -0.507 OA
ATOM     25  H   UNL     1     -19.238  58.865  -2.340  1.00  0.00     0.293 HD
ENDBRANCH   6  24
BRANCH   8  26
ATOM     26  O   UNL     1     -24.165  59.125  -3.609  1.00  0.00    -0.508 OA
ATOM     27  H   UNL     1     -24.246  58.516  -4.416  1.00  0.00     0.293 HD
ENDBRANCH   8  26
TORSDOF 6
ENDMDL
MODEL 3
REMARK VINA RESULT:    -5.257      1.418      1.418
REMARK INTER + INTRA:          -6.042
REMARK INTER:                  -5.849
REMARK INTRA:                  -0.193
REMARK UNBOUND:                 0.291
REMARK SMILES O=c1c(O)c(-c2ccc(O)c(O)c2)oc2cc(O)cc(O)c12
REMARK SMILES IDX 5 1 3 2 2 3 1 4 22 5 20 6 19 7 17 8 16 9 15 10 14 11 6 12
REMARK SMILES IDX 7 13 8 14 9 15 13 16 11 17 10 18 12 20 4 22 21 24 18 26
REMARK H PARENT 10 19 12 21 4 23 21 25 18 27
REMARK Flexibility Score: inf
ROOT
ATOM      1  C   UNL     1     -21.872  56.854   1.504  1.00  0.00     0.180 A 
ATOM      2  C   UNL     1     -21.917  55.493   1.862  1.00  0.00     0.208 A 
ATOM      3  C   UNL     1     -22.962  55.042   2.683  1.00  0.00     0.238 A 
ATOM      4  O   UNL     1     -23.006  53.827   3.018  1.00  0.00    -0.285 OA
ATOM      5  C   UNL     1     -23.951  55.950   3.114  1.00  0.00     0.111 A 
ATOM      6  C   UNL     1     -25.038  55.575   3.940  1.00  0.00     0.134 A 
ATOM      7  C   UNL     1     -25.987  56.536   4.319  1.00  0.00     0.093 A 
ATOM      8  C   UNL     1     -25.869  57.862   3.889  1.00  0.00     0.123 A 
ATOM      9  C   UNL     1     -24.797  58.236   3.075  1.00  0.00     0.094 A 
ATOM     10  C   UNL     1     -23.841  57.294   2.687  1.00  0.00     0.146 A 
ATOM     11  O   UNL     1     -22.830  57.678   1.917  1.00  0.00    -0.452 OA
ENDROOT
BRANCH   1  12
ATOM     12  C   UNL     1     -20.791  57.409   0.656  1.00  0.00     0.025 A 
ATOM     13  C   UNL     1     -19.457  57.436   1.096  1.00  0.00     0.016 A 
ATOM     14  C   UNL     1     -18.457  57.988   0.289  1.00  0.00     0.051 A 
ATOM     15  C   UNL     1     -18.776  58.532  -0.959  1.00  0.00     0.157 A 
ATOM     16  C   UNL     1     -21.111  57.976  -0.589  1.00  0.00     0.062 A 
ATOM     17  C   UNL     1     -20.110  58.529  -1.400  1.00  0.00     0.158 A 
BRANCH  15  18
ATOM     18  O   UNL     1     -17.758  59.073  -1.742  1.00  0.00    -0.504 OA
ATOM     19  H   UNL     1     -17.841  59.983  -2.180  1.00  0.00     0.293 HD
ENDBRANCH  15  18
BRANCH  17  20
ATOM     20  O   UNL     1     -20.436  59.077  -2.640  1.00  0.00    -0.504 OA
ATOM     21  H   UNL     1     -20.756  58.498  -3.408  1.00  0.00     0.293 HD
ENDBRANCH  17  20
ENDBRANCH   1  12
BRANCH   2  22
ATOM     22  O   UNL     1     -20.952  54.604   1.380  1.00  0.00    -0.502 OA
ATOM     23  H   UNL     1     -20.584  53.846   1.943  1.00  0.00     0.293 HD
ENDBRANCH   2  22
BRANCH   6  24
ATOM     24  O   UNL     1     -25.183  54.260   4.384  1.00  0.00    -0.507 OA
ATOM     25  H   UNL     1     -25.206  54.030   5.371  1.00  0.00     0.293 HD
ENDBRANCH   6  24
BRANCH   8  26
ATOM     26  O   UNL     1     -26.811  58.818   4.263  1.00  0.00    -0.508 OA
ATOM     27  H   UNL     1     -27.796  58.702   4.050  1.00  0.00     0.293 HD
ENDBRANCH   8  26
TORSDOF 6
ENDMDL
MODEL 4
REMARK VINA RESULT:    -5.134      1.685      7.178
REMARK INTER + INTRA:          -5.894
REMARK INTER:                  -5.631
REMARK INTRA:                  -0.263
REMARK UNBOUND:                 0.291
REMARK SMILES O=c1c(O)c(-c2ccc(O)c(O)c2)oc2cc(O)cc(O)c12
REMARK SMILES IDX 5 1 3 2 2 3 1 4 22 5 20 6 19 7 17 8 16 9 15 10 14 11 6 12
REMARK SMILES IDX 7 13 8 14 9 15 13 16 11 17 10 18 12 20 4 22 21 24 18 26
REMARK H PARENT 10 19 12 21 4 23 21 25 18 27
REMARK Flexibility Score: inf
ROOT
ATOM      1  C   UNL     1     -22.737  56.771   1.646  1.00  0.00     0.180 A 
ATOM      2  C   UNL     1     -23.312  57.477   0.571  1.00  0.00     0.208 A 
ATOM      3  C   UNL     1     -22.469  58.033  -0.403  1.00  0.00     0.238 A 
ATOM      4  O   UNL     1     -22.972  58.676  -1.365  1.00  0.00    -0.285 OA
ATOM      5  C   UNL     1     -21.073  57.858  -0.299  1.00  0.00     0.111 A 
ATOM      6  C   UNL     1     -20.155  58.384  -1.240  1.00  0.00     0.134 A 
ATOM      7  C   UNL     1     -18.781  58.159  -1.071  1.00  0.00     0.093 A 
ATOM      8  C   UNL     1     -18.308  57.420   0.019  1.00  0.00     0.123 A 
ATOM      9  C   UNL     1     -19.210  56.901   0.951  1.00  0.00     0.094 A 
ATOM     10  C   UNL     1     -20.583  57.115   0.800  1.00  0.00     0.146 A 
ATOM     11  O   UNL     1     -21.418  56.614   1.704  1.00  0.00    -0.452 OA
ENDROOT
BRANCH   1  12
ATOM     12  C   UNL     1     -23.559  56.172   2.722  1.00  0.00     0.025 A 
ATOM     13  C   UNL     1     -24.184  56.970   3.696  1.00  0.00     0.016 A 
ATOM     14  C   UNL     1     -24.935  56.380   4.718  1.00  0.00     0.051 A 
ATOM     15  C   UNL     1     -25.061  54.990   4.790  1.00  0.00     0.157 A 
ATOM     16  C   UNL     1     -23.670  54.774   2.811  1.00  0.00     0.062 A 
ATOM     17  C   UNL     1     -24.423  54.182   3.835  1.00  0.00     0.158 A 
BRANCH  15  18
ATOM     18  O   UNL     1     -25.818  54.431   5.819  1.00  0.00    -0.504 OA
ATOM     19  H   UNL     1     -26.732  54.788   6.070  1.00  0.00     0.293 HD
ENDBRANCH  15  18
BRANCH  17  20
ATOM     20  O   UNL     1     -24.538  52.793   3.906  1.00  0.00    -0.504 OA
ATOM     21  H   UNL     1     -24.365  52.290   4.768  1.00  0.00     0.293 HD
ENDBRANCH  17  20
ENDBRANCH   1  12
BRANCH   2  22
ATOM     22  O   UNL     1     -24.701  57.592   0.465  1.00  0.00    -0.502 OA
ATOM     23  H   UNL     1     -25.327  56.829   0.692  1.00  0.00     0.293 HD
ENDBRANCH   2  22
BRANCH   6  24
ATOM     24  O   UNL     1     -20.595  59.123  -2.338  1.00  0.00    -0.507 OA
ATOM     25  H   UNL     1     -20.698  58.706  -3.256  1.00  0.00     0.293 HD
ENDBRANCH   6  24
BRANCH   8  26
ATOM     26  O   UNL     1     -16.944  57.195   0.188  1.00  0.00    -0.508 OA
ATOM     27  H   UNL     1     -16.532  56.285   0.013  1.00  0.00     0.293 HD
ENDBRANCH   8  26
TORSDOF 6
ENDMDL
MODEL 5
REMARK VINA RESULT:    -5.094      2.739      6.161
REMARK INTER + INTRA:          -5.846
REMARK INTER:                  -5.859
REMARK INTRA:                   0.013
REMARK UNBOUND:                 0.291
REMARK SMILES O=c1c(O)c(-c2ccc(O)c(O)c2)oc2cc(O)cc(O)c12
REMARK SMILES IDX 5 1 3 2 2 3 1 4 22 5 20 6 19 7 17 8 16 9 15 10 14 11 6 12
REMARK SMILES IDX 7 13 8 14 9 15 13 16 11 17 10 18 12 20 4 22 21 24 18 26
REMARK H PARENT 10 19 12 21 4 23 21 25 18 27
REMARK Flexibility Score: inf
ROOT
ATOM      1  C   UNL     1     -23.303  54.872   2.958  1.00  0.00     0.180 A 
ATOM      2  C   UNL     1     -22.227  55.593   2.406  1.00  0.00     0.208 A 
ATOM      3  C   UNL     1     -22.500  56.710   1.601  1.00  0.00     0.238 A 
ATOM      4  O   UNL     1     -21.544  57.357   1.093  1.00  0.00    -0.285 OA
ATOM      5  C   UNL     1     -23.838  57.098   1.378  1.00  0.00     0.111 A 
ATOM      6  C   UNL     1     -24.198  58.212   0.583  1.00  0.00     0.134 A 
ATOM      7  C   UNL     1     -25.552  58.539   0.418  1.00  0.00     0.093 A 
ATOM      8  C   UNL     1     -26.550  57.775   1.030  1.00  0.00     0.123 A 
ATOM      9  C   UNL     1     -26.200  56.673   1.814  1.00  0.00     0.094 A 
ATOM     10  C   UNL     1     -24.856  56.330   1.992  1.00  0.00     0.146 A 
ATOM     11  O   UNL     1     -24.551  55.275   2.738  1.00  0.00    -0.452 OA
ENDROOT
BRANCH   1  12
ATOM     12  C   UNL     1     -23.096  53.672   3.801  1.00  0.00     0.025 A 
ATOM     13  C   UNL     1     -22.199  53.683   4.882  1.00  0.00     0.016 A 
ATOM     14  C   UNL     1     -22.001  52.531   5.649  1.00  0.00     0.051 A 
ATOM     15  C   UNL     1     -22.684  51.351   5.341  1.00  0.00     0.157 A 
ATOM     16  C   UNL     1     -23.765  52.478   3.481  1.00  0.00     0.062 A 
ATOM     17  C   UNL     1     -23.569  51.322   4.250  1.00  0.00     0.158 A 
BRANCH  15  18
ATOM     18  O   UNL     1     -22.469  50.218   6.125  1.00  0.00    -0.504 OA
ATOM     19  H   UNL     1     -22.256  50.281   7.114  1.00  0.00     0.293 HD
ENDBRANCH  15  18
BRANCH  17  20
ATOM     20  O   UNL     1     -24.248  50.146   3.932  1.00  0.00    -0.504 OA
ATOM     21  H   UNL     1     -24.123  49.687   3.037  1.00  0.00     0.293 HD
ENDBRANCH  17  20
ENDBRANCH   1  12
BRANCH   2  22
ATOM     22  O   UNL     1     -20.910  55.217   2.683  1.00  0.00    -0.502 OA
ATOM     23  H   UNL     1     -20.683  54.369   3.189  1.00  0.00     0.293 HD
ENDBRANCH   2  22
BRANCH   6  24
ATOM     24  O   UNL     1     -23.226  58.995  -0.040  1.00  0.00    -0.507 OA
ATOM     25  H   UNL     1     -23.466  59.687  -0.740  1.00  0.00     0.293 HD
ENDBRANCH   6  24
BRANCH   8  26
ATOM     26  O   UNL     1     -27.896  58.099   0.867  1.00  0.00    -0.508 OA
ATOM     27  H   UNL     1     -28.528  57.492   0.358  1.00  0.00     0.293 HD
ENDBRANCH   8  26
TORSDOF 6
ENDMDL
MODEL 6
REMARK VINA RESULT:    -5.093      1.975      7.383
REMARK INTER + INTRA:          -5.844
REMARK INTER:                  -5.523
REMARK INTRA:                  -0.322
REMARK UNBOUND:                 0.291
REMARK SMILES O=c1c(O)c(-c2ccc(O)c(O)c2)oc2cc(O)cc(O)c12
REMARK SMILES IDX 5 1 3 2 2 3 1 4 22 5 20 6 19 7 17 8 16 9 15 10 14 11 6 12
REMARK SMILES IDX 7 13 8 14 9 15 13 16 11 17 10 18 12 20 4 22 21 24 18 26
REMARK H PARENT 10 19 12 21 4 23 21 25 18 27
REMARK Flexibility Score: inf
ROOT
ATOM      1  C   UNL     1     -24.119  57.392   0.914  1.00  0.00     0.180 A 
ATOM      2  C   UNL     1     -24.122  58.115  -0.294  1.00  0.00     0.208 A 
ATOM      3  C   UNL     1     -22.895  58.468  -0.876  1.00  0.00     0.238 A 
ATOM      4  O   UNL     1     -22.886  59.125  -1.953  1.00  0.00    -0.285 OA
ATOM      5  C   UNL     1     -21.691  58.077  -0.255  1.00  0.00     0.111 A 
ATOM      6  C   UNL     1     -20.413  58.389  -0.779  1.00  0.00     0.134 A 
ATOM      7  C   UNL     1     -19.261  57.956  -0.107  1.00  0.00     0.093 A 
ATOM      8  C   UNL     1     -19.362  57.217   1.077  1.00  0.00     0.123 A 
ATOM      9  C   UNL     1     -20.621  56.908   1.598  1.00  0.00     0.094 A 
ATOM     10  C   UNL     1     -21.781  57.331   0.943  1.00  0.00     0.146 A 
ATOM     11  O   UNL     1     -22.964  57.028   1.464  1.00  0.00    -0.452 OA
ENDROOT
BRANCH   1  12
ATOM     12  C   UNL     1     -25.372  56.999   1.600  1.00  0.00     0.025 A 
ATOM     13  C   UNL     1     -25.916  57.780   2.634  1.00  0.00     0.016 A 
ATOM     14  C   UNL     1     -27.087  57.376   3.283  1.00  0.00     0.051 A 
ATOM     15  C   UNL     1     -27.722  56.185   2.920  1.00  0.00     0.157 A 
ATOM     16  C   UNL     1     -26.000  55.792   1.253  1.00  0.00     0.062 A 
ATOM     17  C   UNL     1     -27.175  55.386   1.902  1.00  0.00     0.158 A 
BRANCH  15  18
ATOM     18  O   UNL     1     -28.889  55.809   3.584  1.00  0.00    -0.504 OA
ATOM     19  H   UNL     1     -29.696  55.447   3.090  1.00  0.00     0.293 HD
ENDBRANCH  15  18
BRANCH  17  20
ATOM     20  O   UNL     1     -27.799  54.192   1.541  1.00  0.00    -0.504 OA
ATOM     21  H   UNL     1     -28.721  53.950   1.884  1.00  0.00     0.293 HD
ENDBRANCH  17  20
ENDBRANCH   1  12
BRANCH   2  22
ATOM     22  O   UNL     1     -25.330  58.447  -0.914  1.00  0.00    -0.502 OA
ATOM     23  H   UNL     1     -25.852  57.783  -1.474  1.00  0.00     0.293 HD
ENDBRANCH   2  22
BRANCH   6  24
ATOM     24  O   UNL     1     -20.280  59.123  -1.959  1.00  0.00    -0.507 OA
ATOM     25  H   UNL     1     -19.398  59.543  -2.229  1.00  0.00     0.293 HD
ENDBRANCH   6  24
BRANCH   8  26
ATOM     26  O   UNL     1     -18.219  56.785   1.746  1.00  0.00    -0.508 OA
ATOM     27  H   UNL     1     -18.151  55.848   2.127  1.00  0.00     0.293 HD
ENDBRANCH   8  26
TORSDOF 6
ENDMDL
MODEL 7
REMARK VINA RESULT:    -5.065      2.360      6.560
REMARK INTER + INTRA:          -5.810
REMARK INTER:                  -5.709
REMARK INTRA:                  -0.102
REMARK UNBOUND:                 0.291
REMARK SMILES O=c1c(O)c(-c2ccc(O)c(O)c2)oc2cc(O)cc(O)c12
REMARK SMILES IDX 5 1 3 2 2 3 1 4 22 5 20 6 19 7 17 8 16 9 15 10 14 11 6 12
REMARK SMILES IDX 7 13 8 14 9 15 13 16 11 17 10 18 12 20 4 22 21 24 18 26
REMARK H PARENT 10 19 12 21 4 23 21 25 18 27
REMARK Flexibility Score: inf
ROOT
ATOM      1  C   UNL     1     -23.717  55.167   2.824  1.00  0.00     0.180 A 
ATOM      2  C   UNL     1     -25.045  55.627   2.740  1.00  0.00     0.208 A 
ATOM      3  C   UNL     1     -25.335  56.713   1.900  1.00  0.00     0.238 A 
ATOM      4  O   UNL     1     -26.519  57.140   1.824  1.00  0.00    -0.285 OA
ATOM      5  C   UNL     1     -24.301  57.306   1.145  1.00  0.00     0.111 A 
ATOM      6  C   UNL     1     -24.510  58.401   0.273  1.00  0.00     0.134 A 
ATOM      7  C   UNL     1     -23.431  58.929  -0.450  1.00  0.00     0.093 A 
ATOM      8  C   UNL     1     -22.149  58.384  -0.318  1.00  0.00     0.123 A 
ATOM      9  C   UNL     1     -21.938  57.305   0.543  1.00  0.00     0.094 A 
ATOM     10  C   UNL     1     -23.000  56.764   1.273  1.00  0.00     0.146 A 
ATOM     11  O   UNL     1     -22.771  55.741   2.087  1.00  0.00    -0.452 OA
ENDROOT
BRANCH   1  12
ATOM     12  C   UNL     1     -23.329  54.039   3.702  1.00  0.00     0.025 A 
ATOM     13  C   UNL     1     -22.365  54.196   4.712  1.00  0.00     0.016 A 
ATOM     14  C   UNL     1     -21.997  53.111   5.513  1.00  0.00     0.051 A 
ATOM     15  C   UNL     1     -22.574  51.853   5.309  1.00  0.00     0.157 A 
ATOM     16  C   UNL     1     -23.891  52.770   3.485  1.00  0.00     0.062 A 
ATOM     17  C   UNL     1     -23.523  51.680   4.288  1.00  0.00     0.158 A 
BRANCH  15  18
ATOM     18  O   UNL     1     -22.188  50.790   6.124  1.00  0.00    -0.504 OA
ATOM     19  H   UNL     1     -21.867  50.930   7.075  1.00  0.00     0.293 HD
ENDBRANCH  15  18
BRANCH  17  20
ATOM     20  O   UNL     1     -24.097  50.427   4.073  1.00  0.00    -0.504 OA
ATOM     21  H   UNL     1     -23.528  49.603   3.915  1.00  0.00     0.293 HD
ENDBRANCH  17  20
ENDBRANCH   1  12
BRANCH   2  22
ATOM     22  O   UNL     1     -26.060  54.990   3.460  1.00  0.00    -0.502 OA
ATOM     23  H   UNL     1     -26.950  55.434   3.649  1.00  0.00     0.293 HD
ENDBRANCH   2  22
BRANCH   6  24
ATOM     24  O   UNL     1     -25.777  58.966   0.119  1.00  0.00    -0.507 OA
ATOM     25  H   UNL     1     -26.596  58.569   0.563  1.00  0.00     0.293 HD
ENDBRANCH   6  24
BRANCH   8  26
ATOM     26  O   UNL     1     -21.076  58.907  -1.037  1.00  0.00    -0.508 OA
ATOM     27  H   UNL     1     -20.387  58.305  -1.472  1.00  0.00     0.293 HD
ENDBRANCH   8  26
TORSDOF 6
ENDMDL
MODEL 8
REMARK VINA RESULT:    -4.847      1.337      3.279
REMARK INTER + INTRA:          -5.548
REMARK INTER:                  -5.447
REMARK INTRA:                  -0.101
REMARK UNBOUND:                 0.291
REMARK SMILES O=c1c(O)c(-c2ccc(O)c(O)c2)oc2cc(O)cc(O)c12
REMARK SMILES IDX 5 1 3 2 2 3 1 4 22 5 20 6 19 7 17 8 16 9 15 10 14 11 6 12
REMARK SMILES IDX 7 13 8 14 9 15 13 16 11 17 10 18 12 20 4 22 21 24 18 26
REMARK H PARENT 10 19 12 21 4 23 21 25 18 27
REMARK Flexibility Score: inf
ROOT
ATOM      1  C   UNL     1     -22.331  57.485   0.356  1.00  0.00     0.180 A 
ATOM      2  C   UNL     1     -23.522  58.063  -0.125  1.00  0.00     0.208 A 
ATOM      3  C   UNL     1     -24.751  57.576   0.347  1.00  0.00     0.238 A 
ATOM      4  O   UNL     1     -25.824  58.079  -0.085  1.00  0.00    -0.285 OA
ATOM      5  C   UNL     1     -24.769  56.538   1.301  1.00  0.00     0.111 A 
ATOM      6  C   UNL     1     -25.964  55.993   1.830  1.00  0.00     0.134 A 
ATOM      7  C   UNL     1     -25.899  54.968   2.784  1.00  0.00     0.093 A 
ATOM      8  C   UNL     1     -24.663  54.477   3.220  1.00  0.00     0.123 A 
ATOM      9  C   UNL     1     -23.481  55.010   2.700  1.00  0.00     0.094 A 
ATOM     10  C   UNL     1     -23.525  56.033   1.748  1.00  0.00     0.146 A 
ATOM     11  O   UNL     1     -22.387  56.518   1.267  1.00  0.00    -0.452 OA
ENDROOT
BRANCH   1  12
ATOM     12  C   UNL     1     -20.997  57.931  -0.107  1.00  0.00     0.025 A 
ATOM     13  C   UNL     1     -20.655  57.921  -1.470  1.00  0.00     0.016 A 
ATOM     14  C   UNL     1     -19.381  58.324  -1.882  1.00  0.00     0.051 A 
ATOM     15  C   UNL     1     -18.428  58.727  -0.942  1.00  0.00     0.157 A 
ATOM     16  C   UNL     1     -20.030  58.316   0.837  1.00  0.00     0.062 A 
ATOM     17  C   UNL     1     -18.752  58.720   0.425  1.00  0.00     0.158 A 
BRANCH  15  18
ATOM     18  O   UNL     1     -17.167  59.125  -1.382  1.00  0.00    -0.504 OA
ATOM     19  H   UNL     1     -16.923  59.150  -2.366  1.00  0.00     0.293 HD
ENDBRANCH  15  18
BRANCH  17  20
ATOM     20  O   UNL     1     -17.804  59.113   1.370  1.00  0.00    -0.504 OA
ATOM     21  H   UNL     1     -17.627  58.565   2.203  1.00  0.00     0.293 HD
ENDBRANCH  17  20
ENDBRANCH   1  12
BRANCH   2  22
ATOM     22  O   UNL     1     -23.475  59.123  -1.033  1.00  0.00    -0.502 OA
ATOM     23  H   UNL     1     -24.211  59.292  -1.708  1.00  0.00     0.293 HD
ENDBRANCH   2  22
BRANCH   6  24
ATOM     24  O   UNL     1     -27.212  56.462   1.416  1.00  0.00    -0.507 OA
ATOM     25  H   UNL     1     -28.006  56.492   2.045  1.00  0.00     0.293 HD
ENDBRANCH   6  24
BRANCH   8  26
ATOM     26  O   UNL     1     -24.596  53.459   4.169  1.00  0.00    -0.508 OA
ATOM     27  H   UNL     1     -24.087  53.578   5.038  1.00  0.00     0.293 HD
ENDBRANCH   8  26
TORSDOF 6
ENDMDL
