MODEL 1
REMARK VINA RESULT:    -6.473      0.000      0.000
REMARK INTER + INTRA:          -8.224
REMARK INTER:                  -7.798
REMARK INTRA:                  -0.426
REMARK UNBOUND:                -0.426
REMARK SMILES O=c1c(O)c(-c2ccc(O)cc2O)oc2cc(O)cc(O)c12
REMARK SMILES IDX 5 1 3 2 2 3 1 4 22 5 20 6 19 7 17 8 16 9 15 10 14 11 6 12
REMARK SMILES IDX 8 13 7 14 9 15 11 16 12 17 10 18 13 20 4 22 21 24 18 26
REMARK H PARENT 10 19 13 21 4 23 21 25 18 27
REMARK Flexibility Score: inf
ROOT
ATOM      1  C   UNL     1       7.200  15.609  21.624  1.00  0.00     0.184 A 
ATOM      2  C   UNL     1       8.507  15.607  21.110  1.00  0.00     0.208 A 
ATOM      3  C   UNL     1       8.960  16.729  20.399  1.00  0.00     0.238 A 
ATOM      4  O   UNL     1      10.113  16.700  19.895  1.00  0.00    -0.285 OA
ATOM      5  C   UNL     1       8.105  17.846  20.227  1.00  0.00     0.111 A 
ATOM      6  C   UNL     1       8.472  19.053  19.559  1.00  0.00     0.134 A 
ATOM      7  C   UNL     1       7.506  20.039  19.334  1.00  0.00     0.093 A 
ATOM      8  C   UNL     1       6.200  19.890  19.810  1.00  0.00     0.123 A 
ATOM      9  C   UNL     1       5.847  18.743  20.514  1.00  0.00     0.094 A 
ATOM     10  C   UNL     1       6.780  17.725  20.724  1.00  0.00     0.146 A 
ATOM     11  O   UNL     1       6.399  16.641  21.390  1.00  0.00    -0.451 OA
ENDROOT
BRANCH   1  12
ATOM     12  C   UNL     1       6.667  14.467  22.395  1.00  0.00     0.063 A 
ATOM     13  C   UNL     1       6.600  13.220  24.482  1.00  0.00     0.047 A 
ATOM     14  C   UNL     1       7.080  14.293  23.726  1.00  0.00     0.020 A 
ATOM     15  C   UNL     1       5.712  12.300  23.913  1.00  0.00     0.119 A 
ATOM     16  C   UNL     1       5.315  12.452  22.581  1.00  0.00     0.093 A 
ATOM     17  C   UNL     1       5.796  13.523  21.813  1.00  0.00     0.130 A 
BRANCH  15  18
ATOM     18  O   UNL     1       5.225  11.229  24.658  1.00  0.00    -0.508 OA
ATOM     19  H   UNL     1       4.231  11.085  24.791  1.00  0.00     0.293 HD
ENDBRANCH  15  18
BRANCH  17  20
ATOM     20  O   UNL     1       5.429  13.636  20.472  1.00  0.00    -0.507 OA
ATOM     21  H   UNL     1       4.974  14.467  20.113  1.00  0.00     0.293 HD
ENDBRANCH  17  20
ENDBRANCH   1  12
BRANCH   2  22
ATOM     22  O   UNL     1       9.323  14.486  21.280  1.00  0.00    -0.502 OA
ATOM     23  H   UNL     1       9.010  13.655  21.767  1.00  0.00     0.293 HD
ENDBRANCH   2  22
BRANCH   6  24
ATOM     24  O   UNL     1       9.770  19.340  19.125  1.00  0.00    -0.507 OA
ATOM     25  H   UNL     1      10.025  20.141  18.567  1.00  0.00     0.293 HD
ENDBRANCH   6  24
BRANCH   8  26
ATOM     26  O   UNL     1       5.247  20.885  19.595  1.00  0.00    -0.508 OA
ATOM     27  H   UNL     1       5.240  21.738  20.141  1.00  0.00     0.293 HD
ENDBRANCH   8  26
TORSDOF 6
ENDMDL
MODEL 2
REMARK VINA RESULT:    -5.338      2.317      3.776
REMARK INTER + INTRA:          -6.856
REMARK INTER:                  -6.442
REMARK INTRA:                  -0.414
REMARK UNBOUND:                -0.426
REMARK SMILES O=c1c(O)c(-c2ccc(O)cc2O)oc2cc(O)cc(O)c12
REMARK SMILES IDX 5 1 3 2 2 3 1 4 22 5 20 6 19 7 17 8 16 9 15 10 14 11 6 12
REMARK SMILES IDX 8 13 7 14 9 15 11 16 12 17 10 18 13 20 4 22 21 24 18 26
REMARK H PARENT 10 19 13 21 4 23 21 25 18 27
REMARK Flexibility Score: inf
ROOT
ATOM      1  C   UNL     1       7.723  17.683  20.896  1.00  0.00     0.184 A 
ATOM      2  C   UNL     1       7.016  18.435  19.944  1.00  0.00     0.208 A 
ATOM      3  C   UNL     1       7.413  19.757  19.691  1.00  0.00     0.238 A 
ATOM      4  O   UNL     1       6.742  20.443  18.876  1.00  0.00    -0.285 OA
ATOM      5  C   UNL     1       8.523  20.303  20.380  1.00  0.00     0.111 A 
ATOM      6  C   UNL     1       9.039  21.618  20.174  1.00  0.00     0.134 A 
ATOM      7  C   UNL     1      10.058  22.098  21.004  1.00  0.00     0.093 A 
ATOM      8  C   UNL     1      10.625  21.287  21.990  1.00  0.00     0.123 A 
ATOM      9  C   UNL     1      10.170  19.983  22.161  1.00  0.00     0.094 A 
ATOM     10  C   UNL     1       9.129  19.487  21.372  1.00  0.00     0.146 A 
ATOM     11  O   UNL     1       8.717  18.241  21.575  1.00  0.00    -0.451 OA
ENDROOT
BRANCH   1  12
ATOM     12  C   UNL     1       7.367  16.280  21.198  1.00  0.00     0.063 A 
ATOM     13  C   UNL     1       5.838  14.705  22.243  1.00  0.00     0.047 A 
ATOM     14  C   UNL     1       6.201  16.019  21.936  1.00  0.00     0.020 A 
ATOM     15  C   UNL     1       6.643  13.637  21.829  1.00  0.00     0.119 A 
ATOM     16  C   UNL     1       7.818  13.890  21.114  1.00  0.00     0.093 A 
ATOM     17  C   UNL     1       8.192  15.207  20.805  1.00  0.00     0.130 A 
BRANCH  15  18
ATOM     18  O   UNL     1       6.288  12.323  22.127  1.00  0.00    -0.508 OA
ATOM     19  H   UNL     1       5.395  12.099  22.547  1.00  0.00     0.293 HD
ENDBRANCH  15  18
BRANCH  17  20
ATOM     20  O   UNL     1       9.391  15.447  20.133  1.00  0.00    -0.507 OA
ATOM     21  H   UNL     1       9.409  15.869  19.212  1.00  0.00     0.293 HD
ENDBRANCH  17  20
ENDBRANCH   1  12
BRANCH   2  22
ATOM     22  O   UNL     1       5.914  17.877  19.291  1.00  0.00    -0.502 OA
ATOM     23  H   UNL     1       5.816  17.888  18.283  1.00  0.00     0.293 HD
ENDBRANCH   2  22
BRANCH   6  24
ATOM     24  O   UNL     1       8.606  22.475  19.158  1.00  0.00    -0.507 OA
ATOM     25  H   UNL     1       8.011  22.202  18.390  1.00  0.00     0.293 HD
ENDBRANCH   6  24
BRANCH   8  26
ATOM     26  O   UNL     1      11.651  21.768  22.802  1.00  0.00    -0.508 OA
ATOM     27  H   UNL     1      11.535  22.603  23.364  1.00  0.00     0.293 HD
ENDBRANCH   8  26
TORSDOF 6
ENDMDL
MODEL 3
REMARK VINA RESULT:    -5.207      6.410      8.265
REMARK INTER + INTRA:          -6.698
REMARK INTER:                  -6.281
REMARK INTRA:                  -0.417
REMARK UNBOUND:                -0.426
REMARK SMILES O=c1c(O)c(-c2ccc(O)cc2O)oc2cc(O)cc(O)c12
REMARK SMILES IDX 5 1 3 2 2 3 1 4 22 5 20 6 19 7 17 8 16 9 15 10 14 11 6 12
REMARK SMILES IDX 8 13 7 14 9 15 11 16 12 17 10 18 13 20 4 22 21 24 18 26
REMARK H PARENT 10 19 13 21 4 23 21 25 18 27
REMARK Flexibility Score: inf
ROOT
ATOM      1  C   UNL     1       7.467  22.102  25.080  1.00  0.00     0.184 A 
ATOM      2  C   UNL     1       6.894  21.127  24.248  1.00  0.00     0.208 A 
ATOM      3  C   UNL     1       7.579  20.736  23.087  1.00  0.00     0.238 A 
ATOM      4  O   UNL     1       7.036  19.901  22.317  1.00  0.00    -0.285 OA
ATOM      5  C   UNL     1       8.837  21.313  22.784  1.00  0.00     0.111 A 
ATOM      6  C   UNL     1       9.639  20.963  21.656  1.00  0.00     0.134 A 
ATOM      7  C   UNL     1      10.803  21.690  21.384  1.00  0.00     0.093 A 
ATOM      8  C   UNL     1      11.229  22.713  22.236  1.00  0.00     0.123 A 
ATOM      9  C   UNL     1      10.485  23.023  23.371  1.00  0.00     0.094 A 
ATOM     10  C   UNL     1       9.300  22.339  23.650  1.00  0.00     0.146 A 
ATOM     11  O   UNL     1       8.614  22.674  24.737  1.00  0.00    -0.451 OA
ENDROOT
BRANCH   1  12
ATOM     12  C   UNL     1       6.805  22.546  26.325  1.00  0.00     0.063 A 
ATOM     13  C   UNL     1       5.041  23.832  27.394  1.00  0.00     0.047 A 
ATOM     14  C   UNL     1       5.686  23.390  26.237  1.00  0.00     0.020 A 
ATOM     15  C   UNL     1       5.514  23.449  28.654  1.00  0.00     0.119 A 
ATOM     16  C   UNL     1       6.642  22.628  28.752  1.00  0.00     0.093 A 
ATOM     17  C   UNL     1       7.299  22.183  27.595  1.00  0.00     0.130 A 
BRANCH  15  18
ATOM     18  O   UNL     1       4.875  23.882  29.814  1.00  0.00    -0.508 OA
ATOM     19  H   UNL     1       4.098  24.530  29.780  1.00  0.00     0.293 HD
ENDBRANCH  15  18
BRANCH  17  20
ATOM     20  O   UNL     1       8.451  21.405  27.708  1.00  0.00    -0.507 OA
ATOM     21  H   UNL     1       8.747  21.019  28.597  1.00  0.00     0.293 HD
ENDBRANCH  17  20
ENDBRANCH   1  12
BRANCH   2  22
ATOM     22  O   UNL     1       5.644  20.587  24.562  1.00  0.00    -0.502 OA
ATOM     23  H   UNL     1       4.814  20.787  24.018  1.00  0.00     0.293 HD
ENDBRANCH   2  22
BRANCH   6  24
ATOM     24  O   UNL     1       9.352  19.900  20.795  1.00  0.00    -0.507 OA
ATOM     25  H   UNL     1       9.599  19.869  19.817  1.00  0.00     0.293 HD
ENDBRANCH   6  24
BRANCH   8  26
ATOM     26  O   UNL     1      12.398  23.422  21.966  1.00  0.00    -0.508 OA
ATOM     27  H   UNL     1      12.373  24.377  21.629  1.00  0.00     0.293 HD
ENDBRANCH   8  26
TORSDOF 6
ENDMDL
MODEL 4
REMARK VINA RESULT:    -5.165      1.921      6.620
REMARK INTER + INTRA:          -6.648
REMARK INTER:                  -6.387
REMARK INTRA:                  -0.261
REMARK UNBOUND:                -0.426
REMARK SMILES O=c1c(O)c(-c2ccc(O)cc2O)oc2cc(O)cc(O)c12
REMARK SMILES IDX 5 1 3 2 2 3 1 4 22 5 20 6 19 7 17 8 16 9 15 10 14 11 6 12
REMARK SMILES IDX 8 13 7 14 9 15 11 16 12 17 10 18 13 20 4 22 21 24 18 26
REMARK H PARENT 10 19 13 21 4 23 21 25 18 27
REMARK Flexibility Score: inf
ROOT
ATOM      1  C   UNL     1       7.850  16.923  21.293  1.00  0.00     0.184 A 
ATOM      2  C   UNL     1       7.267  16.539  20.074  1.00  0.00     0.208 A 
ATOM      3  C   UNL     1       6.552  15.333  20.013  1.00  0.00     0.238 A 
ATOM      4  O   UNL     1       6.078  14.968  18.906  1.00  0.00    -0.285 OA
ATOM      5  C   UNL     1       6.415  14.536  21.175  1.00  0.00     0.111 A 
ATOM      6  C   UNL     1       5.678  13.315  21.239  1.00  0.00     0.134 A 
ATOM      7  C   UNL     1       5.718  12.544  22.406  1.00  0.00     0.093 A 
ATOM      8  C   UNL     1       6.416  12.981  23.535  1.00  0.00     0.123 A 
ATOM      9  C   UNL     1       7.090  14.199  23.503  1.00  0.00     0.094 A 
ATOM     10  C   UNL     1       7.097  14.974  22.341  1.00  0.00     0.146 A 
ATOM     11  O   UNL     1       7.762  16.124  22.349  1.00  0.00    -0.451 OA
ENDROOT
BRANCH   1  12
ATOM     12  C   UNL     1       8.602  18.188  21.429  1.00  0.00     0.063 A 
ATOM     13  C   UNL     1       8.758  20.418  22.385  1.00  0.00     0.047 A 
ATOM     14  C   UNL     1       8.076  19.208  22.239  1.00  0.00     0.020 A 
ATOM     15  C   UNL     1       9.968  20.630  21.713  1.00  0.00     0.119 A 
ATOM     16  C   UNL     1      10.486  19.629  20.886  1.00  0.00     0.093 A 
ATOM     17  C   UNL     1       9.805  18.412  20.730  1.00  0.00     0.130 A 
BRANCH  15  18
ATOM     18  O   UNL     1      10.658  21.832  21.855  1.00  0.00    -0.508 OA
ATOM     19  H   UNL     1      11.364  21.955  22.571  1.00  0.00     0.293 HD
ENDBRANCH  15  18
BRANCH  17  20
ATOM     20  O   UNL     1      10.310  17.441  19.865  1.00  0.00    -0.507 OA
ATOM     21  H   UNL     1      10.522  16.503  20.184  1.00  0.00     0.293 HD
ENDBRANCH  17  20
ENDBRANCH   1  12
BRANCH   2  22
ATOM     22  O   UNL     1       7.433  17.336  18.939  1.00  0.00    -0.502 OA
ATOM     23  H   UNL     1       7.947  18.208  18.957  1.00  0.00     0.293 HD
ENDBRANCH   2  22
BRANCH   6  24
ATOM     24  O   UNL     1       4.875  12.833  20.201  1.00  0.00    -0.507 OA
ATOM     25  H   UNL     1       4.241  13.398  19.655  1.00  0.00     0.293 HD
ENDBRANCH   6  24
BRANCH   8  26
ATOM     26  O   UNL     1       6.438  12.215  24.699  1.00  0.00    -0.508 OA
ATOM     27  H   UNL     1       7.082  11.440  24.811  1.00  0.00     0.293 HD
ENDBRANCH   8  26
TORSDOF 6
ENDMDL
MODEL 5
REMARK VINA RESULT:    -5.105      2.341      6.346
REMARK INTER + INTRA:          -6.575
REMARK INTER:                  -6.161
REMARK INTRA:                  -0.414
REMARK UNBOUND:                -0.426
REMARK SMILES O=c1c(O)c(-c2ccc(O)cc2O)oc2cc(O)cc(O)c12
REMARK SMILES IDX 5 1 3 2 2 3 1 4 22 5 20 6 19 7 17 8 16 9 15 10 14 11 6 12
REMARK SMILES IDX 8 13 7 14 9 15 11 16 12 17 10 18 13 20 4 22 21 24 18 26
REMARK H PARENT 10 19 13 21 4 23 21 25 18 27
REMARK Flexibility Score: inf
ROOT
ATOM      1  C   UNL     1       8.227  17.894  21.255  1.00  0.00     0.184 A 
ATOM      2  C   UNL     1       8.912  17.346  20.159  1.00  0.00     0.208 A 
ATOM      3  C   UNL     1       8.694  16.001  19.825  1.00  0.00     0.238 A 
ATOM      4  O   UNL     1       9.351  15.500  18.875  1.00  0.00    -0.285 OA
ATOM      5  C   UNL     1       7.779  15.227  20.580  1.00  0.00     0.111 A 
ATOM      6  C   UNL     1       7.449  13.865  20.307  1.00  0.00     0.134 A 
ATOM      7  C   UNL     1       6.632  13.160  21.197  1.00  0.00     0.093 A 
ATOM      8  C   UNL     1       6.079  13.787  22.317  1.00  0.00     0.123 A 
ATOM      9  C   UNL     1       6.347  15.131  22.562  1.00  0.00     0.094 A 
ATOM     10  C   UNL     1       7.188  15.851  21.710  1.00  0.00     0.146 A 
ATOM     11  O   UNL     1       7.427  17.129  21.986  1.00  0.00    -0.451 OA
ENDROOT
BRANCH   1  12
ATOM     12  C   UNL     1       8.399  19.308  21.650  1.00  0.00     0.063 A 
ATOM     13  C   UNL     1       9.564  20.960  23.002  1.00  0.00     0.047 A 
ATOM     14  C   UNL     1       9.379  19.634  22.602  1.00  0.00     0.020 A 
ATOM     15  C   UNL     1       8.764  21.975  22.466  1.00  0.00     0.119 A 
ATOM     16  C   UNL     1       7.770  21.656  21.535  1.00  0.00     0.093 A 
ATOM     17  C   UNL     1       7.574  20.327  21.131  1.00  0.00     0.130 A 
BRANCH  15  18
ATOM     18  O   UNL     1       8.943  23.301  22.855  1.00  0.00    -0.508 OA
ATOM     19  H   UNL     1       9.721  23.580  23.440  1.00  0.00     0.293 HD
ENDBRANCH  15  18
BRANCH  17  20
ATOM     20  O   UNL     1       6.547  20.018  20.239  1.00  0.00    -0.507 OA
ATOM     21  H   UNL     1       6.250  20.671  19.523  1.00  0.00     0.293 HD
ENDBRANCH  17  20
ENDBRANCH   1  12
BRANCH   2  22
ATOM     22  O   UNL     1       9.821  18.127  19.442  1.00  0.00    -0.502 OA
ATOM     23  H   UNL     1       9.587  19.046  19.086  1.00  0.00     0.293 HD
ENDBRANCH   2  22
BRANCH   6  24
ATOM     24  O   UNL     1       7.874  13.174  19.169  1.00  0.00    -0.507 OA
ATOM     25  H   UNL     1       7.423  12.353  18.793  1.00  0.00     0.293 HD
ENDBRANCH   6  24
BRANCH   8  26
ATOM     26  O   UNL     1       5.253  13.081  23.191  1.00  0.00    -0.508 OA
ATOM     27  H   UNL     1       4.244  13.112  23.107  1.00  0.00     0.293 HD
ENDBRANCH   8  26
TORSDOF 6
ENDMDL
MODEL 6
REMARK VINA RESULT:    -5.074      2.933      7.416
REMARK INTER + INTRA:          -6.538
REMARK INTER:                  -6.146
REMARK INTRA:                  -0.392
REMARK UNBOUND:                -0.426
REMARK SMILES O=c1c(O)c(-c2ccc(O)cc2O)oc2cc(O)cc(O)c12
REMARK SMILES IDX 5 1 3 2 2 3 1 4 22 5 20 6 19 7 17 8 16 9 15 10 14 11 6 12
REMARK SMILES IDX 8 13 7 14 9 15 11 16 12 17 10 18 13 20 4 22 21 24 18 26
REMARK H PARENT 10 19 13 21 4 23 21 25 18 27
REMARK Flexibility Score: inf
ROOT
ATOM      1  C   UNL     1       8.602  19.707  21.216  1.00  0.00     0.184 A 
ATOM      2  C   UNL     1       7.320  19.784  21.783  1.00  0.00     0.208 A 
ATOM      3  C   UNL     1       6.474  18.667  21.706  1.00  0.00     0.238 A 
ATOM      4  O   UNL     1       5.307  18.760  22.169  1.00  0.00    -0.285 OA
ATOM      5  C   UNL     1       6.928  17.482  21.078  1.00  0.00     0.111 A 
ATOM      6  C   UNL     1       6.171  16.276  20.977  1.00  0.00     0.134 A 
ATOM      7  C   UNL     1       6.668  15.209  20.221  1.00  0.00     0.093 A 
ATOM      8  C   UNL     1       7.925  15.281  19.614  1.00  0.00     0.123 A 
ATOM      9  C   UNL     1       8.697  16.430  19.755  1.00  0.00     0.094 A 
ATOM     10  C   UNL     1       8.213  17.525  20.474  1.00  0.00     0.146 A 
ATOM     11  O   UNL     1       8.977  18.608  20.575  1.00  0.00    -0.451 OA
ENDROOT
BRANCH   1  12
ATOM     12  C   UNL     1       9.548  20.841  21.277  1.00  0.00     0.063 A 
ATOM     13  C   UNL     1      10.945  22.310  22.618  1.00  0.00     0.047 A 
ATOM     14  C   UNL     1      10.054  21.239  22.525  1.00  0.00     0.020 A 
ATOM     15  C   UNL     1      11.331  23.007  21.468  1.00  0.00     0.119 A 
ATOM     16  C   UNL     1      10.814  22.634  20.224  1.00  0.00     0.093 A 
ATOM     17  C   UNL     1       9.914  21.561  20.121  1.00  0.00     0.130 A 
BRANCH  15  18
ATOM     18  O   UNL     1      12.222  24.075  21.550  1.00  0.00    -0.508 OA
ATOM     19  H   UNL     1      13.055  24.027  22.124  1.00  0.00     0.293 HD
ENDBRANCH  15  18
BRANCH  17  20
ATOM     20  O   UNL     1       9.369  21.230  18.880  1.00  0.00    -0.507 OA
ATOM     21  H   UNL     1       9.437  21.855  18.086  1.00  0.00     0.293 HD
ENDBRANCH  17  20
ENDBRANCH   1  12
BRANCH   2  22
ATOM     22  O   UNL     1       6.891  20.972  22.382  1.00  0.00    -0.502 OA
ATOM     23  H   UNL     1       6.774  21.832  21.861  1.00  0.00     0.293 HD
ENDBRANCH   2  22
BRANCH   6  24
ATOM     24  O   UNL     1       4.947  16.068  21.620  1.00  0.00    -0.507 OA
ATOM     25  H   UNL     1       4.050  16.355  21.256  1.00  0.00     0.293 HD
ENDBRANCH   6  24
BRANCH   8  26
ATOM     26  O   UNL     1       8.420  14.207  18.875  1.00  0.00    -0.508 OA
ATOM     27  H   UNL     1       9.239  14.302  18.286  1.00  0.00     0.293 HD
ENDBRANCH   8  26
TORSDOF 6
ENDMDL
MODEL 7
REMARK VINA RESULT:    -4.981      2.707      5.063
REMARK INTER + INTRA:          -6.426
REMARK INTER:                  -6.023
REMARK INTRA:                  -0.403
REMARK UNBOUND:                -0.426
REMARK SMILES O=c1c(O)c(-c2ccc(O)cc2O)oc2cc(O)cc(O)c12
REMARK SMILES IDX 5 1 3 2 2 3 1 4 22 5 20 6 19 7 17 8 16 9 15 10 14 11 6 12
REMARK SMILES IDX 8 13 7 14 9 15 11 16 12 17 10 18 13 20 4 22 21 24 18 26
REMARK H PARENT 10 19 13 21 4 23 21 25 18 27
REMARK Flexibility Score: inf
ROOT
ATOM      1  C   UNL     1       8.346  19.008  20.579  1.00  0.00     0.184 A 
ATOM      2  C   UNL     1       7.262  19.761  20.100  1.00  0.00     0.208 A 
ATOM      3  C   UNL     1       7.357  21.161  20.092  1.00  0.00     0.238 A 
ATOM      4  O   UNL     1       6.363  21.832  19.711  1.00  0.00    -0.285 OA
ATOM      5  C   UNL     1       8.542  21.789  20.547  1.00  0.00     0.111 A 
ATOM      6  C   UNL     1       8.765  23.199  20.547  1.00  0.00     0.134 A 
ATOM      7  C   UNL     1       9.921  23.716  21.141  1.00  0.00     0.093 A 
ATOM      8  C   UNL     1      10.895  22.870  21.678  1.00  0.00     0.123 A 
ATOM      9  C   UNL     1      10.716  21.490  21.631  1.00  0.00     0.094 A 
ATOM     10  C   UNL     1       9.555  20.945  21.076  1.00  0.00     0.146 A 
ATOM     11  O   UNL     1       9.417  19.624  21.062  1.00  0.00    -0.451 OA
ENDROOT
BRANCH   1  12
ATOM     12  C   UNL     1       8.317  17.530  20.599  1.00  0.00     0.063 A 
ATOM     13  C   UNL     1       7.435  15.484  21.570  1.00  0.00     0.047 A 
ATOM     14  C   UNL     1       7.482  16.879  21.521  1.00  0.00     0.020 A 
ATOM     15  C   UNL     1       8.231  14.721  20.708  1.00  0.00     0.119 A 
ATOM     16  C   UNL     1       9.083  15.362  19.803  1.00  0.00     0.093 A 
ATOM     17  C   UNL     1       9.141  16.763  19.751  1.00  0.00     0.130 A 
BRANCH  15  18
ATOM     18  O   UNL     1       8.189  13.330  20.747  1.00  0.00    -0.508 OA
ATOM     19  H   UNL     1       8.398  12.817  21.595  1.00  0.00     0.293 HD
ENDBRANCH  15  18
BRANCH  17  20
ATOM     20  O   UNL     1      10.031  17.388  18.876  1.00  0.00    -0.507 OA
ATOM     21  H   UNL     1       9.799  18.260  18.416  1.00  0.00     0.293 HD
ENDBRANCH  17  20
ENDBRANCH   1  12
BRANCH   2  22
ATOM     22  O   UNL     1       6.099  19.116  19.672  1.00  0.00    -0.502 OA
ATOM     23  H   UNL     1       5.738  19.214  18.731  1.00  0.00     0.293 HD
ENDBRANCH   2  22
BRANCH   6  24
ATOM     24  O   UNL     1       7.900  24.124  19.956  1.00  0.00    -0.507 OA
ATOM     25  H   UNL     1       7.080  24.511  20.400  1.00  0.00     0.293 HD
ENDBRANCH   6  24
BRANCH   8  26
ATOM     26  O   UNL     1      12.052  23.392  22.254  1.00  0.00    -0.508 OA
ATOM     27  H   UNL     1      12.020  23.930  23.112  1.00  0.00     0.293 HD
ENDBRANCH   8  26
TORSDOF 6
ENDMDL
MODEL 8
REMARK VINA RESULT:    -4.976      3.474      5.128
REMARK INTER + INTRA:          -6.420
REMARK INTER:                  -6.339
REMARK INTRA:                  -0.082
REMARK UNBOUND:                -0.426
REMARK SMILES O=c1c(O)c(-c2ccc(O)cc2O)oc2cc(O)cc(O)c12
REMARK SMILES IDX 5 1 3 2 2 3 1 4 22 5 20 6 19 7 17 8 16 9 15 10 14 11 6 12
REMARK SMILES IDX 8 13 7 14 9 15 11 16 12 17 10 18 13 20 4 22 21 24 18 26
REMARK H PARENT 10 19 13 21 4 23 21 25 18 27
REMARK Flexibility Score: inf
ROOT
ATOM      1  C   UNL     1       8.858  19.103  21.209  1.00  0.00     0.184 A 
ATOM      2  C   UNL     1       9.251  19.981  20.186  1.00  0.00     0.208 A 
ATOM      3  C   UNL     1       9.478  21.330  20.498  1.00  0.00     0.238 A 
ATOM      4  O   UNL     1       9.778  22.123  19.568  1.00  0.00    -0.285 OA
ATOM      5  C   UNL     1       9.327  21.779  21.833  1.00  0.00     0.111 A 
ATOM      6  C   UNL     1       9.570  23.116  22.272  1.00  0.00     0.134 A 
ATOM      7  C   UNL     1       9.262  23.478  23.588  1.00  0.00     0.093 A 
ATOM      8  C   UNL     1       8.781  22.535  24.500  1.00  0.00     0.123 A 
ATOM      9  C   UNL     1       8.596  21.215  24.099  1.00  0.00     0.094 A 
ATOM     10  C   UNL     1       8.860  20.831  22.782  1.00  0.00     0.146 A 
ATOM     11  O   UNL     1       8.659  19.564  22.437  1.00  0.00    -0.451 OA
ENDROOT
BRANCH   1  12
ATOM     12  C   UNL     1       8.619  17.667  20.951  1.00  0.00     0.063 A 
ATOM     13  C   UNL     1       7.141  15.745  21.122  1.00  0.00     0.047 A 
ATOM     14  C   UNL     1       7.397  17.100  21.346  1.00  0.00     0.020 A 
ATOM     15  C   UNL     1       8.108  14.937  20.512  1.00  0.00     0.119 A 
ATOM     16  C   UNL     1       9.337  15.489  20.138  1.00  0.00     0.093 A 
ATOM     17  C   UNL     1       9.605  16.848  20.363  1.00  0.00     0.130 A 
BRANCH  15  18
ATOM     18  O   UNL     1       7.861  13.586  20.281  1.00  0.00    -0.508 OA
ATOM     19  H   UNL     1       8.592  12.961  19.962  1.00  0.00     0.293 HD
ENDBRANCH  15  18
BRANCH  17  20
ATOM     20  O   UNL     1      10.852  17.374  20.028  1.00  0.00    -0.507 OA
ATOM     21  H   UNL     1      11.624  16.777  19.754  1.00  0.00     0.293 HD
ENDBRANCH  17  20
ENDBRANCH   1  12
BRANCH   2  22
ATOM     22  O   UNL     1       9.376  19.515  18.875  1.00  0.00    -0.502 OA
ATOM     23  H   UNL     1      10.266  19.481  18.393  1.00  0.00     0.293 HD
ENDBRANCH   2  22
BRANCH   6  24
ATOM     24  O   UNL     1      10.133  24.110  21.467  1.00  0.00    -0.507 OA
ATOM     25  H   UNL     1       9.903  24.263  20.496  1.00  0.00     0.293 HD
ENDBRANCH   6  24
BRANCH   8  26
ATOM     26  O   UNL     1       8.492  22.900  25.814  1.00  0.00    -0.508 OA
ATOM     27  H   UNL     1       9.205  23.272  26.430  1.00  0.00     0.293 HD
ENDBRANCH   8  26
TORSDOF 6
ENDMDL
MODEL 9
REMARK VINA RESULT:    -4.887      5.188      7.190
REMARK INTER + INTRA:          -6.313
REMARK INTER:                  -6.057
REMARK INTRA:                  -0.256
REMARK UNBOUND:                -0.426
REMARK SMILES O=c1c(O)c(-c2ccc(O)cc2O)oc2cc(O)cc(O)c12
REMARK SMILES IDX 5 1 3 2 2 3 1 4 22 5 20 6 19 7 17 8 16 9 15 10 14 11 6 12
REMARK SMILES IDX 8 13 7 14 9 15 11 16 12 17 10 18 13 20 4 22 21 24 18 26
REMARK H PARENT 10 19 13 21 4 23 21 25 18 27
REMARK Flexibility Score: inf
ROOT
ATOM      1  C   UNL     1       8.142  21.625  23.819  1.00  0.00     0.184 A 
ATOM      2  C   UNL     1       8.569  22.675  22.989  1.00  0.00     0.208 A 
ATOM      3  C   UNL     1       9.005  22.378  21.689  1.00  0.00     0.238 A 
ATOM      4  O   UNL     1       9.436  23.316  20.968  1.00  0.00    -0.285 OA
ATOM      5  C   UNL     1       8.991  21.039  21.229  1.00  0.00     0.111 A 
ATOM      6  C   UNL     1       9.372  20.627  19.917  1.00  0.00     0.134 A 
ATOM      7  C   UNL     1       9.443  19.263  19.614  1.00  0.00     0.093 A 
ATOM      8  C   UNL     1       9.085  18.296  20.557  1.00  0.00     0.123 A 
ATOM      9  C   UNL     1       8.655  18.688  21.822  1.00  0.00     0.094 A 
ATOM     10  C   UNL     1       8.608  20.042  22.165  1.00  0.00     0.146 A 
ATOM     11  O   UNL     1       8.203  20.373  23.386  1.00  0.00    -0.451 OA
ENDROOT
BRANCH   1  12
ATOM     12  C   UNL     1       7.656  21.871  25.193  1.00  0.00     0.063 A 
ATOM     13  C   UNL     1       8.062  22.793  27.406  1.00  0.00     0.047 A 
ATOM     14  C   UNL     1       8.489  22.549  26.098  1.00  0.00     0.020 A 
ATOM     15  C   UNL     1       6.804  22.350  27.831  1.00  0.00     0.119 A 
ATOM     16  C   UNL     1       5.979  21.652  26.943  1.00  0.00     0.093 A 
ATOM     17  C   UNL     1       6.401  21.399  25.629  1.00  0.00     0.130 A 
BRANCH  15  18
ATOM     18  O   UNL     1       6.368  22.591  29.132  1.00  0.00    -0.508 OA
ATOM     19  H   UNL     1       5.408  22.845  29.329  1.00  0.00     0.293 HD
ENDBRANCH  15  18
BRANCH  17  20
ATOM     20  O   UNL     1       5.587  20.661  24.770  1.00  0.00    -0.507 OA
ATOM     21  H   UNL     1       5.048  21.105  24.036  1.00  0.00     0.293 HD
ENDBRANCH  17  20
ENDBRANCH   1  12
BRANCH   2  22
ATOM     22  O   UNL     1       8.588  23.985  23.474  1.00  0.00    -0.502 OA
ATOM     23  H   UNL     1       8.995  24.752  22.951  1.00  0.00     0.293 HD
ENDBRANCH   2  22
BRANCH   6  24
ATOM     24  O   UNL     1       9.661  21.514  18.875  1.00  0.00    -0.507 OA
ATOM     25  H   UNL     1      10.315  22.280  18.937  1.00  0.00     0.293 HD
ENDBRANCH   6  24
BRANCH   8  26
ATOM     26  O   UNL     1       9.144  16.940  20.242  1.00  0.00    -0.508 OA
ATOM     27  H   UNL     1       9.903  16.353  20.568  1.00  0.00     0.293 HD
ENDBRANCH   8  26
TORSDOF 6
ENDMDL
