MODEL 1
REMARK VINA RESULT:    -8.425      0.000      0.000
REMARK INTER + INTRA:         -10.672
REMARK INTER:                 -10.395
REMARK INTRA:                  -0.277
REMARK UNBOUND:                -0.277
REMARK SMILES Oc1cc(O)c2cc(O)c(-c3cc(O)c(O)c(O)c3)[o+]c2c1
REMARK SMILES IDX 10 1 20 2 21 3 22 4 2 5 3 6 4 7 6 8 7 9 8 10 11 11 12 12
REMARK SMILES IDX 13 13 19 14 15 15 17 16 14 17 16 19 18 21 9 23 1 25 5 27
REMARK H PARENT 14 18 16 20 18 22 9 24 1 26 5 28
REMARK Flexibility Score: inf
ROOT
ATOM      1  C   UNL     1     -22.490 -24.988 -19.991  1.00  0.00     0.402 A 
ATOM      2  O   UNL     1     -23.517 -24.945 -20.837  1.00  0.00    -0.202 OA
ATOM      3  C   UNL     1     -23.655 -24.011 -21.770  1.00  0.00     0.368 A 
ATOM      4  C   UNL     1     -24.770 -24.052 -22.614  1.00  0.00     0.162 A 
ATOM      5  C   UNL     1     -24.939 -23.083 -23.607  1.00  0.00     0.128 A 
ATOM      6  C   UNL     1     -23.990 -22.069 -23.757  1.00  0.00     0.093 A 
ATOM      7  C   UNL     1     -22.866 -22.005 -22.925  1.00  0.00     0.136 A 
ATOM      8  C   UNL     1     -22.691 -22.985 -21.914  1.00  0.00     0.125 A 
ATOM      9  C   UNL     1     -21.603 -22.993 -21.026  1.00  0.00     0.078 A 
ATOM     10  C   UNL     1     -21.501 -23.989 -20.051  1.00  0.00     0.223 A 
ENDROOT
BRANCH   1  11
ATOM     11  C   UNL     1     -22.443 -26.087 -19.001  1.00  0.00     0.091 A 
ATOM     12  C   UNL     1     -23.446 -26.179 -18.025  1.00  0.00     0.068 A 
ATOM     13  C   UNL     1     -23.436 -27.221 -17.088  1.00  0.00     0.162 A 
ATOM     14  C   UNL     1     -21.445 -27.075 -19.052  1.00  0.00     0.068 A 
ATOM     15  C   UNL     1     -22.426 -28.191 -17.129  1.00  0.00     0.200 A 
ATOM     16  C   UNL     1     -21.430 -28.121 -18.118  1.00  0.00     0.162 A 
BRANCH  13  17
ATOM     17  O   UNL     1     -24.426 -27.300 -16.110  1.00  0.00    -0.504 OA
ATOM     18  H   UNL     1     -25.019 -26.508 -15.891  1.00  0.00     0.293 HD
ENDBRANCH  13  17
BRANCH  15  19
ATOM     19  O   UNL     1     -22.430 -29.221 -16.187  1.00  0.00    -0.502 OA
ATOM     20  H   UNL     1     -23.135 -29.947 -16.186  1.00  0.00     0.293 HD
ENDBRANCH  15  19
BRANCH  16  21
ATOM     21  O   UNL     1     -20.432 -29.094 -18.172  1.00  0.00    -0.504 OA
ATOM     22  H   UNL     1     -20.605 -30.049 -17.880  1.00  0.00     0.293 HD
ENDBRANCH  16  21
ENDBRANCH   1  11
BRANCH  10  23
ATOM     23  O   UNL     1     -20.446 -23.969 -19.137  1.00  0.00    -0.500 OA
ATOM     24  H   UNL     1     -19.800 -24.745 -19.052  1.00  0.00     0.294 HD
ENDBRANCH  10  23
BRANCH   5  25
ATOM     25  O   UNL     1     -26.046 -23.118 -24.452  1.00  0.00    -0.507 OA
ATOM     26  H   UNL     1     -26.332 -22.305 -24.985  1.00  0.00     0.293 HD
ENDBRANCH   5  25
BRANCH   7  27
ATOM     27  O   UNL     1     -21.962 -20.960 -23.143  1.00  0.00    -0.507 OA
ATOM     28  H   UNL     1     -22.219 -19.985 -23.185  1.00  0.00     0.293 HD
ENDBRANCH   7  27
TORSDOF 7
ENDMDL
MODEL 2
REMARK VINA RESULT:    -8.002      1.572      2.055
REMARK INTER + INTRA:         -10.151
REMARK INTER:                  -9.907
REMARK INTRA:                  -0.244
REMARK UNBOUND:                -0.277
REMARK SMILES Oc1cc(O)c2cc(O)c(-c3cc(O)c(O)c(O)c3)[o+]c2c1
REMARK SMILES IDX 10 1 20 2 21 3 22 4 2 5 3 6 4 7 6 8 7 9 8 10 11 11 12 12
REMARK SMILES IDX 13 13 19 14 15 15 17 16 14 17 16 19 18 21 9 23 1 25 5 27
REMARK H PARENT 14 18 16 20 18 22 9 24 1 26 5 28
REMARK Flexibility Score: inf
ROOT
ATOM      1  C   UNL     1     -23.796 -25.369 -20.840  1.00  0.00     0.402 A 
ATOM      2  O   UNL     1     -24.237 -25.950 -21.953  1.00  0.00    -0.202 OA
ATOM      3  C   UNL     1     -24.563 -25.274 -23.049  1.00  0.00     0.368 A 
ATOM      4  C   UNL     1     -25.013 -25.975 -24.171  1.00  0.00     0.162 A 
ATOM      5  C   UNL     1     -25.361 -25.288 -25.339  1.00  0.00     0.128 A 
ATOM      6  C   UNL     1     -25.257 -23.896 -25.384  1.00  0.00     0.093 A 
ATOM      7  C   UNL     1     -24.808 -23.171 -24.273  1.00  0.00     0.136 A 
ATOM      8  C   UNL     1     -24.457 -23.863 -23.085  1.00  0.00     0.125 A 
ATOM      9  C   UNL     1     -24.010 -23.219 -21.920  1.00  0.00     0.078 A 
ATOM     10  C   UNL     1     -23.687 -23.968 -20.785  1.00  0.00     0.223 A 
ENDROOT
BRANCH   1  11
ATOM     11  C   UNL     1     -23.454 -26.233 -19.687  1.00  0.00     0.091 A 
ATOM     12  C   UNL     1     -24.261 -26.202 -18.539  1.00  0.00     0.068 A 
ATOM     13  C   UNL     1     -23.971 -27.024 -17.442  1.00  0.00     0.162 A 
ATOM     14  C   UNL     1     -22.371 -27.126 -19.738  1.00  0.00     0.068 A 
ATOM     15  C   UNL     1     -22.876 -27.897 -17.490  1.00  0.00     0.200 A 
ATOM     16  C   UNL     1     -22.077 -27.953 -18.644  1.00  0.00     0.162 A 
BRANCH  13  17
ATOM     17  O   UNL     1     -24.766 -26.980 -16.298  1.00  0.00    -0.504 OA
ATOM     18  H   UNL     1     -24.889 -27.793 -15.706  1.00  0.00     0.293 HD
ENDBRANCH  13  17
BRANCH  15  19
ATOM     19  O   UNL     1     -22.601 -28.707 -16.388  1.00  0.00    -0.502 OA
ATOM     20  H   UNL     1     -22.524 -28.332 -15.450  1.00  0.00     0.293 HD
ENDBRANCH  15  19
BRANCH  16  21
ATOM     21  O   UNL     1     -20.996 -28.831 -18.701  1.00  0.00    -0.504 OA
ATOM     22  H   UNL     1     -20.833 -29.421 -19.510  1.00  0.00     0.293 HD
ENDBRANCH  16  21
ENDBRANCH   1  11
BRANCH  10  23
ATOM     23  O   UNL     1     -23.291 -23.324 -19.611  1.00  0.00    -0.500 OA
ATOM     24  H   UNL     1     -23.618 -22.395 -19.377  1.00  0.00     0.294 HD
ENDBRANCH  10  23
BRANCH   5  25
ATOM     25  O   UNL     1     -25.810 -25.979 -26.461  1.00  0.00    -0.507 OA
ATOM     26  H   UNL     1     -25.235 -26.676 -26.920  1.00  0.00     0.293 HD
ENDBRANCH   5  25
BRANCH   7  27
ATOM     27  O   UNL     1     -24.730 -21.781 -24.401  1.00  0.00    -0.507 OA
ATOM     28  H   UNL     1     -24.162 -21.186 -23.816  1.00  0.00     0.293 HD
ENDBRANCH   7  27
TORSDOF 7
ENDMDL
MODEL 3
REMARK VINA RESULT:    -7.985      1.570      2.704
REMARK INTER + INTRA:         -10.130
REMARK INTER:                  -9.881
REMARK INTRA:                  -0.249
REMARK UNBOUND:                -0.277
REMARK SMILES Oc1cc(O)c2cc(O)c(-c3cc(O)c(O)c(O)c3)[o+]c2c1
REMARK SMILES IDX 10 1 20 2 21 3 22 4 2 5 3 6 4 7 6 8 7 9 8 10 11 11 12 12
REMARK SMILES IDX 13 13 19 14 15 15 17 16 14 17 16 19 18 21 9 23 1 25 5 27
REMARK H PARENT 14 18 16 20 18 22 9 24 1 26 5 28
REMARK Flexibility Score: inf
ROOT
ATOM      1  C   UNL     1     -23.836 -25.384 -20.829  1.00  0.00     0.402 A 
ATOM      2  O   UNL     1     -24.280 -25.946 -21.951  1.00  0.00    -0.202 OA
ATOM      3  C   UNL     1     -24.576 -25.254 -23.046  1.00  0.00     0.368 A 
ATOM      4  C   UNL     1     -25.034 -25.936 -24.177  1.00  0.00     0.162 A 
ATOM      5  C   UNL     1     -25.350 -25.233 -25.344  1.00  0.00     0.128 A 
ATOM      6  C   UNL     1     -25.206 -23.844 -25.379  1.00  0.00     0.093 A 
ATOM      7  C   UNL     1     -24.749 -23.139 -24.259  1.00  0.00     0.136 A 
ATOM      8  C   UNL     1     -24.430 -23.847 -23.072  1.00  0.00     0.125 A 
ATOM      9  C   UNL     1     -23.978 -23.222 -21.899  1.00  0.00     0.078 A 
ATOM     10  C   UNL     1     -23.687 -23.987 -20.765  1.00  0.00     0.223 A 
ENDROOT
BRANCH   1  11
ATOM     11  C   UNL     1     -23.530 -26.264 -19.678  1.00  0.00     0.091 A 
ATOM     12  C   UNL     1     -22.416 -27.114 -19.737  1.00  0.00     0.068 A 
ATOM     13  C   UNL     1     -22.093 -27.942 -18.654  1.00  0.00     0.162 A 
ATOM     14  C   UNL     1     -24.301 -26.226 -18.504  1.00  0.00     0.068 A 
ATOM     15  C   UNL     1     -22.878 -27.916 -17.493  1.00  0.00     0.200 A 
ATOM     16  C   UNL     1     -23.981 -27.051 -17.416  1.00  0.00     0.162 A 
BRANCH  13  17
ATOM     17  O   UNL     1     -20.993 -28.796 -18.722  1.00  0.00    -0.504 OA
ATOM     18  H   UNL     1     -20.114 -28.496 -19.126  1.00  0.00     0.293 HD
ENDBRANCH  13  17
BRANCH  15  19
ATOM     19  O   UNL     1     -22.543 -28.749 -16.425  1.00  0.00    -0.502 OA
ATOM     20  H   UNL     1     -21.719 -29.338 -16.438  1.00  0.00     0.293 HD
ENDBRANCH  15  19
BRANCH  16  21
ATOM     21  O   UNL     1     -24.756 -27.011 -16.256  1.00  0.00    -0.504 OA
ATOM     22  H   UNL     1     -24.589 -27.646 -15.484  1.00  0.00     0.293 HD
ENDBRANCH  16  21
ENDBRANCH   1  11
BRANCH  10  23
ATOM     23  O   UNL     1     -23.286 -23.362 -19.583  1.00  0.00    -0.500 OA
ATOM     24  H   UNL     1     -22.376 -23.535 -19.172  1.00  0.00     0.294 HD
ENDBRANCH  10  23
BRANCH   5  25
ATOM     25  O   UNL     1     -25.807 -25.905 -26.475  1.00  0.00    -0.507 OA
ATOM     26  H   UNL     1     -25.487 -25.657 -27.405  1.00  0.00     0.293 HD
ENDBRANCH   5  25
BRANCH   7  27
ATOM     27  O   UNL     1     -24.631 -21.750 -24.378  1.00  0.00    -0.507 OA
ATOM     28  H   UNL     1     -23.778 -21.270 -24.624  1.00  0.00     0.293 HD
ENDBRANCH   7  27
TORSDOF 7
ENDMDL
MODEL 4
REMARK VINA RESULT:    -7.943      1.091      2.602
REMARK INTER + INTRA:         -10.078
REMARK INTER:                  -9.735
REMARK INTRA:                  -0.342
REMARK UNBOUND:                -0.277
REMARK SMILES Oc1cc(O)c2cc(O)c(-c3cc(O)c(O)c(O)c3)[o+]c2c1
REMARK SMILES IDX 10 1 20 2 21 3 22 4 2 5 3 6 4 7 6 8 7 9 8 10 11 11 12 12
REMARK SMILES IDX 13 13 19 14 15 15 17 16 14 17 16 19 18 21 9 23 1 25 5 27
REMARK H PARENT 14 18 16 20 18 22 9 24 1 26 5 28
REMARK Flexibility Score: inf
ROOT
ATOM      1  C   UNL     1     -23.202 -25.152 -20.321  1.00  0.00     0.402 A 
ATOM      2  O   UNL     1     -22.417 -24.077 -20.340  1.00  0.00    -0.202 OA
ATOM      3  C   UNL     1     -22.540 -23.100 -21.232  1.00  0.00     0.368 A 
ATOM      4  C   UNL     1     -21.668 -22.009 -21.169  1.00  0.00     0.162 A 
ATOM      5  C   UNL     1     -21.777 -20.965 -22.093  1.00  0.00     0.128 A 
ATOM      6  C   UNL     1     -22.761 -21.014 -23.083  1.00  0.00     0.093 A 
ATOM      7  C   UNL     1     -23.645 -22.096 -23.168  1.00  0.00     0.136 A 
ATOM      8  C   UNL     1     -23.538 -23.158 -22.234  1.00  0.00     0.125 A 
ATOM      9  C   UNL     1     -24.372 -24.288 -22.250  1.00  0.00     0.078 A 
ATOM     10  C   UNL     1     -24.203 -25.298 -21.299  1.00  0.00     0.223 A 
ENDROOT
BRANCH   1  11
ATOM     11  C   UNL     1     -22.973 -26.168 -19.269  1.00  0.00     0.091 A 
ATOM     12  C   UNL     1     -23.841 -26.230 -18.168  1.00  0.00     0.068 A 
ATOM     13  C   UNL     1     -23.658 -27.194 -17.168  1.00  0.00     0.162 A 
ATOM     14  C   UNL     1     -21.937 -27.111 -19.376  1.00  0.00     0.068 A 
ATOM     15  C   UNL     1     -22.610 -28.119 -17.270  1.00  0.00     0.200 A 
ATOM     16  C   UNL     1     -21.750 -28.080 -18.380  1.00  0.00     0.162 A 
BRANCH  13  17
ATOM     17  O   UNL     1     -24.515 -27.242 -16.070  1.00  0.00    -0.504 OA
ATOM     18  H   UNL     1     -25.162 -26.488 -15.870  1.00  0.00     0.293 HD
ENDBRANCH  13  17
BRANCH  15  19
ATOM     19  O   UNL     1     -22.441 -29.071 -16.264  1.00  0.00    -0.502 OA
ATOM     20  H   UNL     1     -22.690 -28.887 -15.300  1.00  0.00     0.293 HD
ENDBRANCH  15  19
BRANCH  16  21
ATOM     21  O   UNL     1     -20.715 -29.008 -18.492  1.00  0.00    -0.504 OA
ATOM     22  H   UNL     1     -19.834 -28.881 -18.007  1.00  0.00     0.293 HD
ENDBRANCH  16  21
ENDBRANCH   1  11
BRANCH  10  23
ATOM     23  O   UNL     1     -24.999 -26.444 -21.345  1.00  0.00    -0.500 OA
ATOM     24  H   UNL     1     -24.922 -27.115 -22.100  1.00  0.00     0.294 HD
ENDBRANCH  10  23
BRANCH   5  25
ATOM     25  O   UNL     1     -20.912 -19.875 -22.037  1.00  0.00    -0.507 OA
ATOM     26  H   UNL     1     -21.233 -18.934 -22.232  1.00  0.00     0.293 HD
ENDBRANCH   5  25
BRANCH   7  27
ATOM     27  O   UNL     1     -24.603 -22.066 -24.186  1.00  0.00    -0.507 OA
ATOM     28  H   UNL     1     -24.657 -21.351 -24.897  1.00  0.00     0.293 HD
ENDBRANCH   7  27
TORSDOF 7
ENDMDL
MODEL 5
REMARK VINA RESULT:    -7.846      2.015      2.334
REMARK INTER + INTRA:          -9.957
REMARK INTER:                  -9.664
REMARK INTRA:                  -0.293
REMARK UNBOUND:                -0.277
REMARK SMILES Oc1cc(O)c2cc(O)c(-c3cc(O)c(O)c(O)c3)[o+]c2c1
REMARK SMILES IDX 10 1 20 2 21 3 22 4 2 5 3 6 4 7 6 8 7 9 8 10 11 11 12 12
REMARK SMILES IDX 13 13 19 14 15 15 17 16 14 17 16 19 18 21 9 23 1 25 5 27
REMARK H PARENT 14 18 16 20 18 22 9 24 1 26 5 28
REMARK Flexibility Score: inf
ROOT
ATOM      1  C   UNL     1     -22.979 -26.267 -21.152  1.00  0.00     0.402 A 
ATOM      2  O   UNL     1     -24.017 -26.685 -21.872  1.00  0.00    -0.202 OA
ATOM      3  C   UNL     1     -24.322 -26.191 -23.067  1.00  0.00     0.368 A 
ATOM      4  C   UNL     1     -25.433 -26.698 -23.748  1.00  0.00     0.162 A 
ATOM      5  C   UNL     1     -25.776 -26.198 -25.008  1.00  0.00     0.128 A 
ATOM      6  C   UNL     1     -25.005 -25.188 -25.588  1.00  0.00     0.093 A 
ATOM      7  C   UNL     1     -23.889 -24.663 -24.926  1.00  0.00     0.136 A 
ATOM      8  C   UNL     1     -23.538 -25.165 -23.647  1.00  0.00     0.125 A 
ATOM      9  C   UNL     1     -22.445 -24.691 -22.904  1.00  0.00     0.078 A 
ATOM     10  C   UNL     1     -22.163 -25.232 -21.646  1.00  0.00     0.223 A 
ENDROOT
BRANCH   1  11
ATOM     11  C   UNL     1     -22.735 -26.904 -19.838  1.00  0.00     0.091 A 
ATOM     12  C   UNL     1     -23.671 -26.739 -18.807  1.00  0.00     0.068 A 
ATOM     13  C   UNL     1     -23.475 -27.348 -17.560  1.00  0.00     0.162 A 
ATOM     14  C   UNL     1     -21.612 -27.720 -19.618  1.00  0.00     0.068 A 
ATOM     15  C   UNL     1     -22.342 -28.142 -17.339  1.00  0.00     0.200 A 
ATOM     16  C   UNL     1     -21.411 -28.334 -18.373  1.00  0.00     0.162 A 
BRANCH  13  17
ATOM     17  O   UNL     1     -24.401 -27.168 -16.534  1.00  0.00    -0.504 OA
ATOM     18  H   UNL     1     -25.032 -26.375 -16.523  1.00  0.00     0.293 HD
ENDBRANCH  13  17
BRANCH  15  19
ATOM     19  O   UNL     1     -22.161 -28.739 -16.091  1.00  0.00    -0.502 OA
ATOM     20  H   UNL     1     -21.718 -29.644 -15.986  1.00  0.00     0.293 HD
ENDBRANCH  15  19
BRANCH  16  21
ATOM     21  O   UNL     1     -20.290 -29.137 -18.162  1.00  0.00    -0.504 OA
ATOM     22  H   UNL     1     -19.490 -28.803 -17.637  1.00  0.00     0.293 HD
ENDBRANCH  16  21
ENDBRANCH   1  11
BRANCH  10  23
ATOM     23  O   UNL     1     -21.107 -24.727 -20.887  1.00  0.00    -0.500 OA
ATOM     24  H   UNL     1     -20.385 -25.330 -20.510  1.00  0.00     0.294 HD
ENDBRANCH  10  23
BRANCH   5  25
ATOM     25  O   UNL     1     -26.880 -26.698 -25.693  1.00  0.00    -0.507 OA
ATOM     26  H   UNL     1     -27.820 -26.378 -25.490  1.00  0.00     0.293 HD
ENDBRANCH   5  25
BRANCH   7  27
ATOM     27  O   UNL     1     -23.169 -23.656 -25.577  1.00  0.00    -0.507 OA
ATOM     28  H   UNL     1     -23.494 -23.161 -26.394  1.00  0.00     0.293 HD
ENDBRANCH   7  27
TORSDOF 7
ENDMDL
MODEL 6
REMARK VINA RESULT:    -7.681      1.299      3.036
REMARK INTER + INTRA:          -9.754
REMARK INTER:                  -9.453
REMARK INTRA:                  -0.301
REMARK UNBOUND:                -0.277
REMARK SMILES Oc1cc(O)c2cc(O)c(-c3cc(O)c(O)c(O)c3)[o+]c2c1
REMARK SMILES IDX 10 1 20 2 21 3 22 4 2 5 3 6 4 7 6 8 7 9 8 10 11 11 12 12
REMARK SMILES IDX 13 13 19 14 15 15 17 16 14 17 16 19 18 21 9 23 1 25 5 27
REMARK H PARENT 14 18 16 20 18 22 9 24 1 26 5 28
REMARK Flexibility Score: inf
ROOT
ATOM      1  C   UNL     1     -22.634 -25.696 -20.450  1.00  0.00     0.402 A 
ATOM      2  O   UNL     1     -22.343 -24.410 -20.270  1.00  0.00    -0.202 OA
ATOM      3  C   UNL     1     -22.409 -23.505 -21.241  1.00  0.00     0.368 A 
ATOM      4  C   UNL     1     -22.087 -22.175 -20.953  1.00  0.00     0.162 A 
ATOM      5  C   UNL     1     -22.150 -21.201 -21.955  1.00  0.00     0.128 A 
ATOM      6  C   UNL     1     -22.539 -21.559 -23.248  1.00  0.00     0.093 A 
ATOM      7  C   UNL     1     -22.867 -22.884 -23.561  1.00  0.00     0.136 A 
ATOM      8  C   UNL     1     -22.802 -23.876 -22.549  1.00  0.00     0.125 A 
ATOM      9  C   UNL     1     -23.099 -25.230 -22.774  1.00  0.00     0.078 A 
ATOM     10  C   UNL     1     -23.007 -26.152 -21.727  1.00  0.00     0.223 A 
ENDROOT
BRANCH   1  11
ATOM     11  C   UNL     1     -22.532 -26.606 -19.286  1.00  0.00     0.091 A 
ATOM     12  C   UNL     1     -21.445 -27.488 -19.194  1.00  0.00     0.068 A 
ATOM     13  C   UNL     1     -21.314 -28.346 -18.093  1.00  0.00     0.162 A 
ATOM     14  C   UNL     1     -23.472 -26.566 -18.242  1.00  0.00     0.068 A 
ATOM     15  C   UNL     1     -22.266 -28.317 -17.065  1.00  0.00     0.200 A 
ATOM     16  C   UNL     1     -23.345 -27.420 -17.137  1.00  0.00     0.162 A 
BRANCH  13  17
ATOM     17  O   UNL     1     -20.241 -29.231 -18.013  1.00  0.00    -0.504 OA
ATOM     18  H   UNL     1     -19.610 -29.371 -18.794  1.00  0.00     0.293 HD
ENDBRANCH  13  17
BRANCH  15  19
ATOM     19  O   UNL     1     -22.122 -29.180 -15.978  1.00  0.00    -0.502 OA
ATOM     20  H   UNL     1     -22.539 -30.103 -15.963  1.00  0.00     0.293 HD
ENDBRANCH  15  19
BRANCH  16  21
ATOM     21  O   UNL     1     -24.286 -27.378 -16.109  1.00  0.00    -0.504 OA
ATOM     22  H   UNL     1     -25.194 -26.945 -16.237  1.00  0.00     0.293 HD
ENDBRANCH  16  21
ENDBRANCH   1  11
BRANCH  10  23
ATOM     23  O   UNL     1     -23.255 -27.505 -21.962  1.00  0.00    -0.500 OA
ATOM     24  H   UNL     1     -23.917 -27.810 -22.666  1.00  0.00     0.294 HD
ENDBRANCH  10  23
BRANCH   5  25
ATOM     25  O   UNL     1     -21.831 -19.875 -21.676  1.00  0.00    -0.507 OA
ATOM     26  H   UNL     1     -22.550 -19.176 -21.531  1.00  0.00     0.293 HD
ENDBRANCH   5  25
BRANCH   7  27
ATOM     27  O   UNL     1     -23.249 -23.158 -24.878  1.00  0.00    -0.507 OA
ATOM     28  H   UNL     1     -22.605 -23.266 -25.647  1.00  0.00     0.293 HD
ENDBRANCH   7  27
TORSDOF 7
ENDMDL
MODEL 7
REMARK VINA RESULT:    -7.606      1.805      7.411
REMARK INTER + INTRA:          -9.662
REMARK INTER:                  -9.442
REMARK INTRA:                  -0.220
REMARK UNBOUND:                -0.277
REMARK SMILES Oc1cc(O)c2cc(O)c(-c3cc(O)c(O)c(O)c3)[o+]c2c1
REMARK SMILES IDX 10 1 20 2 21 3 22 4 2 5 3 6 4 7 6 8 7 9 8 10 11 11 12 12
REMARK SMILES IDX 13 13 19 14 15 15 17 16 14 17 16 19 18 21 9 23 1 25 5 27
REMARK H PARENT 14 18 16 20 18 22 9 24 1 26 5 28
REMARK Flexibility Score: inf
ROOT
ATOM      1  C   UNL     1     -24.231 -25.298 -21.099  1.00  0.00     0.402 A 
ATOM      2  O   UNL     1     -23.189 -26.096 -20.880  1.00  0.00    -0.202 OA
ATOM      3  C   UNL     1     -22.968 -26.705 -19.720  1.00  0.00     0.368 A 
ATOM      4  C   UNL     1     -21.845 -27.527 -19.587  1.00  0.00     0.162 A 
ATOM      5  C   UNL     1     -21.590 -28.182 -18.378  1.00  0.00     0.128 A 
ATOM      6  C   UNL     1     -22.461 -28.014 -17.299  1.00  0.00     0.093 A 
ATOM      7  C   UNL     1     -23.592 -27.196 -17.408  1.00  0.00     0.136 A 
ATOM      8  C   UNL     1     -23.854 -26.528 -18.631  1.00  0.00     0.125 A 
ATOM      9  C   UNL     1     -24.956 -25.679 -18.826  1.00  0.00     0.078 A 
ATOM     10  C   UNL     1     -25.146 -25.049 -20.060  1.00  0.00     0.223 A 
ENDROOT
BRANCH   1  11
ATOM     11  C   UNL     1     -24.374 -24.685 -22.440  1.00  0.00     0.091 A 
ATOM     12  C   UNL     1     -24.659 -25.502 -23.544  1.00  0.00     0.068 A 
ATOM     13  C   UNL     1     -24.819 -24.945 -24.820  1.00  0.00     0.162 A 
ATOM     14  C   UNL     1     -24.287 -23.295 -22.621  1.00  0.00     0.068 A 
ATOM     15  C   UNL     1     -24.709 -23.559 -24.999  1.00  0.00     0.200 A 
ATOM     16  C   UNL     1     -24.449 -22.731 -23.895  1.00  0.00     0.162 A 
BRANCH  13  17
ATOM     17  O   UNL     1     -25.086 -25.762 -25.918  1.00  0.00    -0.504 OA
ATOM     18  H   UNL     1     -24.362 -26.325 -26.348  1.00  0.00     0.293 HD
ENDBRANCH  13  17
BRANCH  15  19
ATOM     19  O   UNL     1     -24.869 -23.022 -26.277  1.00  0.00    -0.502 OA
ATOM     20  H   UNL     1     -25.661 -23.255 -26.864  1.00  0.00     0.293 HD
ENDBRANCH  15  19
BRANCH  16  21
ATOM     21  O   UNL     1     -24.354 -21.350 -24.066  1.00  0.00    -0.504 OA
ATOM     22  H   UNL     1     -24.501 -20.917 -24.971  1.00  0.00     0.293 HD
ENDBRANCH  16  21
ENDBRANCH   1  11
BRANCH  10  23
ATOM     23  O   UNL     1     -26.212 -24.167 -20.239  1.00  0.00    -0.500 OA
ATOM     24  H   UNL     1     -27.023 -24.182 -19.631  1.00  0.00     0.294 HD
ENDBRANCH  10  23
BRANCH   5  25
ATOM     25  O   UNL     1     -20.473 -29.003 -18.238  1.00  0.00    -0.507 OA
ATOM     26  H   UNL     1     -20.555 -30.013 -18.236  1.00  0.00     0.293 HD
ENDBRANCH   5  25
BRANCH   7  27
ATOM     27  O   UNL     1     -24.415 -27.084 -16.282  1.00  0.00    -0.507 OA
ATOM     28  H   UNL     1     -25.193 -27.696 -16.082  1.00  0.00     0.293 HD
ENDBRANCH   7  27
TORSDOF 7
ENDMDL
MODEL 8
REMARK VINA RESULT:    -7.323      2.323      7.277
REMARK INTER + INTRA:          -9.312
REMARK INTER:                  -8.947
REMARK INTRA:                  -0.365
REMARK UNBOUND:                -0.277
REMARK SMILES Oc1cc(O)c2cc(O)c(-c3cc(O)c(O)c(O)c3)[o+]c2c1
REMARK SMILES IDX 10 1 20 2 21 3 22 4 2 5 3 6 4 7 6 8 7 9 8 10 11 11 12 12
REMARK SMILES IDX 13 13 19 14 15 15 17 16 14 17 16 19 18 21 9 23 1 25 5 27
REMARK H PARENT 14 18 16 20 18 22 9 24 1 26 5 28
REMARK Flexibility Score: inf
ROOT
ATOM      1  C   UNL     1     -23.775 -25.279 -22.219  1.00  0.00     0.402 A 
ATOM      2  O   UNL     1     -23.092 -26.346 -21.811  1.00  0.00    -0.202 OA
ATOM      3  C   UNL     1     -22.628 -26.486 -20.575  1.00  0.00     0.368 A 
ATOM      4  C   UNL     1     -21.924 -27.647 -20.241  1.00  0.00     0.162 A 
ATOM      5  C   UNL     1     -21.426 -27.821 -18.945  1.00  0.00     0.128 A 
ATOM      6  C   UNL     1     -21.635 -26.832 -17.981  1.00  0.00     0.093 A 
ATOM      7  C   UNL     1     -22.337 -25.661 -18.291  1.00  0.00     0.136 A 
ATOM      8  C   UNL     1     -22.841 -25.478 -19.604  1.00  0.00     0.125 A 
ATOM      9  C   UNL     1     -23.544 -24.332 -20.009  1.00  0.00     0.078 A 
ATOM     10  C   UNL     1     -24.007 -24.220 -21.323  1.00  0.00     0.223 A 
ENDROOT
BRANCH   1  11
ATOM     11  C   UNL     1     -24.249 -25.245 -23.621  1.00  0.00     0.091 A 
ATOM     12  C   UNL     1     -23.471 -24.605 -24.597  1.00  0.00     0.068 A 
ATOM     13  C   UNL     1     -23.887 -24.575 -25.935  1.00  0.00     0.162 A 
ATOM     14  C   UNL     1     -25.437 -25.889 -24.007  1.00  0.00     0.068 A 
ATOM     15  C   UNL     1     -25.084 -25.201 -26.311  1.00  0.00     0.200 A 
ATOM     16  C   UNL     1     -25.858 -25.864 -25.345  1.00  0.00     0.162 A 
BRANCH  13  17
ATOM     17  O   UNL     1     -23.117 -23.926 -26.899  1.00  0.00    -0.504 OA
ATOM     18  H   UNL     1     -22.669 -24.436 -27.651  1.00  0.00     0.293 HD
ENDBRANCH  13  17
BRANCH  15  19
ATOM     19  O   UNL     1     -25.484 -25.160 -27.647  1.00  0.00    -0.502 OA
ATOM     20  H   UNL     1     -24.861 -25.414 -28.404  1.00  0.00     0.293 HD
ENDBRANCH  15  19
BRANCH  16  21
ATOM     21  O   UNL     1     -27.041 -26.501 -25.718  1.00  0.00    -0.504 OA
ATOM     22  H   UNL     1     -27.742 -26.032 -26.281  1.00  0.00     0.293 HD
ENDBRANCH  16  21
ENDBRANCH   1  11
BRANCH  10  23
ATOM     23  O   UNL     1     -24.663 -23.060 -21.738  1.00  0.00    -0.500 OA
ATOM     24  H   UNL     1     -24.419 -22.149 -21.367  1.00  0.00     0.294 HD
ENDBRANCH  10  23
BRANCH   5  25
ATOM     25  O   UNL     1     -20.724 -28.975 -18.604  1.00  0.00    -0.507 OA
ATOM     26  H   UNL     1     -19.958 -29.317 -19.173  1.00  0.00     0.293 HD
ENDBRANCH   5  25
BRANCH   7  27
ATOM     27  O   UNL     1     -22.505 -24.722 -17.269  1.00  0.00    -0.507 OA
ATOM     28  H   UNL     1     -22.521 -24.947 -16.285  1.00  0.00     0.293 HD
ENDBRANCH   7  27
TORSDOF 7
ENDMDL
MODEL 9
REMARK VINA RESULT:    -7.250      3.803      6.987
REMARK INTER + INTRA:          -9.223
REMARK INTER:                  -8.924
REMARK INTRA:                  -0.299
REMARK UNBOUND:                -0.277
REMARK SMILES Oc1cc(O)c2cc(O)c(-c3cc(O)c(O)c(O)c3)[o+]c2c1
REMARK SMILES IDX 10 1 20 2 21 3 22 4 2 5 3 6 4 7 6 8 7 9 8 10 11 11 12 12
REMARK SMILES IDX 13 13 19 14 15 15 17 16 14 17 16 19 18 21 9 23 1 25 5 27
REMARK H PARENT 14 18 16 20 18 22 9 24 1 26 5 28
REMARK Flexibility Score: inf
ROOT
ATOM      1  C   UNL     1     -24.682 -26.893 -22.456  1.00  0.00     0.402 A 
ATOM      2  O   UNL     1     -25.171 -26.996 -21.223  1.00  0.00    -0.202 OA
ATOM      3  C   UNL     1     -24.560 -26.501 -20.152  1.00  0.00     0.368 A 
ATOM      4  C   UNL     1     -25.156 -26.658 -18.897  1.00  0.00     0.162 A 
ATOM      5  C   UNL     1     -24.536 -26.144 -17.753  1.00  0.00     0.128 A 
ATOM      6  C   UNL     1     -23.318 -25.471 -17.866  1.00  0.00     0.093 A 
ATOM      7  C   UNL     1     -22.702 -25.300 -19.112  1.00  0.00     0.136 A 
ATOM      8  C   UNL     1     -23.325 -25.822 -20.275  1.00  0.00     0.125 A 
ATOM      9  C   UNL     1     -22.774 -25.711 -21.562  1.00  0.00     0.078 A 
ATOM     10  C   UNL     1     -23.445 -26.255 -22.661  1.00  0.00     0.223 A 
ENDROOT
BRANCH   1  11
ATOM     11  C   UNL     1     -25.462 -27.478 -23.571  1.00  0.00     0.091 A 
ATOM     12  C   UNL     1     -25.636 -28.868 -23.636  1.00  0.00     0.068 A 
ATOM     13  C   UNL     1     -26.386 -29.446 -24.669  1.00  0.00     0.162 A 
ATOM     14  C   UNL     1     -26.082 -26.665 -24.535  1.00  0.00     0.068 A 
ATOM     15  C   UNL     1     -26.984 -28.632 -25.640  1.00  0.00     0.200 A 
ATOM     16  C   UNL     1     -26.836 -27.237 -25.569  1.00  0.00     0.162 A 
BRANCH  13  17
ATOM     17  O   UNL     1     -26.543 -30.829 -24.738  1.00  0.00    -0.504 OA
ATOM     18  H   UNL     1     -25.818 -31.461 -24.419  1.00  0.00     0.293 HD
ENDBRANCH  13  17
BRANCH  15  19
ATOM     19  O   UNL     1     -27.726 -29.224 -26.663  1.00  0.00    -0.502 OA
ATOM     20  H   UNL     1     -28.628 -28.865 -26.951  1.00  0.00     0.293 HD
ENDBRANCH  15  19
BRANCH  16  21
ATOM     21  O   UNL     1     -27.443 -26.422 -26.526  1.00  0.00    -0.504 OA
ATOM     22  H   UNL     1     -28.176 -25.767 -26.277  1.00  0.00     0.293 HD
ENDBRANCH  16  21
ENDBRANCH   1  11
BRANCH  10  23
ATOM     23  O   UNL     1     -22.875 -26.188 -23.933  1.00  0.00    -0.500 OA
ATOM     24  H   UNL     1     -23.411 -26.390 -24.768  1.00  0.00     0.294 HD
ENDBRANCH  10  23
BRANCH   5  25
ATOM     25  O   UNL     1     -25.123 -26.296 -16.500  1.00  0.00    -0.507 OA
ATOM     26  H   UNL     1     -25.835 -26.996 -16.329  1.00  0.00     0.293 HD
ENDBRANCH   5  25
BRANCH   7  27
ATOM     27  O   UNL     1     -21.484 -24.612 -19.140  1.00  0.00    -0.507 OA
ATOM     28  H   UNL     1     -21.386 -23.639 -19.390  1.00  0.00     0.293 HD
ENDBRANCH   7  27
TORSDOF 7
ENDMDL
