MODEL 1
REMARK VINA RESULT:    -6.944      0.000      0.000
REMARK INTER + INTRA:          -8.578
REMARK INTER:                  -8.365
REMARK INTRA:                  -0.213
REMARK UNBOUND:                -0.213
REMARK SMILES O=c1c(O)c(-c2ccc(O)c(O)c2)oc2cc(O)cc(O)c12
REMARK SMILES IDX 5 1 3 2 2 3 1 4 22 5 20 6 19 7 17 8 16 9 15 10 14 11 6 12
REMARK SMILES IDX 7 13 8 14 9 15 13 16 11 17 10 18 12 20 4 22 21 24 18 26
REMARK H PARENT 10 19 12 21 4 23 21 25 18 27
REMARK Flexibility Score: inf
ROOT
ATOM      1  C   UNL     1      30.900 -92.247  37.492  1.00  0.00     0.180 A 
ATOM      2  C   UNL     1      29.671 -92.868  37.198  1.00  0.00     0.208 A 
ATOM      3  C   UNL     1      29.549 -94.254  37.384  1.00  0.00     0.238 A 
ATOM      4  O   UNL     1      28.450 -94.819  37.134  1.00  0.00    -0.285 OA
ATOM      5  C   UNL     1      30.659 -94.996  37.838  1.00  0.00     0.111 A 
ATOM      6  C   UNL     1      30.621 -96.396  38.047  1.00  0.00     0.134 A 
ATOM      7  C   UNL     1      31.771 -97.064  38.493  1.00  0.00     0.093 A 
ATOM      8  C   UNL     1      32.957 -96.359  38.732  1.00  0.00     0.123 A 
ATOM      9  C   UNL     1      32.998 -94.980  38.528  1.00  0.00     0.094 A 
ATOM     10  C   UNL     1      31.863 -94.295  38.086  1.00  0.00     0.146 A 
ATOM     11  O   UNL     1      31.929 -92.981  37.906  1.00  0.00    -0.452 OA
ENDROOT
BRANCH   1  12
ATOM     12  C   UNL     1      31.099 -90.788  37.341  1.00  0.00     0.025 A 
ATOM     13  C   UNL     1      32.028 -90.312  36.401  1.00  0.00     0.016 A 
ATOM     14  C   UNL     1      32.248 -88.940  36.255  1.00  0.00     0.051 A 
ATOM     15  C   UNL     1      31.555 -88.024  37.058  1.00  0.00     0.157 A 
ATOM     16  C   UNL     1      30.423 -89.866  38.160  1.00  0.00     0.062 A 
ATOM     17  C   UNL     1      30.642 -88.491  38.018  1.00  0.00     0.158 A 
BRANCH  15  18
ATOM     18  O   UNL     1      31.776 -86.655  36.909  1.00  0.00    -0.504 OA
ATOM     19  H   UNL     1      32.694 -86.249  37.040  1.00  0.00     0.293 HD
ENDBRANCH  15  18
BRANCH  17  20
ATOM     20  O   UNL     1      29.948 -87.606  38.842  1.00  0.00    -0.504 OA
ATOM     21  H   UNL     1      29.764 -87.810  39.818  1.00  0.00     0.293 HD
ENDBRANCH  17  20
ENDBRANCH   1  12
BRANCH   2  22
ATOM     22  O   UNL     1      28.602 -92.118  36.702  1.00  0.00    -0.502 OA
ATOM     23  H   UNL     1      28.635 -91.108  36.629  1.00  0.00     0.293 HD
ENDBRANCH   2  22
BRANCH   6  24
ATOM     24  O   UNL     1      29.454 -97.125  37.816  1.00  0.00    -0.507 OA
ATOM     25  H   UNL     1      29.142 -97.847  38.455  1.00  0.00     0.293 HD
ENDBRANCH   6  24
BRANCH   8  26
ATOM     26  O   UNL     1      34.100 -97.022  39.174  1.00  0.00    -0.508 OA
ATOM     27  H   UNL     1      34.083 -98.008  39.410  1.00  0.00     0.293 HD
ENDBRANCH   8  26
TORSDOF 6
ENDMDL
MODEL 2
REMARK VINA RESULT:    -5.673      9.342     10.805
REMARK INTER + INTRA:          -7.047
REMARK INTER:                  -6.862
REMARK INTRA:                  -0.184
REMARK UNBOUND:                -0.213
REMARK SMILES O=c1c(O)c(-c2ccc(O)c(O)c2)oc2cc(O)cc(O)c12
REMARK SMILES IDX 5 1 3 2 2 3 1 4 22 5 20 6 19 7 17 8 16 9 15 10 14 11 6 12
REMARK SMILES IDX 7 13 8 14 9 15 13 16 11 17 10 18 12 20 4 22 21 24 18 26
REMARK H PARENT 10 19 12 21 4 23 21 25 18 27
REMARK Flexibility Score: inf
ROOT
ATOM      1  C   UNL     1      36.136 -95.345  29.879  1.00  0.00     0.180 A 
ATOM      2  C   UNL     1      37.203 -95.693  29.028  1.00  0.00     0.208 A 
ATOM      3  C   UNL     1      38.509 -95.692  29.542  1.00  0.00     0.238 A 
ATOM      4  O   UNL     1      39.471 -96.012  28.792  1.00  0.00    -0.285 OA
ATOM      5  C   UNL     1      38.728 -95.325  30.886  1.00  0.00     0.111 A 
ATOM      6  C   UNL     1      40.013 -95.293  31.480  1.00  0.00     0.134 A 
ATOM      7  C   UNL     1      40.150 -94.908  32.822  1.00  0.00     0.093 A 
ATOM      8  C   UNL     1      39.028 -94.553  33.579  1.00  0.00     0.123 A 
ATOM      9  C   UNL     1      37.760 -94.583  32.998  1.00  0.00     0.094 A 
ATOM     10  C   UNL     1      37.602 -94.966  31.663  1.00  0.00     0.146 A 
ATOM     11  O   UNL     1      36.382 -94.991  31.137  1.00  0.00    -0.452 OA
ENDROOT
BRANCH   1  12
ATOM     12  C   UNL     1      34.729 -95.342  29.417  1.00  0.00     0.025 A 
ATOM     13  C   UNL     1      34.313 -94.382  28.481  1.00  0.00     0.016 A 
ATOM     14  C   UNL     1      32.986 -94.347  28.045  1.00  0.00     0.051 A 
ATOM     15  C   UNL     1      32.052 -95.262  28.550  1.00  0.00     0.157 A 
ATOM     16  C   UNL     1      33.784 -96.244  29.937  1.00  0.00     0.062 A 
ATOM     17  C   UNL     1      32.454 -96.211  29.505  1.00  0.00     0.158 A 
BRANCH  15  18
ATOM     18  O   UNL     1      30.729 -95.225  28.112  1.00  0.00    -0.504 OA
ATOM     19  H   UNL     1      30.488 -94.927  27.175  1.00  0.00     0.293 HD
ENDBRANCH  15  18
BRANCH  17  20
ATOM     20  O   UNL     1      31.545 -97.125  30.038  1.00  0.00    -0.504 OA
ATOM     21  H   UNL     1      30.741 -96.831  30.580  1.00  0.00     0.293 HD
ENDBRANCH  17  20
ENDBRANCH   1  12
BRANCH   2  22
ATOM     22  O   UNL     1      36.963 -96.005  27.688  1.00  0.00    -0.502 OA
ATOM     23  H   UNL     1      36.180 -95.621  27.173  1.00  0.00     0.293 HD
ENDBRANCH   2  22
BRANCH   6  24
ATOM     24  O   UNL     1      41.150 -95.641  30.750  1.00  0.00    -0.507 OA
ATOM     25  H   UNL     1      41.853 -94.955  30.499  1.00  0.00     0.293 HD
ENDBRANCH   6  24
BRANCH   8  26
ATOM     26  O   UNL     1      39.163 -94.169  34.912  1.00  0.00    -0.508 OA
ATOM     27  H   UNL     1      38.356 -93.956  35.487  1.00  0.00     0.293 HD
ENDBRANCH   8  26
TORSDOF 6
ENDMDL
MODEL 3
REMARK VINA RESULT:    -5.608      9.217     10.949
REMARK INTER + INTRA:          -6.969
REMARK INTER:                  -6.799
REMARK INTRA:                  -0.170
REMARK UNBOUND:                -0.213
REMARK SMILES O=c1c(O)c(-c2ccc(O)c(O)c2)oc2cc(O)cc(O)c12
REMARK SMILES IDX 5 1 3 2 2 3 1 4 22 5 20 6 19 7 17 8 16 9 15 10 14 11 6 12
REMARK SMILES IDX 7 13 8 14 9 15 13 16 11 17 10 18 12 20 4 22 21 24 18 26
REMARK H PARENT 10 19 12 21 4 23 21 25 18 27
REMARK Flexibility Score: inf
ROOT
ATOM      1  C   UNL     1      37.368 -95.372  30.983  1.00  0.00     0.180 A 
ATOM      2  C   UNL     1      37.984 -96.111  29.955  1.00  0.00     0.208 A 
ATOM      3  C   UNL     1      37.311 -96.266  28.733  1.00  0.00     0.238 A 
ATOM      4  O   UNL     1      37.858 -96.917  27.802  1.00  0.00    -0.285 OA
ATOM      5  C   UNL     1      36.031 -95.699  28.567  1.00  0.00     0.111 A 
ATOM      6  C   UNL     1      35.284 -95.813  27.369  1.00  0.00     0.134 A 
ATOM      7  C   UNL     1      34.012 -95.227  27.285  1.00  0.00     0.093 A 
ATOM      8  C   UNL     1      33.473 -94.533  28.374  1.00  0.00     0.123 A 
ATOM      9  C   UNL     1      34.206 -94.418  29.556  1.00  0.00     0.094 A 
ATOM     10  C   UNL     1      35.476 -94.992  29.659  1.00  0.00     0.146 A 
ATOM     11  O   UNL     1      36.154 -94.863  30.795  1.00  0.00    -0.452 OA
ENDROOT
BRANCH   1  12
ATOM     12  C   UNL     1      38.023 -95.148  32.291  1.00  0.00     0.025 A 
ATOM     13  C   UNL     1      39.204 -94.390  32.352  1.00  0.00     0.016 A 
ATOM     14  C   UNL     1      39.850 -94.182  33.573  1.00  0.00     0.051 A 
ATOM     15  C   UNL     1      39.335 -94.743  34.749  1.00  0.00     0.157 A 
ATOM     16  C   UNL     1      37.522 -95.726  33.472  1.00  0.00     0.062 A 
ATOM     17  C   UNL     1      38.167 -95.522  34.696  1.00  0.00     0.158 A 
BRANCH  15  18
ATOM     18  O   UNL     1      39.982 -94.532  35.966  1.00  0.00    -0.504 OA
ATOM     19  H   UNL     1      40.281 -93.609  36.256  1.00  0.00     0.293 HD
ENDBRANCH  15  18
BRANCH  17  20
ATOM     20  O   UNL     1      37.638 -96.105  35.846  1.00  0.00    -0.504 OA
ATOM     21  H   UNL     1      37.272 -95.551  36.612  1.00  0.00     0.293 HD
ENDBRANCH  17  20
ENDBRANCH   1  12
BRANCH   2  22
ATOM     22  O   UNL     1      39.232 -96.704  30.163  1.00  0.00    -0.502 OA
ATOM     23  H   UNL     1      39.996 -96.606  29.505  1.00  0.00     0.293 HD
ENDBRANCH   2  22
BRANCH   6  24
ATOM     24  O   UNL     1      35.794 -96.499  26.266  1.00  0.00    -0.507 OA
ATOM     25  H   UNL     1      35.418 -96.366  25.335  1.00  0.00     0.293 HD
ENDBRANCH   6  24
BRANCH   8  26
ATOM     26  O   UNL     1      32.209 -93.952  28.291  1.00  0.00    -0.508 OA
ATOM     27  H   UNL     1      31.430 -94.439  27.862  1.00  0.00     0.293 HD
ENDBRANCH   8  26
TORSDOF 6
ENDMDL
MODEL 4
REMARK VINA RESULT:    -5.488      8.850     11.067
REMARK INTER + INTRA:          -6.824
REMARK INTER:                  -6.533
REMARK INTRA:                  -0.291
REMARK UNBOUND:                -0.213
REMARK SMILES O=c1c(O)c(-c2ccc(O)c(O)c2)oc2cc(O)cc(O)c12
REMARK SMILES IDX 5 1 3 2 2 3 1 4 22 5 20 6 19 7 17 8 16 9 15 10 14 11 6 12
REMARK SMILES IDX 7 13 8 14 9 15 13 16 11 17 10 18 12 20 4 22 21 24 18 26
REMARK H PARENT 10 19 12 21 4 23 21 25 18 27
REMARK Flexibility Score: inf
ROOT
ATOM      1  C   UNL     1      40.081 -95.523  35.814  1.00  0.00     0.180 A 
ATOM      2  C   UNL     1      41.259 -95.507  35.043  1.00  0.00     0.208 A 
ATOM      3  C   UNL     1      41.159 -95.339  33.653  1.00  0.00     0.238 A 
ATOM      4  O   UNL     1      42.208 -95.313  32.954  1.00  0.00    -0.285 OA
ATOM      5  C   UNL     1      39.888 -95.211  33.057  1.00  0.00     0.111 A 
ATOM      6  C   UNL     1      39.700 -95.043  31.663  1.00  0.00     0.134 A 
ATOM      7  C   UNL     1      38.401 -94.932  31.145  1.00  0.00     0.093 A 
ATOM      8  C   UNL     1      37.288 -94.986  31.994  1.00  0.00     0.123 A 
ATOM      9  C   UNL     1      37.469 -95.151  33.367  1.00  0.00     0.094 A 
ATOM     10  C   UNL     1      38.755 -95.262  33.903  1.00  0.00     0.146 A 
ATOM     11  O   UNL     1      38.898 -95.413  35.215  1.00  0.00    -0.452 OA
ENDROOT
BRANCH   1  12
ATOM     12  C   UNL     1      40.106 -95.675  37.286  1.00  0.00     0.025 A 
ATOM     13  C   UNL     1      40.256 -96.954  37.845  1.00  0.00     0.016 A 
ATOM     14  C   UNL     1      40.262 -97.125  39.232  1.00  0.00     0.051 A 
ATOM     15  C   UNL     1      40.102 -96.021  40.080  1.00  0.00     0.157 A 
ATOM     16  C   UNL     1      39.924 -94.573  38.141  1.00  0.00     0.062 A 
ATOM     17  C   UNL     1      39.928 -94.740  39.530  1.00  0.00     0.158 A 
BRANCH  15  18
ATOM     18  O   UNL     1      40.110 -96.194  41.463  1.00  0.00    -0.504 OA
ATOM     19  H   UNL     1      40.970 -96.357  41.973  1.00  0.00     0.293 HD
ENDBRANCH  15  18
BRANCH  17  20
ATOM     20  O   UNL     1      39.751 -93.624  40.347  1.00  0.00    -0.504 OA
ATOM     21  H   UNL     1      38.993 -93.561  41.017  1.00  0.00     0.293 HD
ENDBRANCH  17  20
ENDBRANCH   1  12
BRANCH   2  22
ATOM     22  O   UNL     1      42.503 -95.686  35.653  1.00  0.00    -0.502 OA
ATOM     23  H   UNL     1      43.223 -96.278  35.256  1.00  0.00     0.293 HD
ENDBRANCH   2  22
BRANCH   6  24
ATOM     24  O   UNL     1      40.789 -94.986  30.794  1.00  0.00    -0.507 OA
ATOM     25  H   UNL     1      41.722 -95.245  31.091  1.00  0.00     0.293 HD
ENDBRANCH   6  24
BRANCH   8  26
ATOM     26  O   UNL     1      35.998 -94.877  31.479  1.00  0.00    -0.508 OA
ATOM     27  H   UNL     1      35.331 -94.214  31.858  1.00  0.00     0.293 HD
ENDBRANCH   8  26
TORSDOF 6
ENDMDL
MODEL 5
REMARK VINA RESULT:    -5.424      1.247      3.018
REMARK INTER + INTRA:          -6.747
REMARK INTER:                  -6.627
REMARK INTRA:                  -0.120
REMARK UNBOUND:                -0.213
REMARK SMILES O=c1c(O)c(-c2ccc(O)c(O)c2)oc2cc(O)cc(O)c12
REMARK SMILES IDX 5 1 3 2 2 3 1 4 22 5 20 6 19 7 17 8 16 9 15 10 14 11 6 12
REMARK SMILES IDX 7 13 8 14 9 15 13 16 11 17 10 18 12 20 4 22 21 24 18 26
REMARK H PARENT 10 19 12 21 4 23 21 25 18 27
REMARK Flexibility Score: inf
ROOT
ATOM      1  C   UNL     1      30.900 -92.089  37.389  1.00  0.00     0.180 A 
ATOM      2  C   UNL     1      31.950 -92.946  37.772  1.00  0.00     0.208 A 
ATOM      3  C   UNL     1      31.688 -94.317  37.917  1.00  0.00     0.238 A 
ATOM      4  O   UNL     1      32.622 -95.096  38.250  1.00  0.00    -0.285 OA
ATOM      5  C   UNL     1      30.382 -94.804  37.698  1.00  0.00     0.111 A 
ATOM      6  C   UNL     1      30.034 -96.170  37.828  1.00  0.00     0.134 A 
ATOM      7  C   UNL     1      28.710 -96.575  37.601  1.00  0.00     0.093 A 
ATOM      8  C   UNL     1      27.729 -95.639  37.249  1.00  0.00     0.123 A 
ATOM      9  C   UNL     1      28.069 -94.293  37.120  1.00  0.00     0.094 A 
ATOM     10  C   UNL     1      29.383 -93.869  37.339  1.00  0.00     0.146 A 
ATOM     11  O   UNL     1      29.678 -92.581  37.204  1.00  0.00    -0.452 OA
ENDROOT
BRANCH   1  12
ATOM     12  C   UNL     1      31.103 -90.635  37.195  1.00  0.00     0.025 A 
ATOM     13  C   UNL     1      32.019 -90.188  36.230  1.00  0.00     0.016 A 
ATOM     14  C   UNL     1      32.241 -88.822  36.043  1.00  0.00     0.051 A 
ATOM     15  C   UNL     1      31.563 -87.882  36.831  1.00  0.00     0.157 A 
ATOM     16  C   UNL     1      30.441 -89.689  37.999  1.00  0.00     0.062 A 
ATOM     17  C   UNL     1      30.662 -88.320  37.817  1.00  0.00     0.158 A 
BRANCH  15  18
ATOM     18  O   UNL     1      31.786 -86.519  36.642  1.00  0.00    -0.504 OA
ATOM     19  H   UNL     1      31.642 -86.077  35.742  1.00  0.00     0.293 HD
ENDBRANCH  15  18
BRANCH  17  20
ATOM     20  O   UNL     1      29.983 -87.410  38.627  1.00  0.00    -0.504 OA
ATOM     21  H   UNL     1      30.430 -86.578  38.993  1.00  0.00     0.293 HD
ENDBRANCH  17  20
ENDBRANCH   1  12
BRANCH   2  22
ATOM     22  O   UNL     1      33.222 -92.431  38.031  1.00  0.00    -0.502 OA
ATOM     23  H   UNL     1      33.376 -91.659  38.667  1.00  0.00     0.293 HD
ENDBRANCH   2  22
BRANCH   6  24
ATOM     24  O   UNL     1      30.989 -97.125  38.178  1.00  0.00    -0.507 OA
ATOM     25  H   UNL     1      30.758 -98.109  38.248  1.00  0.00     0.293 HD
ENDBRANCH   6  24
BRANCH   8  26
ATOM     26  O   UNL     1      26.414 -96.041  37.025  1.00  0.00    -0.508 OA
ATOM     27  H   UNL     1      25.675 -95.828  37.686  1.00  0.00     0.293 HD
ENDBRANCH   8  26
TORSDOF 6
ENDMDL
MODEL 6
REMARK VINA RESULT:    -5.343     15.058     16.718
REMARK INTER + INTRA:          -6.649
REMARK INTER:                  -6.493
REMARK INTRA:                  -0.156
REMARK UNBOUND:                -0.213
REMARK SMILES O=c1c(O)c(-c2ccc(O)c(O)c2)oc2cc(O)cc(O)c12
REMARK SMILES IDX 5 1 3 2 2 3 1 4 22 5 20 6 19 7 17 8 16 9 15 10 14 11 6 12
REMARK SMILES IDX 7 13 8 14 9 15 13 16 11 17 10 18 12 20 4 22 21 24 18 26
REMARK H PARENT 10 19 12 21 4 23 21 25 18 27
REMARK Flexibility Score: inf
ROOT
ATOM      1  C   UNL     1      37.288 -77.927  37.682  1.00  0.00     0.180 A 
ATOM      2  C   UNL     1      37.869 -77.809  36.405  1.00  0.00     0.208 A 
ATOM      3  C   UNL     1      37.031 -77.742  35.281  1.00  0.00     0.238 A 
ATOM      4  O   UNL     1      37.540 -77.626  34.134  1.00  0.00    -0.285 OA
ATOM      5  C   UNL     1      35.633 -77.816  35.450  1.00  0.00     0.111 A 
ATOM      6  C   UNL     1      34.719 -77.761  34.370  1.00  0.00     0.134 A 
ATOM      7  C   UNL     1      33.341 -77.849  34.619  1.00  0.00     0.093 A 
ATOM      8  C   UNL     1      32.862 -77.993  35.926  1.00  0.00     0.123 A 
ATOM      9  C   UNL     1      33.758 -78.047  36.993  1.00  0.00     0.094 A 
ATOM     10  C   UNL     1      35.135 -77.958  36.767  1.00  0.00     0.146 A 
ATOM     11  O   UNL     1      35.965 -78.007  37.802  1.00  0.00    -0.452 OA
ENDROOT
BRANCH   1  12
ATOM     12  C   UNL     1      38.104 -77.983  38.916  1.00  0.00     0.025 A 
ATOM     13  C   UNL     1      38.893 -76.877  39.272  1.00  0.00     0.016 A 
ATOM     14  C   UNL     1      39.687 -76.914  40.421  1.00  0.00     0.051 A 
ATOM     15  C   UNL     1      39.716 -78.063  41.223  1.00  0.00     0.157 A 
ATOM     16  C   UNL     1      38.153 -79.142  39.712  1.00  0.00     0.062 A 
ATOM     17  C   UNL     1      38.948 -79.183  40.863  1.00  0.00     0.158 A 
BRANCH  15  18
ATOM     18  O   UNL     1      40.509 -78.097  42.370  1.00  0.00    -0.504 OA
ATOM     19  H   UNL     1      41.343 -78.668  42.422  1.00  0.00     0.293 HD
ENDBRANCH  15  18
BRANCH  17  20
ATOM     20  O   UNL     1      38.967 -80.346  41.631  1.00  0.00    -0.504 OA
ATOM     21  H   UNL     1      39.804 -80.665  42.106  1.00  0.00     0.293 HD
ENDBRANCH  17  20
ENDBRANCH   1  12
BRANCH   2  22
ATOM     22  O   UNL     1      39.258 -77.788  36.262  1.00  0.00    -0.502 OA
ATOM     23  H   UNL     1      39.865 -77.314  36.920  1.00  0.00     0.293 HD
ENDBRANCH   2  22
BRANCH   6  24
ATOM     24  O   UNL     1      35.168 -77.619  33.056  1.00  0.00    -0.507 OA
ATOM     25  H   UNL     1      34.652 -77.078  32.372  1.00  0.00     0.293 HD
ENDBRANCH   6  24
BRANCH   8  26
ATOM     26  O   UNL     1      31.493 -78.082  36.174  1.00  0.00    -0.508 OA
ATOM     27  H   UNL     1      31.136 -78.456  37.046  1.00  0.00     0.293 HD
ENDBRANCH   8  26
TORSDOF 6
ENDMDL
MODEL 7
REMARK VINA RESULT:    -5.332      7.899     10.608
REMARK INTER + INTRA:          -6.636
REMARK INTER:                  -6.352
REMARK INTRA:                  -0.284
REMARK UNBOUND:                -0.213
REMARK SMILES O=c1c(O)c(-c2ccc(O)c(O)c2)oc2cc(O)cc(O)c12
REMARK SMILES IDX 5 1 3 2 2 3 1 4 22 5 20 6 19 7 17 8 16 9 15 10 14 11 6 12
REMARK SMILES IDX 7 13 8 14 9 15 13 16 11 17 10 18 12 20 4 22 21 24 18 26
REMARK H PARENT 10 19 12 21 4 23 21 25 18 27
REMARK Flexibility Score: inf
ROOT
ATOM      1  C   UNL     1      39.805 -95.354  35.231  1.00  0.00     0.180 A 
ATOM      2  C   UNL     1      40.849 -94.981  36.100  1.00  0.00     0.208 A 
ATOM      3  C   UNL     1      40.652 -95.094  37.485  1.00  0.00     0.238 A 
ATOM      4  O   UNL     1      41.583 -94.773  38.272  1.00  0.00    -0.285 OA
ATOM      5  C   UNL     1      39.414 -95.554  37.977  1.00  0.00     0.111 A 
ATOM      6  C   UNL     1      39.132 -95.692  39.358  1.00  0.00     0.134 A 
ATOM      7  C   UNL     1      37.871 -96.150  39.769  1.00  0.00     0.093 A 
ATOM      8  C   UNL     1      36.888 -96.470  38.826  1.00  0.00     0.123 A 
ATOM      9  C   UNL     1      37.161 -96.336  37.465  1.00  0.00     0.094 A 
ATOM     10  C   UNL     1      38.411 -95.884  37.034  1.00  0.00     0.146 A 
ATOM     11  O   UNL     1      38.646 -95.771  35.732  1.00  0.00    -0.452 OA
ENDROOT
BRANCH   1  12
ATOM     12  C   UNL     1      39.944 -95.283  33.759  1.00  0.00     0.025 A 
ATOM     13  C   UNL     1      39.267 -94.278  33.050  1.00  0.00     0.016 A 
ATOM     14  C   UNL     1      39.367 -94.204  31.658  1.00  0.00     0.051 A 
ATOM     15  C   UNL     1      40.132 -95.143  30.954  1.00  0.00     0.157 A 
ATOM     16  C   UNL     1      40.693 -96.237  33.046  1.00  0.00     0.062 A 
ATOM     17  C   UNL     1      40.794 -96.167  31.652  1.00  0.00     0.158 A 
BRANCH  15  18
ATOM     18  O   UNL     1      40.231 -95.065  29.565  1.00  0.00    -0.504 OA
ATOM     19  H   UNL     1      40.044 -95.866  28.974  1.00  0.00     0.293 HD
ENDBRANCH  15  18
BRANCH  17  20
ATOM     20  O   UNL     1      41.551 -97.125  30.979  1.00  0.00    -0.504 OA
ATOM     21  H   UNL     1      42.253 -97.684  31.449  1.00  0.00     0.293 HD
ENDBRANCH  17  20
ENDBRANCH   1  12
BRANCH   2  22
ATOM     22  O   UNL     1      42.048 -94.481  35.588  1.00  0.00    -0.502 OA
ATOM     23  H   UNL     1      42.945 -94.904  35.795  1.00  0.00     0.293 HD
ENDBRANCH   2  22
BRANCH   6  24
ATOM     24  O   UNL     1      40.093 -95.380  40.321  1.00  0.00    -0.507 OA
ATOM     25  H   UNL     1      40.967 -95.888  40.386  1.00  0.00     0.293 HD
ENDBRANCH   6  24
BRANCH   8  26
ATOM     26  O   UNL     1      35.634 -96.923  39.233  1.00  0.00    -0.508 OA
ATOM     27  H   UNL     1      35.344 -96.878  40.204  1.00  0.00     0.293 HD
ENDBRANCH   8  26
TORSDOF 6
ENDMDL
MODEL 8
REMARK VINA RESULT:    -5.264      9.043     10.425
REMARK INTER + INTRA:          -6.554
REMARK INTER:                  -6.256
REMARK INTRA:                  -0.298
REMARK UNBOUND:                -0.213
REMARK SMILES O=c1c(O)c(-c2ccc(O)c(O)c2)oc2cc(O)cc(O)c12
REMARK SMILES IDX 5 1 3 2 2 3 1 4 22 5 20 6 19 7 17 8 16 9 15 10 14 11 6 12
REMARK SMILES IDX 7 13 8 14 9 15 13 16 11 17 10 18 12 20 4 22 21 24 18 26
REMARK H PARENT 10 19 12 21 4 23 21 25 18 27
REMARK Flexibility Score: inf
ROOT
ATOM      1  C   UNL     1      35.401 -95.709  29.949  1.00  0.00     0.180 A 
ATOM      2  C   UNL     1      35.216 -95.269  28.624  1.00  0.00     0.208 A 
ATOM      3  C   UNL     1      33.920 -95.263  28.086  1.00  0.00     0.238 A 
ATOM      4  O   UNL     1      33.741 -94.862  26.904  1.00  0.00    -0.285 OA
ATOM      5  C   UNL     1      32.838 -95.713  28.870  1.00  0.00     0.111 A 
ATOM      6  C   UNL     1      31.502 -95.743  28.402  1.00  0.00     0.134 A 
ATOM      7  C   UNL     1      30.481 -96.214  29.241  1.00  0.00     0.093 A 
ATOM      8  C   UNL     1      30.771 -96.655  30.537  1.00  0.00     0.123 A 
ATOM      9  C   UNL     1      32.086 -96.627  31.003  1.00  0.00     0.094 A 
ATOM     10  C   UNL     1      33.117 -96.160  30.184  1.00  0.00     0.146 A 
ATOM     11  O   UNL     1      34.359 -96.139  30.655  1.00  0.00    -0.452 OA
ENDROOT
BRANCH   1  12
ATOM     12  C   UNL     1      36.734 -95.726  30.594  1.00  0.00     0.025 A 
ATOM     13  C   UNL     1      37.608 -96.797  30.345  1.00  0.00     0.016 A 
ATOM     14  C   UNL     1      38.862 -96.844  30.957  1.00  0.00     0.051 A 
ATOM     15  C   UNL     1      39.256 -95.830  31.841  1.00  0.00     0.157 A 
ATOM     16  C   UNL     1      37.125 -94.721  31.498  1.00  0.00     0.062 A 
ATOM     17  C   UNL     1      38.380 -94.766  32.115  1.00  0.00     0.158 A 
BRANCH  15  18
ATOM     18  O   UNL     1      40.509 -95.880  32.449  1.00  0.00    -0.504 OA
ATOM     19  H   UNL     1      40.835 -96.711  32.927  1.00  0.00     0.293 HD
ENDBRANCH  15  18
BRANCH  17  20
ATOM     20  O   UNL     1      38.737 -93.750  33.000  1.00  0.00    -0.504 OA
ATOM     21  H   UNL     1      38.666 -92.770  32.752  1.00  0.00     0.293 HD
ENDBRANCH  17  20
ENDBRANCH   1  12
BRANCH   2  22
ATOM     22  O   UNL     1      36.312 -94.875  27.853  1.00  0.00    -0.502 OA
ATOM     23  H   UNL     1      37.245 -95.237  28.009  1.00  0.00     0.293 HD
ENDBRANCH   2  22
BRANCH   6  24
ATOM     24  O   UNL     1      31.183 -95.310  27.114  1.00  0.00    -0.507 OA
ATOM     25  H   UNL     1      30.337 -94.787  26.923  1.00  0.00     0.293 HD
ENDBRANCH   6  24
BRANCH   8  26
ATOM     26  O   UNL     1      29.757 -97.124  31.371  1.00  0.00    -0.508 OA
ATOM     27  H   UNL     1      28.875 -96.633  31.460  1.00  0.00     0.293 HD
ENDBRANCH   8  26
TORSDOF 6
ENDMDL
MODEL 9
REMARK VINA RESULT:    -5.119     15.950     17.890
REMARK INTER + INTRA:          -6.379
REMARK INTER:                  -6.312
REMARK INTRA:                  -0.067
REMARK UNBOUND:                -0.213
REMARK SMILES O=c1c(O)c(-c2ccc(O)c(O)c2)oc2cc(O)cc(O)c12
REMARK SMILES IDX 5 1 3 2 2 3 1 4 22 5 20 6 19 7 17 8 16 9 15 10 14 11 6 12
REMARK SMILES IDX 7 13 8 14 9 15 13 16 11 17 10 18 12 20 4 22 21 24 18 26
REMARK H PARENT 10 19 12 21 4 23 21 25 18 27
REMARK Flexibility Score: inf
ROOT
ATOM      1  C   UNL     1      38.751 -77.545  36.123  1.00  0.00     0.180 A 
ATOM      2  C   UNL     1      37.421 -77.411  35.682  1.00  0.00     0.208 A 
ATOM      3  C   UNL     1      37.172 -77.281  34.306  1.00  0.00     0.238 A 
ATOM      4  O   UNL     1      35.984 -77.170  33.899  1.00  0.00    -0.285 OA
ATOM      5  C   UNL     1      38.253 -77.267  33.401  1.00  0.00     0.111 A 
ATOM      6  C   UNL     1      38.088 -77.136  32.001  1.00  0.00     0.134 A 
ATOM      7  C   UNL     1      39.215 -77.123  31.166  1.00  0.00     0.093 A 
ATOM      8  C   UNL     1      40.502 -77.236  31.705  1.00  0.00     0.123 A 
ATOM      9  C   UNL     1      40.669 -77.366  33.084  1.00  0.00     0.094 A 
ATOM     10  C   UNL     1      39.559 -77.384  33.933  1.00  0.00     0.146 A 
ATOM     11  O   UNL     1      39.747 -77.515  35.241  1.00  0.00    -0.452 OA
ENDROOT
BRANCH   1  12
ATOM     12  C   UNL     1      39.093 -77.707  37.554  1.00  0.00     0.025 A 
ATOM     13  C   UNL     1      40.067 -76.875  38.130  1.00  0.00     0.016 A 
ATOM     14  C   UNL     1      40.420 -77.022  39.473  1.00  0.00     0.051 A 
ATOM     15  C   UNL     1      39.817 -78.014  40.258  1.00  0.00     0.157 A 
ATOM     16  C   UNL     1      38.505 -78.715  38.340  1.00  0.00     0.062 A 
ATOM     17  C   UNL     1      38.858 -78.867  39.685  1.00  0.00     0.158 A 
BRANCH  15  18
ATOM     18  O   UNL     1      40.170 -78.158  41.599  1.00  0.00    -0.504 OA
ATOM     19  H   UNL     1      40.653 -77.423  42.102  1.00  0.00     0.293 HD
ENDBRANCH  15  18
BRANCH  17  20
ATOM     20  O   UNL     1      38.250 -79.873  40.435  1.00  0.00    -0.504 OA
ATOM     21  H   UNL     1      38.009 -80.773  40.035  1.00  0.00     0.293 HD
ENDBRANCH  17  20
ENDBRANCH   1  12
BRANCH   2  22
ATOM     22  O   UNL     1      36.372 -77.377  36.603  1.00  0.00    -0.502 OA
ATOM     23  H   UNL     1      36.458 -77.757  37.538  1.00  0.00     0.293 HD
ENDBRANCH   2  22
BRANCH   6  24
ATOM     24  O   UNL     1      36.818 -77.020  31.435  1.00  0.00    -0.507 OA
ATOM     25  H   UNL     1      36.145 -76.340  31.770  1.00  0.00     0.293 HD
ENDBRANCH   6  24
BRANCH   8  26
ATOM     26  O   UNL     1      41.623 -77.222  30.876  1.00  0.00    -0.508 OA
ATOM     27  H   UNL     1      42.066 -78.080  30.570  1.00  0.00     0.293 HD
ENDBRANCH   8  26
TORSDOF 6
ENDMDL
