MODEL 1
REMARK VINA RESULT:    -4.423      0.000      0.000
REMARK INTER + INTRA:         -15.103
REMARK INTER:                 -11.147
REMARK INTRA:                  -3.956
REMARK UNBOUND:                -3.956
REMARK SMILES CCCCCCCCCCCCCCCCCCCCCCCCCCCC(=O)[O-]
REMARK SMILES IDX 15 1 16 2 17 3 18 4 19 5 20 6 21 7 22 8 23 9 24 10 25 11
REMARK SMILES IDX 26 12 27 13 28 14 29 15 30 16 14 17 13 18 12 19 11 20 10 21
REMARK SMILES IDX 9 22 8 23 7 24 6 25 5 26 4 27 3 28 2 29 1 30
REMARK H PARENT
REMARK Flexibility Score: inf
ROOT
ATOM      1  C   UNL     1       0.880  18.883  30.359  1.00  0.00     0.000 C 
ENDROOT
BRANCH   1   2
ATOM      2  C   UNL     1      -0.324  18.588  29.447  1.00  0.00     0.000 C 
BRANCH   2   3
ATOM      3  C   UNL     1      -0.242  17.269  28.652  1.00  0.00     0.000 C 
BRANCH   3   4
ATOM      4  C   UNL     1       0.716  17.291  27.447  1.00  0.00     0.000 C 
BRANCH   4   5
ATOM      5  C   UNL     1       1.765  16.173  27.502  1.00  0.00     0.000 C 
BRANCH   5   6
ATOM      6  C   UNL     1       3.157  16.707  27.127  1.00  0.00     0.000 C 
BRANCH   6   7
ATOM      7  C   UNL     1       4.283  16.054  27.943  1.00  0.00     0.000 C 
BRANCH   7   8
ATOM      8  C   UNL     1       3.978  16.012  29.448  1.00  0.00     0.000 C 
BRANCH   8   9
ATOM      9  C   UNL     1       4.131  14.586  30.001  1.00  0.00     0.000 C 
BRANCH   9  10
ATOM     10  C   UNL     1       2.990  14.200  30.955  1.00  0.00     0.000 C 
BRANCH  10  11
ATOM     11  C   UNL     1       1.900  15.283  31.043  1.00  0.00     0.000 C 
BRANCH  11  12
ATOM     12  C   UNL     1       0.504  14.699  31.330  1.00  0.00     0.006 C 
BRANCH  12  13
ATOM     13  C   UNL     1       0.328  13.241  30.878  1.00  0.00     0.053 C 
BRANCH  13  14
ATOM     14  C   UNL     1      -0.947  13.038  30.119  1.00  0.00     0.041 C 
ATOM     15  O   UNL     1      -1.568  14.028  29.648  1.00  0.00    -0.550 OA
ATOM     16  O   UNL     1      -1.433  11.756  29.905  1.00  0.00    -0.550 OA
ENDBRANCH  13  14
ENDBRANCH  12  13
ENDBRANCH  11  12
ENDBRANCH  10  11
ENDBRANCH   9  10
ENDBRANCH   8   9
ENDBRANCH   7   8
ENDBRANCH   6   7
ENDBRANCH   5   6
ENDBRANCH   4   5
ENDBRANCH   3   4
ENDBRANCH   2   3
ENDBRANCH   1   2
BRANCH   1  17
ATOM     17  C   UNL     1       1.741  20.051  29.851  1.00  0.00     0.000 C 
BRANCH  17  18
ATOM     18  C   UNL     1       3.223  19.673  29.678  1.00  0.00     0.000 C 
BRANCH  18  19
ATOM     19  C   UNL     1       3.784  19.850  28.253  1.00  0.00     0.000 C 
BRANCH  19  20
ATOM     20  C   UNL     1       5.181  20.497  28.175  1.00  0.00     0.000 C 
BRANCH  20  21
ATOM     21  C   UNL     1       6.080  20.258  29.404  1.00  0.00     0.000 C 
BRANCH  21  22
ATOM     22  C   UNL     1       6.892  21.485  29.860  1.00  0.00    -0.000 C 
BRANCH  22  23
ATOM     23  C   UNL     1       6.798  22.660  28.871  1.00  0.00    -0.000 C 
BRANCH  23  24
ATOM     24  C   UNL     1       8.178  23.216  28.483  1.00  0.00    -0.000 C 
BRANCH  24  25
ATOM     25  C   UNL     1       9.281  22.146  28.547  1.00  0.00    -0.000 C 
BRANCH  25  26
ATOM     26  C   UNL     1       9.674  21.622  27.157  1.00  0.00    -0.000 C 
BRANCH  26  27
ATOM     27  C   UNL     1       9.049  20.251  26.840  1.00  0.00    -0.000 C 
BRANCH  27  28
ATOM     28  C   UNL     1       9.868  19.087  27.437  1.00  0.00    -0.000 C 
BRANCH  28  29
ATOM     29  C   UNL     1      11.386  19.334  27.430  1.00  0.00    -0.003 C 
ATOM     30  C   UNL     1      12.013  19.250  28.820  1.00  0.00     0.004 C 
ENDBRANCH  28  29
ENDBRANCH  27  28
ENDBRANCH  26  27
ENDBRANCH  25  26
ENDBRANCH  24  25
ENDBRANCH  23  24
ENDBRANCH  22  23
ENDBRANCH  21  22
ENDBRANCH  20  21
ENDBRANCH  19  20
ENDBRANCH  18  19
ENDBRANCH  17  18
ENDBRANCH   1  17
TORSDOF 26
ENDMDL
MODEL 2
REMARK VINA RESULT:    -4.402      2.881      8.400
REMARK INTER + INTRA:         -15.048
REMARK INTER:                 -10.371
REMARK INTRA:                  -4.677
REMARK UNBOUND:                -3.956
REMARK SMILES CCCCCCCCCCCCCCCCCCCCCCCCCCCC(=O)[O-]
REMARK SMILES IDX 15 1 16 2 17 3 18 4 19 5 20 6 21 7 22 8 23 9 24 10 25 11
REMARK SMILES IDX 26 12 27 13 28 14 29 15 30 16 14 17 13 18 12 19 11 20 10 21
REMARK SMILES IDX 9 22 8 23 7 24 6 25 5 26 4 27 3 28 2 29 1 30
REMARK H PARENT
REMARK Flexibility Score: inf
ROOT
ATOM      1  C   UNL     1       2.724  19.848  29.097  1.00  0.00     0.000 C 
ENDROOT
BRANCH   1   2
ATOM      2  C   UNL     1       4.092  19.864  28.393  1.00  0.00     0.000 C 
BRANCH   2   3
ATOM      3  C   UNL     1       5.288  19.429  29.265  1.00  0.00     0.000 C 
BRANCH   3   4
ATOM      4  C   UNL     1       6.082  20.582  29.906  1.00  0.00     0.000 C 
BRANCH   4   5
ATOM      5  C   UNL     1       5.773  21.943  29.269  1.00  0.00     0.000 C 
BRANCH   5   6
ATOM      6  C   UNL     1       6.773  22.265  28.148  1.00  0.00     0.000 C 
BRANCH   6   7
ATOM      7  C   UNL     1       8.021  23.001  28.659  1.00  0.00     0.000 C 
BRANCH   7   8
ATOM      8  C   UNL     1       9.300  22.586  27.916  1.00  0.00     0.000 C 
BRANCH   8   9
ATOM      9  C   UNL     1       9.969  21.385  28.604  1.00  0.00     0.000 C 
BRANCH   9  10
ATOM     10  C   UNL     1      10.608  20.413  27.599  1.00  0.00     0.000 C 
BRANCH  10  11
ATOM     11  C   UNL     1       9.568  19.740  26.685  1.00  0.00     0.000 C 
BRANCH  11  12
ATOM     12  C   UNL     1       8.461  19.018  27.475  1.00  0.00     0.006 C 
BRANCH  12  13
ATOM     13  C   UNL     1       8.923  17.725  28.165  1.00  0.00     0.053 C 
BRANCH  13  14
ATOM     14  C   UNL     1       8.507  16.504  27.406  1.00  0.00     0.041 C 
ATOM     15  O   UNL     1       9.376  15.737  26.913  1.00  0.00    -0.550 OA
ATOM     16  O   UNL     1       7.160  16.195  27.269  1.00  0.00    -0.550 OA
ENDBRANCH  13  14
ENDBRANCH  12  13
ENDBRANCH  11  12
ENDBRANCH  10  11
ENDBRANCH   9  10
ENDBRANCH   8   9
ENDBRANCH   7   8
ENDBRANCH   6   7
ENDBRANCH   5   6
ENDBRANCH   4   5
ENDBRANCH   3   4
ENDBRANCH   2   3
ENDBRANCH   1   2
BRANCH   1  17
ATOM     17  C   UNL     1       2.689  18.904  30.311  1.00  0.00     0.000 C 
BRANCH  17  18
ATOM     18  C   UNL     1       1.259  18.508  30.721  1.00  0.00     0.000 C 
BRANCH  18  19
ATOM     19  C   UNL     1       0.136  19.350  30.083  1.00  0.00     0.000 C 
BRANCH  19  20
ATOM     20  C   UNL     1      -0.810  18.575  29.143  1.00  0.00     0.000 C 
BRANCH  20  21
ATOM     21  C   UNL     1      -0.268  17.221  28.644  1.00  0.00     0.000 C 
BRANCH  21  22
ATOM     22  C   UNL     1       0.626  17.304  27.393  1.00  0.00    -0.000 C 
BRANCH  22  23
ATOM     23  C   UNL     1       1.614  16.129  27.290  1.00  0.00    -0.000 C 
BRANCH  23  24
ATOM     24  C   UNL     1       3.081  16.586  27.339  1.00  0.00    -0.000 C 
BRANCH  24  25
ATOM     25  C   UNL     1       3.849  15.969  28.521  1.00  0.00    -0.000 C 
BRANCH  25  26
ATOM     26  C   UNL     1       3.802  14.433  28.514  1.00  0.00    -0.000 C 
BRANCH  26  27
ATOM     27  C   UNL     1       3.091  13.854  29.751  1.00  0.00    -0.000 C 
BRANCH  27  28
ATOM     28  C   UNL     1       2.635  14.958  30.729  1.00  0.00    -0.000 C 
BRANCH  28  29
ATOM     29  C   UNL     1       1.150  14.861  31.119  1.00  0.00    -0.003 C 
ATOM     30  C   UNL     1       0.355  13.917  30.220  1.00  0.00     0.004 C 
ENDBRANCH  28  29
ENDBRANCH  27  28
ENDBRANCH  26  27
ENDBRANCH  25  26
ENDBRANCH  24  25
ENDBRANCH  23  24
ENDBRANCH  22  23
ENDBRANCH  21  22
ENDBRANCH  20  21
ENDBRANCH  19  20
ENDBRANCH  18  19
ENDBRANCH  17  18
ENDBRANCH   1  17
TORSDOF 26
ENDMDL
MODEL 3
REMARK VINA RESULT:    -4.369      1.085      2.663
REMARK INTER + INTRA:         -14.967
REMARK INTER:                 -10.401
REMARK INTRA:                  -4.566
REMARK UNBOUND:                -3.956
REMARK SMILES CCCCCCCCCCCCCCCCCCCCCCCCCCCC(=O)[O-]
REMARK SMILES IDX 15 1 16 2 17 3 18 4 19 5 20 6 21 7 22 8 23 9 24 10 25 11
REMARK SMILES IDX 26 12 27 13 28 14 29 15 30 16 14 17 13 18 12 19 11 20 10 21
REMARK SMILES IDX 9 22 8 23 7 24 6 25 5 26 4 27 3 28 2 29 1 30
REMARK H PARENT
REMARK Flexibility Score: inf
ROOT
ATOM      1  C   UNL     1      -0.161  17.267  28.932  1.00  0.00     0.000 C 
ENDROOT
BRANCH   1   2
ATOM      2  C   UNL     1       0.503  17.301  27.544  1.00  0.00     0.000 C 
BRANCH   2   3
ATOM      3  C   UNL     1       1.970  16.828  27.503  1.00  0.00     0.000 C 
BRANCH   3   4
ATOM      4  C   UNL     1       2.166  15.327  27.229  1.00  0.00     0.000 C 
BRANCH   4   5
ATOM      5  C   UNL     1       3.631  14.959  26.955  1.00  0.00     0.000 C 
BRANCH   5   6
ATOM      6  C   UNL     1       4.525  16.208  26.983  1.00  0.00     0.000 C 
BRANCH   6   7
ATOM      7  C   UNL     1       5.693  16.081  27.974  1.00  0.00     0.000 C 
BRANCH   7   8
ATOM      8  C   UNL     1       5.275  15.433  29.302  1.00  0.00     0.000 C 
BRANCH   8   9
ATOM      9  C   UNL     1       4.667  16.475  30.255  1.00  0.00     0.000 C 
BRANCH   9  10
ATOM     10  C   UNL     1       3.840  15.832  31.380  1.00  0.00     0.000 C 
BRANCH  10  11
ATOM     11  C   UNL     1       2.340  15.763  31.046  1.00  0.00     0.000 C 
BRANCH  11  12
ATOM     12  C   UNL     1       1.746  14.359  31.263  1.00  0.00     0.006 C 
BRANCH  12  13
ATOM     13  C   UNL     1       0.836  13.878  30.121  1.00  0.00     0.053 C 
BRANCH  13  14
ATOM     14  C   UNL     1      -0.494  13.409  30.623  1.00  0.00     0.041 C 
ATOM     15  O   UNL     1      -0.633  13.072  31.829  1.00  0.00    -0.550 OA
ATOM     16  O   UNL     1      -1.587  13.374  29.768  1.00  0.00    -0.550 OA
ENDBRANCH  13  14
ENDBRANCH  12  13
ENDBRANCH  11  12
ENDBRANCH  10  11
ENDBRANCH   9  10
ENDBRANCH   8   9
ENDBRANCH   7   8
ENDBRANCH   6   7
ENDBRANCH   5   6
ENDBRANCH   4   5
ENDBRANCH   3   4
ENDBRANCH   2   3
ENDBRANCH   1   2
BRANCH   1  17
ATOM     17  C   UNL     1      -1.192  18.390  29.127  1.00  0.00     0.000 C 
BRANCH  17  18
ATOM     18  C   UNL     1      -0.625  19.596  29.898  1.00  0.00     0.000 C 
BRANCH  18  19
ATOM     19  C   UNL     1       0.802  19.409  30.451  1.00  0.00     0.000 C 
BRANCH  19  20
ATOM     20  C   UNL     1       1.885  20.273  29.774  1.00  0.00     0.000 C 
BRANCH  20  21
ATOM     21  C   UNL     1       3.284  19.629  29.703  1.00  0.00     0.000 C 
BRANCH  21  22
ATOM     22  C   UNL     1       3.972  19.728  28.330  1.00  0.00    -0.000 C 
BRANCH  22  23
ATOM     23  C   UNL     1       5.323  20.462  28.393  1.00  0.00    -0.000 C 
BRANCH  23  24
ATOM     24  C   UNL     1       6.432  19.605  29.024  1.00  0.00    -0.000 C 
BRANCH  24  25
ATOM     25  C   UNL     1       7.266  20.388  30.052  1.00  0.00    -0.000 C 
BRANCH  25  26
ATOM     26  C   UNL     1       7.288  21.898  29.763  1.00  0.00    -0.000 C 
BRANCH  26  27
ATOM     27  C   UNL     1       8.576  22.347  29.049  1.00  0.00    -0.000 C 
BRANCH  27  28
ATOM     28  C   UNL     1       9.784  21.459  29.415  1.00  0.00    -0.000 C 
BRANCH  28  29
ATOM     29  C   UNL     1      10.358  20.677  28.221  1.00  0.00    -0.003 C 
ATOM     30  C   UNL     1       9.918  21.238  26.870  1.00  0.00     0.004 C 
ENDBRANCH  28  29
ENDBRANCH  27  28
ENDBRANCH  26  27
ENDBRANCH  25  26
ENDBRANCH  24  25
ENDBRANCH  23  24
ENDBRANCH  22  23
ENDBRANCH  21  22
ENDBRANCH  20  21
ENDBRANCH  19  20
ENDBRANCH  18  19
ENDBRANCH  17  18
ENDBRANCH   1  17
TORSDOF 26
ENDMDL
MODEL 4
REMARK VINA RESULT:    -4.317      1.734      3.612
REMARK INTER + INTRA:         -14.836
REMARK INTER:                  -9.806
REMARK INTRA:                  -5.030
REMARK UNBOUND:                -3.956
REMARK SMILES CCCCCCCCCCCCCCCCCCCCCCCCCCCC(=O)[O-]
REMARK SMILES IDX 15 1 16 2 17 3 18 4 19 5 20 6 21 7 22 8 23 9 24 10 25 11
REMARK SMILES IDX 26 12 27 13 28 14 29 15 30 16 14 17 13 18 12 19 11 20 10 21
REMARK SMILES IDX 9 22 8 23 7 24 6 25 5 26 4 27 3 28 2 29 1 30
REMARK H PARENT
REMARK Flexibility Score: inf
ROOT
ATOM      1  C   UNL     1       2.292  18.801  32.092  1.00  0.00     0.000 C 
ENDROOT
BRANCH   1   2
ATOM      2  C   UNL     1       1.063  19.143  31.231  1.00  0.00     0.000 C 
BRANCH   2   3
ATOM      3  C   UNL     1       1.365  19.904  29.924  1.00  0.00     0.000 C 
BRANCH   3   4
ATOM      4  C   UNL     1       2.791  20.470  29.812  1.00  0.00     0.000 C 
BRANCH   4   5
ATOM      5  C   UNL     1       3.599  19.828  28.676  1.00  0.00     0.000 C 
BRANCH   5   6
ATOM      6  C   UNL     1       2.733  18.842  27.876  1.00  0.00     0.000 C 
BRANCH   6   7
ATOM      7  C   UNL     1       3.349  17.437  27.799  1.00  0.00     0.000 C 
BRANCH   7   8
ATOM      8  C   UNL     1       2.311  16.323  28.003  1.00  0.00     0.000 C 
BRANCH   8   9
ATOM      9  C   UNL     1       0.882  16.881  27.918  1.00  0.00     0.000 C 
BRANCH   9  10
ATOM     10  C   UNL     1       0.005  16.437  29.101  1.00  0.00     0.000 C 
BRANCH  10  11
ATOM     11  C   UNL     1       0.538  15.167  29.787  1.00  0.00     0.000 C 
BRANCH  11  12
ATOM     12  C   UNL     1      -0.460  13.996  29.728  1.00  0.00     0.006 C 
BRANCH  12  13
ATOM     13  C   UNL     1       0.048  12.704  30.388  1.00  0.00     0.053 C 
BRANCH  13  14
ATOM     14  C   UNL     1       0.971  11.941  29.489  1.00  0.00     0.041 C 
ATOM     15  O   UNL     1       2.116  11.606  29.894  1.00  0.00    -0.550 OA
ATOM     16  O   UNL     1       0.555  11.571  28.218  1.00  0.00    -0.550 OA
ENDBRANCH  13  14
ENDBRANCH  12  13
ENDBRANCH  11  12
ENDBRANCH  10  11
ENDBRANCH   9  10
ENDBRANCH   8   9
ENDBRANCH   7   8
ENDBRANCH   6   7
ENDBRANCH   5   6
ENDBRANCH   4   5
ENDBRANCH   3   4
ENDBRANCH   2   3
ENDBRANCH   1   2
BRANCH   1  17
ATOM     17  C   UNL     1       2.740  17.338  31.936  1.00  0.00     0.000 C 
BRANCH  17  18
ATOM     18  C   UNL     1       4.141  17.205  31.309  1.00  0.00     0.000 C 
BRANCH  18  19
ATOM     19  C   UNL     1       5.123  18.343  31.649  1.00  0.00     0.000 C 
BRANCH  19  20
ATOM     20  C   UNL     1       6.559  18.146  31.124  1.00  0.00     0.000 C 
BRANCH  20  21
ATOM     21  C   UNL     1       6.665  17.827  29.619  1.00  0.00     0.000 C 
BRANCH  21  22
ATOM     22  C   UNL     1       7.146  18.997  28.742  1.00  0.00    -0.000 C 
BRANCH  22  23
ATOM     23  C   UNL     1       8.529  18.743  28.118  1.00  0.00    -0.000 C 
BRANCH  23  24
ATOM     24  C   UNL     1       9.522  19.882  28.398  1.00  0.00    -0.000 C 
BRANCH  24  25
ATOM     25  C   UNL     1       8.913  20.990  29.275  1.00  0.00    -0.000 C 
BRANCH  25  26
ATOM     26  C   UNL     1       9.298  22.398  28.794  1.00  0.00    -0.000 C 
BRANCH  26  27
ATOM     27  C   UNL     1       8.081  23.223  28.335  1.00  0.00    -0.000 C 
BRANCH  27  28
ATOM     28  C   UNL     1       6.745  22.538  28.695  1.00  0.00    -0.000 C 
BRANCH  28  29
ATOM     29  C   UNL     1       6.041  23.162  29.911  1.00  0.00    -0.003 C 
ATOM     30  C   UNL     1       5.822  22.169  31.051  1.00  0.00     0.004 C 
ENDBRANCH  28  29
ENDBRANCH  27  28
ENDBRANCH  26  27
ENDBRANCH  25  26
ENDBRANCH  24  25
ENDBRANCH  23  24
ENDBRANCH  22  23
ENDBRANCH  21  22
ENDBRANCH  20  21
ENDBRANCH  19  20
ENDBRANCH  18  19
ENDBRANCH  17  18
ENDBRANCH   1  17
TORSDOF 26
ENDMDL
MODEL 5
REMARK VINA RESULT:    -4.309      3.686      9.247
REMARK INTER + INTRA:         -14.815
REMARK INTER:                 -11.009
REMARK INTRA:                  -3.806
REMARK UNBOUND:                -3.956
REMARK SMILES CCCCCCCCCCCCCCCCCCCCCCCCCCCC(=O)[O-]
REMARK SMILES IDX 15 1 16 2 17 3 18 4 19 5 20 6 21 7 22 8 23 9 24 10 25 11
REMARK SMILES IDX 26 12 27 13 28 14 29 15 30 16 14 17 13 18 12 19 11 20 10 21
REMARK SMILES IDX 9 22 8 23 7 24 6 25 5 26 4 27 3 28 2 29 1 30
REMARK H PARENT
REMARK Flexibility Score: inf
ROOT
ATOM      1  C   UNL     1       0.419  22.026  31.195  1.00  0.00     0.000 C 
ENDROOT
BRANCH   1   2
ATOM      2  C   UNL     1       1.325  23.005  30.428  1.00  0.00     0.000 C 
BRANCH   2   3
ATOM      3  C   UNL     1       2.649  23.367  31.131  1.00  0.00     0.000 C 
BRANCH   3   4
ATOM      4  C   UNL     1       3.286  22.230  31.949  1.00  0.00     0.000 C 
BRANCH   4   5
ATOM      5  C   UNL     1       4.792  22.083  31.690  1.00  0.00     0.000 C 
BRANCH   5   6
ATOM      6  C   UNL     1       5.419  23.435  31.314  1.00  0.00     0.000 C 
BRANCH   6   7
ATOM      7  C   UNL     1       6.118  23.406  29.946  1.00  0.00     0.000 C 
BRANCH   7   8
ATOM      8  C   UNL     1       6.213  21.990  29.359  1.00  0.00     0.000 C 
BRANCH   8   9
ATOM      9  C   UNL     1       7.083  21.977  28.092  1.00  0.00     0.000 C 
BRANCH   9  10
ATOM     10  C   UNL     1       8.230  22.999  28.156  1.00  0.00     0.000 C 
BRANCH  10  11
ATOM     11  C   UNL     1       9.596  22.375  27.822  1.00  0.00     0.000 C 
BRANCH  11  12
ATOM     12  C   UNL     1       9.849  21.058  28.578  1.00  0.00     0.006 C 
BRANCH  12  13
ATOM     13  C   UNL     1      10.903  20.150  27.923  1.00  0.00     0.053 C 
BRANCH  13  14
ATOM     14  C   UNL     1      10.284  18.955  27.268  1.00  0.00     0.041 C 
ATOM     15  O   UNL     1      10.960  17.907  27.092  1.00  0.00    -0.550 OA
ATOM     16  O   UNL     1       8.951  18.986  26.881  1.00  0.00    -0.550 OA
ENDBRANCH  13  14
ENDBRANCH  12  13
ENDBRANCH  11  12
ENDBRANCH  10  11
ENDBRANCH   9  10
ENDBRANCH   8   9
ENDBRANCH   7   8
ENDBRANCH   6   7
ENDBRANCH   5   6
ENDBRANCH   4   5
ENDBRANCH   3   4
ENDBRANCH   2   3
ENDBRANCH   1   2
BRANCH   1  17
ATOM     17  C   UNL     1      -0.442  21.156  30.264  1.00  0.00     0.000 C 
BRANCH  17  18
ATOM     18  C   UNL     1       0.049  19.698  30.183  1.00  0.00     0.000 C 
BRANCH  18  19
ATOM     19  C   UNL     1       1.208  19.342  31.135  1.00  0.00     0.000 C 
BRANCH  19  20
ATOM     20  C   UNL     1       2.543  19.002  30.444  1.00  0.00     0.000 C 
BRANCH  20  21
ATOM     21  C   UNL     1       2.793  19.736  29.111  1.00  0.00     0.000 C 
BRANCH  21  22
ATOM     22  C   UNL     1       2.867  18.823  27.874  1.00  0.00    -0.000 C 
BRANCH  22  23
ATOM     23  C   UNL     1       3.163  17.357  28.234  1.00  0.00    -0.000 C 
BRANCH  23  24
ATOM     24  C   UNL     1       2.065  16.396  27.749  1.00  0.00    -0.000 C 
BRANCH  24  25
ATOM     25  C   UNL     1       0.653  16.976  27.935  1.00  0.00    -0.000 C 
BRANCH  25  26
ATOM     26  C   UNL     1      -0.156  16.221  29.001  1.00  0.00    -0.000 C 
BRANCH  26  27
ATOM     27  C   UNL     1       0.702  15.791  30.205  1.00  0.00    -0.000 C 
BRANCH  27  28
ATOM     28  C   UNL     1       0.495  14.305  30.566  1.00  0.00    -0.000 C 
BRANCH  28  29
ATOM     29  C   UNL     1      -0.686  13.651  29.829  1.00  0.00    -0.003 C 
ATOM     30  C   UNL     1      -1.565  12.800  30.743  1.00  0.00     0.004 C 
ENDBRANCH  28  29
ENDBRANCH  27  28
ENDBRANCH  26  27
ENDBRANCH  25  26
ENDBRANCH  24  25
ENDBRANCH  23  24
ENDBRANCH  22  23
ENDBRANCH  21  22
ENDBRANCH  20  21
ENDBRANCH  19  20
ENDBRANCH  18  19
ENDBRANCH  17  18
ENDBRANCH   1  17
TORSDOF 26
ENDMDL
MODEL 6
REMARK VINA RESULT:    -4.291      3.830      7.445
REMARK INTER + INTRA:         -14.769
REMARK INTER:                  -9.367
REMARK INTRA:                  -5.401
REMARK UNBOUND:                -3.956
REMARK SMILES CCCCCCCCCCCCCCCCCCCCCCCCCCCC(=O)[O-]
REMARK SMILES IDX 15 1 16 2 17 3 18 4 19 5 20 6 21 7 22 8 23 9 24 10 25 11
REMARK SMILES IDX 26 12 27 13 28 14 29 15 30 16 14 17 13 18 12 19 11 20 10 21
REMARK SMILES IDX 9 22 8 23 7 24 6 25 5 26 4 27 3 28 2 29 1 30
REMARK H PARENT
REMARK Flexibility Score: inf
ROOT
ATOM      1  C   UNL     1       3.162  16.537  27.413  1.00  0.00     0.000 C 
ENDROOT
BRANCH   1   2
ATOM      2  C   UNL     1       2.134  17.627  27.770  1.00  0.00     0.000 C 
BRANCH   2   3
ATOM      3  C   UNL     1       0.671  17.296  27.411  1.00  0.00     0.000 C 
BRANCH   3   4
ATOM      4  C   UNL     1      -0.376  17.778  28.431  1.00  0.00     0.000 C 
BRANCH   4   5
ATOM      5  C   UNL     1       0.256  18.397  29.684  1.00  0.00     0.000 C 
BRANCH   5   6
ATOM      6  C   UNL     1      -0.410  19.738  30.030  1.00  0.00     0.000 C 
BRANCH   6   7
ATOM      7  C   UNL     1       0.607  20.870  30.243  1.00  0.00     0.000 C 
BRANCH   7   8
ATOM      8  C   UNL     1       2.025  20.485  29.792  1.00  0.00     0.000 C 
BRANCH   8   9
ATOM      9  C   UNL     1       2.947  20.270  31.002  1.00  0.00     0.000 C 
BRANCH   9  10
ATOM     10  C   UNL     1       4.428  20.168  30.602  1.00  0.00     0.000 C 
BRANCH  10  11
ATOM     11  C   UNL     1       4.633  20.209  29.078  1.00  0.00     0.000 C 
BRANCH  11  12
ATOM     12  C   UNL     1       6.119  20.183  28.677  1.00  0.00     0.006 C 
BRANCH  12  13
ATOM     13  C   UNL     1       6.572  21.407  27.865  1.00  0.00     0.053 C 
BRANCH  13  14
ATOM     14  C   UNL     1       7.312  22.398  28.709  1.00  0.00     0.041 C 
ATOM     15  O   UNL     1       8.088  23.233  28.173  1.00  0.00    -0.550 OA
ATOM     16  O   UNL     1       7.121  22.420  30.084  1.00  0.00    -0.550 OA
ENDBRANCH  13  14
ENDBRANCH  12  13
ENDBRANCH  11  12
ENDBRANCH  10  11
ENDBRANCH   9  10
ENDBRANCH   8   9
ENDBRANCH   7   8
ENDBRANCH   6   7
ENDBRANCH   5   6
ENDBRANCH   4   5
ENDBRANCH   3   4
ENDBRANCH   2   3
ENDBRANCH   1   2
BRANCH   1  17
ATOM     17  C   UNL     1       2.511  15.171  27.142  1.00  0.00     0.000 C 
BRANCH  17  18
ATOM     18  C   UNL     1       3.183  14.023  27.920  1.00  0.00     0.000 C 
BRANCH  18  19
ATOM     19  C   UNL     1       2.332  13.407  29.047  1.00  0.00     0.000 C 
BRANCH  19  20
ATOM     20  C   UNL     1       0.929  14.024  29.219  1.00  0.00     0.000 C 
BRANCH  20  21
ATOM     21  C   UNL     1       0.752  14.903  30.473  1.00  0.00     0.000 C 
BRANCH  21  22
ATOM     22  C   UNL     1       2.012  15.045  31.346  1.00  0.00    -0.000 C 
BRANCH  22  23
ATOM     23  C   UNL     1       2.621  16.457  31.286  1.00  0.00    -0.000 C 
BRANCH  23  24
ATOM     24  C   UNL     1       4.092  16.447  30.841  1.00  0.00    -0.000 C 
BRANCH  24  25
ATOM     25  C   UNL     1       4.929  15.408  31.606  1.00  0.00    -0.000 C 
BRANCH  25  26
ATOM     26  C   UNL     1       5.613  14.399  30.669  1.00  0.00    -0.000 C 
BRANCH  26  27
ATOM     27  C   UNL     1       6.862  14.980  29.981  1.00  0.00    -0.000 C 
BRANCH  27  28
ATOM     28  C   UNL     1       6.657  15.165  28.463  1.00  0.00    -0.000 C 
BRANCH  28  29
ATOM     29  C   UNL     1       7.069  16.556  27.950  1.00  0.00    -0.003 C 
ATOM     30  C   UNL     1       8.164  16.502  26.887  1.00  0.00     0.004 C 
ENDBRANCH  28  29
ENDBRANCH  27  28
ENDBRANCH  26  27
ENDBRANCH  25  26
ENDBRANCH  24  25
ENDBRANCH  23  24
ENDBRANCH  22  23
ENDBRANCH  21  22
ENDBRANCH  20  21
ENDBRANCH  19  20
ENDBRANCH  18  19
ENDBRANCH  17  18
ENDBRANCH   1  17
TORSDOF 26
ENDMDL
MODEL 7
REMARK VINA RESULT:    -4.288      4.092      8.619
REMARK INTER + INTRA:         -14.763
REMARK INTER:                 -10.719
REMARK INTRA:                  -4.044
REMARK UNBOUND:                -3.956
REMARK SMILES CCCCCCCCCCCCCCCCCCCCCCCCCCCC(=O)[O-]
REMARK SMILES IDX 15 1 16 2 17 3 18 4 19 5 20 6 21 7 22 8 23 9 24 10 25 11
REMARK SMILES IDX 26 12 27 13 28 14 29 15 30 16 14 17 13 18 12 19 11 20 10 21
REMARK SMILES IDX 9 22 8 23 7 24 6 25 5 26 4 27 3 28 2 29 1 30
REMARK H PARENT
REMARK Flexibility Score: inf
ROOT
ATOM      1  C   UNL     1      -1.645  18.567  29.061  1.00  0.00     0.000 C 
ENDROOT
BRANCH   1   2
ATOM      2  C   UNL     1      -1.390  19.837  29.892  1.00  0.00     0.000 C 
BRANCH   2   3
ATOM      3  C   UNL     1      -2.556  20.845  29.929  1.00  0.00     0.000 C 
BRANCH   3   4
ATOM      4  C   UNL     1      -2.388  22.001  30.932  1.00  0.00     0.000 C 
BRANCH   4   5
ATOM      5  C   UNL     1      -1.608  23.186  30.347  1.00  0.00     0.000 C 
BRANCH   5   6
ATOM      6  C   UNL     1      -0.187  23.250  30.929  1.00  0.00     0.000 C 
BRANCH   6   7
ATOM      7  C   UNL     1       0.875  22.699  29.966  1.00  0.00     0.000 C 
BRANCH   7   8
ATOM      8  C   UNL     1       1.777  21.640  30.620  1.00  0.00     0.000 C 
BRANCH   8   9
ATOM      9  C   UNL     1       3.238  22.113  30.661  1.00  0.00     0.000 C 
BRANCH   9  10
ATOM     10  C   UNL     1       4.198  21.016  31.151  1.00  0.00     0.000 C 
BRANCH  10  11
ATOM     11  C   UNL     1       5.634  21.213  30.636  1.00  0.00     0.000 C 
BRANCH  11  12
ATOM     12  C   UNL     1       5.680  21.722  29.183  1.00  0.00     0.006 C 
BRANCH  12  13
ATOM     13  C   UNL     1       6.744  21.037  28.311  1.00  0.00     0.053 C 
BRANCH  13  14
ATOM     14  C   UNL     1       7.901  21.942  28.024  1.00  0.00     0.041 C 
ATOM     15  O   UNL     1       8.851  21.546  27.297  1.00  0.00    -0.550 OA
ATOM     16  O   UNL     1       7.917  23.234  28.532  1.00  0.00    -0.550 OA
ENDBRANCH  13  14
ENDBRANCH  12  13
ENDBRANCH  11  12
ENDBRANCH  10  11
ENDBRANCH   9  10
ENDBRANCH   8   9
ENDBRANCH   7   8
ENDBRANCH   6   7
ENDBRANCH   5   6
ENDBRANCH   4   5
ENDBRANCH   3   4
ENDBRANCH   2   3
ENDBRANCH   1   2
BRANCH   1  17
ATOM     17  C   UNL     1      -0.346  17.866  28.629  1.00  0.00     0.000 C 
BRANCH  17  18
ATOM     18  C   UNL     1      -0.069  16.576  29.424  1.00  0.00     0.000 C 
BRANCH  18  19
ATOM     19  C   UNL     1       1.092  16.663  30.434  1.00  0.00     0.000 C 
BRANCH  19  20
ATOM     20  C   UNL     1       2.003  17.897  30.279  1.00  0.00     0.000 C 
BRANCH  20  21
ATOM     21  C   UNL     1       3.509  17.588  30.176  1.00  0.00     0.000 C 
BRANCH  21  22
ATOM     22  C   UNL     1       4.168  18.011  28.851  1.00  0.00    -0.000 C 
BRANCH  22  23
ATOM     23  C   UNL     1       3.256  17.780  27.634  1.00  0.00    -0.000 C 
BRANCH  23  24
ATOM     24  C   UNL     1       3.546  16.448  26.923  1.00  0.00    -0.000 C 
BRANCH  24  25
ATOM     25  C   UNL     1       2.445  15.401  27.167  1.00  0.00    -0.000 C 
BRANCH  25  26
ATOM     26  C   UNL     1       2.924  14.239  28.051  1.00  0.00    -0.000 C 
BRANCH  26  27
ATOM     27  C   UNL     1       1.815  13.208  28.330  1.00  0.00    -0.000 C 
BRANCH  27  28
ATOM     28  C   UNL     1       1.454  13.133  29.828  1.00  0.00    -0.000 C 
BRANCH  28  29
ATOM     29  C   UNL     1       0.177  12.325  30.115  1.00  0.00    -0.003 C 
ATOM     30  C   UNL     1      -1.103  13.112  29.844  1.00  0.00     0.004 C 
ENDBRANCH  28  29
ENDBRANCH  27  28
ENDBRANCH  26  27
ENDBRANCH  25  26
ENDBRANCH  24  25
ENDBRANCH  23  24
ENDBRANCH  22  23
ENDBRANCH  21  22
ENDBRANCH  20  21
ENDBRANCH  19  20
ENDBRANCH  18  19
ENDBRANCH  17  18
ENDBRANCH   1  17
TORSDOF 26
ENDMDL
MODEL 8
REMARK VINA RESULT:    -4.280      1.852      3.652
REMARK INTER + INTRA:         -14.741
REMARK INTER:                  -9.629
REMARK INTRA:                  -5.112
REMARK UNBOUND:                -3.956
REMARK SMILES CCCCCCCCCCCCCCCCCCCCCCCCCCCC(=O)[O-]
REMARK SMILES IDX 15 1 16 2 17 3 18 4 19 5 20 6 21 7 22 8 23 9 24 10 25 11
REMARK SMILES IDX 26 12 27 13 28 14 29 15 30 16 14 17 13 18 12 19 11 20 10 21
REMARK SMILES IDX 9 22 8 23 7 24 6 25 5 26 4 27 3 28 2 29 1 30
REMARK H PARENT
REMARK Flexibility Score: inf
ROOT
ATOM      1  C   UNL     1       5.620  15.255  27.946  1.00  0.00     0.000 C 
ENDROOT
BRANCH   1   2
ATOM      2  C   UNL     1       4.531  15.361  26.863  1.00  0.00     0.000 C 
BRANCH   2   3
ATOM      3  C   UNL     1       3.291  16.191  27.253  1.00  0.00     0.000 C 
BRANCH   3   4
ATOM      4  C   UNL     1       3.550  17.693  27.464  1.00  0.00     0.000 C 
BRANCH   4   5
ATOM      5  C   UNL     1       2.355  18.419  28.096  1.00  0.00     0.000 C 
BRANCH   5   6
ATOM      6  C   UNL     1       1.088  17.552  28.030  1.00  0.00     0.000 C 
BRANCH   6   7
ATOM      7  C   UNL     1       0.297  17.556  29.347  1.00  0.00     0.000 C 
BRANCH   7   8
ATOM      8  C   UNL     1       0.676  18.729  30.263  1.00  0.00     0.000 C 
BRANCH   8   9
ATOM      9  C   UNL     1       1.388  18.230  31.530  1.00  0.00     0.000 C 
BRANCH   9  10
ATOM     10  C   UNL     1       1.633  16.713  31.508  1.00  0.00     0.000 C 
BRANCH  10  11
ATOM     11  C   UNL     1       3.129  16.356  31.465  1.00  0.00     0.000 C 
BRANCH  11  12
ATOM     12  C   UNL     1       3.396  14.984  30.821  1.00  0.00     0.006 C 
BRANCH  12  13
ATOM     13  C   UNL     1       2.143  14.309  30.239  1.00  0.00     0.053 C 
BRANCH  13  14
ATOM     14  C   UNL     1       2.490  13.219  29.274  1.00  0.00     0.041 C 
ATOM     15  O   UNL     1       3.388  12.383  29.557  1.00  0.00    -0.550 OA
ATOM     16  O   UNL     1       1.799  13.107  28.074  1.00  0.00    -0.550 OA
ENDBRANCH  13  14
ENDBRANCH  12  13
ENDBRANCH  11  12
ENDBRANCH  10  11
ENDBRANCH   9  10
ENDBRANCH   8   9
ENDBRANCH   7   8
ENDBRANCH   6   7
ENDBRANCH   5   6
ENDBRANCH   4   5
ENDBRANCH   3   4
ENDBRANCH   2   3
ENDBRANCH   1   2
BRANCH   1  17
ATOM     17  C   UNL     1       6.873  16.081  27.614  1.00  0.00     0.000 C 
BRANCH  17  18
ATOM     18  C   UNL     1       7.024  17.326  28.508  1.00  0.00     0.000 C 
BRANCH  18  19
ATOM     19  C   UNL     1       6.403  17.204  29.914  1.00  0.00     0.000 C 
BRANCH  19  20
ATOM     20  C   UNL     1       6.312  18.523  30.706  1.00  0.00     0.000 C 
BRANCH  20  21
ATOM     21  C   UNL     1       4.975  19.279  30.562  1.00  0.00     0.000 C 
BRANCH  21  22
ATOM     22  C   UNL     1       5.104  20.734  30.077  1.00  0.00    -0.000 C 
BRANCH  22  23
ATOM     23  C   UNL     1       5.122  20.850  28.543  1.00  0.00    -0.000 C 
BRANCH  23  24
ATOM     24  C   UNL     1       6.540  21.043  27.982  1.00  0.00    -0.000 C 
BRANCH  24  25
ATOM     25  C   UNL     1       7.202  22.335  28.493  1.00  0.00    -0.000 C 
BRANCH  25  26
ATOM     26  C   UNL     1       8.686  22.136  28.841  1.00  0.00    -0.000 C 
BRANCH  26  27
ATOM     27  C   UNL     1       9.622  22.464  27.664  1.00  0.00    -0.000 C 
BRANCH  27  28
ATOM     28  C   UNL     1      10.019  21.203  26.867  1.00  0.00    -0.000 C 
BRANCH  28  29
ATOM     29  C   UNL     1      10.020  19.917  27.710  1.00  0.00    -0.003 C 
ATOM     30  C   UNL     1      11.401  19.559  28.255  1.00  0.00     0.004 C 
ENDBRANCH  28  29
ENDBRANCH  27  28
ENDBRANCH  26  27
ENDBRANCH  25  26
ENDBRANCH  24  25
ENDBRANCH  23  24
ENDBRANCH  22  23
ENDBRANCH  21  22
ENDBRANCH  20  21
ENDBRANCH  19  20
ENDBRANCH  18  19
ENDBRANCH  17  18
ENDBRANCH   1  17
TORSDOF 26
ENDMDL
MODEL 9
REMARK VINA RESULT:    -4.279      3.927      9.168
REMARK INTER + INTRA:         -14.738
REMARK INTER:                 -10.200
REMARK INTRA:                  -4.538
REMARK UNBOUND:                -3.956
REMARK SMILES CCCCCCCCCCCCCCCCCCCCCCCCCCCC(=O)[O-]
REMARK SMILES IDX 15 1 16 2 17 3 18 4 19 5 20 6 21 7 22 8 23 9 24 10 25 11
REMARK SMILES IDX 26 12 27 13 28 14 29 15 30 16 14 17 13 18 12 19 11 20 10 21
REMARK SMILES IDX 9 22 8 23 7 24 6 25 5 26 4 27 3 28 2 29 1 30
REMARK H PARENT
REMARK Flexibility Score: inf
ROOT
ATOM      1  C   UNL     1       3.222  18.578  27.907  1.00  0.00     0.000 C 
ENDROOT
BRANCH   1   2
ATOM      2  C   UNL     1       4.230  17.421  28.037  1.00  0.00     0.000 C 
BRANCH   2   3
ATOM      3  C   UNL     1       3.882  16.360  29.101  1.00  0.00     0.000 C 
BRANCH   3   4
ATOM      4  C   UNL     1       4.374  16.678  30.524  1.00  0.00     0.000 C 
BRANCH   4   5
ATOM      5  C   UNL     1       5.750  17.357  30.540  1.00  0.00     0.000 C 
BRANCH   5   6
ATOM      6  C   UNL     1       5.762  18.553  31.504  1.00  0.00     0.000 C 
BRANCH   6   7
ATOM      7  C   UNL     1       6.425  19.799  30.897  1.00  0.00     0.000 C 
BRANCH   7   8
ATOM      8  C   UNL     1       5.949  21.103  31.555  1.00  0.00     0.000 C 
BRANCH   8   9
ATOM      9  C   UNL     1       6.557  22.327  30.852  1.00  0.00     0.000 C 
BRANCH   9  10
ATOM     10  C   UNL     1       5.878  22.631  29.506  1.00  0.00     0.000 C 
BRANCH  10  11
ATOM     11  C   UNL     1       6.831  22.457  28.311  1.00  0.00     0.000 C 
BRANCH  11  12
ATOM     12  C   UNL     1       8.197  23.131  28.537  1.00  0.00     0.006 C 
BRANCH  12  13
ATOM     13  C   UNL     1       9.367  22.435  27.822  1.00  0.00     0.053 C 
BRANCH  13  14
ATOM     14  C   UNL     1       9.922  21.301  28.626  1.00  0.00     0.041 C 
ATOM     15  O   UNL     1       9.779  21.282  29.878  1.00  0.00    -0.550 OA
ATOM     16  O   UNL     1      10.568  20.249  27.991  1.00  0.00    -0.550 OA
ENDBRANCH  13  14
ENDBRANCH  12  13
ENDBRANCH  11  12
ENDBRANCH  10  11
ENDBRANCH   9  10
ENDBRANCH   8   9
ENDBRANCH   7   8
ENDBRANCH   6   7
ENDBRANCH   5   6
ENDBRANCH   4   5
ENDBRANCH   3   4
ENDBRANCH   2   3
ENDBRANCH   1   2
BRANCH   1  17
ATOM     17  C   UNL     1       3.709  19.871  28.581  1.00  0.00     0.000 C 
BRANCH  17  18
ATOM     18  C   UNL     1       2.645  20.508  29.494  1.00  0.00     0.000 C 
BRANCH  18  19
ATOM     19  C   UNL     1       2.401  19.773  30.828  1.00  0.00     0.000 C 
BRANCH  19  20
ATOM     20  C   UNL     1       1.086  18.973  30.903  1.00  0.00     0.000 C 
BRANCH  20  21
ATOM     21  C   UNL     1      -0.030  19.462  29.959  1.00  0.00     0.000 C 
BRANCH  21  22
ATOM     22  C   UNL     1      -0.689  18.359  29.110  1.00  0.00    -0.000 C 
BRANCH  22  23
ATOM     23  C   UNL     1       0.249  17.168  28.851  1.00  0.00    -0.000 C 
BRANCH  23  24
ATOM     24  C   UNL     1      -0.272  15.861  29.469  1.00  0.00    -0.000 C 
BRANCH  24  25
ATOM     25  C   UNL     1       0.691  15.283  30.521  1.00  0.00    -0.000 C 
BRANCH  25  26
ATOM     26  C   UNL     1       0.219  13.928  31.069  1.00  0.00    -0.000 C 
BRANCH  26  27
ATOM     27  C   UNL     1       1.319  12.851  31.020  1.00  0.00    -0.000 C 
BRANCH  27  28
ATOM     28  C   UNL     1       2.298  13.073  29.847  1.00  0.00    -0.000 C 
BRANCH  28  29
ATOM     29  C   UNL     1       1.690  12.762  28.470  1.00  0.00    -0.003 C 
ATOM     30  C   UNL     1       0.672  11.624  28.507  1.00  0.00     0.004 C 
ENDBRANCH  28  29
ENDBRANCH  27  28
ENDBRANCH  26  27
ENDBRANCH  25  26
ENDBRANCH  24  25
ENDBRANCH  23  24
ENDBRANCH  22  23
ENDBRANCH  21  22
ENDBRANCH  20  21
ENDBRANCH  19  20
ENDBRANCH  18  19
ENDBRANCH  17  18
ENDBRANCH   1  17
TORSDOF 26
ENDMDL
