MODEL 1
REMARK VINA RESULT:     3.950      0.000      0.000
REMARK INTER + INTRA:           4.391
REMARK INTER:                   4.527
REMARK INTRA:                  -0.137
REMARK UNBOUND:                -0.137
REMARK SMILES O=C([O-])C=Cc1ccc(O)cc1
REMARK SMILES IDX 6 1 7 2 12 3 8 4 11 5 9 6 5 7 4 8 2 9 1 10 3 11 10 12
REMARK H PARENT 10 13
REMARK Flexibility Score: inf
ROOT
ATOM      1  C   UNL     1     -15.136 -14.093   4.656  1.00  0.00    -0.025 A 
ATOM      2  C   UNL     1     -15.413 -14.387   6.007  1.00  0.00     0.012 A 
ATOM      3  C   UNL     1     -16.210 -13.950   3.760  1.00  0.00     0.012 A 
ATOM      4  C   UNL     1     -16.734 -14.508   6.449  1.00  0.00     0.047 A 
ATOM      5  C   UNL     1     -17.530 -14.071   4.207  1.00  0.00     0.047 A 
ATOM      6  C   UNL     1     -17.795 -14.349   5.553  1.00  0.00     0.115 A 
ENDROOT
BRANCH   1   7
ATOM      7  C   UNL     1     -13.754 -13.965   4.133  1.00  0.00     0.010 C 
ATOM      8  C   UNL     1     -12.872 -14.975   4.101  1.00  0.00     0.025 C 
BRANCH   8   9
ATOM      9  C   UNL     1     -11.507 -14.799   3.583  1.00  0.00     0.064 C 
ATOM     10  O   UNL     1     -10.801 -15.811   3.336  1.00  0.00    -0.545 OA
ATOM     11  O   UNL     1     -10.982 -13.531   3.360  1.00  0.00    -0.545 OA
ENDBRANCH   8   9
ENDBRANCH   1   7
BRANCH   6  12
ATOM     12  O   UNL     1     -19.106 -14.471   6.009  1.00  0.00    -0.508 OA
ATOM     13  H   UNL     1     -19.853 -13.904   5.626  1.00  0.00     0.293 HD
ENDBRANCH   6  12
TORSDOF 3
ENDMDL
MODEL 2
REMARK VINA RESULT:     4.019      1.410      1.867
REMARK INTER + INTRA:           4.469
REMARK INTER:                   4.615
REMARK INTRA:                  -0.145
REMARK UNBOUND:                -0.137
REMARK SMILES O=C([O-])C=Cc1ccc(O)cc1
REMARK SMILES IDX 6 1 7 2 12 3 8 4 11 5 9 6 5 7 4 8 2 9 1 10 3 11 10 12
REMARK H PARENT 10 13
REMARK Flexibility Score: inf
ROOT
ATOM      1  C   UNL     1     -13.668 -14.514   4.468  1.00  0.00    -0.025 A 
ATOM      2  C   UNL     1     -14.402 -15.677   4.778  1.00  0.00     0.012 A 
ATOM      3  C   UNL     1     -14.287 -13.261   4.623  1.00  0.00     0.012 A 
ATOM      4  C   UNL     1     -15.713 -15.581   5.253  1.00  0.00     0.047 A 
ATOM      5  C   UNL     1     -15.598 -13.170   5.101  1.00  0.00     0.047 A 
ATOM      6  C   UNL     1     -16.314 -14.330   5.419  1.00  0.00     0.115 A 
ENDROOT
BRANCH   1   7
ATOM      7  C   UNL     1     -12.279 -14.559   3.949  1.00  0.00     0.010 C 
ATOM      8  C   UNL     1     -11.822 -13.766   2.970  1.00  0.00     0.025 C 
BRANCH   8   9
ATOM      9  C   UNL     1     -10.439 -13.854   2.479  1.00  0.00     0.064 C 
ATOM     10  O   UNL     1     -10.126 -14.755   1.658  1.00  0.00    -0.545 OA
ATOM     11  O   UNL     1      -9.467 -12.955   2.907  1.00  0.00    -0.545 OA
ENDBRANCH   8   9
ENDBRANCH   1   7
BRANCH   6  12
ATOM     12  O   UNL     1     -17.620 -14.251   5.895  1.00  0.00    -0.508 OA
ATOM     13  H   UNL     1     -18.043 -13.361   6.133  1.00  0.00     0.293 HD
ENDBRANCH   6  12
TORSDOF 3
ENDMDL
MODEL 3
REMARK VINA RESULT:     4.321      1.723      6.104
REMARK INTER + INTRA:           4.816
REMARK INTER:                   4.956
REMARK INTRA:                  -0.140
REMARK UNBOUND:                -0.137
REMARK SMILES O=C([O-])C=Cc1ccc(O)cc1
REMARK SMILES IDX 6 1 7 2 12 3 8 4 11 5 9 6 5 7 4 8 2 9 1 10 3 11 10 12
REMARK H PARENT 10 13
REMARK Flexibility Score: inf
ROOT
ATOM      1  C   UNL     1     -12.613 -14.450   3.955  1.00  0.00    -0.025 A 
ATOM      2  C   UNL     1     -11.885 -15.502   3.361  1.00  0.00     0.012 A 
ATOM      3  C   UNL     1     -12.133 -13.135   3.823  1.00  0.00     0.012 A 
ATOM      4  C   UNL     1     -10.722 -15.235   2.634  1.00  0.00     0.047 A 
ATOM      5  C   UNL     1     -10.969 -12.873   3.094  1.00  0.00     0.047 A 
ATOM      6  C   UNL     1     -10.261 -13.922   2.496  1.00  0.00     0.115 A 
ENDROOT
BRANCH   1   7
ATOM      7  C   UNL     1     -13.847 -14.678   4.746  1.00  0.00     0.010 C 
ATOM      8  C   UNL     1     -15.021 -14.086   4.485  1.00  0.00     0.025 C 
BRANCH   8   9
ATOM      9  C   UNL     1     -16.217 -14.334   5.303  1.00  0.00     0.064 C 
ATOM     10  O   UNL     1     -16.352 -13.739   6.404  1.00  0.00    -0.545 OA
ATOM     11  O   UNL     1     -17.205 -15.217   4.881  1.00  0.00    -0.545 OA
ENDBRANCH   8   9
ENDBRANCH   1   7
BRANCH   6  12
ATOM     12  O   UNL     1      -9.101 -13.672   1.767  1.00  0.00    -0.508 OA
ATOM     13  H   UNL     1      -8.684 -12.749   1.737  1.00  0.00     0.293 HD
ENDBRANCH   6  12
TORSDOF 3
ENDMDL
MODEL 4
REMARK VINA RESULT:     5.892      8.237     10.683
REMARK INTER + INTRA:           6.617
REMARK INTER:                   6.761
REMARK INTRA:                  -0.144
REMARK UNBOUND:                -0.137
REMARK SMILES O=C([O-])C=Cc1ccc(O)cc1
REMARK SMILES IDX 6 1 7 2 12 3 8 4 11 5 9 6 5 7 4 8 2 9 1 10 3 11 10 12
REMARK H PARENT 10 13
REMARK Flexibility Score: inf
ROOT
ATOM      1  C   UNL     1     -16.329 -20.057  11.875  1.00  0.00    -0.025 A 
ATOM      2  C   UNL     1     -15.143 -20.471  12.516  1.00  0.00     0.012 A 
ATOM      3  C   UNL     1     -16.340 -19.952  10.473  1.00  0.00     0.012 A 
ATOM      4  C   UNL     1     -14.008 -20.793  11.767  1.00  0.00     0.047 A 
ATOM      5  C   UNL     1     -15.202 -20.277   9.727  1.00  0.00     0.047 A 
ATOM      6  C   UNL     1     -14.034 -20.701  10.372  1.00  0.00     0.115 A 
ENDROOT
BRANCH   1   7
ATOM      7  C   UNL     1     -17.557 -19.692  12.623  1.00  0.00     0.010 C 
ATOM      8  C   UNL     1     -18.256 -18.569  12.406  1.00  0.00     0.025 C 
BRANCH   8   9
ATOM      9  C   UNL     1     -19.463 -18.243  13.180  1.00  0.00     0.064 C 
ATOM     10  O   UNL     1     -19.436 -18.320  14.435  1.00  0.00    -0.545 OA
ATOM     11  O   UNL     1     -20.637 -17.848  12.546  1.00  0.00    -0.545 OA
ENDBRANCH   8   9
ENDBRANCH   1   7
BRANCH   6  12
ATOM     12  O   UNL     1     -12.896 -21.027   9.639  1.00  0.00    -0.508 OA
ATOM     13  H   UNL     1     -12.149 -20.358   9.496  1.00  0.00     0.293 HD
ENDBRANCH   6  12
TORSDOF 3
ENDMDL
MODEL 5
REMARK VINA RESULT:     5.994      8.289     10.820
REMARK INTER + INTRA:           6.734
REMARK INTER:                   6.870
REMARK INTRA:                  -0.136
REMARK UNBOUND:                -0.137
REMARK SMILES O=C([O-])C=Cc1ccc(O)cc1
REMARK SMILES IDX 6 1 7 2 12 3 8 4 11 5 9 6 5 7 4 8 2 9 1 10 3 11 10 12
REMARK H PARENT 10 13
REMARK Flexibility Score: inf
ROOT
ATOM      1  C   UNL     1     -16.369 -20.040  11.838  1.00  0.00    -0.025 A 
ATOM      2  C   UNL     1     -16.360 -20.003  10.428  1.00  0.00     0.012 A 
ATOM      3  C   UNL     1     -15.205 -20.447  12.512  1.00  0.00     0.012 A 
ATOM      4  C   UNL     1     -15.204 -20.341   9.718  1.00  0.00     0.047 A 
ATOM      5  C   UNL     1     -14.050 -20.783  11.798  1.00  0.00     0.047 A 
ATOM      6  C   UNL     1     -14.046 -20.729  10.399  1.00  0.00     0.115 A 
ENDROOT
BRANCH   1   7
ATOM      7  C   UNL     1     -17.571 -19.702  12.639  1.00  0.00     0.010 C 
ATOM      8  C   UNL     1     -18.275 -18.571  12.487  1.00  0.00     0.025 C 
BRANCH   8   9
ATOM      9  C   UNL     1     -19.455 -18.273  13.311  1.00  0.00     0.064 C 
ATOM     10  O   UNL     1     -19.356 -18.284  14.566  1.00  0.00    -0.545 OA
ATOM     11  O   UNL     1     -20.682 -17.977  12.728  1.00  0.00    -0.545 OA
ENDBRANCH   8   9
ENDBRANCH   1   7
BRANCH   6  12
ATOM     12  O   UNL     1     -12.902 -21.061   9.678  1.00  0.00    -0.508 OA
ATOM     13  H   UNL     1     -12.753 -20.718   8.736  1.00  0.00     0.293 HD
ENDBRANCH   6  12
TORSDOF 3
ENDMDL
MODEL 6
REMARK VINA RESULT:     6.941      8.123      9.097
REMARK INTER + INTRA:           7.819
REMARK INTER:                   7.955
REMARK INTRA:                  -0.136
REMARK UNBOUND:                -0.137
REMARK SMILES O=C([O-])C=Cc1ccc(O)cc1
REMARK SMILES IDX 6 1 7 2 12 3 8 4 11 5 9 6 5 7 4 8 2 9 1 10 3 11 10 12
REMARK H PARENT 10 13
REMARK Flexibility Score: inf
ROOT
ATOM      1  C   UNL     1     -16.350 -20.113  11.481  1.00  0.00    -0.025 A 
ATOM      2  C   UNL     1     -17.258 -19.101  11.105  1.00  0.00     0.012 A 
ATOM      3  C   UNL     1     -16.473 -20.694  12.755  1.00  0.00     0.012 A 
ATOM      4  C   UNL     1     -18.275 -18.703  11.977  1.00  0.00     0.047 A 
ATOM      5  C   UNL     1     -17.494 -20.294  13.624  1.00  0.00     0.047 A 
ATOM      6  C   UNL     1     -18.399 -19.299  13.236  1.00  0.00     0.115 A 
ENDROOT
BRANCH   1   7
ATOM      7  C   UNL     1     -15.245 -20.564  10.599  1.00  0.00     0.010 C 
ATOM      8  C   UNL     1     -13.987 -20.109  10.688  1.00  0.00     0.025 C 
BRANCH   8   9
ATOM      9  C   UNL     1     -12.926 -20.578   9.785  1.00  0.00     0.064 C 
ATOM     10  O   UNL     1     -12.661 -21.806   9.721  1.00  0.00    -0.545 OA
ATOM     11  O   UNL     1     -12.208 -19.684   8.997  1.00  0.00    -0.545 OA
ENDBRANCH   8   9
ENDBRANCH   1   7
BRANCH   6  12
ATOM     12  O   UNL     1     -19.419 -18.893  14.093  1.00  0.00    -0.508 OA
ATOM     13  H   UNL     1     -19.219 -18.434  14.974  1.00  0.00     0.293 HD
ENDBRANCH   6  12
TORSDOF 3
ENDMDL
