MODEL 1
REMARK VINA RESULT:    -5.535      0.000      0.000
REMARK INTER + INTRA:         -12.676
REMARK INTER:                 -10.389
REMARK INTRA:                  -2.286
REMARK UNBOUND:                -2.286
REMARK SMILES CCCCCCCCC=CCCCCCCCC(=O)[O-]
REMARK SMILES IDX 10 1 9 2 11 3 12 4 13 5 14 6 15 7 16 8 17 9 18 10 19 11
REMARK SMILES IDX 20 12 8 13 7 14 6 15 5 16 4 17 3 18 2 19 1 20
REMARK H PARENT
REMARK Flexibility Score: inf
ROOT
ATOM      1  C   UNL     1      38.003  19.499  33.688  1.00  0.00    -0.031 C 
ATOM      2  C   UNL     1      36.834  19.020  33.236  1.00  0.00    -0.031 C 
ENDROOT
BRANCH   1   3
ATOM      3  C   UNL     1      39.050  20.037  32.752  1.00  0.00     0.027 C 
BRANCH   3   4
ATOM      4  C   UNL     1      40.454  19.581  33.174  1.00  0.00     0.004 C 
BRANCH   4   5
ATOM      5  C   UNL     1      41.061  18.551  32.206  1.00  0.00     0.000 C 
BRANCH   5   6
ATOM      6  C   UNL     1      40.975  18.932  30.715  1.00  0.00     0.000 C 
BRANCH   6   7
ATOM      7  C   UNL     1      40.416  17.806  29.819  1.00  0.00     0.000 C 
BRANCH   7   8
ATOM      8  C   UNL     1      39.085  17.248  30.350  1.00  0.00     0.006 C 
BRANCH   8   9
ATOM      9  C   UNL     1      37.874  18.019  29.807  1.00  0.00     0.053 C 
BRANCH   9  10
ATOM     10  C   UNL     1      37.452  17.512  28.461  1.00  0.00     0.041 C 
ATOM     11  O   UNL     1      37.471  16.278  28.214  1.00  0.00    -0.550 OA
ATOM     12  O   UNL     1      37.009  18.401  27.490  1.00  0.00    -0.550 OA
ENDBRANCH   9  10
ENDBRANCH   8   9
ENDBRANCH   7   8
ENDBRANCH   6   7
ENDBRANCH   5   6
ENDBRANCH   4   5
ENDBRANCH   3   4
ENDBRANCH   1   3
BRANCH   2  13
ATOM     13  C   UNL     1      35.792  18.470  34.171  1.00  0.00     0.027 C 
BRANCH  13  14
ATOM     14  C   UNL     1      34.522  18.060  33.410  1.00  0.00     0.004 C 
BRANCH  14  15
ATOM     15  C   UNL     1      34.431  18.717  32.023  1.00  0.00     0.000 C 
BRANCH  15  16
ATOM     16  C   UNL     1      34.274  17.688  30.890  1.00  0.00     0.000 C 
BRANCH  16  17
ATOM     17  C   UNL     1      34.918  16.334  31.228  1.00  0.00    -0.000 C 
BRANCH  17  18
ATOM     18  C   UNL     1      34.605  15.255  30.177  1.00  0.00    -0.000 C 
BRANCH  18  19
ATOM     19  C   UNL     1      33.550  15.712  29.157  1.00  0.00    -0.003 C 
ATOM     20  C   UNL     1      33.989  15.492  27.710  1.00  0.00     0.004 C 
ENDBRANCH  18  19
ENDBRANCH  17  18
ENDBRANCH  16  17
ENDBRANCH  15  16
ENDBRANCH  14  15
ENDBRANCH  13  14
ENDBRANCH   2  13
TORSDOF 15
ENDMDL
MODEL 2
REMARK VINA RESULT:    -5.427      1.755      5.076
REMARK INTER + INTRA:         -12.472
REMARK INTER:                 -10.036
REMARK INTRA:                  -2.436
REMARK UNBOUND:                -2.286
REMARK SMILES CCCCCCCCC=CCCCCCCCC(=O)[O-]
REMARK SMILES IDX 10 1 9 2 11 3 12 4 13 5 14 6 15 7 16 8 17 9 18 10 19 11
REMARK SMILES IDX 20 12 8 13 7 14 6 15 5 16 4 17 3 18 2 19 1 20
REMARK H PARENT
REMARK Flexibility Score: inf
ROOT
ATOM      1  C   UNL     1      36.891  18.851  33.181  1.00  0.00    -0.031 C 
ATOM      2  C   UNL     1      37.889  19.649  33.587  1.00  0.00    -0.031 C 
ENDROOT
BRANCH   1   3
ATOM      3  C   UNL     1      35.777  18.447  34.109  1.00  0.00     0.027 C 
BRANCH   3   4
ATOM      4  C   UNL     1      34.472  18.213  33.334  1.00  0.00     0.004 C 
BRANCH   4   5
ATOM      5  C   UNL     1      34.605  18.534  31.836  1.00  0.00     0.000 C 
BRANCH   5   6
ATOM      6  C   UNL     1      34.389  17.334  30.893  1.00  0.00     0.000 C 
BRANCH   6   7
ATOM      7  C   UNL     1      35.252  16.104  31.248  1.00  0.00     0.000 C 
BRANCH   7   8
ATOM      8  C   UNL     1      34.789  14.837  30.507  1.00  0.00     0.006 C 
BRANCH   8   9
ATOM      9  C   UNL     1      35.650  14.539  29.273  1.00  0.00     0.053 C 
BRANCH   9  10
ATOM     10  C   UNL     1      36.630  13.436  29.533  1.00  0.00     0.041 C 
ATOM     11  O   UNL     1      36.943  12.636  28.612  1.00  0.00    -0.550 OA
ATOM     12  O   UNL     1      37.219  13.310  30.784  1.00  0.00    -0.550 OA
ENDBRANCH   9  10
ENDBRANCH   8   9
ENDBRANCH   7   8
ENDBRANCH   6   7
ENDBRANCH   5   6
ENDBRANCH   4   5
ENDBRANCH   3   4
ENDBRANCH   1   3
BRANCH   2  13
ATOM     13  C   UNL     1      39.010  20.044  32.663  1.00  0.00     0.027 C 
BRANCH  13  14
ATOM     14  C   UNL     1      40.348  19.448  33.126  1.00  0.00     0.004 C 
BRANCH  14  15
ATOM     15  C   UNL     1      40.990  18.547  32.058  1.00  0.00     0.000 C 
BRANCH  15  16
ATOM     16  C   UNL     1      40.535  18.903  30.633  1.00  0.00     0.000 C 
BRANCH  16  17
ATOM     17  C   UNL     1      40.076  17.673  29.834  1.00  0.00    -0.000 C 
BRANCH  17  18
ATOM     18  C   UNL     1      38.568  17.406  29.978  1.00  0.00    -0.000 C 
BRANCH  18  19
ATOM     19  C   UNL     1      37.712  18.617  29.575  1.00  0.00    -0.003 C 
ATOM     20  C   UNL     1      36.953  18.399  28.267  1.00  0.00     0.004 C 
ENDBRANCH  18  19
ENDBRANCH  17  18
ENDBRANCH  16  17
ENDBRANCH  15  16
ENDBRANCH  14  15
ENDBRANCH  13  14
ENDBRANCH   2  13
TORSDOF 15
ENDMDL
MODEL 3
REMARK VINA RESULT:    -5.413      1.301      5.061
REMARK INTER + INTRA:         -12.445
REMARK INTER:                 -10.092
REMARK INTRA:                  -2.353
REMARK UNBOUND:                -2.286
REMARK SMILES CCCCCCCCC=CCCCCCCCC(=O)[O-]
REMARK SMILES IDX 10 1 9 2 11 3 12 4 13 5 14 6 15 7 16 8 17 9 18 10 19 11
REMARK SMILES IDX 20 12 8 13 7 14 6 15 5 16 4 17 3 18 2 19 1 20
REMARK H PARENT
REMARK Flexibility Score: inf
ROOT
ATOM      1  C   UNL     1      36.794  18.853  33.343  1.00  0.00    -0.031 C 
ATOM      2  C   UNL     1      37.834  19.587  33.767  1.00  0.00    -0.031 C 
ENDROOT
BRANCH   1   3
ATOM      3  C   UNL     1      35.696  18.426  34.279  1.00  0.00     0.027 C 
BRANCH   3   4
ATOM      4  C   UNL     1      34.374  18.229  33.523  1.00  0.00     0.004 C 
BRANCH   4   5
ATOM      5  C   UNL     1      34.440  18.725  32.069  1.00  0.00     0.000 C 
BRANCH   5   6
ATOM      6  C   UNL     1      34.147  17.652  31.002  1.00  0.00     0.000 C 
BRANCH   6   7
ATOM      7  C   UNL     1      34.969  16.358  31.182  1.00  0.00     0.000 C 
BRANCH   7   8
ATOM      8  C   UNL     1      34.497  15.236  30.241  1.00  0.00     0.006 C 
BRANCH   8   9
ATOM      9  C   UNL     1      33.499  15.740  29.191  1.00  0.00     0.053 C 
BRANCH   9  10
ATOM     10  C   UNL     1      34.122  15.828  27.831  1.00  0.00     0.041 C 
ATOM     11  O   UNL     1      33.520  15.366  26.826  1.00  0.00    -0.550 OA
ATOM     12  O   UNL     1      35.355  16.448  27.669  1.00  0.00    -0.550 OA
ENDBRANCH   9  10
ENDBRANCH   8   9
ENDBRANCH   7   8
ENDBRANCH   6   7
ENDBRANCH   5   6
ENDBRANCH   4   5
ENDBRANCH   3   4
ENDBRANCH   1   3
BRANCH   2  13
ATOM     13  C   UNL     1      38.938  20.004  32.835  1.00  0.00     0.027 C 
BRANCH  13  14
ATOM     14  C   UNL     1      40.243  19.255  33.147  1.00  0.00     0.004 C 
BRANCH  14  15
ATOM     15  C   UNL     1      40.010  17.762  33.429  1.00  0.00     0.000 C 
BRANCH  15  16
ATOM     16  C   UNL     1      40.006  16.912  32.146  1.00  0.00     0.000 C 
BRANCH  16  17
ATOM     17  C   UNL     1      40.692  17.618  30.966  1.00  0.00    -0.000 C 
BRANCH  17  18
ATOM     18  C   UNL     1      39.773  17.742  29.739  1.00  0.00    -0.000 C 
BRANCH  18  19
ATOM     19  C   UNL     1      38.286  17.598  30.098  1.00  0.00    -0.003 C 
ATOM     20  C   UNL     1      37.441  18.772  29.608  1.00  0.00     0.004 C 
ENDBRANCH  18  19
ENDBRANCH  17  18
ENDBRANCH  16  17
ENDBRANCH  15  16
ENDBRANCH  14  15
ENDBRANCH  13  14
ENDBRANCH   2  13
TORSDOF 15
ENDMDL
MODEL 4
REMARK VINA RESULT:    -5.292      1.428      5.006
REMARK INTER + INTRA:         -12.220
REMARK INTER:                  -9.256
REMARK INTRA:                  -2.964
REMARK UNBOUND:                -2.286
REMARK SMILES CCCCCCCCC=CCCCCCCCC(=O)[O-]
REMARK SMILES IDX 10 1 9 2 11 3 12 4 13 5 14 6 15 7 16 8 17 9 18 10 19 11
REMARK SMILES IDX 20 12 8 13 7 14 6 15 5 16 4 17 3 18 2 19 1 20
REMARK H PARENT
REMARK Flexibility Score: inf
ROOT
ATOM      1  C   UNL     1      37.156  18.960  33.182  1.00  0.00    -0.031 C 
ATOM      2  C   UNL     1      38.231  19.636  33.615  1.00  0.00    -0.031 C 
ENDROOT
BRANCH   1   3
ATOM      3  C   UNL     1      36.082  18.497  34.128  1.00  0.00     0.027 C 
BRANCH   3   4
ATOM      4  C   UNL     1      34.717  18.442  33.427  1.00  0.00     0.004 C 
BRANCH   4   5
ATOM      5  C   UNL     1      34.823  18.624  31.904  1.00  0.00     0.000 C 
BRANCH   5   6
ATOM      6  C   UNL     1      34.361  17.412  31.072  1.00  0.00     0.000 C 
BRANCH   6   7
ATOM      7  C   UNL     1      35.432  16.309  30.933  1.00  0.00     0.000 C 
BRANCH   7   8
ATOM      8  C   UNL     1      36.721  16.832  30.277  1.00  0.00     0.006 C 
BRANCH   8   9
ATOM      9  C   UNL     1      36.741  16.590  28.762  1.00  0.00     0.053 C 
BRANCH   9  10
ATOM     10  C   UNL     1      36.588  17.868  27.994  1.00  0.00     0.041 C 
ATOM     11  O   UNL     1      37.086  18.937  28.437  1.00  0.00    -0.550 OA
ATOM     12  O   UNL     1      35.922  17.873  26.775  1.00  0.00    -0.550 OA
ENDBRANCH   9  10
ENDBRANCH   8   9
ENDBRANCH   7   8
ENDBRANCH   6   7
ENDBRANCH   5   6
ENDBRANCH   4   5
ENDBRANCH   3   4
ENDBRANCH   1   3
BRANCH   2  13
ATOM     13  C   UNL     1      39.312  20.088  32.672  1.00  0.00     0.027 C 
BRANCH  13  14
ATOM     14  C   UNL     1      39.062  19.567  31.248  1.00  0.00     0.004 C 
BRANCH  14  15
ATOM     15  C   UNL     1      40.365  19.193  30.523  1.00  0.00     0.000 C 
BRANCH  15  16
ATOM     16  C   UNL     1      40.298  17.802  29.868  1.00  0.00     0.000 C 
BRANCH  16  17
ATOM     17  C   UNL     1      40.987  16.718  30.711  1.00  0.00    -0.000 C 
BRANCH  17  18
ATOM     18  C   UNL     1      39.988  15.716  31.313  1.00  0.00    -0.000 C 
BRANCH  18  19
ATOM     19  C   UNL     1      39.516  16.125  32.718  1.00  0.00    -0.003 C 
ATOM     20  C   UNL     1      40.636  16.717  33.572  1.00  0.00     0.004 C 
ENDBRANCH  18  19
ENDBRANCH  17  18
ENDBRANCH  16  17
ENDBRANCH  15  16
ENDBRANCH  14  15
ENDBRANCH  13  14
ENDBRANCH   2  13
TORSDOF 15
ENDMDL
MODEL 5
REMARK VINA RESULT:    -5.288      1.513      2.403
REMARK INTER + INTRA:         -12.212
REMARK INTER:                  -9.429
REMARK INTRA:                  -2.784
REMARK UNBOUND:                -2.286
REMARK SMILES CCCCCCCCC=CCCCCCCCC(=O)[O-]
REMARK SMILES IDX 10 1 9 2 11 3 12 4 13 5 14 6 15 7 16 8 17 9 18 10 19 11
REMARK SMILES IDX 20 12 8 13 7 14 6 15 5 16 4 17 3 18 2 19 1 20
REMARK H PARENT
REMARK Flexibility Score: inf
ROOT
ATOM      1  C   UNL     1      37.913  18.994  33.855  1.00  0.00    -0.031 C 
ATOM      2  C   UNL     1      36.645  19.148  33.445  1.00  0.00    -0.031 C 
ENDROOT
BRANCH   1   3
ATOM      3  C   UNL     1      39.062  19.629  33.120  1.00  0.00     0.027 C 
BRANCH   3   4
ATOM      4  C   UNL     1      38.753  19.758  31.621  1.00  0.00     0.004 C 
BRANCH   4   5
ATOM      5  C   UNL     1      39.556  18.765  30.762  1.00  0.00     0.000 C 
BRANCH   5   6
ATOM      6  C   UNL     1      38.783  18.165  29.572  1.00  0.00     0.000 C 
BRANCH   6   7
ATOM      7  C   UNL     1      37.448  18.881  29.274  1.00  0.00     0.000 C 
BRANCH   7   8
ATOM      8  C   UNL     1      36.902  18.534  27.878  1.00  0.00     0.006 C 
BRANCH   8   9
ATOM      9  C   UNL     1      36.462  17.067  27.776  1.00  0.00     0.053 C 
BRANCH   9  10
ATOM     10  C   UNL     1      35.105  16.937  27.153  1.00  0.00     0.041 C 
ATOM     11  O   UNL     1      34.714  17.780  26.303  1.00  0.00    -0.550 OA
ATOM     12  O   UNL     1      34.284  15.869  27.491  1.00  0.00    -0.550 OA
ENDBRANCH   9  10
ENDBRANCH   8   9
ENDBRANCH   7   8
ENDBRANCH   6   7
ENDBRANCH   5   6
ENDBRANCH   4   5
ENDBRANCH   3   4
ENDBRANCH   1   3
BRANCH   2  13
ATOM     13  C   UNL     1      35.497  18.503  34.173  1.00  0.00     0.027 C 
BRANCH  13  14
ATOM     14  C   UNL     1      34.339  18.183  33.214  1.00  0.00     0.004 C 
BRANCH  14  15
ATOM     15  C   UNL     1      34.710  18.430  31.743  1.00  0.00     0.000 C 
BRANCH  15  16
ATOM     16  C   UNL     1      34.271  17.278  30.822  1.00  0.00     0.000 C 
BRANCH  16  17
ATOM     17  C   UNL     1      34.913  15.935  31.206  1.00  0.00    -0.000 C 
BRANCH  17  18
ATOM     18  C   UNL     1      36.449  16.011  31.261  1.00  0.00    -0.000 C 
BRANCH  18  19
ATOM     19  C   UNL     1      37.122  14.739  30.722  1.00  0.00    -0.003 C 
ATOM     20  C   UNL     1      36.228  13.955  29.762  1.00  0.00     0.004 C 
ENDBRANCH  18  19
ENDBRANCH  17  18
ENDBRANCH  16  17
ENDBRANCH  15  16
ENDBRANCH  14  15
ENDBRANCH  13  14
ENDBRANCH   2  13
TORSDOF 15
ENDMDL
MODEL 6
REMARK VINA RESULT:    -5.128      1.147      4.880
REMARK INTER + INTRA:         -11.912
REMARK INTER:                  -9.560
REMARK INTRA:                  -2.352
REMARK UNBOUND:                -2.286
REMARK SMILES CCCCCCCCC=CCCCCCCCC(=O)[O-]
REMARK SMILES IDX 10 1 9 2 11 3 12 4 13 5 14 6 15 7 16 8 17 9 18 10 19 11
REMARK SMILES IDX 20 12 8 13 7 14 6 15 5 16 4 17 3 18 2 19 1 20
REMARK H PARENT
REMARK Flexibility Score: inf
ROOT
ATOM      1  C   UNL     1      35.621  18.562  33.886  1.00  0.00    -0.031 C 
ATOM      2  C   UNL     1      36.796  18.639  33.243  1.00  0.00    -0.031 C 
ENDROOT
BRANCH   1   3
ATOM      3  C   UNL     1      34.370  18.097  33.191  1.00  0.00     0.027 C 
BRANCH   3   4
ATOM      4  C   UNL     1      34.362  18.534  31.720  1.00  0.00     0.004 C 
BRANCH   4   5
ATOM      5  C   UNL     1      34.330  17.345  30.746  1.00  0.00     0.000 C 
BRANCH   5   6
ATOM      6  C   UNL     1      35.059  16.081  31.241  1.00  0.00     0.000 C 
BRANCH   6   7
ATOM      7  C   UNL     1      35.228  14.996  30.154  1.00  0.00     0.000 C 
BRANCH   7   8
ATOM      8  C   UNL     1      34.861  15.516  28.754  1.00  0.00     0.006 C 
BRANCH   8   9
ATOM      9  C   UNL     1      36.089  16.011  27.978  1.00  0.00     0.053 C 
BRANCH   9  10
ATOM     10  C   UNL     1      35.799  17.277  27.231  1.00  0.00     0.041 C 
ATOM     11  O   UNL     1      36.561  18.273  27.352  1.00  0.00    -0.550 OA
ATOM     12  O   UNL     1      34.704  17.348  26.379  1.00  0.00    -0.550 OA
ENDBRANCH   9  10
ENDBRANCH   8   9
ENDBRANCH   7   8
ENDBRANCH   6   7
ENDBRANCH   5   6
ENDBRANCH   4   5
ENDBRANCH   3   4
ENDBRANCH   1   3
BRANCH   2  13
ATOM     13  C   UNL     1      38.044  19.116  33.933  1.00  0.00     0.027 C 
BRANCH  13  14
ATOM     14  C   UNL     1      38.863  20.044  33.024  1.00  0.00     0.004 C 
BRANCH  14  15
ATOM     15  C   UNL     1      40.328  19.596  32.895  1.00  0.00     0.000 C 
BRANCH  15  16
ATOM     16  C   UNL     1      40.522  18.507  31.825  1.00  0.00     0.000 C 
BRANCH  16  17
ATOM     17  C   UNL     1      39.930  18.904  30.463  1.00  0.00    -0.000 C 
BRANCH  17  18
ATOM     18  C   UNL     1      38.769  17.990  30.037  1.00  0.00    -0.000 C 
BRANCH  18  19
ATOM     19  C   UNL     1      38.728  16.677  30.834  1.00  0.00    -0.003 C 
ATOM     20  C   UNL     1      39.130  15.463  29.998  1.00  0.00     0.004 C 
ENDBRANCH  18  19
ENDBRANCH  17  18
ENDBRANCH  16  17
ENDBRANCH  15  16
ENDBRANCH  14  15
ENDBRANCH  13  14
ENDBRANCH   2  13
TORSDOF 15
ENDMDL
MODEL 7
REMARK VINA RESULT:    -5.023      1.730      5.390
REMARK INTER + INTRA:         -11.714
REMARK INTER:                  -9.643
REMARK INTRA:                  -2.071
REMARK UNBOUND:                -2.286
REMARK SMILES CCCCCCCCC=CCCCCCCCC(=O)[O-]
REMARK SMILES IDX 10 1 9 2 11 3 12 4 13 5 14 6 15 7 16 8 17 9 18 10 19 11
REMARK SMILES IDX 20 12 8 13 7 14 6 15 5 16 4 17 3 18 2 19 1 20
REMARK H PARENT
REMARK Flexibility Score: inf
ROOT
ATOM      1  C   UNL     1      33.714  16.980  30.138  1.00  0.00    -0.031 C 
ATOM      2  C   UNL     1      34.639  17.196  31.086  1.00  0.00    -0.031 C 
ENDROOT
BRANCH   1   3
ATOM      3  C   UNL     1      33.625  15.668  29.407  1.00  0.00     0.027 C 
BRANCH   3   4
ATOM      4  C   UNL     1      33.971  15.841  27.921  1.00  0.00     0.004 C 
BRANCH   4   5
ATOM      5  C   UNL     1      35.485  15.951  27.672  1.00  0.00     0.000 C 
BRANCH   5   6
ATOM      6  C   UNL     1      36.001  17.383  27.433  1.00  0.00     0.000 C 
BRANCH   6   7
ATOM      7  C   UNL     1      37.188  17.774  28.339  1.00  0.00     0.000 C 
BRANCH   7   8
ATOM      8  C   UNL     1      37.747  16.570  29.115  1.00  0.00     0.006 C 
BRANCH   8   9
ATOM      9  C   UNL     1      39.132  16.146  28.610  1.00  0.00     0.053 C 
BRANCH   9  10
ATOM     10  C   UNL     1      39.805  15.202  29.560  1.00  0.00     0.041 C 
ATOM     11  O   UNL     1      39.382  14.023  29.688  1.00  0.00    -0.550 OA
ATOM     12  O   UNL     1      40.917  15.617  30.282  1.00  0.00    -0.550 OA
ENDBRANCH   9  10
ENDBRANCH   8   9
ENDBRANCH   7   8
ENDBRANCH   6   7
ENDBRANCH   5   6
ENDBRANCH   4   5
ENDBRANCH   3   4
ENDBRANCH   1   3
BRANCH   2  13
ATOM     13  C   UNL     1      34.737  18.511  31.809  1.00  0.00     0.027 C 
BRANCH  13  14
ATOM     14  C   UNL     1      34.640  18.319  33.330  1.00  0.00     0.004 C 
BRANCH  14  15
ATOM     15  C   UNL     1      35.983  18.558  34.039  1.00  0.00     0.000 C 
BRANCH  15  16
ATOM     16  C   UNL     1      37.149  18.738  33.051  1.00  0.00     0.000 C 
BRANCH  16  17
ATOM     17  C   UNL     1      38.235  19.685  33.583  1.00  0.00    -0.000 C 
BRANCH  17  18
ATOM     18  C   UNL     1      39.161  20.205  32.470  1.00  0.00    -0.000 C 
BRANCH  18  19
ATOM     19  C   UNL     1      39.015  19.411  31.162  1.00  0.00    -0.003 C 
ATOM     20  C   UNL     1      40.359  19.097  30.506  1.00  0.00     0.004 C 
ENDBRANCH  18  19
ENDBRANCH  17  18
ENDBRANCH  16  17
ENDBRANCH  15  16
ENDBRANCH  14  15
ENDBRANCH  13  14
ENDBRANCH   2  13
TORSDOF 15
ENDMDL
MODEL 8
REMARK VINA RESULT:    -5.020      1.901      4.633
REMARK INTER + INTRA:         -11.709
REMARK INTER:                  -9.345
REMARK INTRA:                  -2.364
REMARK UNBOUND:                -2.286
REMARK SMILES CCCCCCCCC=CCCCCCCCC(=O)[O-]
REMARK SMILES IDX 10 1 9 2 11 3 12 4 13 5 14 6 15 7 16 8 17 9 18 10 19 11
REMARK SMILES IDX 20 12 8 13 7 14 6 15 5 16 4 17 3 18 2 19 1 20
REMARK H PARENT
REMARK Flexibility Score: inf
ROOT
ATOM      1  C   UNL     1      40.892  18.175  32.346  1.00  0.00    -0.031 C 
ATOM      2  C   UNL     1      40.654  16.941  32.815  1.00  0.00    -0.031 C 
ENDROOT
BRANCH   1   3
ATOM      3  C   UNL     1      40.518  19.403  33.131  1.00  0.00     0.027 C 
BRANCH   3   4
ATOM      4  C   UNL     1      39.166  19.963  32.666  1.00  0.00     0.004 C 
BRANCH   4   5
ATOM      5  C   UNL     1      38.017  19.617  33.627  1.00  0.00     0.000 C 
BRANCH   5   6
ATOM      6  C   UNL     1      36.928  18.701  33.035  1.00  0.00     0.000 C 
BRANCH   6   7
ATOM      7  C   UNL     1      35.725  18.479  33.976  1.00  0.00     0.000 C 
BRANCH   7   8
ATOM      8  C   UNL     1      34.400  18.352  33.204  1.00  0.00     0.006 C 
BRANCH   8   9
ATOM      9  C   UNL     1      34.601  18.452  31.686  1.00  0.00     0.053 C 
BRANCH   9  10
ATOM     10  C   UNL     1      34.395  17.129  31.011  1.00  0.00     0.041 C 
ATOM     11  O   UNL     1      33.590  17.027  30.049  1.00  0.00    -0.550 OA
ATOM     12  O   UNL     1      35.115  16.017  31.427  1.00  0.00    -0.550 OA
ENDBRANCH   9  10
ENDBRANCH   8   9
ENDBRANCH   7   8
ENDBRANCH   6   7
ENDBRANCH   5   6
ENDBRANCH   4   5
ENDBRANCH   3   4
ENDBRANCH   1   3
BRANCH   2  13
ATOM     13  C   UNL     1      41.017  15.713  32.026  1.00  0.00     0.027 C 
BRANCH  13  14
ATOM     14  C   UNL     1      39.797  14.801  31.822  1.00  0.00     0.004 C 
BRANCH  14  15
ATOM     15  C   UNL     1      38.592  15.555  31.237  1.00  0.00     0.000 C 
BRANCH  15  16
ATOM     16  C   UNL     1      38.446  15.349  29.719  1.00  0.00     0.000 C 
BRANCH  16  17
ATOM     17  C   UNL     1      38.795  16.610  28.914  1.00  0.00    -0.000 C 
BRANCH  17  18
ATOM     18  C   UNL     1      38.501  17.905  29.691  1.00  0.00    -0.000 C 
BRANCH  18  19
ATOM     19  C   UNL     1      37.269  18.650  29.154  1.00  0.00    -0.003 C 
ATOM     20  C   UNL     1      36.905  18.243  27.727  1.00  0.00     0.004 C 
ENDBRANCH  18  19
ENDBRANCH  17  18
ENDBRANCH  16  17
ENDBRANCH  15  16
ENDBRANCH  14  15
ENDBRANCH  13  14
ENDBRANCH   2  13
TORSDOF 15
ENDMDL
MODEL 9
REMARK VINA RESULT:    -4.977      2.256      4.937
REMARK INTER + INTRA:         -11.627
REMARK INTER:                  -9.232
REMARK INTRA:                  -2.395
REMARK UNBOUND:                -2.286
REMARK SMILES CCCCCCCCC=CCCCCCCCC(=O)[O-]
REMARK SMILES IDX 10 1 9 2 11 3 12 4 13 5 14 6 15 7 16 8 17 9 18 10 19 11
REMARK SMILES IDX 20 12 8 13 7 14 6 15 5 16 4 17 3 18 2 19 1 20
REMARK H PARENT
REMARK Flexibility Score: inf
ROOT
ATOM      1  C   UNL     1      36.664  16.874  27.795  1.00  0.00    -0.031 C 
ATOM      2  C   UNL     1      35.496  17.369  27.359  1.00  0.00    -0.031 C 
ENDROOT
BRANCH   1   3
ATOM      3  C   UNL     1      37.790  17.773  28.227  1.00  0.00     0.027 C 
BRANCH   3   4
ATOM      4  C   UNL     1      38.328  17.359  29.604  1.00  0.00     0.004 C 
BRANCH   4   5
ATOM      5  C   UNL     1      39.674  18.023  29.941  1.00  0.00     0.000 C 
BRANCH   5   6
ATOM      6  C   UNL     1      39.582  19.227  30.898  1.00  0.00     0.000 C 
BRANCH   6   7
ATOM      7  C   UNL     1      38.223  19.341  31.623  1.00  0.00     0.000 C 
BRANCH   7   8
ATOM      8  C   UNL     1      38.345  19.055  33.130  1.00  0.00     0.006 C 
BRANCH   8   9
ATOM      9  C   UNL     1      39.652  18.331  33.480  1.00  0.00     0.053 C 
BRANCH   9  10
ATOM     10  C   UNL     1      39.421  16.880  33.774  1.00  0.00     0.041 C 
ATOM     11  O   UNL     1      39.170  16.075  32.839  1.00  0.00    -0.550 OA
ATOM     12  O   UNL     1      39.512  16.411  35.079  1.00  0.00    -0.550 OA
ENDBRANCH   9  10
ENDBRANCH   8   9
ENDBRANCH   7   8
ENDBRANCH   6   7
ENDBRANCH   5   6
ENDBRANCH   4   5
ENDBRANCH   3   4
ENDBRANCH   1   3
BRANCH   2  13
ATOM     13  C   UNL     1      34.374  16.470  26.916  1.00  0.00     0.027 C 
BRANCH  13  14
ATOM     14  C   UNL     1      34.056  15.409  27.980  1.00  0.00     0.004 C 
BRANCH  14  15
ATOM     15  C   UNL     1      33.725  16.030  29.347  1.00  0.00     0.000 C 
BRANCH  15  16
ATOM     16  C   UNL     1      34.534  15.400  30.494  1.00  0.00     0.000 C 
BRANCH  16  17
ATOM     17  C   UNL     1      35.157  16.452  31.426  1.00  0.00    -0.000 C 
BRANCH  17  18
ATOM     18  C   UNL     1      34.880  17.891  30.958  1.00  0.00    -0.000 C 
BRANCH  18  19
ATOM     19  C   UNL     1      34.292  18.772  32.072  1.00  0.00    -0.003 C 
ATOM     20  C   UNL     1      34.568  18.222  33.471  1.00  0.00     0.004 C 
ENDBRANCH  18  19
ENDBRANCH  17  18
ENDBRANCH  16  17
ENDBRANCH  15  16
ENDBRANCH  14  15
ENDBRANCH  13  14
ENDBRANCH   2  13
TORSDOF 15
ENDMDL
