MODEL 1
REMARK VINA RESULT:     0.973      0.000      0.000
REMARK INTER + INTRA:           0.784
REMARK INTER:                   1.884
REMARK INTRA:                  -1.099
REMARK UNBOUND:                -1.099
REMARK SMILES CCCCCCCCCCCCCCCCCC(=O)[O-]
REMARK SMILES IDX 10 1 11 2 12 3 13 4 14 5 15 6 16 7 17 8 18 9 19 10 20 11
REMARK SMILES IDX 9 12 8 13 7 14 6 15 5 16 4 17 3 18 2 19 1 20
REMARK H PARENT
REMARK Flexibility Score: inf
ROOT
ATOM      1  C   UNL     1      35.043 106.235 263.632  1.00  0.00     0.000 C 
ENDROOT
BRANCH   1   2
ATOM      2  C   UNL     1      34.880 105.001 264.538  1.00  0.00     0.000 C 
BRANCH   2   3
ATOM      3  C   UNL     1      34.959 105.343 266.034  1.00  0.00     0.000 C 
BRANCH   3   4
ATOM      4  C   UNL     1      35.185 104.077 266.873  1.00  0.00     0.000 C 
BRANCH   4   5
ATOM      5  C   UNL     1      35.687 104.385 268.296  1.00  0.00     0.000 C 
BRANCH   5   6
ATOM      6  C   UNL     1      34.881 105.455 269.059  1.00  0.00     0.000 C 
BRANCH   6   7
ATOM      7  C   UNL     1      35.694 106.302 270.054  1.00  0.00     0.006 C 
BRANCH   7   8
ATOM      8  C   UNL     1      35.642 107.802 269.741  1.00  0.00     0.053 C 
BRANCH   8   9
ATOM      9  C   UNL     1      35.921 108.042 268.291  1.00  0.00     0.041 C 
ATOM     10  O   UNL     1      37.078 107.862 267.830  1.00  0.00    -0.550 OA
ATOM     11  O   UNL     1      34.913 108.512 267.458  1.00  0.00    -0.550 OA
ENDBRANCH   8   9
ENDBRANCH   7   8
ENDBRANCH   6   7
ENDBRANCH   5   6
ENDBRANCH   4   5
ENDBRANCH   3   4
ENDBRANCH   2   3
ENDBRANCH   1   2
BRANCH   1  12
ATOM     12  C   UNL     1      36.177 106.136 262.591  1.00  0.00     0.000 C 
BRANCH  12  13
ATOM     13  C   UNL     1      37.511 106.779 263.017  1.00  0.00    -0.000 C 
BRANCH  13  14
ATOM     14  C   UNL     1      38.736 106.356 262.182  1.00  0.00    -0.000 C 
BRANCH  14  15
ATOM     15  C   UNL     1      38.452 105.301 261.097  1.00  0.00    -0.000 C 
BRANCH  15  16
ATOM     16  C   UNL     1      38.921 105.740 259.699  1.00  0.00    -0.000 C 
BRANCH  16  17
ATOM     17  C   UNL     1      38.103 105.089 258.571  1.00  0.00    -0.000 C 
BRANCH  17  18
ATOM     18  C   UNL     1      36.586 105.252 258.775  1.00  0.00    -0.000 C 
BRANCH  18  19
ATOM     19  C   UNL     1      36.188 106.700 259.100  1.00  0.00    -0.003 C 
ATOM     20  C   UNL     1      35.674 107.462 257.878  1.00  0.00     0.004 C 
ENDBRANCH  18  19
ENDBRANCH  17  18
ENDBRANCH  16  17
ENDBRANCH  15  16
ENDBRANCH  14  15
ENDBRANCH  13  14
ENDBRANCH  12  13
ENDBRANCH   1  12
TORSDOF 16
ENDMDL
MODEL 2
REMARK VINA RESULT:     1.044      1.769      2.667
REMARK INTER + INTRA:           0.920
REMARK INTER:                   1.446
REMARK INTRA:                  -0.526
REMARK UNBOUND:                -1.099
REMARK SMILES CCCCCCCCCCCCCCCCCC(=O)[O-]
REMARK SMILES IDX 10 1 11 2 12 3 13 4 14 5 15 6 16 7 17 8 18 9 19 10 20 11
REMARK SMILES IDX 9 12 8 13 7 14 6 15 5 16 4 17 3 18 2 19 1 20
REMARK H PARENT
REMARK Flexibility Score: inf
ROOT
ATOM      1  C   UNL     1      36.618 106.356 263.440  1.00  0.00     0.000 C 
ENDROOT
BRANCH   1   2
ATOM      2  C   UNL     1      35.227 106.175 264.072  1.00  0.00     0.000 C 
BRANCH   2   3
ATOM      3  C   UNL     1      34.903 107.249 265.122  1.00  0.00     0.000 C 
BRANCH   3   4
ATOM      4  C   UNL     1      35.063 106.690 266.543  1.00  0.00     0.000 C 
BRANCH   4   5
ATOM      5  C   UNL     1      34.876 107.763 267.633  1.00  0.00     0.000 C 
BRANCH   5   6
ATOM      6  C   UNL     1      35.967 107.789 268.721  1.00  0.00     0.000 C 
BRANCH   6   7
ATOM      7  C   UNL     1      35.635 107.000 270.000  1.00  0.00     0.006 C 
BRANCH   7   8
ATOM      8  C   UNL     1      36.349 105.645 270.065  1.00  0.00     0.053 C 
BRANCH   8   9
ATOM      9  C   UNL     1      37.679 105.788 270.737  1.00  0.00     0.041 C 
ATOM     10  O   UNL     1      38.364 106.831 270.569  1.00  0.00    -0.550 OA
ATOM     11  O   UNL     1      38.184 104.749 271.507  1.00  0.00    -0.550 OA
ENDBRANCH   8   9
ENDBRANCH   7   8
ENDBRANCH   6   7
ENDBRANCH   5   6
ENDBRANCH   4   5
ENDBRANCH   3   4
ENDBRANCH   2   3
ENDBRANCH   1   2
BRANCH   1  12
ATOM     12  C   UNL     1      36.727 105.919 261.965  1.00  0.00     0.000 C 
BRANCH  12  13
ATOM     13  C   UNL     1      37.997 106.400 261.234  1.00  0.00    -0.000 C 
BRANCH  13  14
ATOM     14  C   UNL     1      38.728 105.317 260.415  1.00  0.00    -0.000 C 
BRANCH  14  15
ATOM     15  C   UNL     1      38.187 105.101 258.990  1.00  0.00    -0.000 C 
BRANCH  15  16
ATOM     16  C   UNL     1      36.687 104.760 258.965  1.00  0.00    -0.000 C 
BRANCH  16  17
ATOM     17  C   UNL     1      35.919 105.557 257.897  1.00  0.00    -0.000 C 
BRANCH  17  18
ATOM     18  C   UNL     1      36.278 107.054 257.907  1.00  0.00    -0.000 C 
BRANCH  18  19
ATOM     19  C   UNL     1      35.148 107.926 258.474  1.00  0.00    -0.003 C 
ATOM     20  C   UNL     1      35.182 109.360 257.944  1.00  0.00     0.004 C 
ENDBRANCH  18  19
ENDBRANCH  17  18
ENDBRANCH  16  17
ENDBRANCH  15  16
ENDBRANCH  14  15
ENDBRANCH  13  14
ENDBRANCH  12  13
ENDBRANCH   1  12
TORSDOF 16
ENDMDL
MODEL 3
REMARK VINA RESULT:     1.178      2.071      3.155
REMARK INTER + INTRA:           1.180
REMARK INTER:                   0.980
REMARK INTRA:                   0.200
REMARK UNBOUND:                -1.099
REMARK SMILES CCCCCCCCCCCCCCCCCC(=O)[O-]
REMARK SMILES IDX 10 1 11 2 12 3 13 4 14 5 15 6 16 7 17 8 18 9 19 10 20 11
REMARK SMILES IDX 9 12 8 13 7 14 6 15 5 16 4 17 3 18 2 19 1 20
REMARK H PARENT
REMARK Flexibility Score: inf
ROOT
ATOM      1  C   UNL     1      35.708 107.154 265.694  1.00  0.00     0.000 C 
ENDROOT
BRANCH   1   2
ATOM      2  C   UNL     1      34.988 108.358 266.328  1.00  0.00     0.000 C 
BRANCH   2   3
ATOM      3  C   UNL     1      35.391 108.592 267.792  1.00  0.00     0.000 C 
BRANCH   3   4
ATOM      4  C   UNL     1      34.879 107.455 268.689  1.00  0.00     0.000 C 
BRANCH   4   5
ATOM      5  C   UNL     1      35.930 106.353 268.916  1.00  0.00     0.000 C 
BRANCH   5   6
ATOM      6  C   UNL     1      35.399 105.069 269.585  1.00  0.00     0.000 C 
BRANCH   6   7
ATOM      7  C   UNL     1      35.071 103.916 268.619  1.00  0.00     0.006 C 
BRANCH   7   8
ATOM      8  C   UNL     1      34.875 104.389 267.173  1.00  0.00     0.053 C 
BRANCH   8   9
ATOM      9  C   UNL     1      35.571 103.466 266.224  1.00  0.00     0.041 C 
ATOM     10  O   UNL     1      35.364 103.557 264.985  1.00  0.00    -0.550 OA
ATOM     11  O   UNL     1      36.410 102.471 266.710  1.00  0.00    -0.550 OA
ENDBRANCH   8   9
ENDBRANCH   7   8
ENDBRANCH   6   7
ENDBRANCH   5   6
ENDBRANCH   4   5
ENDBRANCH   3   4
ENDBRANCH   2   3
ENDBRANCH   1   2
BRANCH   1  12
ATOM     12  C   UNL     1      34.887 106.385 264.638  1.00  0.00     0.000 C 
BRANCH  12  13
ATOM     13  C   UNL     1      35.570 106.232 263.265  1.00  0.00    -0.000 C 
BRANCH  13  14
ATOM     14  C   UNL     1      37.042 105.777 263.314  1.00  0.00    -0.000 C 
BRANCH  14  15
ATOM     15  C   UNL     1      37.661 105.419 261.950  1.00  0.00    -0.000 C 
BRANCH  15  16
ATOM     16  C   UNL     1      37.574 106.571 260.934  1.00  0.00    -0.000 C 
BRANCH  16  17
ATOM     17  C   UNL     1      37.659 106.080 259.479  1.00  0.00    -0.000 C 
BRANCH  17  18
ATOM     18  C   UNL     1      36.372 105.370 259.021  1.00  0.00    -0.000 C 
BRANCH  18  19
ATOM     19  C   UNL     1      35.650 106.130 257.898  1.00  0.00    -0.003 C 
ATOM     20  C   UNL     1      35.621 107.641 258.127  1.00  0.00     0.004 C 
ENDBRANCH  18  19
ENDBRANCH  17  18
ENDBRANCH  16  17
ENDBRANCH  15  16
ENDBRANCH  14  15
ENDBRANCH  13  14
ENDBRANCH  12  13
ENDBRANCH   1  12
TORSDOF 16
ENDMDL
MODEL 4
REMARK VINA RESULT:     1.567      3.292      7.999
REMARK INTER + INTRA:           1.932
REMARK INTER:                   2.957
REMARK INTRA:                  -1.024
REMARK UNBOUND:                -1.099
REMARK SMILES CCCCCCCCCCCCCCCCCC(=O)[O-]
REMARK SMILES IDX 10 1 11 2 12 3 13 4 14 5 15 6 16 7 17 8 18 9 19 10 20 11
REMARK SMILES IDX 9 12 8 13 7 14 6 15 5 16 4 17 3 18 2 19 1 20
REMARK H PARENT
REMARK Flexibility Score: inf
ROOT
ATOM      1  C   UNL     1      36.687 103.643 266.053  1.00  0.00     0.000 C 
ENDROOT
BRANCH   1   2
ATOM      2  C   UNL     1      35.867 103.637 264.751  1.00  0.00     0.000 C 
BRANCH   2   3
ATOM      3  C   UNL     1      34.911 104.835 264.640  1.00  0.00     0.000 C 
BRANCH   3   4
ATOM      4  C   UNL     1      35.669 106.102 264.220  1.00  0.00     0.000 C 
BRANCH   4   5
ATOM      5  C   UNL     1      36.024 106.118 262.721  1.00  0.00     0.000 C 
BRANCH   5   6
ATOM      6  C   UNL     1      37.434 106.645 262.387  1.00  0.00     0.000 C 
BRANCH   6   7
ATOM      7  C   UNL     1      38.077 106.038 261.128  1.00  0.00     0.006 C 
BRANCH   7   8
ATOM      8  C   UNL     1      37.139 105.080 260.383  1.00  0.00     0.053 C 
BRANCH   8   9
ATOM      9  C   UNL     1      37.014 105.483 258.948  1.00  0.00     0.041 C 
ATOM     10  O   UNL     1      37.697 104.901 258.065  1.00  0.00    -0.550 OA
ATOM     11  O   UNL     1      36.179 106.535 258.592  1.00  0.00    -0.550 OA
ENDBRANCH   8   9
ENDBRANCH   7   8
ENDBRANCH   6   7
ENDBRANCH   5   6
ENDBRANCH   4   5
ENDBRANCH   3   4
ENDBRANCH   2   3
ENDBRANCH   1   2
BRANCH   1  12
ATOM     12  C   UNL     1      36.102 102.791 267.197  1.00  0.00     0.000 C 
BRANCH  12  13
ATOM     13  C   UNL     1      34.885 103.409 267.914  1.00  0.00    -0.000 C 
BRANCH  13  14
ATOM     14  C   UNL     1      34.875 104.950 267.975  1.00  0.00    -0.000 C 
BRANCH  14  15
ATOM     15  C   UNL     1      35.864 105.569 268.980  1.00  0.00    -0.000 C 
BRANCH  15  16
ATOM     16  C   UNL     1      35.176 106.477 270.013  1.00  0.00    -0.000 C 
BRANCH  16  17
ATOM     17  C   UNL     1      35.201 107.959 269.604  1.00  0.00    -0.000 C 
BRANCH  17  18
ATOM     18  C   UNL     1      35.731 108.167 268.174  1.00  0.00    -0.000 C 
BRANCH  18  19
ATOM     19  C   UNL     1      34.939 109.234 267.403  1.00  0.00    -0.003 C 
ATOM     20  C   UNL     1      35.041 109.068 265.886  1.00  0.00     0.004 C 
ENDBRANCH  18  19
ENDBRANCH  17  18
ENDBRANCH  16  17
ENDBRANCH  15  16
ENDBRANCH  14  15
ENDBRANCH  13  14
ENDBRANCH  12  13
ENDBRANCH   1  12
TORSDOF 16
ENDMDL
MODEL 5
REMARK VINA RESULT:     1.628      1.751      4.664
REMARK INTER + INTRA:           2.051
REMARK INTER:                   2.496
REMARK INTRA:                  -0.445
REMARK UNBOUND:                -1.099
REMARK SMILES CCCCCCCCCCCCCCCCCC(=O)[O-]
REMARK SMILES IDX 10 1 11 2 12 3 13 4 14 5 15 6 16 7 17 8 18 9 19 10 20 11
REMARK SMILES IDX 9 12 8 13 7 14 6 15 5 16 4 17 3 18 2 19 1 20
REMARK H PARENT
REMARK Flexibility Score: inf
ROOT
ATOM      1  C   UNL     1      39.494 106.234 261.987  1.00  0.00     0.000 C 
ENDROOT
BRANCH   1   2
ATOM      2  C   UNL     1      38.445 107.061 262.751  1.00  0.00     0.000 C 
BRANCH   2   3
ATOM      3  C   UNL     1      37.355 106.192 263.399  1.00  0.00     0.000 C 
BRANCH   3   4
ATOM      4  C   UNL     1      35.956 106.672 262.987  1.00  0.00     0.000 C 
BRANCH   4   5
ATOM      5  C   UNL     1      34.879 106.346 264.038  1.00  0.00     0.000 C 
BRANCH   5   6
ATOM      6  C   UNL     1      34.893 107.243 265.292  1.00  0.00     0.000 C 
BRANCH   6   7
ATOM      7  C   UNL     1      34.875 106.491 266.635  1.00  0.00     0.006 C 
BRANCH   7   8
ATOM      8  C   UNL     1      35.632 107.234 267.743  1.00  0.00     0.053 C 
BRANCH   8   9
ATOM      9  C   UNL     1      35.455 106.536 269.054  1.00  0.00     0.041 C 
ATOM     10  O   UNL     1      35.525 107.184 270.131  1.00  0.00    -0.550 OA
ATOM     11  O   UNL     1      35.261 105.161 269.089  1.00  0.00    -0.550 OA
ENDBRANCH   8   9
ENDBRANCH   7   8
ENDBRANCH   6   7
ENDBRANCH   5   6
ENDBRANCH   4   5
ENDBRANCH   3   4
ENDBRANCH   2   3
ENDBRANCH   1   2
BRANCH   1  12
ATOM     12  C   UNL     1      38.924 105.082 261.134  1.00  0.00     0.000 C 
BRANCH  12  13
ATOM     13  C   UNL     1      38.059 105.524 259.937  1.00  0.00    -0.000 C 
BRANCH  13  14
ATOM     14  C   UNL     1      36.591 105.056 259.984  1.00  0.00    -0.000 C 
BRANCH  14  15
ATOM     15  C   UNL     1      36.332 103.805 260.844  1.00  0.00    -0.000 C 
BRANCH  15  16
ATOM     16  C   UNL     1      35.050 103.914 261.686  1.00  0.00    -0.000 C 
BRANCH  16  17
ATOM     17  C   UNL     1      35.050 102.952 262.886  1.00  0.00    -0.000 C 
BRANCH  17  18
ATOM     18  C   UNL     1      34.877 103.685 264.229  1.00  0.00    -0.000 C 
BRANCH  18  19
ATOM     19  C   UNL     1      36.027 103.400 265.206  1.00  0.00    -0.003 C 
ATOM     20  C   UNL     1      35.545 102.835 266.542  1.00  0.00     0.004 C 
ENDBRANCH  18  19
ENDBRANCH  17  18
ENDBRANCH  16  17
ENDBRANCH  15  16
ENDBRANCH  14  15
ENDBRANCH  13  14
ENDBRANCH  12  13
ENDBRANCH   1  12
TORSDOF 16
ENDMDL
MODEL 6
REMARK VINA RESULT:     1.951      3.313      8.461
REMARK INTER + INTRA:           2.677
REMARK INTER:                   2.671
REMARK INTRA:                   0.006
REMARK UNBOUND:                -1.099
REMARK SMILES CCCCCCCCCCCCCCCCCC(=O)[O-]
REMARK SMILES IDX 10 1 11 2 12 3 13 4 14 5 15 6 16 7 17 8 18 9 19 10 20 11
REMARK SMILES IDX 9 12 8 13 7 14 6 15 5 16 4 17 3 18 2 19 1 20
REMARK H PARENT
REMARK Flexibility Score: inf
ROOT
ATOM      1  C   UNL     1      36.219 102.949 266.537  1.00  0.00     0.000 C 
ENDROOT
BRANCH   1   2
ATOM      2  C   UNL     1      36.134 102.769 265.011  1.00  0.00     0.000 C 
BRANCH   2   3
ATOM      3  C   UNL     1      34.945 103.515 264.386  1.00  0.00     0.000 C 
BRANCH   3   4
ATOM      4  C   UNL     1      35.268 105.005 264.205  1.00  0.00     0.000 C 
BRANCH   4   5
ATOM      5  C   UNL     1      35.207 105.456 262.734  1.00  0.00     0.000 C 
BRANCH   5   6
ATOM      6  C   UNL     1      36.407 106.299 262.256  1.00  0.00     0.000 C 
BRANCH   6   7
ATOM      7  C   UNL     1      37.517 105.509 261.541  1.00  0.00     0.006 C 
BRANCH   7   8
ATOM      8  C   UNL     1      37.932 106.142 260.207  1.00  0.00     0.053 C 
BRANCH   8   9
ATOM      9  C   UNL     1      37.001 105.716 259.116  1.00  0.00     0.041 C 
ATOM     10  O   UNL     1      37.042 104.539 258.673  1.00  0.00    -0.550 OA
ATOM     11  O   UNL     1      36.123 106.634 258.553  1.00  0.00    -0.550 OA
ENDBRANCH   8   9
ENDBRANCH   7   8
ENDBRANCH   6   7
ENDBRANCH   5   6
ENDBRANCH   4   5
ENDBRANCH   3   4
ENDBRANCH   2   3
ENDBRANCH   1   2
BRANCH   1  12
ATOM     12  C   UNL     1      34.891 103.328 267.224  1.00  0.00     0.000 C 
BRANCH  12  13
ATOM     13  C   UNL     1      34.902 104.681 267.964  1.00  0.00    -0.000 C 
BRANCH  13  14
ATOM     14  C   UNL     1      34.875 105.923 267.052  1.00  0.00    -0.000 C 
BRANCH  14  15
ATOM     15  C   UNL     1      35.660 107.138 267.581  1.00  0.00    -0.000 C 
BRANCH  15  16
ATOM     16  C   UNL     1      35.097 107.683 268.904  1.00  0.00    -0.000 C 
BRANCH  16  17
ATOM     17  C   UNL     1      35.612 106.906 270.128  1.00  0.00    -0.000 C 
BRANCH  17  18
ATOM     18  C   UNL     1      36.903 106.124 269.829  1.00  0.00    -0.000 C 
BRANCH  18  19
ATOM     19  C   UNL     1      37.756 105.895 271.086  1.00  0.00    -0.003 C 
ATOM     20  C   UNL     1      38.890 106.911 271.227  1.00  0.00     0.004 C 
ENDBRANCH  18  19
ENDBRANCH  17  18
ENDBRANCH  16  17
ENDBRANCH  15  16
ENDBRANCH  14  15
ENDBRANCH  13  14
ENDBRANCH  12  13
ENDBRANCH   1  12
TORSDOF 16
ENDMDL
