MODEL 1
REMARK VINA RESULT:    -6.227      0.000      0.000
REMARK INTER + INTRA:          -9.332
REMARK INTER:                  -8.229
REMARK INTRA:                  -1.104
REMARK UNBOUND:                -1.104
REMARK SMILES CC[C@@H](C=C[C@@H](C)[C@H]1CC[C@@H]2[C@@H]3CC=C4C[C@H](O)CC[C@]4(C)[C@H]3CC[C@@]21C)C(C)C
REMARK SMILES IDX 6 1 7 2 5 3 4 4 3 5 2 6 1 7 28 8 29 9 30 10 8 11 9 12 26 13
REMARK SMILES IDX 10 14 11 15 25 16 27 17 12 18 24 19 23 20 13 21 21 22 14 23
REMARK SMILES IDX 15 24 20 25 22 26 16 27 19 28 17 29 18 30
REMARK H PARENT 18 31
REMARK Flexibility Score: inf
ROOT
ATOM      1  C   UNL     1      -9.489  28.594  42.123  1.00  0.00     0.012 C 
ATOM      2  C   UNL     1     -10.434  29.751  41.749  1.00  0.00     0.012 C 
ENDROOT
BRANCH   1   3
ATOM      3  C   UNL     1     -10.234  27.268  42.139  1.00  0.00    -0.028 C 
ATOM      4  C   UNL     1     -11.525  27.153  42.503  1.00  0.00    -0.027 C 
BRANCH   4   5
ATOM      5  C   UNL     1     -12.331  25.873  42.378  1.00  0.00     0.014 C 
BRANCH   5   6
ATOM      6  C   UNL     1     -11.485  24.661  41.910  1.00  0.00     0.004 C 
ATOM      7  C   UNL     1     -12.180  23.328  42.183  1.00  0.00     0.004 C 
ENDBRANCH   5   6
BRANCH   5   8
ATOM      8  C   UNL     1     -13.633  26.107  41.550  1.00  0.00    -0.011 C 
ATOM      9  C   UNL     1     -14.445  27.338  41.978  1.00  0.00     0.008 C 
ATOM     10  C   UNL     1     -13.347  26.172  40.041  1.00  0.00     0.008 C 
ENDBRANCH   5   8
ENDBRANCH   4   5
ENDBRANCH   1   3
BRANCH   1  11
ATOM     11  C   UNL     1      -8.662  28.919  43.411  1.00  0.00     0.002 C 
ATOM     12  C   UNL     1      -8.403  27.752  44.358  1.00  0.00     0.005 C 
ATOM     13  C   UNL     1      -7.273  29.623  43.234  1.00  0.00    -0.026 C 
ATOM     14  C   UNL     1      -7.376  28.293  45.331  1.00  0.00     0.005 C 
ATOM     15  C   UNL     1      -6.439  29.164  44.478  1.00  0.00    -0.001 C 
ATOM     16  C   UNL     1      -7.434  31.172  43.173  1.00  0.00     0.007 C 
ATOM     17  C   UNL     1      -6.542  29.167  41.947  1.00  0.00     0.012 C 
ATOM     18  C   UNL     1      -5.746  30.331  45.236  1.00  0.00     0.000 C 
ATOM     19  C   UNL     1      -7.751  31.813  44.536  1.00  0.00     0.005 C 
ATOM     20  C   UNL     1      -6.723  31.459  45.652  1.00  0.00     0.003 C 
ATOM     21  C   UNL     1      -4.967  29.838  46.466  1.00  0.00     0.031 C 
ATOM     22  C   UNL     1      -5.941  32.696  46.243  1.00  0.00    -0.008 C 
ATOM     23  C   UNL     1      -4.397  30.969  47.278  1.00  0.00    -0.027 C 
ATOM     24  C   UNL     1      -4.904  32.225  47.279  1.00  0.00    -0.065 C 
ATOM     25  C   UNL     1      -6.965  33.648  46.945  1.00  0.00     0.014 C 
ATOM     26  C   UNL     1      -5.169  33.464  45.132  1.00  0.00     0.016 C 
ATOM     27  C   UNL     1      -4.298  33.252  48.212  1.00  0.00     0.063 C 
ATOM     28  C   UNL     1      -6.328  34.699  47.868  1.00  0.00     0.033 C 
ATOM     29  C   UNL     1      -5.392  34.060  48.907  1.00  0.00     0.118 C 
BRANCH  29  30
ATOM     30  O   UNL     1      -6.112  33.221  49.777  1.00  0.00    -0.393 OA
ATOM     31  H   UNL     1      -6.751  33.797  50.268  1.00  0.00     0.210 HD
ENDBRANCH  29  30
ENDBRANCH   1  11
TORSDOF 6
ENDMDL
MODEL 2
REMARK VINA RESULT:    -5.956      1.593      3.153
REMARK INTER + INTRA:          -8.974
REMARK INTER:                  -7.670
REMARK INTRA:                  -1.304
REMARK UNBOUND:                -1.104
REMARK SMILES CC[C@@H](C=C[C@@H](C)[C@H]1CC[C@@H]2[C@@H]3CC=C4C[C@H](O)CC[C@]4(C)[C@H]3CC[C@@]21C)C(C)C
REMARK SMILES IDX 6 1 7 2 5 3 4 4 3 5 2 6 1 7 28 8 29 9 30 10 8 11 9 12 26 13
REMARK SMILES IDX 10 14 11 15 25 16 27 17 12 18 24 19 23 20 13 21 21 22 14 23
REMARK SMILES IDX 15 24 20 25 22 26 16 27 19 28 17 29 18 30
REMARK H PARENT 18 31
REMARK Flexibility Score: inf
ROOT
ATOM      1  C   UNL     1     -11.987  28.116  40.821  1.00  0.00     0.012 C 
ATOM      2  C   UNL     1     -12.514  29.506  40.419  1.00  0.00     0.012 C 
ENDROOT
BRANCH   1   3
ATOM      3  C   UNL     1     -13.105  27.086  40.805  1.00  0.00    -0.028 C 
ATOM      4  C   UNL     1     -12.902  25.784  40.525  1.00  0.00    -0.027 C 
BRANCH   4   5
ATOM      5  C   UNL     1     -13.969  24.713  40.656  1.00  0.00     0.014 C 
BRANCH   5   6
ATOM      6  C   UNL     1     -13.498  23.474  41.462  1.00  0.00     0.004 C 
ATOM      7  C   UNL     1     -12.129  23.689  42.107  1.00  0.00     0.004 C 
ENDBRANCH   5   6
BRANCH   5   8
ATOM      8  C   UNL     1     -14.600  24.375  39.269  1.00  0.00    -0.011 C 
ATOM      9  C   UNL     1     -13.579  24.172  38.140  1.00  0.00     0.008 C 
ATOM     10  C   UNL     1     -15.537  23.158  39.347  1.00  0.00     0.008 C 
ENDBRANCH   5   8
ENDBRANCH   4   5
ENDBRANCH   1   3
BRANCH   1  11
ATOM     11  C   UNL     1     -11.145  28.179  42.139  1.00  0.00     0.002 C 
ATOM     12  C   UNL     1     -11.619  27.290  43.284  1.00  0.00     0.005 C 
ATOM     13  C   UNL     1      -9.600  27.932  42.036  1.00  0.00    -0.026 C 
ATOM     14  C   UNL     1     -10.484  27.349  44.285  1.00  0.00     0.005 C 
ATOM     15  C   UNL     1      -9.202  27.351  43.435  1.00  0.00    -0.001 C 
ATOM     16  C   UNL     1      -8.842  29.254  41.711  1.00  0.00     0.007 C 
ATOM     17  C   UNL     1      -9.242  26.893  40.944  1.00  0.00     0.012 C 
ATOM     18  C   UNL     1      -7.978  28.056  44.084  1.00  0.00     0.000 C 
ATOM     19  C   UNL     1      -8.757  30.225  42.902  1.00  0.00     0.005 C 
ATOM     20  C   UNL     1      -8.137  29.594  44.186  1.00  0.00     0.003 C 
ATOM     21  C   UNL     1      -7.644  27.476  45.468  1.00  0.00     0.031 C 
ATOM     22  C   UNL     1      -6.798  30.272  44.671  1.00  0.00    -0.008 C 
ATOM     23  C   UNL     1      -6.542  28.234  46.159  1.00  0.00    -0.027 C 
ATOM     24  C   UNL     1      -6.237  29.526  45.895  1.00  0.00    -0.065 C 
ATOM     25  C   UNL     1      -7.102  31.753  45.073  1.00  0.00     0.014 C 
ATOM     26  C   UNL     1      -5.706  30.231  43.563  1.00  0.00     0.016 C 
ATOM     27  C   UNL     1      -5.167  30.204  46.725  1.00  0.00     0.063 C 
ATOM     28  C   UNL     1      -5.993  32.430  45.894  1.00  0.00     0.033 C 
ATOM     29  C   UNL     1      -5.611  31.607  47.135  1.00  0.00     0.118 C 
BRANCH  29  30
ATOM     30  O   UNL     1      -6.697  31.513  48.024  1.00  0.00    -0.393 OA
ATOM     31  H   UNL     1      -6.319  31.518  48.940  1.00  0.00     0.210 HD
ENDBRANCH  29  30
ENDBRANCH   1  11
TORSDOF 6
ENDMDL
MODEL 3
REMARK VINA RESULT:    -5.875      3.311      9.311
REMARK INTER + INTRA:          -8.867
REMARK INTER:                  -7.627
REMARK INTRA:                  -1.240
REMARK UNBOUND:                -1.104
REMARK SMILES CC[C@@H](C=C[C@@H](C)[C@H]1CC[C@@H]2[C@@H]3CC=C4C[C@H](O)CC[C@]4(C)[C@H]3CC[C@@]21C)C(C)C
REMARK SMILES IDX 6 1 7 2 5 3 4 4 3 5 2 6 1 7 28 8 29 9 30 10 8 11 9 12 26 13
REMARK SMILES IDX 10 14 11 15 25 16 27 17 12 18 24 19 23 20 13 21 21 22 14 23
REMARK SMILES IDX 15 24 20 25 22 26 16 27 19 28 17 29 18 30
REMARK H PARENT 18 31
REMARK Flexibility Score: inf
ROOT
ATOM      1  C   UNL     1      -5.596  29.752  46.152  1.00  0.00     0.012 C 
ATOM      2  C   UNL     1      -4.599  28.828  46.875  1.00  0.00     0.012 C 
ENDROOT
BRANCH   1   3
ATOM      3  C   UNL     1      -6.150  30.802  47.102  1.00  0.00    -0.028 C 
ATOM      4  C   UNL     1      -5.995  32.126  46.908  1.00  0.00    -0.027 C 
BRANCH   4   5
ATOM      5  C   UNL     1      -6.670  33.191  47.752  1.00  0.00     0.014 C 
BRANCH   5   6
ATOM      6  C   UNL     1      -7.560  34.155  46.926  1.00  0.00     0.004 C 
ATOM      7  C   UNL     1      -8.187  33.469  45.713  1.00  0.00     0.004 C 
ENDBRANCH   5   6
BRANCH   5   8
ATOM      8  C   UNL     1      -5.640  33.906  48.683  1.00  0.00    -0.011 C 
ATOM      9  C   UNL     1      -5.871  33.670  50.183  1.00  0.00     0.008 C 
ATOM     10  C   UNL     1      -4.192  33.547  48.317  1.00  0.00     0.008 C 
ENDBRANCH   5   8
ENDBRANCH   4   5
ENDBRANCH   1   3
BRANCH   1  11
ATOM     11  C   UNL     1      -6.664  28.935  45.351  1.00  0.00     0.002 C 
ATOM     12  C   UNL     1      -8.117  29.138  45.766  1.00  0.00     0.005 C 
ATOM     13  C   UNL     1      -6.660  29.054  43.789  1.00  0.00    -0.026 C 
ATOM     14  C   UNL     1      -8.909  28.460  44.667  1.00  0.00     0.005 C 
ATOM     15  C   UNL     1      -8.145  28.781  43.371  1.00  0.00    -0.001 C 
ATOM     16  C   UNL     1      -5.673  28.029  43.151  1.00  0.00     0.007 C 
ATOM     17  C   UNL     1      -6.258  30.470  43.307  1.00  0.00     0.012 C 
ATOM     18  C   UNL     1      -8.296  27.731  42.235  1.00  0.00     0.000 C 
ATOM     19  C   UNL     1      -6.182  26.578  43.187  1.00  0.00     0.005 C 
ATOM     20  C   UNL     1      -7.588  26.387  42.542  1.00  0.00     0.003 C 
ATOM     21  C   UNL     1      -9.770  27.472  41.881  1.00  0.00     0.031 C 
ATOM     22  C   UNL     1      -7.611  25.435  41.284  1.00  0.00    -0.008 C 
ATOM     23  C   UNL     1      -9.934  26.367  40.873  1.00  0.00    -0.027 C 
ATOM     24  C   UNL     1      -9.028  25.379  40.685  1.00  0.00    -0.065 C 
ATOM     25  C   UNL     1      -7.193  23.996  41.737  1.00  0.00     0.014 C 
ATOM     26  C   UNL     1      -6.655  25.944  40.168  1.00  0.00     0.016 C 
ATOM     27  C   UNL     1      -9.352  24.272  39.704  1.00  0.00     0.063 C 
ATOM     28  C   UNL     1      -7.509  22.891  40.717  1.00  0.00     0.033 C 
ATOM     29  C   UNL     1      -8.985  22.909  40.289  1.00  0.00     0.118 C 
BRANCH  29  30
ATOM     30  O   UNL     1      -9.825  22.627  41.382  1.00  0.00    -0.393 OA
ATOM     31  H   UNL     1      -9.394  23.019  42.183  1.00  0.00     0.210 HD
ENDBRANCH  29  30
ENDBRANCH   1  11
TORSDOF 6
ENDMDL
MODEL 4
REMARK VINA RESULT:    -5.702      2.133      3.434
REMARK INTER + INTRA:          -8.639
REMARK INTER:                  -7.462
REMARK INTRA:                  -1.177
REMARK UNBOUND:                -1.104
REMARK SMILES CC[C@@H](C=C[C@@H](C)[C@H]1CC[C@@H]2[C@@H]3CC=C4C[C@H](O)CC[C@]4(C)[C@H]3CC[C@@]21C)C(C)C
REMARK SMILES IDX 6 1 7 2 5 3 4 4 3 5 2 6 1 7 28 8 29 9 30 10 8 11 9 12 26 13
REMARK SMILES IDX 10 14 11 15 25 16 27 17 12 18 24 19 23 20 13 21 21 22 14 23
REMARK SMILES IDX 15 24 20 25 22 26 16 27 19 28 17 29 18 30
REMARK H PARENT 18 31
REMARK Flexibility Score: inf
ROOT
ATOM      1  C   UNL     1      -8.939  27.696  43.095  1.00  0.00     0.012 C 
ATOM      2  C   UNL     1     -10.427  27.655  43.487  1.00  0.00     0.012 C 
ENDROOT
BRANCH   1   3
ATOM      3  C   UNL     1      -8.491  26.360  42.524  1.00  0.00    -0.028 C 
ATOM      4  C   UNL     1      -7.622  26.251  41.500  1.00  0.00    -0.027 C 
BRANCH   4   5
ATOM      5  C   UNL     1      -7.041  24.935  41.017  1.00  0.00     0.014 C 
BRANCH   5   6
ATOM      6  C   UNL     1      -7.927  23.710  41.367  1.00  0.00     0.004 C 
ATOM      7  C   UNL     1      -7.446  22.432  40.682  1.00  0.00     0.004 C 
ENDBRANCH   5   6
BRANCH   5   8
ATOM      8  C   UNL     1      -5.546  24.789  41.443  1.00  0.00    -0.011 C 
ATOM      9  C   UNL     1      -4.632  25.916  40.940  1.00  0.00     0.008 C 
ATOM     10  C   UNL     1      -5.397  24.638  42.965  1.00  0.00     0.008 C 
ENDBRANCH   5   8
ENDBRANCH   4   5
ENDBRANCH   1   3
BRANCH   1  11
ATOM     11  C   UNL     1      -8.053  28.266  44.253  1.00  0.00     0.002 C 
ATOM     12  C   UNL     1      -7.347  27.237  45.130  1.00  0.00     0.005 C 
ATOM     13  C   UNL     1      -6.952  29.320  43.885  1.00  0.00    -0.026 C 
ATOM     14  C   UNL     1      -6.377  28.061  45.951  1.00  0.00     0.005 C 
ATOM     15  C   UNL     1      -5.851  29.136  44.985  1.00  0.00    -0.001 C 
ATOM     16  C   UNL     1      -7.539  30.763  43.877  1.00  0.00     0.007 C 
ATOM     17  C   UNL     1      -6.321  29.051  42.497  1.00  0.00     0.012 C 
ATOM     18  C   UNL     1      -5.402  30.465  45.653  1.00  0.00     0.000 C 
ATOM     19  C   UNL     1      -7.817  31.324  45.283  1.00  0.00     0.005 C 
ATOM     20  C   UNL     1      -6.579  31.292  46.229  1.00  0.00     0.003 C 
ATOM     21  C   UNL     1      -4.346  30.234  46.746  1.00  0.00     0.031 C 
ATOM     22  C   UNL     1      -6.089  32.709  46.720  1.00  0.00    -0.008 C 
ATOM     23  C   UNL     1      -3.997  31.497  47.486  1.00  0.00    -0.027 C 
ATOM     24  C   UNL     1      -4.823  32.565  47.584  1.00  0.00    -0.065 C 
ATOM     25  C   UNL     1      -7.221  33.360  47.583  1.00  0.00     0.014 C 
ATOM     26  C   UNL     1      -5.730  33.634  45.522  1.00  0.00     0.016 C 
ATOM     27  C   UNL     1      -4.392  33.741  48.435  1.00  0.00     0.063 C 
ATOM     28  C   UNL     1      -6.769  34.567  48.420  1.00  0.00     0.033 C 
ATOM     29  C   UNL     1      -5.553  34.234  49.299  1.00  0.00     0.118 C 
BRANCH  29  30
ATOM     30  O   UNL     1      -5.878  33.250  50.250  1.00  0.00    -0.393 OA
ATOM     31  H   UNL     1      -5.875  33.694  51.136  1.00  0.00     0.210 HD
ENDBRANCH  29  30
ENDBRANCH   1  11
TORSDOF 6
ENDMDL
MODEL 5
REMARK VINA RESULT:    -5.566      3.259      9.744
REMARK INTER + INTRA:          -8.460
REMARK INTER:                  -7.101
REMARK INTRA:                  -1.359
REMARK UNBOUND:                -1.104
REMARK SMILES CC[C@@H](C=C[C@@H](C)[C@H]1CC[C@@H]2[C@@H]3CC=C4C[C@H](O)CC[C@]4(C)[C@H]3CC[C@@]21C)C(C)C
REMARK SMILES IDX 6 1 7 2 5 3 4 4 3 5 2 6 1 7 28 8 29 9 30 10 8 11 9 12 26 13
REMARK SMILES IDX 10 14 11 15 25 16 27 17 12 18 24 19 23 20 13 21 21 22 14 23
REMARK SMILES IDX 15 24 20 25 22 26 16 27 19 28 17 29 18 30
REMARK H PARENT 18 31
REMARK Flexibility Score: inf
ROOT
ATOM      1  C   UNL     1      -6.393  27.454  44.249  1.00  0.00     0.012 C 
ATOM      2  C   UNL     1      -5.604  26.132  44.214  1.00  0.00     0.012 C 
ENDROOT
BRANCH   1   3
ATOM      3  C   UNL     1      -6.113  28.219  45.532  1.00  0.00    -0.028 C 
ATOM      4  C   UNL     1      -5.824  29.535  45.556  1.00  0.00    -0.027 C 
BRANCH   4   5
ATOM      5  C   UNL     1      -5.696  30.351  46.829  1.00  0.00     0.014 C 
BRANCH   5   6
ATOM      6  C   UNL     1      -7.035  30.985  47.288  1.00  0.00     0.004 C 
ATOM      7  C   UNL     1      -7.985  31.241  46.119  1.00  0.00     0.004 C 
ENDBRANCH   5   6
BRANCH   5   8
ATOM      8  C   UNL     1      -4.508  31.359  46.733  1.00  0.00    -0.011 C 
ATOM      9  C   UNL     1      -4.186  31.826  45.306  1.00  0.00     0.008 C 
ATOM     10  C   UNL     1      -4.718  32.579  47.644  1.00  0.00     0.008 C 
ENDBRANCH   5   8
ENDBRANCH   4   5
ENDBRANCH   1   3
BRANCH   1  11
ATOM     11  C   UNL     1      -7.906  27.231  43.911  1.00  0.00     0.002 C 
ATOM     12  C   UNL     1      -8.909  27.803  44.908  1.00  0.00     0.005 C 
ATOM     13  C   UNL     1      -8.418  27.686  42.502  1.00  0.00    -0.026 C 
ATOM     14  C   UNL     1     -10.239  27.684  44.194  1.00  0.00     0.005 C 
ATOM     15  C   UNL     1      -9.933  28.017  42.724  1.00  0.00    -0.001 C 
ATOM     16  C   UNL     1      -8.211  26.564  41.441  1.00  0.00     0.007 C 
ATOM     17  C   UNL     1      -7.699  28.962  41.997  1.00  0.00     0.012 C 
ATOM     18  C   UNL     1     -10.880  27.354  41.684  1.00  0.00     0.000 C 
ATOM     19  C   UNL     1      -9.195  25.390  41.584  1.00  0.00     0.005 C 
ATOM     20  C   UNL     1     -10.693  25.820  41.572  1.00  0.00     0.003 C 
ATOM     21  C   UNL     1     -12.357  27.679  41.959  1.00  0.00     0.031 C 
ATOM     22  C   UNL     1     -11.537  25.232  40.375  1.00  0.00    -0.008 C 
ATOM     23  C   UNL     1     -13.290  26.942  41.037  1.00  0.00    -0.027 C 
ATOM     24  C   UNL     1     -12.975  25.779  40.419  1.00  0.00    -0.065 C 
ATOM     25  C   UNL     1     -11.580  23.674  40.510  1.00  0.00     0.014 C 
ATOM     26  C   UNL     1     -10.930  25.634  39.001  1.00  0.00     0.016 C 
ATOM     27  C   UNL     1     -14.036  25.087  39.588  1.00  0.00     0.063 C 
ATOM     28  C   UNL     1     -12.647  22.990  39.640  1.00  0.00     0.033 C 
ATOM     29  C   UNL     1     -14.045  23.585  39.869  1.00  0.00     0.118 C 
BRANCH  29  30
ATOM     30  O   UNL     1     -14.473  23.360  41.190  1.00  0.00    -0.393 OA
ATOM     31  H   UNL     1     -13.668  23.407  41.765  1.00  0.00     0.210 HD
ENDBRANCH  29  30
ENDBRANCH   1  11
TORSDOF 6
ENDMDL
MODEL 6
REMARK VINA RESULT:    -5.526      2.779      9.309
REMARK INTER + INTRA:          -8.406
REMARK INTER:                  -7.409
REMARK INTRA:                  -0.997
REMARK UNBOUND:                -1.104
REMARK SMILES CC[C@@H](C=C[C@@H](C)[C@H]1CC[C@@H]2[C@@H]3CC=C4C[C@H](O)CC[C@]4(C)[C@H]3CC[C@@]21C)C(C)C
REMARK SMILES IDX 6 1 7 2 5 3 4 4 3 5 2 6 1 7 28 8 29 9 30 10 8 11 9 12 26 13
REMARK SMILES IDX 10 14 11 15 25 16 27 17 12 18 24 19 23 20 13 21 21 22 14 23
REMARK SMILES IDX 15 24 20 25 22 26 16 27 19 28 17 29 18 30
REMARK H PARENT 18 31
REMARK Flexibility Score: inf
ROOT
ATOM      1  C   UNL     1      -6.529  30.150  45.697  1.00  0.00     0.012 C 
ATOM      2  C   UNL     1      -6.814  29.090  46.776  1.00  0.00     0.012 C 
ENDROOT
BRANCH   1   3
ATOM      3  C   UNL     1      -6.307  31.518  46.323  1.00  0.00    -0.028 C 
ATOM      4  C   UNL     1      -7.118  32.036  47.266  1.00  0.00    -0.027 C 
BRANCH   4   5
ATOM      5  C   UNL     1      -6.831  33.324  48.016  1.00  0.00     0.014 C 
BRANCH   5   6
ATOM      6  C   UNL     1      -6.774  34.570  47.094  1.00  0.00     0.004 C 
ATOM      7  C   UNL     1      -8.076  34.779  46.320  1.00  0.00     0.004 C 
ENDBRANCH   5   6
BRANCH   5   8
ATOM      8  C   UNL     1      -5.596  33.164  48.957  1.00  0.00    -0.011 C 
ATOM      9  C   UNL     1      -4.274  33.667  48.359  1.00  0.00     0.008 C 
ATOM     10  C   UNL     1      -5.831  33.821  50.326  1.00  0.00     0.008 C 
ENDBRANCH   5   8
ENDBRANCH   4   5
ENDBRANCH   1   3
BRANCH   1  11
ATOM     11  C   UNL     1      -7.588  30.100  44.545  1.00  0.00     0.002 C 
ATOM     12  C   UNL     1      -7.764  31.379  43.735  1.00  0.00     0.005 C 
ATOM     13  C   UNL     1      -7.464  28.953  43.484  1.00  0.00    -0.026 C 
ATOM     14  C   UNL     1      -8.615  30.952  42.558  1.00  0.00     0.005 C 
ATOM     15  C   UNL     1      -8.103  29.550  42.185  1.00  0.00    -0.001 C 
ATOM     16  C   UNL     1      -8.200  27.665  43.963  1.00  0.00     0.007 C 
ATOM     17  C   UNL     1      -5.989  28.581  43.188  1.00  0.00     0.012 C 
ATOM     18  C   UNL     1      -9.152  28.619  41.515  1.00  0.00     0.000 C 
ATOM     19  C   UNL     1      -9.733  27.767  43.891  1.00  0.00     0.005 C 
ATOM     20  C   UNL     1     -10.272  28.158  42.481  1.00  0.00     0.003 C 
ATOM     21  C   UNL     1      -9.776  29.258  40.264  1.00  0.00     0.031 C 
ATOM     22  C   UNL     1     -11.193  27.070  41.804  1.00  0.00    -0.008 C 
ATOM     23  C   UNL     1     -10.882  28.420  39.680  1.00  0.00    -0.027 C 
ATOM     24  C   UNL     1     -11.605  27.526  40.393  1.00  0.00    -0.065 C 
ATOM     25  C   UNL     1     -12.480  26.889  42.676  1.00  0.00     0.014 C 
ATOM     26  C   UNL     1     -10.451  25.711  41.654  1.00  0.00     0.016 C 
ATOM     27  C   UNL     1     -12.754  26.812  39.711  1.00  0.00     0.063 C 
ATOM     28  C   UNL     1     -13.624  26.141  41.975  1.00  0.00     0.033 C 
ATOM     29  C   UNL     1     -13.981  26.775  40.621  1.00  0.00     0.118 C 
BRANCH  29  30
ATOM     30  O   UNL     1     -14.473  28.082  40.796  1.00  0.00    -0.393 OA
ATOM     31  H   UNL     1     -13.761  28.699  40.491  1.00  0.00     0.210 HD
ENDBRANCH  29  30
ENDBRANCH   1  11
TORSDOF 6
ENDMDL
MODEL 7
REMARK VINA RESULT:    -5.512      2.924      9.212
REMARK INTER + INTRA:          -8.387
REMARK INTER:                  -7.050
REMARK INTRA:                  -1.338
REMARK UNBOUND:                -1.104
REMARK SMILES CC[C@@H](C=C[C@@H](C)[C@H]1CC[C@@H]2[C@@H]3CC=C4C[C@H](O)CC[C@]4(C)[C@H]3CC[C@@]21C)C(C)C
REMARK SMILES IDX 6 1 7 2 5 3 4 4 3 5 2 6 1 7 28 8 29 9 30 10 8 11 9 12 26 13
REMARK SMILES IDX 10 14 11 15 25 16 27 17 12 18 24 19 23 20 13 21 21 22 14 23
REMARK SMILES IDX 15 24 20 25 22 26 16 27 19 28 17 29 18 30
REMARK H PARENT 18 31
REMARK Flexibility Score: inf
ROOT
ATOM      1  C   UNL     1      -5.176  29.677  43.840  1.00  0.00     0.012 C 
ATOM      2  C   UNL     1      -3.921  28.816  43.607  1.00  0.00     0.012 C 
ENDROOT
BRANCH   1   3
ATOM      3  C   UNL     1      -4.968  30.639  44.998  1.00  0.00    -0.028 C 
ATOM      4  C   UNL     1      -5.245  31.955  44.920  1.00  0.00    -0.027 C 
BRANCH   4   5
ATOM      5  C   UNL     1      -5.194  32.903  46.105  1.00  0.00     0.014 C 
BRANCH   5   6
ATOM      6  C   UNL     1      -4.136  32.502  47.165  1.00  0.00     0.004 C 
ATOM      7  C   UNL     1      -4.029  33.527  48.294  1.00  0.00     0.004 C 
ENDBRANCH   5   6
BRANCH   5   8
ATOM      8  C   UNL     1      -6.622  33.156  46.684  1.00  0.00    -0.011 C 
ATOM      9  C   UNL     1      -7.607  33.786  45.689  1.00  0.00     0.008 C 
ATOM     10  C   UNL     1      -7.231  31.877  47.281  1.00  0.00     0.008 C 
ENDBRANCH   5   8
ENDBRANCH   4   5
ENDBRANCH   1   3
BRANCH   1  11
ATOM     11  C   UNL     1      -6.471  28.800  43.915  1.00  0.00     0.002 C 
ATOM     12  C   UNL     1      -7.168  28.743  45.270  1.00  0.00     0.005 C 
ATOM     13  C   UNL     1      -7.610  29.081  42.875  1.00  0.00    -0.026 C 
ATOM     14  C   UNL     1      -8.495  28.076  44.970  1.00  0.00     0.005 C 
ATOM     15  C   UNL     1      -8.924  28.639  43.605  1.00  0.00    -0.001 C 
ATOM     16  C   UNL     1      -7.374  28.285  41.557  1.00  0.00     0.007 C 
ATOM     17  C   UNL     1      -7.720  30.584  42.515  1.00  0.00     0.012 C 
ATOM     18  C   UNL     1      -9.830  27.703  42.757  1.00  0.00     0.000 C 
ATOM     19  C   UNL     1      -7.660  26.779  41.685  1.00  0.00     0.005 C 
ATOM     20  C   UNL     1      -9.088  26.453  42.219  1.00  0.00     0.003 C 
ATOM     21  C   UNL     1     -11.090  27.269  43.523  1.00  0.00     0.031 C 
ATOM     22  C   UNL     1      -9.997  25.644  41.214  1.00  0.00    -0.008 C 
ATOM     23  C   UNL     1     -11.910  26.264  42.761  1.00  0.00    -0.027 C 
ATOM     24  C   UNL     1     -11.402  25.444  41.810  1.00  0.00    -0.065 C 
ATOM     25  C   UNL     1      -9.346  24.243  40.965  1.00  0.00     0.014 C 
ATOM     26  C   UNL     1     -10.169  26.402  39.867  1.00  0.00     0.016 C 
ATOM     27  C   UNL     1     -12.313  24.410  41.181  1.00  0.00     0.063 C 
ATOM     28  C   UNL     1     -10.279  23.216  40.304  1.00  0.00     0.033 C 
ATOM     29  C   UNL     1     -11.602  23.062  41.072  1.00  0.00     0.118 C 
BRANCH  29  30
ATOM     30  O   UNL     1     -11.373  22.548  42.361  1.00  0.00    -0.393 OA
ATOM     31  H   UNL     1     -10.416  22.295  42.404  1.00  0.00     0.210 HD
ENDBRANCH  29  30
ENDBRANCH   1  11
TORSDOF 6
ENDMDL
MODEL 8
REMARK VINA RESULT:    -5.436      1.652      3.326
REMARK INTER + INTRA:          -8.287
REMARK INTER:                  -7.242
REMARK INTRA:                  -1.045
REMARK UNBOUND:                -1.104
REMARK SMILES CC[C@@H](C=C[C@@H](C)[C@H]1CC[C@@H]2[C@@H]3CC=C4C[C@H](O)CC[C@]4(C)[C@H]3CC[C@@]21C)C(C)C
REMARK SMILES IDX 6 1 7 2 5 3 4 4 3 5 2 6 1 7 28 8 29 9 30 10 8 11 9 12 26 13
REMARK SMILES IDX 10 14 11 15 25 16 27 17 12 18 24 19 23 20 13 21 21 22 14 23
REMARK SMILES IDX 15 24 20 25 22 26 16 27 19 28 17 29 18 30
REMARK H PARENT 18 31
REMARK Flexibility Score: inf
ROOT
ATOM      1  C   UNL     1      -9.039  26.239  42.091  1.00  0.00     0.012 C 
ATOM      2  C   UNL     1      -7.836  25.481  41.499  1.00  0.00     0.012 C 
ENDROOT
BRANCH   1   3
ATOM      3  C   UNL     1     -10.257  26.112  41.190  1.00  0.00    -0.028 C 
ATOM      4  C   UNL     1     -11.461  25.701  41.634  1.00  0.00    -0.027 C 
BRANCH   4   5
ATOM      5  C   UNL     1     -12.725  25.716  40.793  1.00  0.00     0.014 C 
BRANCH   5   6
ATOM      6  C   UNL     1     -13.596  26.979  41.020  1.00  0.00     0.004 C 
ATOM      7  C   UNL     1     -15.082  26.707  40.792  1.00  0.00     0.004 C 
ENDBRANCH   5   6
BRANCH   5   8
ATOM      8  C   UNL     1     -13.501  24.368  40.922  1.00  0.00    -0.011 C 
ATOM      9  C   UNL     1     -13.677  23.609  39.598  1.00  0.00     0.008 C 
ATOM     10  C   UNL     1     -12.869  23.441  41.972  1.00  0.00     0.008 C 
ENDBRANCH   5   8
ENDBRANCH   4   5
ENDBRANCH   1   3
BRANCH   1  11
ATOM     11  C   UNL     1      -8.654  27.699  42.503  1.00  0.00     0.002 C 
ATOM     12  C   UNL     1      -9.106  28.807  41.558  1.00  0.00     0.005 C 
ATOM     13  C   UNL     1      -9.058  28.188  43.937  1.00  0.00    -0.026 C 
ATOM     14  C   UNL     1      -8.847  30.080  42.338  1.00  0.00     0.005 C 
ATOM     15  C   UNL     1      -9.219  29.739  43.791  1.00  0.00    -0.001 C 
ATOM     16  C   UNL     1      -7.972  27.806  44.986  1.00  0.00     0.007 C 
ATOM     17  C   UNL     1     -10.408  27.589  44.404  1.00  0.00     0.012 C 
ATOM     18  C   UNL     1      -8.463  30.555  44.877  1.00  0.00     0.000 C 
ATOM     19  C   UNL     1      -6.696  28.661  44.893  1.00  0.00     0.005 C 
ATOM     20  C   UNL     1      -6.959  30.195  44.980  1.00  0.00     0.003 C 
ATOM     21  C   UNL     1      -8.622  32.070  44.676  1.00  0.00     0.031 C 
ATOM     22  C   UNL     1      -6.289  30.908  46.218  1.00  0.00    -0.008 C 
ATOM     23  C   UNL     1      -7.792  32.870  45.644  1.00  0.00    -0.027 C 
ATOM     24  C   UNL     1      -6.675  32.399  46.246  1.00  0.00    -0.065 C 
ATOM     25  C   UNL     1      -4.735  30.787  46.086  1.00  0.00     0.014 C 
ATOM     26  C   UNL     1      -6.764  30.282  47.560  1.00  0.00     0.016 C 
ATOM     27  C   UNL     1      -5.875  33.334  47.129  1.00  0.00     0.063 C 
ATOM     28  C   UNL     1      -3.943  31.727  47.008  1.00  0.00     0.033 C 
ATOM     29  C   UNL     1      -4.380  33.192  46.849  1.00  0.00     0.118 C 
BRANCH  29  30
ATOM     30  O   UNL     1      -4.101  33.658  45.551  1.00  0.00    -0.393 OA
ATOM     31  H   UNL     1      -4.763  33.236  44.946  1.00  0.00     0.210 HD
ENDBRANCH  29  30
ENDBRANCH   1  11
TORSDOF 6
ENDMDL
MODEL 9
REMARK VINA RESULT:    -5.430      1.408      2.082
REMARK INTER + INTRA:          -8.280
REMARK INTER:                  -7.441
REMARK INTRA:                  -0.839
REMARK UNBOUND:                -1.104
REMARK SMILES CC[C@@H](C=C[C@@H](C)[C@H]1CC[C@@H]2[C@@H]3CC=C4C[C@H](O)CC[C@]4(C)[C@H]3CC[C@@]21C)C(C)C
REMARK SMILES IDX 6 1 7 2 5 3 4 4 3 5 2 6 1 7 28 8 29 9 30 10 8 11 9 12 26 13
REMARK SMILES IDX 10 14 11 15 25 16 27 17 12 18 24 19 23 20 13 21 21 22 14 23
REMARK SMILES IDX 15 24 20 25 22 26 16 27 19 28 17 29 18 30
REMARK H PARENT 18 31
REMARK Flexibility Score: inf
ROOT
ATOM      1  C   UNL     1      -9.343  27.051  41.460  1.00  0.00     0.012 C 
ATOM      2  C   UNL     1      -8.848  27.698  40.153  1.00  0.00     0.012 C 
ENDROOT
BRANCH   1   3
ATOM      3  C   UNL     1     -10.785  26.590  41.326  1.00  0.00    -0.028 C 
ATOM      4  C   UNL     1     -11.289  25.540  42.003  1.00  0.00    -0.027 C 
BRANCH   4   5
ATOM      5  C   UNL     1     -12.758  25.159  42.006  1.00  0.00     0.014 C 
BRANCH   5   6
ATOM      6  C   UNL     1     -13.002  23.658  41.703  1.00  0.00     0.004 C 
ATOM      7  C   UNL     1     -11.760  22.805  41.958  1.00  0.00     0.004 C 
ENDBRANCH   5   6
BRANCH   5   8
ATOM      8  C   UNL     1     -13.595  26.137  41.123  1.00  0.00    -0.011 C 
ATOM      9  C   UNL     1     -14.548  25.444  40.139  1.00  0.00     0.008 C 
ATOM     10  C   UNL     1     -14.373  27.153  41.974  1.00  0.00     0.008 C 
ENDBRANCH   5   8
ENDBRANCH   4   5
ENDBRANCH   1   3
BRANCH   1  11
ATOM     11  C   UNL     1      -9.034  27.952  42.702  1.00  0.00     0.002 C 
ATOM     12  C   UNL     1      -9.984  27.815  43.886  1.00  0.00     0.005 C 
ATOM     13  C   UNL     1      -7.594  27.886  43.317  1.00  0.00    -0.026 C 
ATOM     14  C   UNL     1      -9.291  28.572  45.000  1.00  0.00     0.005 C 
ATOM     15  C   UNL     1      -7.796  28.253  44.827  1.00  0.00    -0.001 C 
ATOM     16  C   UNL     1      -6.630  28.875  42.596  1.00  0.00     0.007 C 
ATOM     17  C   UNL     1      -6.980  26.466  43.227  1.00  0.00     0.012 C 
ATOM     18  C   UNL     1      -6.821  29.347  45.344  1.00  0.00     0.000 C 
ATOM     19  C   UNL     1      -6.876  30.350  42.957  1.00  0.00     0.005 C 
ATOM     20  C   UNL     1      -6.837  30.639  44.488  1.00  0.00     0.003 C 
ATOM     21  C   UNL     1      -7.076  29.698  46.819  1.00  0.00     0.031 C 
ATOM     22  C   UNL     1      -5.698  31.633  44.941  1.00  0.00    -0.008 C 
ATOM     23  C   UNL     1      -6.224  30.844  47.293  1.00  0.00    -0.027 C 
ATOM     24  C   UNL     1      -5.704  31.787  46.472  1.00  0.00    -0.065 C 
ATOM     25  C   UNL     1      -5.964  33.030  44.288  1.00  0.00     0.014 C 
ATOM     26  C   UNL     1      -4.291  31.110  44.533  1.00  0.00     0.016 C 
ATOM     27  C   UNL     1      -4.940  32.942  47.084  1.00  0.00     0.063 C 
ATOM     28  C   UNL     1      -5.161  34.185  44.908  1.00  0.00     0.033 C 
ATOM     29  C   UNL     1      -5.347  34.263  46.432  1.00  0.00     0.118 C 
BRANCH  29  30
ATOM     30  O   UNL     1      -6.685  34.553  46.756  1.00  0.00    -0.393 OA
ATOM     31  H   UNL     1      -7.043  33.761  47.232  1.00  0.00     0.210 HD
ENDBRANCH  29  30
ENDBRANCH   1  11
TORSDOF 6
ENDMDL
