MODEL 1
REMARK VINA RESULT:    -3.421      0.000      0.000
REMARK INTER + INTRA:          -8.398
REMARK INTER:                  -6.621
REMARK INTRA:                  -1.777
REMARK UNBOUND:                -1.777
REMARK SMILES CCCCCCCCCCCCCCCCCC(=O)[O-]
REMARK SMILES IDX 10 1 11 2 12 3 13 4 14 5 15 6 16 7 17 8 18 9 19 10 20 11
REMARK SMILES IDX 9 12 8 13 7 14 6 15 5 16 4 17 3 18 2 19 1 20
REMARK H PARENT
REMARK Flexibility Score: inf
ROOT
ATOM      1  C   UNL     1       0.823  24.271   9.976  1.00  0.00     0.000 C 
ENDROOT
BRANCH   1   2
ATOM      2  C   UNL     1       0.676  23.952  11.474  1.00  0.00     0.000 C 
BRANCH   2   3
ATOM      3  C   UNL     1      -0.663  24.437  12.059  1.00  0.00     0.000 C 
BRANCH   3   4
ATOM      4  C   UNL     1      -0.557  25.242  13.371  1.00  0.00     0.000 C 
BRANCH   4   5
ATOM      5  C   UNL     1      -0.535  24.400  14.660  1.00  0.00     0.000 C 
BRANCH   5   6
ATOM      6  C   UNL     1       0.657  24.735  15.571  1.00  0.00     0.000 C 
BRANCH   6   7
ATOM      7  C   UNL     1       2.011  24.540  14.869  1.00  0.00     0.006 C 
BRANCH   7   8
ATOM      8  C   UNL     1       2.706  25.866  14.537  1.00  0.00     0.053 C 
BRANCH   8   9
ATOM      9  C   UNL     1       3.550  25.720  13.309  1.00  0.00     0.041 C 
ATOM     10  O   UNL     1       4.650  25.109  13.367  1.00  0.00    -0.550 OA
ATOM     11  O   UNL     1       3.147  26.303  12.116  1.00  0.00    -0.550 OA
ENDBRANCH   8   9
ENDBRANCH   7   8
ENDBRANCH   6   7
ENDBRANCH   5   6
ENDBRANCH   4   5
ENDBRANCH   3   4
ENDBRANCH   2   3
ENDBRANCH   1   2
BRANCH   1  12
ATOM     12  C   UNL     1      -0.437  24.922   9.386  1.00  0.00     0.000 C 
BRANCH  12  13
ATOM     13  C   UNL     1      -0.160  25.672   8.074  1.00  0.00    -0.000 C 
BRANCH  13  14
ATOM     14  C   UNL     1       1.350  25.852   7.856  1.00  0.00    -0.000 C 
BRANCH  14  15
ATOM     15  C   UNL     1       1.756  25.772   6.372  1.00  0.00    -0.000 C 
BRANCH  15  16
ATOM     16  C   UNL     1       2.314  24.410   5.923  1.00  0.00    -0.000 C 
BRANCH  16  17
ATOM     17  C   UNL     1       3.627  23.982   6.609  1.00  0.00    -0.000 C 
BRANCH  17  18
ATOM     18  C   UNL     1       4.666  25.117   6.730  1.00  0.00    -0.000 C 
BRANCH  18  19
ATOM     19  C   UNL     1       5.151  25.321   8.172  1.00  0.00    -0.003 C 
ATOM     20  C   UNL     1       4.520  24.300   9.115  1.00  0.00     0.004 C 
ENDBRANCH  18  19
ENDBRANCH  17  18
ENDBRANCH  16  17
ENDBRANCH  15  16
ENDBRANCH  14  15
ENDBRANCH  13  14
ENDBRANCH  12  13
ENDBRANCH   1  12
TORSDOF 16
ENDMDL
MODEL 2
REMARK VINA RESULT:    -3.303      1.621      4.118
REMARK INTER + INTRA:          -8.170
REMARK INTER:                  -6.245
REMARK INTRA:                  -1.924
REMARK UNBOUND:                -1.777
REMARK SMILES CCCCCCCCCCCCCCCCCC(=O)[O-]
REMARK SMILES IDX 10 1 11 2 12 3 13 4 14 5 15 6 16 7 17 8 18 9 19 10 20 11
REMARK SMILES IDX 9 12 8 13 7 14 6 15 5 16 4 17 3 18 2 19 1 20
REMARK H PARENT
REMARK Flexibility Score: inf
ROOT
ATOM      1  C   UNL     1       5.212  25.151   8.374  1.00  0.00     0.000 C 
ENDROOT
BRANCH   1   2
ATOM      2  C   UNL     1       4.361  24.142   9.163  1.00  0.00     0.000 C 
BRANCH   2   3
ATOM      3  C   UNL     1       3.424  24.818  10.181  1.00  0.00     0.000 C 
BRANCH   3   4
ATOM      4  C   UNL     1       2.226  23.964  10.645  1.00  0.00     0.000 C 
BRANCH   4   5
ATOM      5  C   UNL     1       1.010  24.758  11.156  1.00  0.00     0.000 C 
BRANCH   5   6
ATOM      6  C   UNL     1       0.587  24.351  12.577  1.00  0.00     0.000 C 
BRANCH   6   7
ATOM      7  C   UNL     1       1.079  25.338  13.647  1.00  0.00     0.006 C 
BRANCH   7   8
ATOM      8  C   UNL     1       2.365  24.871  14.341  1.00  0.00     0.053 C 
BRANCH   8   9
ATOM      9  C   UNL     1       3.554  25.576  13.767  1.00  0.00     0.041 C 
ATOM     10  O   UNL     1       3.435  26.741  13.302  1.00  0.00    -0.550 OA
ATOM     11  O   UNL     1       4.780  24.929  13.697  1.00  0.00    -0.550 OA
ENDBRANCH   8   9
ENDBRANCH   7   8
ENDBRANCH   6   7
ENDBRANCH   5   6
ENDBRANCH   4   5
ENDBRANCH   3   4
ENDBRANCH   2   3
ENDBRANCH   1   2
BRANCH   1  12
ATOM     12  C   UNL     1       4.799  25.243   6.897  1.00  0.00     0.000 C 
BRANCH  12  13
ATOM     13  C   UNL     1       3.449  24.565   6.614  1.00  0.00    -0.000 C 
BRANCH  13  14
ATOM     14  C   UNL     1       2.352  25.613   6.369  1.00  0.00    -0.000 C 
BRANCH  14  15
ATOM     15  C   UNL     1       1.183  25.502   7.366  1.00  0.00    -0.000 C 
BRANCH  15  16
ATOM     16  C   UNL     1      -0.072  26.311   6.989  1.00  0.00    -0.000 C 
BRANCH  16  17
ATOM     17  C   UNL     1      -0.573  26.106   5.546  1.00  0.00    -0.000 C 
BRANCH  17  18
ATOM     18  C   UNL     1      -0.954  24.647   5.219  1.00  0.00    -0.000 C 
BRANCH  18  19
ATOM     19  C   UNL     1      -0.113  24.059   4.077  1.00  0.00    -0.003 C 
ATOM     20  C   UNL     1       0.467  25.162   3.196  1.00  0.00     0.004 C 
ENDBRANCH  18  19
ENDBRANCH  17  18
ENDBRANCH  16  17
ENDBRANCH  15  16
ENDBRANCH  14  15
ENDBRANCH  13  14
ENDBRANCH  12  13
ENDBRANCH   1  12
TORSDOF 16
ENDMDL
MODEL 3
REMARK VINA RESULT:    -3.279      1.446      3.662
REMARK INTER + INTRA:          -8.122
REMARK INTER:                  -6.220
REMARK INTRA:                  -1.902
REMARK UNBOUND:                -1.777
REMARK SMILES CCCCCCCCCCCCCCCCCC(=O)[O-]
REMARK SMILES IDX 10 1 11 2 12 3 13 4 14 5 15 6 16 7 17 8 18 9 19 10 20 11
REMARK SMILES IDX 9 12 8 13 7 14 6 15 5 16 4 17 3 18 2 19 1 20
REMARK H PARENT
REMARK Flexibility Score: inf
ROOT
ATOM      1  C   UNL     1       3.921  24.459  10.068  1.00  0.00     0.000 C 
ENDROOT
BRANCH   1   2
ATOM      2  C   UNL     1       2.551  25.154   9.983  1.00  0.00     0.000 C 
BRANCH   2   3
ATOM      3  C   UNL     1       1.378  24.197  10.266  1.00  0.00     0.000 C 
BRANCH   3   4
ATOM      4  C   UNL     1       0.002  24.873  10.442  1.00  0.00     0.000 C 
BRANCH   4   5
ATOM      5  C   UNL     1      -0.584  24.811  11.864  1.00  0.00     0.000 C 
BRANCH   5   6
ATOM      6  C   UNL     1       0.428  24.303  12.904  1.00  0.00     0.000 C 
BRANCH   6   7
ATOM      7  C   UNL     1       1.072  25.444  13.709  1.00  0.00     0.006 C 
BRANCH   7   8
ATOM      8  C   UNL     1       2.396  25.033  14.367  1.00  0.00     0.053 C 
BRANCH   8   9
ATOM      9  C   UNL     1       3.551  25.656  13.648  1.00  0.00     0.041 C 
ATOM     10  O   UNL     1       3.410  26.762  13.062  1.00  0.00    -0.550 OA
ATOM     11  O   UNL     1       4.768  24.991  13.579  1.00  0.00    -0.550 OA
ENDBRANCH   8   9
ENDBRANCH   7   8
ENDBRANCH   6   7
ENDBRANCH   5   6
ENDBRANCH   4   5
ENDBRANCH   3   4
ENDBRANCH   2   3
ENDBRANCH   1   2
BRANCH   1  12
ATOM     12  C   UNL     1       4.877  24.904   8.951  1.00  0.00     0.000 C 
BRANCH  12  13
ATOM     13  C   UNL     1       4.814  23.992   7.716  1.00  0.00    -0.000 C 
BRANCH  13  14
ATOM     14  C   UNL     1       4.392  24.787   6.471  1.00  0.00    -0.000 C 
BRANCH  14  15
ATOM     15  C   UNL     1       2.973  24.433   5.985  1.00  0.00    -0.000 C 
BRANCH  15  16
ATOM     16  C   UNL     1       2.059  25.641   5.712  1.00  0.00    -0.000 C 
BRANCH  16  17
ATOM     17  C   UNL     1       1.085  25.997   6.853  1.00  0.00    -0.000 C 
BRANCH  17  18
ATOM     18  C   UNL     1      -0.398  26.012   6.426  1.00  0.00    -0.000 C 
BRANCH  18  19
ATOM     19  C   UNL     1      -0.588  25.663   4.943  1.00  0.00    -0.003 C 
ATOM     20  C   UNL     1      -1.123  24.243   4.776  1.00  0.00     0.004 C 
ENDBRANCH  18  19
ENDBRANCH  17  18
ENDBRANCH  16  17
ENDBRANCH  15  16
ENDBRANCH  14  15
ENDBRANCH  13  14
ENDBRANCH  12  13
ENDBRANCH   1  12
TORSDOF 16
ENDMDL
MODEL 4
REMARK VINA RESULT:    -3.152      2.475      7.194
REMARK INTER + INTRA:          -7.878
REMARK INTER:                  -5.980
REMARK INTRA:                  -1.898
REMARK UNBOUND:                -1.777
REMARK SMILES CCCCCCCCCCCCCCCCCC(=O)[O-]
REMARK SMILES IDX 10 1 11 2 12 3 13 4 14 5 15 6 16 7 17 8 18 9 19 10 20 11
REMARK SMILES IDX 9 12 8 13 7 14 6 15 5 16 4 17 3 18 2 19 1 20
REMARK H PARENT
REMARK Flexibility Score: inf
ROOT
ATOM      1  C   UNL     1       4.304  24.190   9.307  1.00  0.00     0.000 C 
ENDROOT
BRANCH   1   2
ATOM      2  C   UNL     1       5.289  25.075   8.526  1.00  0.00     0.000 C 
BRANCH   2   3
ATOM      3  C   UNL     1       4.847  25.320   7.071  1.00  0.00     0.000 C 
BRANCH   3   4
ATOM      4  C   UNL     1       4.377  24.067   6.304  1.00  0.00     0.000 C 
BRANCH   4   5
ATOM      5  C   UNL     1       2.852  23.914   6.165  1.00  0.00     0.000 C 
BRANCH   5   6
ATOM      6  C   UNL     1       2.119  25.265   6.119  1.00  0.00     0.000 C 
BRANCH   6   7
ATOM      7  C   UNL     1       1.074  25.333   4.994  1.00  0.00     0.006 C 
BRANCH   7   8
ATOM      8  C   UNL     1      -0.344  25.005   5.479  1.00  0.00     0.053 C 
BRANCH   8   9
ATOM      9  C   UNL     1      -0.702  25.856   6.657  1.00  0.00     0.041 C 
ATOM     10  O   UNL     1      -0.947  25.322   7.772  1.00  0.00    -0.550 OA
ATOM     11  O   UNL     1      -0.820  27.231   6.510  1.00  0.00    -0.550 OA
ENDBRANCH   8   9
ENDBRANCH   7   8
ENDBRANCH   6   7
ENDBRANCH   5   6
ENDBRANCH   4   5
ENDBRANCH   3   4
ENDBRANCH   2   3
ENDBRANCH   1   2
BRANCH   1  12
ATOM     12  C   UNL     1       3.127  24.988   9.888  1.00  0.00     0.000 C 
BRANCH  12  13
ATOM     13  C   UNL     1       1.828  24.170   9.951  1.00  0.00    -0.000 C 
BRANCH  13  14
ATOM     14  C   UNL     1       0.785  24.867  10.839  1.00  0.00    -0.000 C 
BRANCH  14  15
ATOM     15  C   UNL     1      -0.051  23.879  11.673  1.00  0.00    -0.000 C 
BRANCH  15  16
ATOM     16  C   UNL     1       0.231  23.904  13.187  1.00  0.00    -0.000 C 
BRANCH  16  17
ATOM     17  C   UNL     1       0.504  25.301  13.778  1.00  0.00    -0.000 C 
BRANCH  17  18
ATOM     18  C   UNL     1       1.750  25.362  14.687  1.00  0.00    -0.000 C 
BRANCH  18  19
ATOM     19  C   UNL     1       3.060  25.199  13.903  1.00  0.00    -0.003 C 
ATOM     20  C   UNL     1       3.440  26.495  13.191  1.00  0.00     0.004 C 
ENDBRANCH  18  19
ENDBRANCH  17  18
ENDBRANCH  16  17
ENDBRANCH  15  16
ENDBRANCH  14  15
ENDBRANCH  13  14
ENDBRANCH  12  13
ENDBRANCH   1  12
TORSDOF 16
ENDMDL
MODEL 5
REMARK VINA RESULT:    -3.130      1.930      2.877
REMARK INTER + INTRA:          -7.834
REMARK INTER:                  -6.005
REMARK INTRA:                  -1.829
REMARK UNBOUND:                -1.777
REMARK SMILES CCCCCCCCCCCCCCCCCC(=O)[O-]
REMARK SMILES IDX 10 1 11 2 12 3 13 4 14 5 15 6 16 7 17 8 18 9 19 10 20 11
REMARK SMILES IDX 9 12 8 13 7 14 6 15 5 16 4 17 3 18 2 19 1 20
REMARK H PARENT
REMARK Flexibility Score: inf
ROOT
ATOM      1  C   UNL     1       1.071  25.698   8.975  1.00  0.00     0.000 C 
ENDROOT
BRANCH   1   2
ATOM      2  C   UNL     1       1.404  25.332  10.431  1.00  0.00     0.000 C 
BRANCH   2   3
ATOM      3  C   UNL     1       2.839  25.723  10.832  1.00  0.00     0.000 C 
BRANCH   3   4
ATOM      4  C   UNL     1       3.661  24.609  11.513  1.00  0.00     0.000 C 
BRANCH   4   5
ATOM      5  C   UNL     1       3.898  24.795  13.023  1.00  0.00     0.000 C 
BRANCH   5   6
ATOM      6  C   UNL     1       3.264  26.084  13.570  1.00  0.00     0.000 C 
BRANCH   6   7
ATOM      7  C   UNL     1       2.409  25.836  14.824  1.00  0.00     0.006 C 
BRANCH   7   8
ATOM      8  C   UNL     1       1.972  24.373  14.966  1.00  0.00     0.053 C 
BRANCH   8   9
ATOM      9  C   UNL     1       0.520  24.227  14.636  1.00  0.00     0.041 C 
ATOM     10  O   UNL     1      -0.351  24.372  15.534  1.00  0.00    -0.550 OA
ATOM     11  O   UNL     1       0.131  23.878  13.349  1.00  0.00    -0.550 OA
ENDBRANCH   8   9
ENDBRANCH   7   8
ENDBRANCH   6   7
ENDBRANCH   5   6
ENDBRANCH   4   5
ENDBRANCH   3   4
ENDBRANCH   2   3
ENDBRANCH   1   2
BRANCH   1  12
ATOM     12  C   UNL     1       0.651  24.477   8.143  1.00  0.00     0.000 C 
BRANCH  12  13
ATOM     13  C   UNL     1      -0.285  24.843   6.981  1.00  0.00    -0.000 C 
BRANCH  13  14
ATOM     14  C   UNL     1       0.458  25.668   5.919  1.00  0.00    -0.000 C 
BRANCH  14  15
ATOM     15  C   UNL     1       0.978  24.812   4.749  1.00  0.00    -0.000 C 
BRANCH  15  16
ATOM     16  C   UNL     1       2.285  24.048   5.032  1.00  0.00    -0.000 C 
BRANCH  16  17
ATOM     17  C   UNL     1       3.338  24.830   5.842  1.00  0.00    -0.000 C 
BRANCH  17  18
ATOM     18  C   UNL     1       4.431  23.939   6.468  1.00  0.00    -0.000 C 
BRANCH  18  19
ATOM     19  C   UNL     1       4.628  24.213   7.966  1.00  0.00    -0.003 C 
ATOM     20  C   UNL     1       5.354  25.537   8.193  1.00  0.00     0.004 C 
ENDBRANCH  18  19
ENDBRANCH  17  18
ENDBRANCH  16  17
ENDBRANCH  15  16
ENDBRANCH  14  15
ENDBRANCH  13  14
ENDBRANCH  12  13
ENDBRANCH   1  12
TORSDOF 16
ENDMDL
MODEL 6
REMARK VINA RESULT:    -3.027      2.581      7.691
REMARK INTER + INTRA:          -7.634
REMARK INTER:                  -6.104
REMARK INTRA:                  -1.531
REMARK UNBOUND:                -1.777
REMARK SMILES CCCCCCCCCCCCCCCCCC(=O)[O-]
REMARK SMILES IDX 10 1 11 2 12 3 13 4 14 5 15 6 16 7 17 8 18 9 19 10 20 11
REMARK SMILES IDX 9 12 8 13 7 14 6 15 5 16 4 17 3 18 2 19 1 20
REMARK H PARENT
REMARK Flexibility Score: inf
ROOT
ATOM      1  C   UNL     1       3.312  24.972  10.775  1.00  0.00     0.000 C 
ENDROOT
BRANCH   1   2
ATOM      2  C   UNL     1       3.447  23.938   9.644  1.00  0.00     0.000 C 
BRANCH   2   3
ATOM      3  C   UNL     1       4.775  24.063   8.876  1.00  0.00     0.000 C 
BRANCH   3   4
ATOM      4  C   UNL     1       4.872  25.267   7.915  1.00  0.00     0.000 C 
BRANCH   4   5
ATOM      5  C   UNL     1       4.629  24.944   6.430  1.00  0.00     0.000 C 
BRANCH   5   6
ATOM      6  C   UNL     1       3.229  24.364   6.167  1.00  0.00     0.000 C 
BRANCH   6   7
ATOM      7  C   UNL     1       2.188  25.451   5.855  1.00  0.00     0.006 C 
BRANCH   7   8
ATOM      8  C   UNL     1       1.293  25.780   7.056  1.00  0.00     0.053 C 
BRANCH   8   9
ATOM      9  C   UNL     1      -0.094  26.108   6.599  1.00  0.00     0.041 C 
ATOM     10  O   UNL     1      -0.996  26.359   7.442  1.00  0.00    -0.550 OA
ATOM     11  O   UNL     1      -0.404  26.084   5.245  1.00  0.00    -0.550 OA
ENDBRANCH   8   9
ENDBRANCH   7   8
ENDBRANCH   6   7
ENDBRANCH   5   6
ENDBRANCH   4   5
ENDBRANCH   3   4
ENDBRANCH   2   3
ENDBRANCH   1   2
BRANCH   1  12
ATOM     12  C   UNL     1       2.473  24.451  11.952  1.00  0.00     0.000 C 
BRANCH  12  13
ATOM     13  C   UNL     1       3.323  24.134  13.192  1.00  0.00    -0.000 C 
BRANCH  13  14
ATOM     14  C   UNL     1       3.493  25.381  14.072  1.00  0.00    -0.000 C 
BRANCH  14  15
ATOM     15  C   UNL     1       2.223  25.732  14.870  1.00  0.00    -0.000 C 
BRANCH  15  16
ATOM     16  C   UNL     1       1.520  24.534  15.534  1.00  0.00    -0.000 C 
BRANCH  16  17
ATOM     17  C   UNL     1      -0.020  24.594  15.530  1.00  0.00    -0.000 C 
BRANCH  17  18
ATOM     18  C   UNL     1      -0.658  24.148  14.197  1.00  0.00    -0.000 C 
BRANCH  18  19
ATOM     19  C   UNL     1      -1.125  25.333  13.341  1.00  0.00    -0.003 C 
ATOM     20  C   UNL     1      -1.096  24.985  11.855  1.00  0.00     0.004 C 
ENDBRANCH  18  19
ENDBRANCH  17  18
ENDBRANCH  16  17
ENDBRANCH  15  16
ENDBRANCH  14  15
ENDBRANCH  13  14
ENDBRANCH  12  13
ENDBRANCH   1  12
TORSDOF 16
ENDMDL
MODEL 7
REMARK VINA RESULT:    -2.992      1.976      4.270
REMARK INTER + INTRA:          -7.567
REMARK INTER:                  -6.087
REMARK INTRA:                  -1.480
REMARK UNBOUND:                -1.777
REMARK SMILES CCCCCCCCCCCCCCCCCC(=O)[O-]
REMARK SMILES IDX 10 1 11 2 12 3 13 4 14 5 15 6 16 7 17 8 18 9 19 10 20 11
REMARK SMILES IDX 9 12 8 13 7 14 6 15 5 16 4 17 3 18 2 19 1 20
REMARK H PARENT
REMARK Flexibility Score: inf
ROOT
ATOM      1  C   UNL     1       4.695  25.230   8.531  1.00  0.00     0.000 C 
ENDROOT
BRANCH   1   2
ATOM      2  C   UNL     1       4.866  23.915   9.311  1.00  0.00     0.000 C 
BRANCH   2   3
ATOM      3  C   UNL     1       4.062  23.892  10.625  1.00  0.00     0.000 C 
BRANCH   3   4
ATOM      4  C   UNL     1       3.143  25.109  10.858  1.00  0.00     0.000 C 
BRANCH   4   5
ATOM      5  C   UNL     1       2.348  25.089  12.177  1.00  0.00     0.000 C 
BRANCH   5   6
ATOM      6  C   UNL     1       2.886  26.091  13.211  1.00  0.00     0.000 C 
BRANCH   6   7
ATOM      7  C   UNL     1       2.520  25.705  14.654  1.00  0.00     0.006 C 
BRANCH   7   8
ATOM      8  C   UNL     1       1.738  24.388  14.737  1.00  0.00     0.053 C 
BRANCH   8   9
ATOM      9  C   UNL     1       0.314  24.649  15.115  1.00  0.00     0.041 C 
ATOM     10  O   UNL     1      -0.059  24.516  16.311  1.00  0.00    -0.550 OA
ATOM     11  O   UNL     1      -0.613  24.987  14.138  1.00  0.00    -0.550 OA
ENDBRANCH   8   9
ENDBRANCH   7   8
ENDBRANCH   6   7
ENDBRANCH   5   6
ENDBRANCH   4   5
ENDBRANCH   3   4
ENDBRANCH   2   3
ENDBRANCH   1   2
BRANCH   1  12
ATOM     12  C   UNL     1       4.899  25.048   7.019  1.00  0.00     0.000 C 
BRANCH  12  13
ATOM     13  C   UNL     1       3.871  24.094   6.391  1.00  0.00    -0.000 C 
BRANCH  13  14
ATOM     14  C   UNL     1       2.441  24.499   6.779  1.00  0.00    -0.000 C 
BRANCH  14  15
ATOM     15  C   UNL     1       1.860  25.599   5.869  1.00  0.00    -0.000 C 
BRANCH  15  16
ATOM     16  C   UNL     1       0.535  25.236   5.175  1.00  0.00    -0.000 C 
BRANCH  16  17
ATOM     17  C   UNL     1      -0.685  26.066   5.621  1.00  0.00    -0.000 C 
BRANCH  17  18
ATOM     18  C   UNL     1      -0.691  26.409   7.125  1.00  0.00    -0.000 C 
BRANCH  18  19
ATOM     19  C   UNL     1      -1.098  25.215   8.001  1.00  0.00    -0.003 C 
ATOM     20  C   UNL     1      -0.243  25.142   9.263  1.00  0.00     0.004 C 
ENDBRANCH  18  19
ENDBRANCH  17  18
ENDBRANCH  16  17
ENDBRANCH  15  16
ENDBRANCH  14  15
ENDBRANCH  13  14
ENDBRANCH  12  13
ENDBRANCH   1  12
TORSDOF 16
ENDMDL
MODEL 8
REMARK VINA RESULT:    -2.856      1.208      2.065
REMARK INTER + INTRA:          -7.304
REMARK INTER:                  -5.399
REMARK INTRA:                  -1.905
REMARK UNBOUND:                -1.777
REMARK SMILES CCCCCCCCCCCCCCCCCC(=O)[O-]
REMARK SMILES IDX 10 1 11 2 12 3 13 4 14 5 15 6 16 7 17 8 18 9 19 10 20 11
REMARK SMILES IDX 9 12 8 13 7 14 6 15 5 16 4 17 3 18 2 19 1 20
REMARK H PARENT
REMARK Flexibility Score: inf
ROOT
ATOM      1  C   UNL     1      -0.075  24.665  10.951  1.00  0.00     0.000 C 
ENDROOT
BRANCH   1   2
ATOM      2  C   UNL     1      -1.124  24.900  12.052  1.00  0.00     0.000 C 
BRANCH   2   3
ATOM      3  C   UNL     1      -0.954  23.948  13.251  1.00  0.00     0.000 C 
BRANCH   3   4
ATOM      4  C   UNL     1      -0.938  24.628  14.636  1.00  0.00     0.000 C 
BRANCH   4   5
ATOM      5  C   UNL     1       0.067  24.042  15.644  1.00  0.00     0.000 C 
BRANCH   5   6
ATOM      6  C   UNL     1       1.513  24.056  15.121  1.00  0.00     0.000 C 
BRANCH   6   7
ATOM      7  C   UNL     1       2.119  25.468  15.096  1.00  0.00     0.006 C 
BRANCH   7   8
ATOM      8  C   UNL     1       2.348  25.992  13.673  1.00  0.00     0.053 C 
BRANCH   8   9
ATOM      9  C   UNL     1       3.528  25.315  13.051  1.00  0.00     0.041 C 
ATOM     10  O   UNL     1       4.671  25.432  13.569  1.00  0.00    -0.550 OA
ATOM     11  O   UNL     1       3.377  24.600  11.870  1.00  0.00    -0.550 OA
ENDBRANCH   8   9
ENDBRANCH   7   8
ENDBRANCH   6   7
ENDBRANCH   5   6
ENDBRANCH   4   5
ENDBRANCH   3   4
ENDBRANCH   2   3
ENDBRANCH   1   2
BRANCH   1  12
ATOM     12  C   UNL     1      -0.641  23.889   9.753  1.00  0.00     0.000 C 
BRANCH  12  13
ATOM     13  C   UNL     1      -0.010  24.312   8.418  1.00  0.00    -0.000 C 
BRANCH  13  14
ATOM     14  C   UNL     1       0.607  25.715   8.525  1.00  0.00    -0.000 C 
BRANCH  14  15
ATOM     15  C   UNL     1       2.138  25.713   8.358  1.00  0.00    -0.000 C 
BRANCH  15  16
ATOM     16  C   UNL     1       2.794  24.321   8.389  1.00  0.00    -0.000 C 
BRANCH  16  17
ATOM     17  C   UNL     1       3.808  24.050   7.261  1.00  0.00    -0.000 C 
BRANCH  17  18
ATOM     18  C   UNL     1       3.413  24.671   5.904  1.00  0.00    -0.000 C 
BRANCH  18  19
ATOM     19  C   UNL     1       2.287  23.895   5.206  1.00  0.00    -0.003 C 
ATOM     20  C   UNL     1       1.155  24.828   4.785  1.00  0.00     0.004 C 
ENDBRANCH  18  19
ENDBRANCH  17  18
ENDBRANCH  16  17
ENDBRANCH  15  16
ENDBRANCH  14  15
ENDBRANCH  13  14
ENDBRANCH  12  13
ENDBRANCH   1  12
TORSDOF 16
ENDMDL
MODEL 9
REMARK VINA RESULT:    -2.753      2.267      4.536
REMARK INTER + INTRA:          -7.104
REMARK INTER:                  -5.632
REMARK INTRA:                  -1.472
REMARK UNBOUND:                -1.777
REMARK SMILES CCCCCCCCCCCCCCCCCC(=O)[O-]
REMARK SMILES IDX 10 1 11 2 12 3 13 4 14 5 15 6 16 7 17 8 18 9 19 10 20 11
REMARK SMILES IDX 9 12 8 13 7 14 6 15 5 16 4 17 3 18 2 19 1 20
REMARK H PARENT
REMARK Flexibility Score: inf
ROOT
ATOM      1  C   UNL     1       4.091  25.290   9.150  1.00  0.00     0.000 C 
ENDROOT
BRANCH   1   2
ATOM      2  C   UNL     1       3.314  24.468  10.193  1.00  0.00     0.000 C 
BRANCH   2   3
ATOM      3  C   UNL     1       4.215  23.928  11.319  1.00  0.00     0.000 C 
BRANCH   3   4
ATOM      4  C   UNL     1       4.352  24.846  12.552  1.00  0.00     0.000 C 
BRANCH   4   5
ATOM      5  C   UNL     1       3.078  25.620  12.940  1.00  0.00     0.000 C 
BRANCH   5   6
ATOM      6  C   UNL     1       2.647  25.367  14.394  1.00  0.00     0.000 C 
BRANCH   6   7
ATOM      7  C   UNL     1       1.621  24.229  14.517  1.00  0.00     0.006 C 
BRANCH   7   8
ATOM      8  C   UNL     1       0.780  24.047  13.248  1.00  0.00     0.053 C 
BRANCH   8   9
ATOM      9  C   UNL     1      -0.547  24.722  13.400  1.00  0.00     0.041 C 
ATOM     10  O   UNL     1      -1.121  25.224  12.396  1.00  0.00    -0.550 OA
ATOM     11  O   UNL     1      -1.125  24.846  14.656  1.00  0.00    -0.550 OA
ENDBRANCH   8   9
ENDBRANCH   7   8
ENDBRANCH   6   7
ENDBRANCH   5   6
ENDBRANCH   4   5
ENDBRANCH   3   4
ENDBRANCH   2   3
ENDBRANCH   1   2
BRANCH   1  12
ATOM     12  C   UNL     1       4.825  24.406   8.131  1.00  0.00     0.000 C 
BRANCH  12  13
ATOM     13  C   UNL     1       4.369  24.662   6.685  1.00  0.00    -0.000 C 
BRANCH  13  14
ATOM     14  C   UNL     1       2.856  24.440   6.542  1.00  0.00    -0.000 C 
BRANCH  14  15
ATOM     15  C   UNL     1       2.086  25.737   6.228  1.00  0.00    -0.000 C 
BRANCH  15  16
ATOM     16  C   UNL     1       0.844  25.985   7.103  1.00  0.00    -0.000 C 
BRANCH  16  17
ATOM     17  C   UNL     1      -0.497  26.009   6.343  1.00  0.00    -0.000 C 
BRANCH  17  18
ATOM     18  C   UNL     1      -0.561  25.023   5.158  1.00  0.00    -0.000 C 
BRANCH  18  19
ATOM     19  C   UNL     1      -0.861  25.723   3.824  1.00  0.00    -0.003 C 
ATOM     20  C   UNL     1       0.332  25.633   2.875  1.00  0.00     0.004 C 
ENDBRANCH  18  19
ENDBRANCH  17  18
ENDBRANCH  16  17
ENDBRANCH  15  16
ENDBRANCH  14  15
ENDBRANCH  13  14
ENDBRANCH  12  13
ENDBRANCH   1  12
TORSDOF 16
ENDMDL
