MODEL 1
REMARK VINA RESULT:    -3.691      0.000      0.000
REMARK INTER + INTRA:         -10.896
REMARK INTER:                  -8.437
REMARK INTRA:                  -2.459
REMARK UNBOUND:                -2.459
REMARK SMILES CCCCCCCCCCCCCCCCCCCCCCCC(=O)[O-]
REMARK SMILES IDX 13 1 14 2 15 3 16 4 17 5 18 6 19 7 20 8 21 9 22 10 23 11
REMARK SMILES IDX 24 12 25 13 26 14 12 15 11 16 10 17 9 18 8 19 7 20 6 21 5 22
REMARK SMILES IDX 4 23 3 24 2 25 1 26
REMARK H PARENT
REMARK Flexibility Score: inf
ROOT
ATOM      1  C   UNL     1      -2.153  14.047  11.108  1.00  0.00     0.000 C 
ENDROOT
BRANCH   1   2
ATOM      2  C   UNL     1      -0.986  13.132  11.521  1.00  0.00     0.000 C 
BRANCH   2   3
ATOM      3  C   UNL     1      -0.385  12.279  10.385  1.00  0.00     0.000 C 
BRANCH   3   4
ATOM      4  C   UNL     1      -1.409  11.517   9.525  1.00  0.00     0.000 C 
BRANCH   4   5
ATOM      5  C   UNL     1      -1.332   9.983   9.636  1.00  0.00     0.000 C 
BRANCH   5   6
ATOM      6  C   UNL     1      -2.394   9.376  10.579  1.00  0.00     0.000 C 
BRANCH   6   7
ATOM      7  C   UNL     1      -2.038   9.562  12.063  1.00  0.00     0.000 C 
BRANCH   7   8
ATOM      8  C   UNL     1      -3.214  10.099  12.894  1.00  0.00     0.000 C 
BRANCH   8   9
ATOM      9  C   UNL     1      -4.079  11.135  12.141  1.00  0.00     0.000 C 
BRANCH   9  10
ATOM     10  C   UNL     1      -4.621  12.259  13.049  1.00  0.00     0.006 C 
BRANCH  10  11
ATOM     11  C   UNL     1      -3.991  12.271  14.452  1.00  0.00     0.053 C 
BRANCH  11  12
ATOM     12  C   UNL     1      -3.070  13.433  14.653  1.00  0.00     0.041 C 
ATOM     13  O   UNL     1      -1.831  13.243  14.783  1.00  0.00    -0.550 OA
ATOM     14  O   UNL     1      -3.574  14.728  14.667  1.00  0.00    -0.550 OA
ENDBRANCH  11  12
ENDBRANCH  10  11
ENDBRANCH   9  10
ENDBRANCH   8   9
ENDBRANCH   7   8
ENDBRANCH   6   7
ENDBRANCH   5   6
ENDBRANCH   4   5
ENDBRANCH   3   4
ENDBRANCH   2   3
ENDBRANCH   1   2
BRANCH   1  15
ATOM     15  C   UNL     1      -1.862  15.539  11.350  1.00  0.00     0.000 C 
BRANCH  15  16
ATOM     16  C   UNL     1      -0.439  15.774  11.884  1.00  0.00     0.000 C 
BRANCH  16  17
ATOM     17  C   UNL     1      -0.387  16.899  12.928  1.00  0.00     0.000 C 
BRANCH  17  18
ATOM     18  C   UNL     1      -1.586  17.843  12.780  1.00  0.00    -0.000 C 
BRANCH  18  19
ATOM     19  C   UNL     1      -2.384  17.928  14.088  1.00  0.00    -0.000 C 
BRANCH  19  20
ATOM     20  C   UNL     1      -3.876  18.222  13.862  1.00  0.00    -0.000 C 
BRANCH  20  21
ATOM     21  C   UNL     1      -4.604  18.729  15.125  1.00  0.00    -0.000 C 
BRANCH  21  22
ATOM     22  C   UNL     1      -5.211  20.129  14.920  1.00  0.00    -0.000 C 
BRANCH  22  23
ATOM     23  C   UNL     1      -6.635  20.079  14.347  1.00  0.00    -0.000 C 
BRANCH  23  24
ATOM     24  C   UNL     1      -7.597  21.034  15.072  1.00  0.00    -0.000 C 
BRANCH  24  25
ATOM     25  C   UNL     1      -8.799  21.376  14.182  1.00  0.00    -0.003 C 
ATOM     26  C   UNL     1      -9.242  22.824  14.382  1.00  0.00     0.004 C 
ENDBRANCH  24  25
ENDBRANCH  23  24
ENDBRANCH  22  23
ENDBRANCH  21  22
ENDBRANCH  20  21
ENDBRANCH  19  20
ENDBRANCH  18  19
ENDBRANCH  17  18
ENDBRANCH  16  17
ENDBRANCH  15  16
ENDBRANCH   1  15
TORSDOF 22
ENDMDL
MODEL 2
REMARK VINA RESULT:    -3.586      2.630      4.946
REMARK INTER + INTRA:         -10.657
REMARK INTER:                  -9.571
REMARK INTRA:                  -1.086
REMARK UNBOUND:                -2.459
REMARK SMILES CCCCCCCCCCCCCCCCCCCCCCCC(=O)[O-]
REMARK SMILES IDX 13 1 14 2 15 3 16 4 17 5 18 6 19 7 20 8 21 9 22 10 23 11
REMARK SMILES IDX 24 12 25 13 26 14 12 15 11 16 10 17 9 18 8 19 7 20 6 21 5 22
REMARK SMILES IDX 4 23 3 24 2 25 1 26
REMARK H PARENT
REMARK Flexibility Score: inf
ROOT
ATOM      1  C   UNL     1      -3.041  17.900  13.173  1.00  0.00     0.000 C 
ENDROOT
BRANCH   1   2
ATOM      2  C   UNL     1      -1.535  17.747  12.892  1.00  0.00     0.000 C 
BRANCH   2   3
ATOM      3  C   UNL     1      -1.125  16.425  12.210  1.00  0.00     0.000 C 
BRANCH   3   4
ATOM      4  C   UNL     1      -2.010  15.211  12.549  1.00  0.00     0.000 C 
BRANCH   4   5
ATOM      5  C   UNL     1      -1.264  13.864  12.606  1.00  0.00     0.000 C 
BRANCH   5   6
ATOM      6  C   UNL     1      -0.633  13.448  11.258  1.00  0.00     0.000 C 
BRANCH   6   7
ATOM      7  C   UNL     1      -1.354  12.251  10.617  1.00  0.00     0.000 C 
BRANCH   7   8
ATOM      8  C   UNL     1      -2.884  12.348  10.732  1.00  0.00     0.000 C 
BRANCH   8   9
ATOM      9  C   UNL     1      -3.538  11.086  11.340  1.00  0.00     0.000 C 
BRANCH   9  10
ATOM     10  C   UNL     1      -4.789  11.392  12.191  1.00  0.00     0.006 C 
BRANCH  10  11
ATOM     11  C   UNL     1      -4.807  10.654  13.540  1.00  0.00     0.053 C 
BRANCH  11  12
ATOM     12  C   UNL     1      -5.960   9.708  13.657  1.00  0.00     0.041 C 
ATOM     13  O   UNL     1      -6.460   9.189  12.622  1.00  0.00    -0.550 OA
ATOM     14  O   UNL     1      -6.464   9.373  14.908  1.00  0.00    -0.550 OA
ENDBRANCH  11  12
ENDBRANCH  10  11
ENDBRANCH   9  10
ENDBRANCH   8   9
ENDBRANCH   7   8
ENDBRANCH   6   7
ENDBRANCH   5   6
ENDBRANCH   4   5
ENDBRANCH   3   4
ENDBRANCH   2   3
ENDBRANCH   1   2
BRANCH   1  15
ATOM     15  C   UNL     1      -3.372  17.920  14.677  1.00  0.00     0.000 C 
BRANCH  15  16
ATOM     16  C   UNL     1      -3.982  19.261  15.119  1.00  0.00     0.000 C 
BRANCH  16  17
ATOM     17  C   UNL     1      -5.188  19.665  14.258  1.00  0.00     0.000 C 
BRANCH  17  18
ATOM     18  C   UNL     1      -6.084  20.664  15.000  1.00  0.00    -0.000 C 
BRANCH  18  19
ATOM     19  C   UNL     1      -7.389  20.910  14.230  1.00  0.00    -0.000 C 
BRANCH  19  20
ATOM     20  C   UNL     1      -8.472  21.586  15.086  1.00  0.00    -0.000 C 
BRANCH  20  21
ATOM     21  C   UNL     1      -9.210  22.730  14.359  1.00  0.00    -0.000 C 
BRANCH  21  22
ATOM     22  C   UNL     1      -8.242  23.819  13.863  1.00  0.00    -0.000 C 
BRANCH  22  23
ATOM     23  C   UNL     1      -8.923  25.186  13.699  1.00  0.00    -0.000 C 
BRANCH  23  24
ATOM     24  C   UNL     1      -8.441  26.215  14.734  1.00  0.00    -0.000 C 
BRANCH  24  25
ATOM     25  C   UNL     1      -7.781  27.415  14.044  1.00  0.00    -0.003 C 
ATOM     26  C   UNL     1      -8.686  28.000  12.962  1.00  0.00     0.004 C 
ENDBRANCH  24  25
ENDBRANCH  23  24
ENDBRANCH  22  23
ENDBRANCH  21  22
ENDBRANCH  20  21
ENDBRANCH  19  20
ENDBRANCH  18  19
ENDBRANCH  17  18
ENDBRANCH  16  17
ENDBRANCH  15  16
ENDBRANCH   1  15
TORSDOF 22
ENDMDL
MODEL 3
REMARK VINA RESULT:    -3.443     14.728     16.680
REMARK INTER + INTRA:         -10.331
REMARK INTER:                  -7.523
REMARK INTRA:                  -2.808
REMARK UNBOUND:                -2.459
REMARK SMILES CCCCCCCCCCCCCCCCCCCCCCCC(=O)[O-]
REMARK SMILES IDX 13 1 14 2 15 3 16 4 17 5 18 6 19 7 20 8 21 9 22 10 23 11
REMARK SMILES IDX 24 12 25 13 26 14 12 15 11 16 10 17 9 18 8 19 7 20 6 21 5 22
REMARK SMILES IDX 4 23 3 24 2 25 1 26
REMARK H PARENT
REMARK Flexibility Score: inf
ROOT
ATOM      1  C   UNL     1     -13.361  10.325   4.069  1.00  0.00     0.000 C 
ENDROOT
BRANCH   1   2
ATOM      2  C   UNL     1     -12.622  10.356   5.420  1.00  0.00     0.000 C 
BRANCH   2   3
ATOM      3  C   UNL     1     -13.041   9.262   6.424  1.00  0.00     0.000 C 
BRANCH   3   4
ATOM      4  C   UNL     1     -13.897   9.750   7.607  1.00  0.00     0.000 C 
BRANCH   4   5
ATOM      5  C   UNL     1     -15.371   9.306   7.564  1.00  0.00     0.000 C 
BRANCH   5   6
ATOM      6  C   UNL     1     -16.371  10.485   7.534  1.00  0.00     0.000 C 
BRANCH   6   7
ATOM      7  C   UNL     1     -17.818  10.034   7.789  1.00  0.00     0.000 C 
BRANCH   7   8
ATOM      8  C   UNL     1     -18.033   9.506   9.217  1.00  0.00     0.000 C 
BRANCH   8   9
ATOM      9  C   UNL     1     -17.535  10.474  10.314  1.00  0.00     0.000 C 
BRANCH   9  10
ATOM     10  C   UNL     1     -16.916   9.755  11.532  1.00  0.00     0.006 C 
BRANCH  10  11
ATOM     11  C   UNL     1     -15.407  10.005  11.688  1.00  0.00     0.053 C 
BRANCH  11  12
ATOM     12  C   UNL     1     -15.088  10.829  12.896  1.00  0.00     0.041 C 
ATOM     13  O   UNL     1     -16.008  11.180  13.684  1.00  0.00    -0.550 OA
ATOM     14  O   UNL     1     -13.774  11.186  13.170  1.00  0.00    -0.550 OA
ENDBRANCH  11  12
ENDBRANCH  10  11
ENDBRANCH   9  10
ENDBRANCH   8   9
ENDBRANCH   7   8
ENDBRANCH   6   7
ENDBRANCH   5   6
ENDBRANCH   4   5
ENDBRANCH   3   4
ENDBRANCH   2   3
ENDBRANCH   1   2
BRANCH   1  15
ATOM     15  C   UNL     1     -14.266   9.090   3.908  1.00  0.00     0.000 C 
BRANCH  15  16
ATOM     16  C   UNL     1     -15.757   9.440   4.049  1.00  0.00     0.000 C 
BRANCH  16  17
ATOM     17  C   UNL     1     -16.001  10.956   4.057  1.00  0.00     0.000 C 
BRANCH  17  18
ATOM     18  C   UNL     1     -17.463  11.280   3.726  1.00  0.00    -0.000 C 
BRANCH  18  19
ATOM     19  C   UNL     1     -18.276   9.995   3.512  1.00  0.00    -0.000 C 
BRANCH  19  20
ATOM     20  C   UNL     1     -18.919   9.918   2.117  1.00  0.00    -0.000 C 
BRANCH  20  21
ATOM     21  C   UNL     1     -17.957  10.303   0.973  1.00  0.00    -0.000 C 
BRANCH  21  22
ATOM     22  C   UNL     1     -18.464  11.518   0.176  1.00  0.00    -0.000 C 
BRANCH  22  23
ATOM     23  C   UNL     1     -19.665  12.205   0.842  1.00  0.00    -0.000 C 
BRANCH  23  24
ATOM     24  C   UNL     1     -19.525  13.735   0.879  1.00  0.00    -0.000 C 
BRANCH  24  25
ATOM     25  C   UNL     1     -18.649  14.231  -0.277  1.00  0.00    -0.003 C 
ATOM     26  C   UNL     1     -19.010  15.661  -0.673  1.00  0.00     0.004 C 
ENDBRANCH  24  25
ENDBRANCH  23  24
ENDBRANCH  22  23
ENDBRANCH  21  22
ENDBRANCH  20  21
ENDBRANCH  19  20
ENDBRANCH  18  19
ENDBRANCH  17  18
ENDBRANCH  16  17
ENDBRANCH  15  16
ENDBRANCH   1  15
TORSDOF 22
ENDMDL
MODEL 4
REMARK VINA RESULT:    -3.256      1.603      2.045
REMARK INTER + INTRA:          -9.902
REMARK INTER:                  -8.490
REMARK INTRA:                  -1.412
REMARK UNBOUND:                -2.459
REMARK SMILES CCCCCCCCCCCCCCCCCCCCCCCC(=O)[O-]
REMARK SMILES IDX 13 1 14 2 15 3 16 4 17 5 18 6 19 7 20 8 21 9 22 10 23 11
REMARK SMILES IDX 24 12 25 13 26 14 12 15 11 16 10 17 9 18 8 19 7 20 6 21 5 22
REMARK SMILES IDX 4 23 3 24 2 25 1 26
REMARK H PARENT
REMARK Flexibility Score: inf
ROOT
ATOM      1  C   UNL     1      -2.295  13.874  10.975  1.00  0.00     0.000 C 
ENDROOT
BRANCH   1   2
ATOM      2  C   UNL     1      -1.042  13.064  11.353  1.00  0.00     0.000 C 
BRANCH   2   3
ATOM      3  C   UNL     1      -0.465  12.182  10.227  1.00  0.00     0.000 C 
BRANCH   3   4
ATOM      4  C   UNL     1      -1.511  11.527   9.306  1.00  0.00     0.000 C 
BRANCH   4   5
ATOM      5  C   UNL     1      -1.106  10.152   8.742  1.00  0.00     0.000 C 
BRANCH   5   6
ATOM      6  C   UNL     1      -1.176   9.012   9.783  1.00  0.00     0.000 C 
BRANCH   6   7
ATOM      7  C   UNL     1      -0.273   9.271  11.000  1.00  0.00     0.000 C 
BRANCH   7   8
ATOM      8  C   UNL     1      -0.937   8.875  12.328  1.00  0.00     0.000 C 
BRANCH   8   9
ATOM      9  C   UNL     1      -2.467   9.099  12.344  1.00  0.00     0.000 C 
BRANCH   9  10
ATOM     10  C   UNL     1      -2.915  10.207  13.322  1.00  0.00     0.006 C 
BRANCH  10  11
ATOM     11  C   UNL     1      -4.439  10.280  13.507  1.00  0.00     0.053 C 
BRANCH  11  12
ATOM     12  C   UNL     1      -5.125  10.912  12.337  1.00  0.00     0.041 C 
ATOM     13  O   UNL     1      -5.707  10.193  11.480  1.00  0.00    -0.550 OA
ATOM     14  O   UNL     1      -5.149  12.295  12.206  1.00  0.00    -0.550 OA
ENDBRANCH  11  12
ENDBRANCH  10  11
ENDBRANCH   9  10
ENDBRANCH   8   9
ENDBRANCH   7   8
ENDBRANCH   6   7
ENDBRANCH   5   6
ENDBRANCH   4   5
ENDBRANCH   3   4
ENDBRANCH   2   3
ENDBRANCH   1   2
BRANCH   1  15
ATOM     15  C   UNL     1      -2.106  15.392  11.151  1.00  0.00     0.000 C 
BRANCH  15  16
ATOM     16  C   UNL     1      -0.767  15.736  11.825  1.00  0.00     0.000 C 
BRANCH  16  17
ATOM     17  C   UNL     1      -0.900  16.890  12.829  1.00  0.00     0.000 C 
BRANCH  17  18
ATOM     18  C   UNL     1      -2.131  17.750  12.519  1.00  0.00    -0.000 C 
BRANCH  18  19
ATOM     19  C   UNL     1      -2.604  18.504  13.770  1.00  0.00    -0.000 C 
BRANCH  19  20
ATOM     20  C   UNL     1      -4.089  18.262  14.089  1.00  0.00    -0.000 C 
BRANCH  20  21
ATOM     21  C   UNL     1      -4.759  19.436  14.835  1.00  0.00    -0.000 C 
BRANCH  21  22
ATOM     22  C   UNL     1      -5.836  20.125  13.979  1.00  0.00    -0.000 C 
BRANCH  22  23
ATOM     23  C   UNL     1      -7.017  20.640  14.815  1.00  0.00    -0.000 C 
BRANCH  23  24
ATOM     24  C   UNL     1      -7.159  22.169  14.758  1.00  0.00    -0.000 C 
BRANCH  24  25
ATOM     25  C   UNL     1      -8.611  22.572  14.471  1.00  0.00    -0.003 C 
ATOM     26  C   UNL     1      -9.510  21.346  14.336  1.00  0.00     0.004 C 
ENDBRANCH  24  25
ENDBRANCH  23  24
ENDBRANCH  22  23
ENDBRANCH  21  22
ENDBRANCH  20  21
ENDBRANCH  19  20
ENDBRANCH  18  19
ENDBRANCH  17  18
ENDBRANCH  16  17
ENDBRANCH  15  16
ENDBRANCH   1  15
TORSDOF 22
ENDMDL
MODEL 5
REMARK VINA RESULT:    -3.165     15.140     17.328
REMARK INTER + INTRA:          -9.696
REMARK INTER:                  -7.103
REMARK INTRA:                  -2.593
REMARK UNBOUND:                -2.459
REMARK SMILES CCCCCCCCCCCCCCCCCCCCCCCC(=O)[O-]
REMARK SMILES IDX 13 1 14 2 15 3 16 4 17 5 18 6 19 7 20 8 21 9 22 10 23 11
REMARK SMILES IDX 24 12 25 13 26 14 12 15 11 16 10 17 9 18 8 19 7 20 6 21 5 22
REMARK SMILES IDX 4 23 3 24 2 25 1 26
REMARK H PARENT
REMARK Flexibility Score: inf
ROOT
ATOM      1  C   UNL     1     -12.870  10.282   4.560  1.00  0.00     0.000 C 
ENDROOT
BRANCH   1   2
ATOM      2  C   UNL     1     -13.401   8.974   3.947  1.00  0.00     0.000 C 
BRANCH   2   3
ATOM      3  C   UNL     1     -14.730   9.102   3.174  1.00  0.00     0.000 C 
BRANCH   3   4
ATOM      4  C   UNL     1     -15.960   9.439   4.036  1.00  0.00     0.000 C 
BRANCH   4   5
ATOM      5  C   UNL     1     -16.328  10.934   4.081  1.00  0.00     0.000 C 
BRANCH   5   6
ATOM      6  C   UNL     1     -17.776  11.229   3.627  1.00  0.00     0.000 C 
BRANCH   6   7
ATOM      7  C   UNL     1     -18.173  10.428   2.376  1.00  0.00     0.000 C 
BRANCH   7   8
ATOM      8  C   UNL     1     -18.801  11.307   1.283  1.00  0.00     0.000 C 
BRANCH   8   9
ATOM      9  C   UNL     1     -19.404  12.625   1.821  1.00  0.00     0.000 C 
BRANCH   9  10
ATOM     10  C   UNL     1     -19.813  13.612   0.707  1.00  0.00     0.006 C 
BRANCH  10  11
ATOM     11  C   UNL     1     -18.698  13.876  -0.318  1.00  0.00     0.053 C 
BRANCH  11  12
ATOM     12  C   UNL     1     -19.002  15.045  -1.201  1.00  0.00     0.041 C 
ATOM     13  O   UNL     1     -18.909  16.219  -0.751  1.00  0.00    -0.550 OA
ATOM     14  O   UNL     1     -19.358  14.843  -2.529  1.00  0.00    -0.550 OA
ENDBRANCH  11  12
ENDBRANCH  10  11
ENDBRANCH   9  10
ENDBRANCH   8   9
ENDBRANCH   7   8
ENDBRANCH   6   7
ENDBRANCH   5   6
ENDBRANCH   4   5
ENDBRANCH   3   4
ENDBRANCH   2   3
ENDBRANCH   1   2
BRANCH   1  15
ATOM     15  C   UNL     1     -12.824  10.249   6.099  1.00  0.00     0.000 C 
BRANCH  15  16
ATOM     16  C   UNL     1     -13.262   8.888   6.664  1.00  0.00     0.000 C 
BRANCH  16  17
ATOM     17  C   UNL     1     -14.518   8.999   7.542  1.00  0.00     0.000 C 
BRANCH  17  18
ATOM     18  C   UNL     1     -15.111  10.411   7.477  1.00  0.00    -0.000 C 
BRANCH  18  19
ATOM     19  C   UNL     1     -16.620  10.387   7.761  1.00  0.00    -0.000 C 
BRANCH  19  20
ATOM     20  C   UNL     1     -17.120   9.008   8.223  1.00  0.00    -0.000 C 
BRANCH  20  21
ATOM     21  C   UNL     1     -17.636   8.994   9.677  1.00  0.00    -0.000 C 
BRANCH  21  22
ATOM     22  C   UNL     1     -16.908  10.023  10.560  1.00  0.00    -0.000 C 
BRANCH  22  23
ATOM     23  C   UNL     1     -15.934   9.370  11.551  1.00  0.00    -0.000 C 
BRANCH  23  24
ATOM     24  C   UNL     1     -14.534  10.002  11.508  1.00  0.00    -0.000 C 
BRANCH  24  25
ATOM     25  C   UNL     1     -14.151  10.574  12.878  1.00  0.00    -0.003 C 
ATOM     26  C   UNL     1     -15.050  10.020  13.982  1.00  0.00     0.004 C 
ENDBRANCH  24  25
ENDBRANCH  23  24
ENDBRANCH  22  23
ENDBRANCH  21  22
ENDBRANCH  20  21
ENDBRANCH  19  20
ENDBRANCH  18  19
ENDBRANCH  17  18
ENDBRANCH  16  17
ENDBRANCH  15  16
ENDBRANCH   1  15
TORSDOF 22
ENDMDL
MODEL 6
REMARK VINA RESULT:    -3.022     15.717     17.717
REMARK INTER + INTRA:          -9.367
REMARK INTER:                  -6.844
REMARK INTRA:                  -2.523
REMARK UNBOUND:                -2.459
REMARK SMILES CCCCCCCCCCCCCCCCCCCCCCCC(=O)[O-]
REMARK SMILES IDX 13 1 14 2 15 3 16 4 17 5 18 6 19 7 20 8 21 9 22 10 23 11
REMARK SMILES IDX 24 12 25 13 26 14 12 15 11 16 10 17 9 18 8 19 7 20 6 21 5 22
REMARK SMILES IDX 4 23 3 24 2 25 1 26
REMARK H PARENT
REMARK Flexibility Score: inf
ROOT
ATOM      1  C   UNL     1     -15.615  11.144   4.629  1.00  0.00     0.000 C 
ENDROOT
BRANCH   1   2
ATOM      2  C   UNL     1     -14.641  10.033   4.196  1.00  0.00     0.000 C 
BRANCH   2   3
ATOM      3  C   UNL     1     -13.166  10.265   4.583  1.00  0.00     0.000 C 
BRANCH   3   4
ATOM      4  C   UNL     1     -12.889  10.345   6.095  1.00  0.00     0.000 C 
BRANCH   4   5
ATOM      5  C   UNL     1     -13.359   9.121   6.904  1.00  0.00     0.000 C 
BRANCH   5   6
ATOM      6  C   UNL     1     -14.271   9.482   8.098  1.00  0.00     0.000 C 
BRANCH   6   7
ATOM      7  C   UNL     1     -15.756   9.215   7.805  1.00  0.00     0.000 C 
BRANCH   7   8
ATOM      8  C   UNL     1     -16.659  10.399   8.186  1.00  0.00     0.000 C 
BRANCH   8   9
ATOM      9  C   UNL     1     -17.765  10.030   9.201  1.00  0.00     0.000 C 
BRANCH   9  10
ATOM     10  C   UNL     1     -17.222   9.377  10.490  1.00  0.00     0.006 C 
BRANCH  10  11
ATOM     11  C   UNL     1     -16.611  10.385  11.477  1.00  0.00     0.053 C 
BRANCH  11  12
ATOM     12  C   UNL     1     -17.648  11.055  12.322  1.00  0.00     0.041 C 
ATOM     13  O   UNL     1     -17.903  10.617  13.477  1.00  0.00    -0.550 OA
ATOM     14  O   UNL     1     -18.313  12.180  11.850  1.00  0.00    -0.550 OA
ENDBRANCH  11  12
ENDBRANCH  10  11
ENDBRANCH   9  10
ENDBRANCH   8   9
ENDBRANCH   7   8
ENDBRANCH   6   7
ENDBRANCH   5   6
ENDBRANCH   4   5
ENDBRANCH   3   4
ENDBRANCH   2   3
ENDBRANCH   1   2
BRANCH   1  15
ATOM     15  C   UNL     1     -17.093  10.740   4.477  1.00  0.00     0.000 C 
BRANCH  15  16
ATOM     16  C   UNL     1     -17.386  10.115   3.103  1.00  0.00     0.000 C 
BRANCH  16  17
ATOM     17  C   UNL     1     -18.854   9.689   2.958  1.00  0.00     0.000 C 
BRANCH  17  18
ATOM     18  C   UNL     1     -19.564  10.516   1.880  1.00  0.00    -0.000 C 
BRANCH  18  19
ATOM     19  C   UNL     1     -19.872  11.932   2.387  1.00  0.00    -0.000 C 
BRANCH  19  20
ATOM     20  C   UNL     1     -19.193  13.029   1.551  1.00  0.00    -0.000 C 
BRANCH  20  21
ATOM     21  C   UNL     1     -19.723  13.121   0.105  1.00  0.00    -0.000 C 
BRANCH  21  22
ATOM     22  C   UNL     1     -18.736  13.843  -0.829  1.00  0.00    -0.000 C 
BRANCH  22  23
ATOM     23  C   UNL     1     -18.466  13.062  -2.124  1.00  0.00    -0.000 C 
BRANCH  23  24
ATOM     24  C   UNL     1     -17.265  12.111  -2.001  1.00  0.00    -0.000 C 
BRANCH  24  25
ATOM     25  C   UNL     1     -17.733  10.666  -1.791  1.00  0.00    -0.003 C 
ATOM     26  C   UNL     1     -16.974   9.998  -0.646  1.00  0.00     0.004 C 
ENDBRANCH  24  25
ENDBRANCH  23  24
ENDBRANCH  22  23
ENDBRANCH  21  22
ENDBRANCH  20  21
ENDBRANCH  19  20
ENDBRANCH  18  19
ENDBRANCH  17  18
ENDBRANCH  16  17
ENDBRANCH  15  16
ENDBRANCH   1  15
TORSDOF 22
ENDMDL
MODEL 7
REMARK VINA RESULT:    -3.011     14.896     16.987
REMARK INTER + INTRA:          -9.342
REMARK INTER:                  -6.487
REMARK INTRA:                  -2.855
REMARK UNBOUND:                -2.459
REMARK SMILES CCCCCCCCCCCCCCCCCCCCCCCC(=O)[O-]
REMARK SMILES IDX 13 1 14 2 15 3 16 4 17 5 18 6 19 7 20 8 21 9 22 10 23 11
REMARK SMILES IDX 24 12 25 13 26 14 12 15 11 16 10 17 9 18 8 19 7 20 6 21 5 22
REMARK SMILES IDX 4 23 3 24 2 25 1 26
REMARK H PARENT
REMARK Flexibility Score: inf
ROOT
ATOM      1  C   UNL     1     -13.176  10.706   6.390  1.00  0.00     0.000 C 
ENDROOT
BRANCH   1   2
ATOM      2  C   UNL     1     -12.482  10.352   5.062  1.00  0.00     0.000 C 
BRANCH   2   3
ATOM      3  C   UNL     1     -13.378   9.654   4.017  1.00  0.00     0.000 C 
BRANCH   3   4
ATOM      4  C   UNL     1     -14.814  10.199   3.916  1.00  0.00     0.000 C 
BRANCH   4   5
ATOM      5  C   UNL     1     -15.909   9.121   3.805  1.00  0.00     0.000 C 
BRANCH   5   6
ATOM      6  C   UNL     1     -17.320   9.696   3.551  1.00  0.00     0.000 C 
BRANCH   6   7
ATOM      7  C   UNL     1     -17.396  11.208   3.820  1.00  0.00     0.000 C 
BRANCH   7   8
ATOM      8  C   UNL     1     -18.426  11.920   2.929  1.00  0.00     0.000 C 
BRANCH   8   9
ATOM      9  C   UNL     1     -18.968  11.034   1.783  1.00  0.00     0.000 C 
BRANCH   9  10
ATOM     10  C   UNL     1     -18.825  11.680   0.389  1.00  0.00     0.006 C 
BRANCH  10  11
ATOM     11  C   UNL     1     -18.603  10.659  -0.739  1.00  0.00     0.053 C 
BRANCH  11  12
ATOM     12  C   UNL     1     -17.166  10.264  -0.876  1.00  0.00     0.041 C 
ATOM     13  O   UNL     1     -16.460  10.757  -1.797  1.00  0.00    -0.550 OA
ATOM     14  O   UNL     1     -16.597   9.377   0.029  1.00  0.00    -0.550 OA
ENDBRANCH  11  12
ENDBRANCH  10  11
ENDBRANCH   9  10
ENDBRANCH   8   9
ENDBRANCH   7   8
ENDBRANCH   6   7
ENDBRANCH   5   6
ENDBRANCH   4   5
ENDBRANCH   3   4
ENDBRANCH   2   3
ENDBRANCH   1   2
BRANCH   1  15
ATOM     15  C   UNL     1     -13.468   9.471   7.262  1.00  0.00     0.000 C 
BRANCH  15  16
ATOM     16  C   UNL     1     -14.975   9.271   7.500  1.00  0.00     0.000 C 
BRANCH  16  17
ATOM     17  C   UNL     1     -15.767  10.577   7.348  1.00  0.00     0.000 C 
BRANCH  17  18
ATOM     18  C   UNL     1     -17.272  10.300   7.253  1.00  0.00    -0.000 C 
BRANCH  18  19
ATOM     19  C   UNL     1     -17.650   9.041   8.047  1.00  0.00    -0.000 C 
BRANCH  19  20
ATOM     20  C   UNL     1     -18.758   9.295   9.082  1.00  0.00    -0.000 C 
BRANCH  20  21
ATOM     21  C   UNL     1     -18.371   8.876  10.516  1.00  0.00    -0.000 C 
BRANCH  21  22
ATOM     22  C   UNL     1     -16.847   8.876  10.727  1.00  0.00    -0.000 C 
BRANCH  22  23
ATOM     23  C   UNL     1     -16.316  10.232  11.214  1.00  0.00    -0.000 C 
BRANCH  23  24
ATOM     24  C   UNL     1     -16.646  10.500  12.691  1.00  0.00    -0.000 C 
BRANCH  24  25
ATOM     25  C   UNL     1     -15.466  11.174  13.401  1.00  0.00    -0.003 C 
ATOM     26  C   UNL     1     -14.139  10.811  12.738  1.00  0.00     0.004 C 
ENDBRANCH  24  25
ENDBRANCH  23  24
ENDBRANCH  22  23
ENDBRANCH  21  22
ENDBRANCH  20  21
ENDBRANCH  19  20
ENDBRANCH  18  19
ENDBRANCH  17  18
ENDBRANCH  16  17
ENDBRANCH  15  16
ENDBRANCH   1  15
TORSDOF 22
ENDMDL
MODEL 8
REMARK VINA RESULT:    -3.010     15.489     17.714
REMARK INTER + INTRA:          -9.341
REMARK INTER:                  -7.534
REMARK INTRA:                  -1.807
REMARK UNBOUND:                -2.459
REMARK SMILES CCCCCCCCCCCCCCCCCCCCCCCC(=O)[O-]
REMARK SMILES IDX 13 1 14 2 15 3 16 4 17 5 18 6 19 7 20 8 21 9 22 10 23 11
REMARK SMILES IDX 24 12 25 13 26 14 12 15 11 16 10 17 9 18 8 19 7 20 6 21 5 22
REMARK SMILES IDX 4 23 3 24 2 25 1 26
REMARK H PARENT
REMARK Flexibility Score: inf
ROOT
ATOM      1  C   UNL     1     -16.189  11.253   4.474  1.00  0.00     0.000 C 
ENDROOT
BRANCH   1   2
ATOM      2  C   UNL     1     -15.790   9.891   3.876  1.00  0.00     0.000 C 
BRANCH   2   3
ATOM      3  C   UNL     1     -14.433   9.335   4.357  1.00  0.00     0.000 C 
BRANCH   3   4
ATOM      4  C   UNL     1     -13.408  10.397   4.795  1.00  0.00     0.000 C 
BRANCH   4   5
ATOM      5  C   UNL     1     -13.099  10.412   6.304  1.00  0.00     0.000 C 
BRANCH   5   6
ATOM      6  C   UNL     1     -13.459   9.092   7.023  1.00  0.00     0.000 C 
BRANCH   6   7
ATOM      7  C   UNL     1     -14.359   9.317   8.249  1.00  0.00     0.000 C 
BRANCH   7   8
ATOM      8  C   UNL     1     -15.708   9.958   7.886  1.00  0.00     0.000 C 
BRANCH   8   9
ATOM      9  C   UNL     1     -16.633  10.182   9.105  1.00  0.00     0.000 C 
BRANCH   9  10
ATOM     10  C   UNL     1     -16.077   9.583  10.414  1.00  0.00     0.006 C 
BRANCH  10  11
ATOM     11  C   UNL     1     -16.543  10.330  11.675  1.00  0.00     0.053 C 
BRANCH  11  12
ATOM     12  C   UNL     1     -15.433  10.534  12.658  1.00  0.00     0.041 C 
ATOM     13  O   UNL     1     -15.696  10.769  13.869  1.00  0.00    -0.550 OA
ATOM     14  O   UNL     1     -14.110  10.437  12.247  1.00  0.00    -0.550 OA
ENDBRANCH  11  12
ENDBRANCH  10  11
ENDBRANCH   9  10
ENDBRANCH   8   9
ENDBRANCH   7   8
ENDBRANCH   6   7
ENDBRANCH   5   6
ENDBRANCH   4   5
ENDBRANCH   3   4
ENDBRANCH   2   3
ENDBRANCH   1   2
BRANCH   1  15
ATOM     15  C   UNL     1     -17.430  11.865   3.799  1.00  0.00     0.000 C 
BRANCH  15  16
ATOM     16  C   UNL     1     -18.425  10.790   3.328  1.00  0.00     0.000 C 
BRANCH  16  17
ATOM     17  C   UNL     1     -19.002  11.100   1.939  1.00  0.00     0.000 C 
BRANCH  17  18
ATOM     18  C   UNL     1     -18.987  12.607   1.660  1.00  0.00    -0.000 C 
BRANCH  18  19
ATOM     19  C   UNL     1     -19.197  12.892   0.167  1.00  0.00    -0.000 C 
BRANCH  19  20
ATOM     20  C   UNL     1     -19.284  11.612  -0.681  1.00  0.00    -0.000 C 
BRANCH  20  21
ATOM     21  C   UNL     1     -19.028  11.849  -2.184  1.00  0.00    -0.000 C 
BRANCH  21  22
ATOM     22  C   UNL     1     -17.603  12.363  -2.455  1.00  0.00    -0.000 C 
BRANCH  22  23
ATOM     23  C   UNL     1     -16.557  11.237  -2.454  1.00  0.00    -0.000 C 
BRANCH  23  24
ATOM     24  C   UNL     1     -15.141  11.747  -2.763  1.00  0.00    -0.000 C 
BRANCH  24  25
ATOM     25  C   UNL     1     -14.102  10.643  -2.533  1.00  0.00    -0.003 C 
ATOM     26  C   UNL     1     -13.245  10.419  -3.777  1.00  0.00     0.004 C 
ENDBRANCH  24  25
ENDBRANCH  23  24
ENDBRANCH  22  23
ENDBRANCH  21  22
ENDBRANCH  20  21
ENDBRANCH  19  20
ENDBRANCH  18  19
ENDBRANCH  17  18
ENDBRANCH  16  17
ENDBRANCH  15  16
ENDBRANCH   1  15
TORSDOF 22
ENDMDL
MODEL 9
REMARK VINA RESULT:    -2.978     15.433     17.856
REMARK INTER + INTRA:          -9.267
REMARK INTER:                  -7.403
REMARK INTRA:                  -1.864
REMARK UNBOUND:                -2.459
REMARK SMILES CCCCCCCCCCCCCCCCCCCCCCCC(=O)[O-]
REMARK SMILES IDX 13 1 14 2 15 3 16 4 17 5 18 6 19 7 20 8 21 9 22 10 23 11
REMARK SMILES IDX 24 12 25 13 26 14 12 15 11 16 10 17 9 18 8 19 7 20 6 21 5 22
REMARK SMILES IDX 4 23 3 24 2 25 1 26
REMARK H PARENT
REMARK Flexibility Score: inf
ROOT
ATOM      1  C   UNL     1     -15.103  10.339   3.927  1.00  0.00     0.000 C 
ENDROOT
BRANCH   1   2
ATOM      2  C   UNL     1     -13.741   9.621   3.934  1.00  0.00     0.000 C 
BRANCH   2   3
ATOM      3  C   UNL     1     -12.628  10.330   4.733  1.00  0.00     0.000 C 
BRANCH   3   4
ATOM      4  C   UNL     1     -12.928  10.541   6.228  1.00  0.00     0.000 C 
BRANCH   4   5
ATOM      5  C   UNL     1     -13.411   9.284   6.975  1.00  0.00     0.000 C 
BRANCH   5   6
ATOM      6  C   UNL     1     -14.566   9.557   7.965  1.00  0.00     0.000 C 
BRANCH   6   7
ATOM      7  C   UNL     1     -15.601  10.544   7.402  1.00  0.00     0.000 C 
BRANCH   7   8
ATOM      8  C   UNL     1     -16.982  10.397   8.060  1.00  0.00     0.000 C 
BRANCH   8   9
ATOM      9  C   UNL     1     -16.915  10.009   9.555  1.00  0.00     0.000 C 
BRANCH   9  10
ATOM     10  C   UNL     1     -18.119  10.519  10.376  1.00  0.00     0.006 C 
BRANCH  10  11
ATOM     11  C   UNL     1     -17.971  10.287  11.889  1.00  0.00     0.053 C 
BRANCH  11  12
ATOM     12  C   UNL     1     -17.422  11.484  12.598  1.00  0.00     0.041 C 
ATOM     13  O   UNL     1     -16.280  11.435  13.131  1.00  0.00    -0.550 OA
ATOM     14  O   UNL     1     -18.154  12.664  12.645  1.00  0.00    -0.550 OA
ENDBRANCH  11  12
ENDBRANCH  10  11
ENDBRANCH   9  10
ENDBRANCH   8   9
ENDBRANCH   7   8
ENDBRANCH   6   7
ENDBRANCH   5   6
ENDBRANCH   4   5
ENDBRANCH   3   4
ENDBRANCH   2   3
ENDBRANCH   1   2
BRANCH   1  15
ATOM     15  C   UNL     1     -16.296   9.365   3.916  1.00  0.00     0.000 C 
BRANCH  15  16
ATOM     16  C   UNL     1     -17.278   9.663   2.771  1.00  0.00     0.000 C 
BRANCH  16  17
ATOM     17  C   UNL     1     -16.726   9.233   1.404  1.00  0.00     0.000 C 
BRANCH  17  18
ATOM     18  C   UNL     1     -17.818   9.284   0.328  1.00  0.00    -0.000 C 
BRANCH  18  19
ATOM     19  C   UNL     1     -18.368  10.708   0.171  1.00  0.00    -0.000 C 
BRANCH  19  20
ATOM     20  C   UNL     1     -18.508  11.138  -1.298  1.00  0.00    -0.000 C 
BRANCH  20  21
ATOM     21  C   UNL     1     -17.532  12.261  -1.708  1.00  0.00    -0.000 C 
BRANCH  21  22
ATOM     22  C   UNL     1     -16.796  11.937  -3.020  1.00  0.00    -0.000 C 
BRANCH  22  23
ATOM     23  C   UNL     1     -15.295  11.688  -2.811  1.00  0.00    -0.000 C 
BRANCH  23  24
ATOM     24  C   UNL     1     -15.009  10.342  -2.127  1.00  0.00    -0.000 C 
BRANCH  24  25
ATOM     25  C   UNL     1     -14.065   9.486  -2.980  1.00  0.00    -0.003 C 
ATOM     26  C   UNL     1     -13.305  10.339  -3.993  1.00  0.00     0.004 C 
ENDBRANCH  24  25
ENDBRANCH  23  24
ENDBRANCH  22  23
ENDBRANCH  21  22
ENDBRANCH  20  21
ENDBRANCH  19  20
ENDBRANCH  18  19
ENDBRANCH  17  18
ENDBRANCH  16  17
ENDBRANCH  15  16
ENDBRANCH   1  15
TORSDOF 22
ENDMDL
