MODEL 1
REMARK VINA RESULT:    -4.058      0.000      0.000
REMARK INTER + INTRA:          -4.994
REMARK INTER:                  -4.770
REMARK INTRA:                  -0.224
REMARK UNBOUND:                -0.224
REMARK SMILES O=C([O-])C=Cc1ccc(O)c(O)c1
REMARK SMILES IDX 6 1 13 2 7 3 11 4 8 5 9 6 5 7 4 8 2 9 1 10 3 11 12 12 10 14
REMARK H PARENT 12 13 10 15
REMARK Flexibility Score: inf
ROOT
ATOM      1  C   UNL     1      75.402  88.974  11.025  1.00  0.00    -0.022 A 
ATOM      2  C   UNL     1      76.448  89.433  11.839  1.00  0.00     0.058 A 
ATOM      3  C   UNL     1      74.407  89.875  10.610  1.00  0.00     0.012 A 
ATOM      4  C   UNL     1      76.531  90.789  12.192  1.00  0.00     0.157 A 
ATOM      5  C   UNL     1      74.488  91.225  10.960  1.00  0.00     0.051 A 
ATOM      6  C   UNL     1      75.551  91.687  11.749  1.00  0.00     0.157 A 
ENDROOT
BRANCH   1   7
ATOM      7  C   UNL     1      75.308  87.533  10.712  1.00  0.00     0.010 C 
ATOM      8  C   UNL     1      75.962  86.910   9.721  1.00  0.00     0.025 C 
BRANCH   8   9
ATOM      9  C   UNL     1      77.029  87.505   8.893  1.00  0.00     0.064 C 
ATOM     10  O   UNL     1      76.791  87.781   7.688  1.00  0.00    -0.545 OA
ATOM     11  O   UNL     1      78.312  87.699   9.392  1.00  0.00    -0.545 OA
ENDBRANCH   8   9
ENDBRANCH   1   7
BRANCH   4  12
ATOM     12  O   UNL     1      77.581  91.248  12.985  1.00  0.00    -0.504 OA
ATOM     13  H   UNL     1      78.047  90.643  13.649  1.00  0.00     0.293 HD
ENDBRANCH   4  12
BRANCH   6  14
ATOM     14  O   UNL     1      75.638  93.033  12.098  1.00  0.00    -0.504 OA
ATOM     15  H   UNL     1      76.532  93.498  12.197  1.00  0.00     0.293 HD
ENDBRANCH   6  14
TORSDOF 4
ENDMDL
MODEL 2
REMARK VINA RESULT:    -4.054      1.480      4.450
REMARK INTER + INTRA:          -4.989
REMARK INTER:                  -4.706
REMARK INTRA:                  -0.283
REMARK UNBOUND:                -0.224
REMARK SMILES O=C([O-])C=Cc1ccc(O)c(O)c1
REMARK SMILES IDX 6 1 13 2 7 3 11 4 8 5 9 6 5 7 4 8 2 9 1 10 3 11 12 12 10 14
REMARK H PARENT 12 13 10 15
REMARK Flexibility Score: inf
ROOT
ATOM      1  C   UNL     1      76.121  88.589  11.112  1.00  0.00    -0.022 A 
ATOM      2  C   UNL     1      77.502  88.838  11.113  1.00  0.00     0.058 A 
ATOM      3  C   UNL     1      75.544  87.918  10.020  1.00  0.00     0.012 A 
ATOM      4  C   UNL     1      78.308  88.376  10.062  1.00  0.00     0.157 A 
ATOM      5  C   UNL     1      76.346  87.457   8.973  1.00  0.00     0.051 A 
ATOM      6  C   UNL     1      77.729  87.682   8.991  1.00  0.00     0.157 A 
ENDROOT
BRANCH   1   7
ATOM      7  C   UNL     1      75.287  89.131  12.204  1.00  0.00     0.010 C 
ATOM      8  C   UNL     1      74.802  90.380  12.264  1.00  0.00     0.025 C 
BRANCH   8   9
ATOM      9  C   UNL     1      74.852  91.371  11.173  1.00  0.00     0.064 C 
ATOM     10  O   UNL     1      73.891  91.445  10.364  1.00  0.00    -0.545 OA
ATOM     11  O   UNL     1      75.969  92.174  10.972  1.00  0.00    -0.545 OA
ENDBRANCH   8   9
ENDBRANCH   1   7
BRANCH   4  12
ATOM     12  O   UNL     1      79.683  88.607  10.074  1.00  0.00    -0.504 OA
ATOM     13  H   UNL     1      80.242  88.519   9.234  1.00  0.00     0.293 HD
ENDBRANCH   4  12
BRANCH   6  14
ATOM     14  O   UNL     1      78.533  87.222   7.951  1.00  0.00    -0.504 OA
ATOM     15  H   UNL     1      79.536  87.123   8.059  1.00  0.00     0.293 HD
ENDBRANCH   6  14
TORSDOF 4
ENDMDL
MODEL 3
REMARK VINA RESULT:    -3.947      2.253      5.440
REMARK INTER + INTRA:          -4.863
REMARK INTER:                  -4.581
REMARK INTRA:                  -0.282
REMARK UNBOUND:                -0.224
REMARK SMILES O=C([O-])C=Cc1ccc(O)c(O)c1
REMARK SMILES IDX 6 1 13 2 7 3 11 4 8 5 9 6 5 7 4 8 2 9 1 10 3 11 12 12 10 14
REMARK H PARENT 12 13 10 15
REMARK Flexibility Score: inf
ROOT
ATOM      1  C   UNL     1      76.642  86.640   9.203  1.00  0.00    -0.022 A 
ATOM      2  C   UNL     1      76.723  87.380   8.015  1.00  0.00     0.058 A 
ATOM      3  C   UNL     1      77.749  85.879   9.616  1.00  0.00     0.012 A 
ATOM      4  C   UNL     1      77.914  87.406   7.273  1.00  0.00     0.157 A 
ATOM      5  C   UNL     1      78.935  85.903   8.879  1.00  0.00     0.051 A 
ATOM      6  C   UNL     1      79.023  86.668   7.708  1.00  0.00     0.157 A 
ENDROOT
BRANCH   1   7
ATOM      7  C   UNL     1      75.361  86.588   9.938  1.00  0.00     0.010 C 
ATOM      8  C   UNL     1      74.991  87.430  10.914  1.00  0.00     0.025 C 
BRANCH   8   9
ATOM      9  C   UNL     1      75.706  88.662  11.298  1.00  0.00     0.064 C 
ATOM     10  O   UNL     1      75.469  89.730  10.675  1.00  0.00    -0.545 OA
ATOM     11  O   UNL     1      76.688  88.656  12.281  1.00  0.00    -0.545 OA
ENDBRANCH   8   9
ENDBRANCH   1   7
BRANCH   4  12
ATOM     12  O   UNL     1      78.000  88.157   6.102  1.00  0.00    -0.504 OA
ATOM     13  H   UNL     1      78.786  88.771   5.922  1.00  0.00     0.293 HD
ENDBRANCH   4  12
BRANCH   6  14
ATOM     14  O   UNL     1      80.205  86.697   6.970  1.00  0.00    -0.504 OA
ATOM     15  H   UNL     1      80.570  85.865   6.521  1.00  0.00     0.293 HD
ENDBRANCH   6  14
TORSDOF 4
ENDMDL
MODEL 4
REMARK VINA RESULT:    -3.889      1.108      1.964
REMARK INTER + INTRA:          -4.794
REMARK INTER:                  -4.536
REMARK INTRA:                  -0.258
REMARK UNBOUND:                -0.224
REMARK SMILES O=C([O-])C=Cc1ccc(O)c(O)c1
REMARK SMILES IDX 6 1 13 2 7 3 11 4 8 5 9 6 5 7 4 8 2 9 1 10 3 11 12 12 10 14
REMARK H PARENT 12 13 10 15
REMARK Flexibility Score: inf
ROOT
ATOM      1  C   UNL     1      75.874  88.888  11.500  1.00  0.00    -0.022 A 
ATOM      2  C   UNL     1      75.135  89.665  10.596  1.00  0.00     0.058 A 
ATOM      3  C   UNL     1      76.574  89.524  12.540  1.00  0.00     0.012 A 
ATOM      4  C   UNL     1      75.050  91.056  10.757  1.00  0.00     0.157 A 
ATOM      5  C   UNL     1      76.491  90.909  12.702  1.00  0.00     0.051 A 
ATOM      6  C   UNL     1      75.726  91.679  11.814  1.00  0.00     0.157 A 
ENDROOT
BRANCH   1   7
ATOM      7  C   UNL     1      75.991  87.432  11.278  1.00  0.00     0.010 C 
ATOM      8  C   UNL     1      76.796  86.846  10.381  1.00  0.00     0.025 C 
BRANCH   8   9
ATOM      9  C   UNL     1      77.841  87.528   9.593  1.00  0.00     0.064 C 
ATOM     10  O   UNL     1      77.667  87.699   8.358  1.00  0.00    -0.545 OA
ATOM     11  O   UNL     1      79.043  87.922  10.169  1.00  0.00    -0.545 OA
ENDBRANCH   8   9
ENDBRANCH   1   7
BRANCH   4  12
ATOM     12  O   UNL     1      74.299  91.824   9.869  1.00  0.00    -0.504 OA
ATOM     13  H   UNL     1      74.613  91.998   8.922  1.00  0.00     0.293 HD
ENDBRANCH   4  12
BRANCH   6  14
ATOM     14  O   UNL     1      75.638  93.060  11.974  1.00  0.00    -0.504 OA
ATOM     15  H   UNL     1      74.745  93.539  11.957  1.00  0.00     0.293 HD
ENDBRANCH   6  14
TORSDOF 4
ENDMDL
MODEL 5
REMARK VINA RESULT:    -3.765      2.515      3.157
REMARK INTER + INTRA:          -4.649
REMARK INTER:                  -4.352
REMARK INTRA:                  -0.297
REMARK UNBOUND:                -0.224
REMARK SMILES O=C([O-])C=Cc1ccc(O)c(O)c1
REMARK SMILES IDX 6 1 13 2 7 3 11 4 8 5 9 6 5 7 4 8 2 9 1 10 3 11 12 12 10 14
REMARK H PARENT 12 13 10 15
REMARK Flexibility Score: inf
ROOT
ATOM      1  C   UNL     1      76.312  89.961  11.596  1.00  0.00    -0.022 A 
ATOM      2  C   UNL     1      75.388  90.382  10.628  1.00  0.00     0.058 A 
ATOM      3  C   UNL     1      76.481  90.724  12.763  1.00  0.00     0.012 A 
ATOM      4  C   UNL     1      74.602  91.524  10.845  1.00  0.00     0.157 A 
ATOM      5  C   UNL     1      75.699  91.862  12.981  1.00  0.00     0.051 A 
ATOM      6  C   UNL     1      74.756  92.263  12.025  1.00  0.00     0.157 A 
ENDROOT
BRANCH   1   7
ATOM      7  C   UNL     1      77.164  88.785  11.320  1.00  0.00     0.010 C 
ATOM      8  C   UNL     1      76.914  87.533  11.728  1.00  0.00     0.025 C 
BRANCH   8   9
ATOM      9  C   UNL     1      75.662  87.070  12.356  1.00  0.00     0.064 C 
ATOM     10  O   UNL     1      74.699  86.719  11.625  1.00  0.00    -0.545 OA
ATOM     11  O   UNL     1      75.494  87.084  13.736  1.00  0.00    -0.545 OA
ENDBRANCH   8   9
ENDBRANCH   1   7
BRANCH   4  12
ATOM     12  O   UNL     1      73.670  91.931   9.891  1.00  0.00    -0.504 OA
ATOM     13  H   UNL     1      72.951  91.303   9.551  1.00  0.00     0.293 HD
ENDBRANCH   4  12
BRANCH   6  14
ATOM     14  O   UNL     1      73.972  93.395  12.239  1.00  0.00    -0.504 OA
ATOM     15  H   UNL     1      74.191  94.282  11.801  1.00  0.00     0.293 HD
ENDBRANCH   6  14
TORSDOF 4
ENDMDL
MODEL 6
REMARK VINA RESULT:    -3.755      1.541      5.021
REMARK INTER + INTRA:          -4.637
REMARK INTER:                  -4.392
REMARK INTRA:                  -0.245
REMARK UNBOUND:                -0.224
REMARK SMILES O=C([O-])C=Cc1ccc(O)c(O)c1
REMARK SMILES IDX 6 1 13 2 7 3 11 4 8 5 9 6 5 7 4 8 2 9 1 10 3 11 12 12 10 14
REMARK H PARENT 12 13 10 15
REMARK Flexibility Score: inf
ROOT
ATOM      1  C   UNL     1      76.324  88.102  10.384  1.00  0.00    -0.022 A 
ATOM      2  C   UNL     1      76.403  88.111   8.984  1.00  0.00     0.058 A 
ATOM      3  C   UNL     1      77.427  87.658  11.132  1.00  0.00     0.012 A 
ATOM      4  C   UNL     1      77.589  87.733   8.336  1.00  0.00     0.157 A 
ATOM      5  C   UNL     1      78.609  87.281  10.489  1.00  0.00     0.051 A 
ATOM      6  C   UNL     1      78.695  87.320   9.091  1.00  0.00     0.157 A 
ENDROOT
BRANCH   1   7
ATOM      7  C   UNL     1      75.047  88.455  11.039  1.00  0.00     0.010 C 
ATOM      8  C   UNL     1      74.701  89.682  11.453  1.00  0.00     0.025 C 
BRANCH   8   9
ATOM      9  C   UNL     1      75.441  90.925  11.162  1.00  0.00     0.064 C 
ATOM     10  O   UNL     1      76.461  91.208  11.844  1.00  0.00    -0.545 OA
ATOM     11  O   UNL     1      74.996  91.827  10.202  1.00  0.00    -0.545 OA
ENDBRANCH   8   9
ENDBRANCH   1   7
BRANCH   4  12
ATOM     12  O   UNL     1      77.672  87.760   6.945  1.00  0.00    -0.504 OA
ATOM     13  H   UNL     1      78.549  87.600   6.463  1.00  0.00     0.293 HD
ENDBRANCH   4  12
BRANCH   6  14
ATOM     14  O   UNL     1      79.871  86.947   8.445  1.00  0.00    -0.504 OA
ATOM     15  H   UNL     1      80.033  87.165   7.468  1.00  0.00     0.293 HD
ENDBRANCH   6  14
TORSDOF 4
ENDMDL
MODEL 7
REMARK VINA RESULT:    -3.699      2.901      4.470
REMARK INTER + INTRA:          -4.571
REMARK INTER:                  -4.286
REMARK INTRA:                  -0.286
REMARK UNBOUND:                -0.224
REMARK SMILES O=C([O-])C=Cc1ccc(O)c(O)c1
REMARK SMILES IDX 6 1 13 2 7 3 11 4 8 5 9 6 5 7 4 8 2 9 1 10 3 11 12 12 10 14
REMARK H PARENT 12 13 10 15
REMARK Flexibility Score: inf
ROOT
ATOM      1  C   UNL     1      74.098  91.283  12.357  1.00  0.00    -0.022 A 
ATOM      2  C   UNL     1      73.813  91.689  11.045  1.00  0.00     0.058 A 
ATOM      3  C   UNL     1      73.109  90.616  13.100  1.00  0.00     0.012 A 
ATOM      4  C   UNL     1      72.574  91.386  10.460  1.00  0.00     0.157 A 
ATOM      5  C   UNL     1      71.875  90.314  12.520  1.00  0.00     0.051 A 
ATOM      6  C   UNL     1      71.605  90.695  11.198  1.00  0.00     0.157 A 
ENDROOT
BRANCH   1   7
ATOM      7  C   UNL     1      75.390  91.659  12.967  1.00  0.00     0.010 C 
ATOM      8  C   UNL     1      76.462  90.861  13.070  1.00  0.00     0.025 C 
BRANCH   8   9
ATOM      9  C   UNL     1      76.609  89.539  12.431  1.00  0.00     0.064 C 
ATOM     10  O   UNL     1      76.557  88.502  13.142  1.00  0.00    -0.545 OA
ATOM     11  O   UNL     1      76.878  89.416  11.073  1.00  0.00    -0.545 OA
ENDBRANCH   8   9
ENDBRANCH   1   7
BRANCH   4  12
ATOM     12  O   UNL     1      72.299  91.774   9.150  1.00  0.00    -0.504 OA
ATOM     13  H   UNL     1      73.022  92.144   8.544  1.00  0.00     0.293 HD
ENDBRANCH   4  12
BRANCH   6  14
ATOM     14  O   UNL     1      70.376  90.393  10.614  1.00  0.00    -0.504 OA
ATOM     15  H   UNL     1      69.559  90.973  10.767  1.00  0.00     0.293 HD
ENDBRANCH   6  14
TORSDOF 4
ENDMDL
MODEL 8
REMARK VINA RESULT:    -3.695      2.311      4.512
REMARK INTER + INTRA:          -4.567
REMARK INTER:                  -4.288
REMARK INTRA:                  -0.280
REMARK UNBOUND:                -0.224
REMARK SMILES O=C([O-])C=Cc1ccc(O)c(O)c1
REMARK SMILES IDX 6 1 13 2 7 3 11 4 8 5 9 6 5 7 4 8 2 9 1 10 3 11 12 12 10 14
REMARK H PARENT 12 13 10 15
REMARK Flexibility Score: inf
ROOT
ATOM      1  C   UNL     1      76.151  86.864  11.022  1.00  0.00    -0.022 A 
ATOM      2  C   UNL     1      77.353  87.583  11.087  1.00  0.00     0.058 A 
ATOM      3  C   UNL     1      75.608  86.544   9.767  1.00  0.00     0.012 A 
ATOM      4  C   UNL     1      78.036  87.934   9.912  1.00  0.00     0.157 A 
ATOM      5  C   UNL     1      76.286  86.892   8.596  1.00  0.00     0.051 A 
ATOM      6  C   UNL     1      77.503  87.585   8.665  1.00  0.00     0.157 A 
ENDROOT
BRANCH   1   7
ATOM      7  C   UNL     1      75.426  86.553  12.271  1.00  0.00     0.010 C 
ATOM      8  C   UNL     1      74.608  87.391  12.924  1.00  0.00     0.025 C 
BRANCH   8   9
ATOM      9  C   UNL     1      74.139  88.696  12.419  1.00  0.00     0.064 C 
ATOM     10  O   UNL     1      73.062  88.754  11.770  1.00  0.00    -0.545 OA
ATOM     11  O   UNL     1      74.896  89.851  12.579  1.00  0.00    -0.545 OA
ENDBRANCH   8   9
ENDBRANCH   1   7
BRANCH   4  12
ATOM     12  O   UNL     1      79.241  88.632   9.979  1.00  0.00    -0.504 OA
ATOM     13  H   UNL     1      79.594  88.998  10.855  1.00  0.00     0.293 HD
ENDBRANCH   4  12
BRANCH   6  14
ATOM     14  O   UNL     1      78.184  87.933   7.500  1.00  0.00    -0.504 OA
ATOM     15  H   UNL     1      78.602  87.230   6.901  1.00  0.00     0.293 HD
ENDBRANCH   6  14
TORSDOF 4
ENDMDL
MODEL 9
REMARK VINA RESULT:    -3.660      1.412      1.813
REMARK INTER + INTRA:          -4.525
REMARK INTER:                  -4.287
REMARK INTRA:                  -0.238
REMARK UNBOUND:                -0.224
REMARK SMILES O=C([O-])C=Cc1ccc(O)c(O)c1
REMARK SMILES IDX 6 1 13 2 7 3 11 4 8 5 9 6 5 7 4 8 2 9 1 10 3 11 12 12 10 14
REMARK H PARENT 12 13 10 15
REMARK Flexibility Score: inf
ROOT
ATOM      1  C   UNL     1      74.606  89.073  11.881  1.00  0.00    -0.022 A 
ATOM      2  C   UNL     1      75.786  89.416  12.557  1.00  0.00     0.058 A 
ATOM      3  C   UNL     1      73.962  90.039  11.089  1.00  0.00     0.012 A 
ATOM      4  C   UNL     1      76.349  90.692  12.402  1.00  0.00     0.157 A 
ATOM      5  C   UNL     1      74.520  91.310  10.934  1.00  0.00     0.051 A 
ATOM      6  C   UNL     1      75.717  91.639  11.586  1.00  0.00     0.157 A 
ENDROOT
BRANCH   1   7
ATOM      7  C   UNL     1      74.006  87.742  12.102  1.00  0.00     0.010 C 
ATOM      8  C   UNL     1      74.369  86.613  11.476  1.00  0.00     0.025 C 
BRANCH   8   9
ATOM      9  C   UNL     1      75.548  86.460  10.602  1.00  0.00     0.064 C 
ATOM     10  O   UNL     1      76.633  86.058  11.097  1.00  0.00    -0.545 OA
ATOM     11  O   UNL     1      75.508  86.820   9.260  1.00  0.00    -0.545 OA
ENDBRANCH   8   9
ENDBRANCH   1   7
BRANCH   4  12
ATOM     12  O   UNL     1      77.533  91.025  13.058  1.00  0.00    -0.504 OA
ATOM     13  H   UNL     1      77.910  91.965  13.027  1.00  0.00     0.293 HD
ENDBRANCH   4  12
BRANCH   6  14
ATOM     14  O   UNL     1      76.279  92.905  11.432  1.00  0.00    -0.504 OA
ATOM     15  H   UNL     1      75.712  93.714  11.207  1.00  0.00     0.293 HD
ENDBRANCH   6  14
TORSDOF 4
ENDMDL
