MODEL 1
REMARK VINA RESULT:    11.424      0.000      0.000
REMARK INTER + INTRA:          25.053
REMARK INTER:                  24.781
REMARK INTRA:                   0.272
REMARK UNBOUND:                 0.272
REMARK SMILES CCCCCCCCCCCCCCCCCCCCCC(=O)[O-]
REMARK SMILES IDX 12 1 11 2 10 3 9 4 8 5 7 6 6 7 5 8 4 9 3 10 2 11 1 12 13 13
REMARK SMILES IDX 14 14 15 15 16 16 17 17 18 18 19 19 20 20 21 21 22 22 23 23
REMARK SMILES IDX 24 24
REMARK H PARENT
REMARK Flexibility Score: inf
ROOT
ATOM      1  C   UNL     1      54.194  -1.294  -0.893  1.00  0.00     0.000 C 
ENDROOT
BRANCH   1   2
ATOM      2  C   UNL     1      52.826  -0.970  -1.510  1.00  0.00     0.000 C 
BRANCH   2   3
ATOM      3  C   UNL     1      52.796  -1.182  -3.033  1.00  0.00     0.000 C 
BRANCH   3   4
ATOM      4  C   UNL     1      54.081  -0.691  -3.723  1.00  0.00    -0.000 C 
BRANCH   4   5
ATOM      5  C   UNL     1      54.461  -1.552  -4.939  1.00  0.00    -0.000 C 
BRANCH   5   6
ATOM      6  C   UNL     1      55.050  -0.724  -6.094  1.00  0.00    -0.000 C 
BRANCH   6   7
ATOM      7  C   UNL     1      56.383  -0.053  -5.726  1.00  0.00    -0.000 C 
BRANCH   7   8
ATOM      8  C   UNL     1      57.509  -1.071  -5.486  1.00  0.00    -0.000 C 
BRANCH   8   9
ATOM      9  C   UNL     1      58.074  -1.660  -6.792  1.00  0.00    -0.000 C 
BRANCH   9  10
ATOM     10  C   UNL     1      59.124  -2.775  -6.612  1.00  0.00    -0.000 C 
BRANCH  10  11
ATOM     11  C   UNL     1      58.662  -3.974  -5.765  1.00  0.00    -0.003 C 
ATOM     12  C   UNL     1      59.078  -3.865  -4.299  1.00  0.00     0.004 C 
ENDBRANCH  10  11
ENDBRANCH   9  10
ENDBRANCH   8   9
ENDBRANCH   7   8
ENDBRANCH   6   7
ENDBRANCH   5   6
ENDBRANCH   4   5
ENDBRANCH   3   4
ENDBRANCH   2   3
ENDBRANCH   1   2
BRANCH   1  13
ATOM     13  C   UNL     1      54.077  -2.407   0.155  1.00  0.00     0.000 C 
BRANCH  13  14
ATOM     14  C   UNL     1      55.409  -3.149   0.320  1.00  0.00     0.000 C 
BRANCH  14  15
ATOM     15  C   UNL     1      55.231  -4.425   1.155  1.00  0.00     0.000 C 
BRANCH  15  16
ATOM     16  C   UNL     1      56.474  -5.328   1.121  1.00  0.00     0.000 C 
BRANCH  16  17
ATOM     17  C   UNL     1      57.756  -4.554   0.767  1.00  0.00     0.000 C 
BRANCH  17  18
ATOM     18  C   UNL     1      58.997  -5.460   0.728  1.00  0.00     0.000 C 
BRANCH  18  19
ATOM     19  C   UNL     1      58.768  -6.799   1.445  1.00  0.00     0.000 C 
BRANCH  19  20
ATOM     20  C   UNL     1      57.867  -6.617   2.673  1.00  0.00     0.006 C 
BRANCH  20  21
ATOM     21  C   UNL     1      58.578  -7.072   3.951  1.00  0.00     0.053 C 
BRANCH  21  22
ATOM     22  C   UNL     1      57.921  -6.476   5.156  1.00  0.00     0.041 C 
ATOM     23  O   UNL     1      58.304  -5.360   5.600  1.00  0.00    -0.550 OA
ATOM     24  O   UNL     1      56.847  -7.124   5.754  1.00  0.00    -0.550 OA
ENDBRANCH  21  22
ENDBRANCH  20  21
ENDBRANCH  19  20
ENDBRANCH  18  19
ENDBRANCH  17  18
ENDBRANCH  16  17
ENDBRANCH  15  16
ENDBRANCH  14  15
ENDBRANCH  13  14
ENDBRANCH   1  13
TORSDOF 20
ENDMDL
MODEL 2
REMARK VINA RESULT:    12.114      3.306      8.472
REMARK INTER + INTRA:          26.549
REMARK INTER:                  24.023
REMARK INTRA:                   2.527
REMARK UNBOUND:                 0.272
REMARK SMILES CCCCCCCCCCCCCCCCCCCCCC(=O)[O-]
REMARK SMILES IDX 12 1 11 2 10 3 9 4 8 5 7 6 6 7 5 8 4 9 3 10 2 11 1 12 13 13
REMARK SMILES IDX 14 14 15 15 16 16 17 17 18 18 19 19 20 20 21 21 22 22 23 23
REMARK SMILES IDX 24 24
REMARK H PARENT
REMARK Flexibility Score: inf
ROOT
ATOM      1  C   UNL     1      52.545  -0.847  -1.370  1.00  0.00     0.000 C 
ENDROOT
BRANCH   1   2
ATOM      2  C   UNL     1      53.743  -1.765  -1.089  1.00  0.00     0.000 C 
BRANCH   2   3
ATOM      3  C   UNL     1      53.918  -2.072   0.408  1.00  0.00     0.000 C 
BRANCH   3   4
ATOM      4  C   UNL     1      54.368  -3.520   0.666  1.00  0.00    -0.000 C 
BRANCH   4   5
ATOM      5  C   UNL     1      55.832  -3.609   1.126  1.00  0.00    -0.000 C 
BRANCH   5   6
ATOM      6  C   UNL     1      56.678  -4.542   0.242  1.00  0.00    -0.000 C 
BRANCH   6   7
ATOM      7  C   UNL     1      58.159  -4.569   0.652  1.00  0.00    -0.000 C 
BRANCH   7   8
ATOM      8  C   UNL     1      58.744  -5.991   0.659  1.00  0.00    -0.000 C 
BRANCH   8   9
ATOM      9  C   UNL     1      58.137  -6.883   1.758  1.00  0.00    -0.000 C 
BRANCH   9  10
ATOM     10  C   UNL     1      58.101  -6.259   3.168  1.00  0.00    -0.000 C 
BRANCH  10  11
ATOM     11  C   UNL     1      57.426  -7.125   4.246  1.00  0.00    -0.003 C 
ATOM     12  C   UNL     1      58.129  -7.048   5.600  1.00  0.00     0.004 C 
ENDBRANCH  10  11
ENDBRANCH   9  10
ENDBRANCH   8   9
ENDBRANCH   7   8
ENDBRANCH   6   7
ENDBRANCH   5   6
ENDBRANCH   4   5
ENDBRANCH   3   4
ENDBRANCH   2   3
ENDBRANCH   1   2
BRANCH   1  13
ATOM     13  C   UNL     1      52.574  -0.329  -2.813  1.00  0.00     0.000 C 
BRANCH  13  14
ATOM     14  C   UNL     1      53.147  -1.386  -3.765  1.00  0.00     0.000 C 
BRANCH  14  15
ATOM     15  C   UNL     1      53.969  -0.733  -4.885  1.00  0.00     0.000 C 
BRANCH  15  16
ATOM     16  C   UNL     1      55.136  -1.620  -5.350  1.00  0.00     0.000 C 
BRANCH  16  17
ATOM     17  C   UNL     1      56.472  -0.859  -5.397  1.00  0.00     0.000 C 
BRANCH  17  18
ATOM     18  C   UNL     1      56.642  -0.051  -6.693  1.00  0.00     0.000 C 
BRANCH  18  19
ATOM     19  C   UNL     1      58.114   0.092  -7.107  1.00  0.00     0.000 C 
BRANCH  19  20
ATOM     20  C   UNL     1      58.987  -0.951  -6.399  1.00  0.00     0.006 C 
BRANCH  20  21
ATOM     21  C   UNL     1      58.244  -1.583  -5.217  1.00  0.00     0.053 C 
BRANCH  21  22
ATOM     22  C   UNL     1      58.449  -3.065  -5.202  1.00  0.00     0.041 C 
ATOM     23  O   UNL     1      59.030  -3.614  -4.228  1.00  0.00    -0.550 OA
ATOM     24  O   UNL     1      57.949  -3.847  -6.236  1.00  0.00    -0.550 OA
ENDBRANCH  21  22
ENDBRANCH  20  21
ENDBRANCH  19  20
ENDBRANCH  18  19
ENDBRANCH  17  18
ENDBRANCH  16  17
ENDBRANCH  15  16
ENDBRANCH  14  15
ENDBRANCH  13  14
ENDBRANCH   1  13
TORSDOF 20
ENDMDL
MODEL 3
REMARK VINA RESULT:    12.189      3.466      7.892
REMARK INTER + INTRA:          26.713
REMARK INTER:                  25.098
REMARK INTRA:                   1.615
REMARK UNBOUND:                 0.272
REMARK SMILES CCCCCCCCCCCCCCCCCCCCCC(=O)[O-]
REMARK SMILES IDX 12 1 11 2 10 3 9 4 8 5 7 6 6 7 5 8 4 9 3 10 2 11 1 12 13 13
REMARK SMILES IDX 14 14 15 15 16 16 17 17 18 18 19 19 20 20 21 21 22 22 23 23
REMARK SMILES IDX 24 24
REMARK H PARENT
REMARK Flexibility Score: inf
ROOT
ATOM      1  C   UNL     1      52.739  -0.731  -1.279  1.00  0.00     0.000 C 
ENDROOT
BRANCH   1   2
ATOM      2  C   UNL     1      53.787  -1.853  -1.231  1.00  0.00     0.000 C 
BRANCH   2   3
ATOM      3  C   UNL     1      54.467  -1.971   0.143  1.00  0.00     0.000 C 
BRANCH   3   4
ATOM      4  C   UNL     1      54.373  -3.391   0.730  1.00  0.00    -0.000 C 
BRANCH   4   5
ATOM      5  C   UNL     1      55.727  -4.118   0.727  1.00  0.00    -0.000 C 
BRANCH   5   6
ATOM      6  C   UNL     1      55.633  -5.551   1.281  1.00  0.00    -0.000 C 
BRANCH   6   7
ATOM      7  C   UNL     1      56.956  -6.040   1.893  1.00  0.00    -0.000 C 
BRANCH   7   8
ATOM      8  C   UNL     1      58.152  -5.161   1.491  1.00  0.00    -0.000 C 
BRANCH   8   9
ATOM      9  C   UNL     1      59.065  -5.832   0.448  1.00  0.00    -0.000 C 
BRANCH   9  10
ATOM     10  C   UNL     1      58.745  -5.492  -1.022  1.00  0.00    -0.000 C 
BRANCH  10  11
ATOM     11  C   UNL     1      59.124  -6.583  -2.039  1.00  0.00    -0.003 C 
ATOM     12  C   UNL     1      58.358  -6.464  -3.356  1.00  0.00     0.004 C 
ENDBRANCH  10  11
ENDBRANCH   9  10
ENDBRANCH   8   9
ENDBRANCH   7   8
ENDBRANCH   6   7
ENDBRANCH   5   6
ENDBRANCH   4   5
ENDBRANCH   3   4
ENDBRANCH   2   3
ENDBRANCH   1   2
BRANCH   1  13
ATOM     13  C   UNL     1      52.574  -0.192  -2.706  1.00  0.00     0.000 C 
BRANCH  13  14
ATOM     14  C   UNL     1      52.818  -1.296  -3.742  1.00  0.00     0.000 C 
BRANCH  14  15
ATOM     15  C   UNL     1      53.828  -0.843  -4.805  1.00  0.00     0.000 C 
BRANCH  15  16
ATOM     16  C   UNL     1      54.440  -2.024  -5.575  1.00  0.00     0.000 C 
BRANCH  16  17
ATOM     17  C   UNL     1      55.972  -1.930  -5.679  1.00  0.00     0.000 C 
BRANCH  17  18
ATOM     18  C   UNL     1      56.453  -0.505  -5.996  1.00  0.00     0.000 C 
BRANCH  18  19
ATOM     19  C   UNL     1      57.977  -0.360  -5.880  1.00  0.00     0.000 C 
BRANCH  19  20
ATOM     20  C   UNL     1      58.683  -1.002  -7.081  1.00  0.00     0.006 C 
BRANCH  20  21
ATOM     21  C   UNL     1      58.533  -2.526  -7.059  1.00  0.00     0.053 C 
BRANCH  21  22
ATOM     22  C   UNL     1      58.508  -3.029  -5.650  1.00  0.00     0.041 C 
ATOM     23  O   UNL     1      57.988  -4.147  -5.385  1.00  0.00    -0.550 OA
ATOM     24  O   UNL     1      59.110  -2.291  -4.638  1.00  0.00    -0.550 OA
ENDBRANCH  21  22
ENDBRANCH  20  21
ENDBRANCH  19  20
ENDBRANCH  18  19
ENDBRANCH  17  18
ENDBRANCH  16  17
ENDBRANCH  15  16
ENDBRANCH  14  15
ENDBRANCH  13  14
ENDBRANCH   1  13
TORSDOF 20
ENDMDL
MODEL 4
REMARK VINA RESULT:    14.116      3.531      5.162
REMARK INTER + INTRA:          30.893
REMARK INTER:                  30.524
REMARK INTRA:                   0.368
REMARK UNBOUND:                 0.272
REMARK SMILES CCCCCCCCCCCCCCCCCCCCCC(=O)[O-]
REMARK SMILES IDX 12 1 11 2 10 3 9 4 8 5 7 6 6 7 5 8 4 9 3 10 2 11 1 12 13 13
REMARK SMILES IDX 14 14 15 15 16 16 17 17 18 18 19 19 20 20 21 21 22 22 23 23
REMARK SMILES IDX 24 24
REMARK H PARENT
REMARK Flexibility Score: inf
ROOT
ATOM      1  C   UNL     1      54.517  -1.963   0.059  1.00  0.00     0.000 C 
ENDROOT
BRANCH   1   2
ATOM      2  C   UNL     1      53.116  -1.340  -0.025  1.00  0.00     0.000 C 
BRANCH   2   3
ATOM      3  C   UNL     1      52.452  -1.557  -1.395  1.00  0.00     0.000 C 
BRANCH   3   4
ATOM      4  C   UNL     1      53.316  -1.043  -2.560  1.00  0.00    -0.000 C 
BRANCH   4   5
ATOM      5  C   UNL     1      52.477  -0.657  -3.789  1.00  0.00    -0.000 C 
BRANCH   5   6
ATOM      6  C   UNL     1      51.821  -1.873  -4.466  1.00  0.00    -0.000 C 
BRANCH   6   7
ATOM      7  C   UNL     1      52.334  -2.107  -5.896  1.00  0.00    -0.000 C 
BRANCH   7   8
ATOM      8  C   UNL     1      53.726  -1.498  -6.129  1.00  0.00    -0.000 C 
BRANCH   8   9
ATOM      9  C   UNL     1      54.660  -1.651  -4.915  1.00  0.00    -0.000 C 
BRANCH   9  10
ATOM     10  C   UNL     1      56.085  -1.091  -5.105  1.00  0.00    -0.000 C 
BRANCH  10  11
ATOM     11  C   UNL     1      56.419  -0.634  -6.536  1.00  0.00    -0.003 C 
ATOM     12  C   UNL     1      57.919  -0.469  -6.774  1.00  0.00     0.004 C 
ENDBRANCH  10  11
ENDBRANCH   9  10
ENDBRANCH   8   9
ENDBRANCH   7   8
ENDBRANCH   6   7
ENDBRANCH   5   6
ENDBRANCH   4   5
ENDBRANCH   3   4
ENDBRANCH   2   3
ENDBRANCH   1   2
BRANCH   1  13
ATOM     13  C   UNL     1      54.435  -3.468   0.340  1.00  0.00     0.000 C 
BRANCH  13  14
ATOM     14  C   UNL     1      55.400  -3.872   1.461  1.00  0.00     0.000 C 
BRANCH  14  15
ATOM     15  C   UNL     1      56.443  -4.880   0.956  1.00  0.00     0.000 C 
BRANCH  15  16
ATOM     16  C   UNL     1      57.829  -4.245   0.765  1.00  0.00     0.000 C 
BRANCH  16  17
ATOM     17  C   UNL     1      58.847  -5.224   0.153  1.00  0.00     0.000 C 
BRANCH  17  18
ATOM     18  C   UNL     1      58.203  -6.179  -0.865  1.00  0.00     0.000 C 
BRANCH  18  19
ATOM     19  C   UNL     1      59.022  -6.296  -2.159  1.00  0.00     0.000 C 
BRANCH  19  20
ATOM     20  C   UNL     1      59.125  -4.939  -2.868  1.00  0.00     0.006 C 
BRANCH  20  21
ATOM     21  C   UNL     1      58.500  -4.998  -4.265  1.00  0.00     0.053 C 
BRANCH  21  22
ATOM     22  C   UNL     1      58.579  -3.660  -4.931  1.00  0.00     0.041 C 
ATOM     23  O   UNL     1      58.367  -3.554  -6.169  1.00  0.00    -0.550 OA
ATOM     24  O   UNL     1      58.828  -2.522  -4.174  1.00  0.00    -0.550 OA
ENDBRANCH  21  22
ENDBRANCH  20  21
ENDBRANCH  19  20
ENDBRANCH  18  19
ENDBRANCH  17  18
ENDBRANCH  16  17
ENDBRANCH  15  16
ENDBRANCH  14  15
ENDBRANCH  13  14
ENDBRANCH   1  13
TORSDOF 20
ENDMDL
