MODEL 1
REMARK VINA RESULT:    -3.666      0.000      0.000
REMARK INTER + INTRA:          -6.614
REMARK INTER:                  -5.809
REMARK INTRA:                  -0.806
REMARK UNBOUND:                -0.806
REMARK SMILES CCCCCCCCCCCC(=O)[O-]
REMARK SMILES IDX 7 1 8 2 9 3 10 4 11 5 12 6 13 7 14 8 6 9 5 10 4 11 3 12 2 13
REMARK SMILES IDX 1 14
REMARK H PARENT
REMARK Flexibility Score: inf
ROOT
ATOM      1  C   UNL     1      58.647  29.265  50.468  1.00  0.00     0.000 C 
ENDROOT
BRANCH   1   2
ATOM      2  C   UNL     1      59.176  28.832  49.095  1.00  0.00     0.000 C 
BRANCH   2   3
ATOM      3  C   UNL     1      60.202  27.701  49.232  1.00  0.00     0.000 C 
BRANCH   3   4
ATOM      4  C   UNL     1      59.509  26.334  49.302  1.00  0.00     0.006 C 
BRANCH   4   5
ATOM      5  C   UNL     1      60.415  25.292  49.965  1.00  0.00     0.053 C 
BRANCH   5   6
ATOM      6  C   UNL     1      59.611  24.372  50.827  1.00  0.00     0.041 C 
ATOM      7  O   UNL     1      60.082  23.257  51.176  1.00  0.00    -0.550 OA
ATOM      8  O   UNL     1      58.360  24.765  51.286  1.00  0.00    -0.550 OA
ENDBRANCH   5   6
ENDBRANCH   4   5
ENDBRANCH   3   4
ENDBRANCH   2   3
ENDBRANCH   1   2
BRANCH   1   9
ATOM      9  C   UNL     1      57.118  29.166  50.524  1.00  0.00     0.000 C 
BRANCH   9  10
ATOM     10  C   UNL     1      56.676  27.834  51.150  1.00  0.00    -0.000 C 
BRANCH  10  11
ATOM     11  C   UNL     1      55.697  27.057  50.254  1.00  0.00    -0.000 C 
BRANCH  11  12
ATOM     12  C   UNL     1      54.409  27.848  49.962  1.00  0.00    -0.000 C 
BRANCH  12  13
ATOM     13  C   UNL     1      53.274  26.950  49.447  1.00  0.00    -0.003 C 
ATOM     14  C   UNL     1      53.769  25.583  48.977  1.00  0.00     0.004 C 
ENDBRANCH  12  13
ENDBRANCH  11  12
ENDBRANCH  10  11
ENDBRANCH   9  10
ENDBRANCH   1   9
TORSDOF 10
ENDMDL
MODEL 2
REMARK VINA RESULT:    -3.550      2.260      5.028
REMARK INTER + INTRA:          -6.432
REMARK INTER:                  -5.452
REMARK INTRA:                  -0.980
REMARK UNBOUND:                -0.806
REMARK SMILES CCCCCCCCCCCC(=O)[O-]
REMARK SMILES IDX 7 1 8 2 9 3 10 4 11 5 12 6 13 7 14 8 6 9 5 10 4 11 3 12 2 13
REMARK SMILES IDX 1 14
REMARK H PARENT
REMARK Flexibility Score: inf
ROOT
ATOM      1  C   UNL     1      58.155  29.234  50.493  1.00  0.00     0.000 C 
ENDROOT
BRANCH   1   2
ATOM      2  C   UNL     1      57.075  28.147  50.433  1.00  0.00     0.000 C 
BRANCH   2   3
ATOM      3  C   UNL     1      55.673  28.757  50.535  1.00  0.00     0.000 C 
BRANCH   3   4
ATOM      4  C   UNL     1      54.610  27.791  49.996  1.00  0.00     0.006 C 
BRANCH   4   5
ATOM      5  C   UNL     1      55.179  26.378  49.843  1.00  0.00     0.053 C 
BRANCH   5   6
ATOM      6  C   UNL     1      54.150  25.357  50.214  1.00  0.00     0.041 C 
ATOM      7  O   UNL     1      53.515  24.743  49.316  1.00  0.00    -0.550 OA
ATOM      8  O   UNL     1      53.927  25.048  51.549  1.00  0.00    -0.550 OA
ENDBRANCH   5   6
ENDBRANCH   4   5
ENDBRANCH   3   4
ENDBRANCH   2   3
ENDBRANCH   1   2
BRANCH   1   9
ATOM      9  C   UNL     1      58.977  29.265  49.200  1.00  0.00     0.000 C 
BRANCH   9  10
ATOM     10  C   UNL     1      59.780  27.966  49.027  1.00  0.00    -0.000 C 
BRANCH  10  11
ATOM     11  C   UNL     1      60.815  27.757  50.144  1.00  0.00    -0.000 C 
BRANCH  11  12
ATOM     12  C   UNL     1      60.953  26.280  50.552  1.00  0.00    -0.000 C 
BRANCH  12  13
ATOM     13  C   UNL     1      59.850  25.398  49.946  1.00  0.00    -0.003 C 
ATOM     14  C   UNL     1      58.912  24.816  51.002  1.00  0.00     0.004 C 
ENDBRANCH  12  13
ENDBRANCH  11  12
ENDBRANCH  10  11
ENDBRANCH   9  10
ENDBRANCH   1   9
TORSDOF 10
ENDMDL
MODEL 3
REMARK VINA RESULT:    -3.544     11.845     13.485
REMARK INTER + INTRA:          -6.422
REMARK INTER:                  -5.426
REMARK INTRA:                  -0.996
REMARK UNBOUND:                -0.806
REMARK SMILES CCCCCCCCCCCC(=O)[O-]
REMARK SMILES IDX 7 1 8 2 9 3 10 4 11 5 12 6 13 7 14 8 6 9 5 10 4 11 3 12 2 13
REMARK SMILES IDX 1 14
REMARK H PARENT
REMARK Flexibility Score: inf
ROOT
ATOM      1  C   UNL     1      60.962  31.287  61.344  1.00  0.00     0.000 C 
ENDROOT
BRANCH   1   2
ATOM      2  C   UNL     1      61.374  29.850  61.679  1.00  0.00     0.000 C 
BRANCH   2   3
ATOM      3  C   UNL     1      62.522  29.382  60.777  1.00  0.00     0.000 C 
BRANCH   3   4
ATOM      4  C   UNL     1      63.884  29.711  61.401  1.00  0.00     0.006 C 
BRANCH   4   5
ATOM      5  C   UNL     1      64.652  30.722  60.545  1.00  0.00     0.053 C 
BRANCH   5   6
ATOM      6  C   UNL     1      65.843  30.074  59.912  1.00  0.00     0.041 C 
ATOM      7  O   UNL     1      66.604  29.342  60.598  1.00  0.00    -0.550 OA
ATOM      8  O   UNL     1      66.085  30.240  58.555  1.00  0.00    -0.550 OA
ENDBRANCH   5   6
ENDBRANCH   4   5
ENDBRANCH   3   4
ENDBRANCH   2   3
ENDBRANCH   1   2
BRANCH   1   9
ATOM      9  C   UNL     1      60.909  31.506  59.828  1.00  0.00     0.000 C 
BRANCH   9  10
ATOM     10  C   UNL     1      61.325  32.940  59.464  1.00  0.00    -0.000 C 
BRANCH  10  11
ATOM     11  C   UNL     1      62.239  33.578  60.524  1.00  0.00    -0.000 C 
BRANCH  11  12
ATOM     12  C   UNL     1      62.068  35.105  60.608  1.00  0.00    -0.000 C 
BRANCH  12  13
ATOM     13  C   UNL     1      63.310  35.803  61.185  1.00  0.00    -0.003 C 
ATOM     14  C   UNL     1      64.453  34.831  61.473  1.00  0.00     0.004 C 
ENDBRANCH  12  13
ENDBRANCH  11  12
ENDBRANCH  10  11
ENDBRANCH   9  10
ENDBRANCH   1   9
TORSDOF 10
ENDMDL
MODEL 4
REMARK VINA RESULT:    -3.544     12.050     13.565
REMARK INTER + INTRA:          -6.421
REMARK INTER:                  -5.376
REMARK INTRA:                  -1.045
REMARK UNBOUND:                -0.806
REMARK SMILES CCCCCCCCCCCC(=O)[O-]
REMARK SMILES IDX 7 1 8 2 9 3 10 4 11 5 12 6 13 7 14 8 6 9 5 10 4 11 3 12 2 13
REMARK SMILES IDX 1 14
REMARK H PARENT
REMARK Flexibility Score: inf
ROOT
ATOM      1  C   UNL     1      62.672  31.969  60.004  1.00  0.00     0.000 C 
ENDROOT
BRANCH   1   2
ATOM      2  C   UNL     1      61.409  32.040  60.870  1.00  0.00     0.000 C 
BRANCH   2   3
ATOM      3  C   UNL     1      61.240  30.763  61.702  1.00  0.00     0.000 C 
BRANCH   3   4
ATOM      4  C   UNL     1      61.460  29.512  60.843  1.00  0.00     0.006 C 
BRANCH   4   5
ATOM      5  C   UNL     1      62.194  28.425  61.632  1.00  0.00     0.053 C 
BRANCH   5   6
ATOM      6  C   UNL     1      63.577  28.231  61.096  1.00  0.00     0.041 C 
ATOM      7  O   UNL     1      64.438  29.141  61.222  1.00  0.00    -0.550 OA
ATOM      8  O   UNL     1      63.929  27.027  60.500  1.00  0.00    -0.550 OA
ENDBRANCH   5   6
ENDBRANCH   4   5
ENDBRANCH   3   4
ENDBRANCH   2   3
ENDBRANCH   1   2
BRANCH   1   9
ATOM      9  C   UNL     1      63.895  32.488  60.769  1.00  0.00     0.000 C 
BRANCH   9  10
ATOM     10  C   UNL     1      64.325  33.868  60.249  1.00  0.00    -0.000 C 
BRANCH  10  11
ATOM     11  C   UNL     1      64.426  34.917  61.369  1.00  0.00    -0.000 C 
BRANCH  11  12
ATOM     12  C   UNL     1      63.253  35.914  61.351  1.00  0.00    -0.000 C 
BRANCH  12  13
ATOM     13  C   UNL     1      62.356  35.743  60.115  1.00  0.00    -0.003 C 
ATOM     14  C   UNL     1      60.867  35.785  60.456  1.00  0.00     0.004 C 
ENDBRANCH  12  13
ENDBRANCH  11  12
ENDBRANCH  10  11
ENDBRANCH   9  10
ENDBRANCH   1   9
TORSDOF 10
ENDMDL
MODEL 5
REMARK VINA RESULT:    -3.505      2.949      5.157
REMARK INTER + INTRA:          -6.360
REMARK INTER:                  -4.813
REMARK INTRA:                  -1.547
REMARK UNBOUND:                -0.806
REMARK SMILES CCCCCCCCCCCC(=O)[O-]
REMARK SMILES IDX 7 1 8 2 9 3 10 4 11 5 12 6 13 7 14 8 6 9 5 10 4 11 3 12 2 13
REMARK SMILES IDX 1 14
REMARK H PARENT
REMARK Flexibility Score: inf
ROOT
ATOM      1  C   UNL     1      59.537  29.532  51.013  1.00  0.00     0.000 C 
ENDROOT
BRANCH   1   2
ATOM      2  C   UNL     1      58.099  29.552  51.546  1.00  0.00     0.000 C 
BRANCH   2   3
ATOM      3  C   UNL     1      57.110  29.072  50.477  1.00  0.00     0.000 C 
BRANCH   3   4
ATOM      4  C   UNL     1      55.961  28.275  51.107  1.00  0.00     0.006 C 
BRANCH   4   5
ATOM      5  C   UNL     1      55.272  27.388  50.067  1.00  0.00     0.053 C 
BRANCH   5   6
ATOM      6  C   UNL     1      53.908  27.914  49.751  1.00  0.00     0.041 C 
ATOM      7  O   UNL     1      53.031  27.150  49.267  1.00  0.00    -0.550 OA
ATOM      8  O   UNL     1      53.590  29.235  50.035  1.00  0.00    -0.550 OA
ENDBRANCH   5   6
ENDBRANCH   4   5
ENDBRANCH   3   4
ENDBRANCH   2   3
ENDBRANCH   1   2
BRANCH   1   9
ATOM      9  C   UNL     1      59.602  28.881  49.627  1.00  0.00     0.000 C 
BRANCH   9  10
ATOM     10  C   UNL     1      60.839  27.979  49.501  1.00  0.00    -0.000 C 
BRANCH  10  11
ATOM     11  C   UNL     1      60.511  26.492  49.713  1.00  0.00    -0.000 C 
BRANCH  11  12
ATOM     12  C   UNL     1      59.010  26.190  49.556  1.00  0.00    -0.000 C 
BRANCH  12  13
ATOM     13  C   UNL     1      58.468  25.305  50.689  1.00  0.00    -0.003 C 
ATOM     14  C   UNL     1      58.772  25.869  52.076  1.00  0.00     0.004 C 
ENDBRANCH  12  13
ENDBRANCH  11  12
ENDBRANCH  10  11
ENDBRANCH   9  10
ENDBRANCH   1   9
TORSDOF 10
ENDMDL
MODEL 6
REMARK VINA RESULT:    -3.483     12.020     13.842
REMARK INTER + INTRA:          -6.325
REMARK INTER:                  -5.412
REMARK INTRA:                  -0.913
REMARK UNBOUND:                -0.806
REMARK SMILES CCCCCCCCCCCC(=O)[O-]
REMARK SMILES IDX 7 1 8 2 9 3 10 4 11 5 12 6 13 7 14 8 6 9 5 10 4 11 3 12 2 13
REMARK SMILES IDX 1 14
REMARK H PARENT
REMARK Flexibility Score: inf
ROOT
ATOM      1  C   UNL     1      61.106  32.150  59.731  1.00  0.00     0.000 C 
ENDROOT
BRANCH   1   2
ATOM      2  C   UNL     1      60.636  30.908  60.499  1.00  0.00     0.000 C 
BRANCH   2   3
ATOM      3  C   UNL     1      61.553  30.619  61.693  1.00  0.00     0.000 C 
BRANCH   3   4
ATOM      4  C   UNL     1      62.305  29.296  61.503  1.00  0.00     0.006 C 
BRANCH   4   5
ATOM      5  C   UNL     1      63.818  29.525  61.454  1.00  0.00     0.053 C 
BRANCH   5   6
ATOM      6  C   UNL     1      64.212  30.138  60.147  1.00  0.00     0.041 C 
ATOM      7  O   UNL     1      63.746  29.686  59.069  1.00  0.00    -0.550 OA
ATOM      8  O   UNL     1      65.058  31.239  60.124  1.00  0.00    -0.550 OA
ENDBRANCH   5   6
ENDBRANCH   4   5
ENDBRANCH   3   4
ENDBRANCH   2   3
ENDBRANCH   1   2
BRANCH   1   9
ATOM      9  C   UNL     1      61.989  33.040  60.613  1.00  0.00     0.000 C 
BRANCH   9  10
ATOM     10  C   UNL     1      61.718  34.528  60.338  1.00  0.00    -0.000 C 
BRANCH  10  11
ATOM     11  C   UNL     1      62.733  35.451  61.032  1.00  0.00    -0.000 C 
BRANCH  11  12
ATOM     12  C   UNL     1      64.076  34.752  61.306  1.00  0.00    -0.000 C 
BRANCH  12  13
ATOM     13  C   UNL     1      65.281  35.657  61.006  1.00  0.00    -0.003 C 
ATOM     14  C   UNL     1      64.921  36.842  60.111  1.00  0.00     0.004 C 
ENDBRANCH  12  13
ENDBRANCH  11  12
ENDBRANCH  10  11
ENDBRANCH   9  10
ENDBRANCH   1   9
TORSDOF 10
ENDMDL
MODEL 7
REMARK VINA RESULT:    -3.459      1.340      1.697
REMARK INTER + INTRA:          -6.286
REMARK INTER:                  -5.262
REMARK INTRA:                  -1.025
REMARK UNBOUND:                -0.806
REMARK SMILES CCCCCCCCCCCC(=O)[O-]
REMARK SMILES IDX 7 1 8 2 9 3 10 4 11 5 12 6 13 7 14 8 6 9 5 10 4 11 3 12 2 13
REMARK SMILES IDX 1 14
REMARK H PARENT
REMARK Flexibility Score: inf
ROOT
ATOM      1  C   UNL     1      58.082  29.212  49.991  1.00  0.00     0.000 C 
ENDROOT
BRANCH   1   2
ATOM      2  C   UNL     1      59.553  29.064  49.588  1.00  0.00     0.000 C 
BRANCH   2   3
ATOM      3  C   UNL     1      59.824  27.678  48.990  1.00  0.00     0.000 C 
BRANCH   3   4
ATOM      4  C   UNL     1      60.630  26.806  49.961  1.00  0.00     0.006 C 
BRANCH   4   5
ATOM      5  C   UNL     1      59.965  25.441  50.157  1.00  0.00     0.053 C 
BRANCH   5   6
ATOM      6  C   UNL     1      60.976  24.345  50.048  1.00  0.00     0.041 C 
ATOM      7  O   UNL     1      60.608  23.164  49.811  1.00  0.00    -0.550 OA
ATOM      8  O   UNL     1      62.330  24.634  50.159  1.00  0.00    -0.550 OA
ENDBRANCH   5   6
ENDBRANCH   4   5
ENDBRANCH   3   4
ENDBRANCH   2   3
ENDBRANCH   1   2
BRANCH   1   9
ATOM      9  C   UNL     1      57.873  28.834  51.462  1.00  0.00     0.000 C 
BRANCH   9  10
ATOM     10  C   UNL     1      56.678  27.881  51.621  1.00  0.00    -0.000 C 
BRANCH  10  11
ATOM     11  C   UNL     1      56.510  26.937  50.419  1.00  0.00    -0.000 C 
BRANCH  11  12
ATOM     12  C   UNL     1      55.070  26.922  49.877  1.00  0.00    -0.000 C 
BRANCH  12  13
ATOM     13  C   UNL     1      54.354  28.267  50.078  1.00  0.00    -0.003 C 
ATOM     14  C   UNL     1      52.877  28.213  49.687  1.00  0.00     0.004 C 
ENDBRANCH  12  13
ENDBRANCH  11  12
ENDBRANCH  10  11
ENDBRANCH   9  10
ENDBRANCH   1   9
TORSDOF 10
ENDMDL
MODEL 8
REMARK VINA RESULT:    -3.418     12.088     13.591
REMARK INTER + INTRA:          -6.222
REMARK INTER:                  -4.899
REMARK INTRA:                  -1.323
REMARK UNBOUND:                -0.806
REMARK SMILES CCCCCCCCCCCC(=O)[O-]
REMARK SMILES IDX 7 1 8 2 9 3 10 4 11 5 12 6 13 7 14 8 6 9 5 10 4 11 3 12 2 13
REMARK SMILES IDX 1 14
REMARK H PARENT
REMARK Flexibility Score: inf
ROOT
ATOM      1  C   UNL     1      64.423  33.236  59.580  1.00  0.00     0.000 C 
ENDROOT
BRANCH   1   2
ATOM      2  C   UNL     1      63.489  32.533  60.571  1.00  0.00     0.000 C 
BRANCH   2   3
ATOM      3  C   UNL     1      62.350  31.813  59.839  1.00  0.00     0.000 C 
BRANCH   3   4
ATOM      4  C   UNL     1      61.104  31.709  60.726  1.00  0.00     0.006 C 
BRANCH   4   5
ATOM      5  C   UNL     1      61.307  30.680  61.842  1.00  0.00     0.053 C 
BRANCH   5   6
ATOM      6  C   UNL     1      61.671  29.348  61.267  1.00  0.00     0.041 C 
ATOM      7  O   UNL     1      62.765  28.805  61.572  1.00  0.00    -0.550 OA
ATOM      8  O   UNL     1      60.782  28.685  60.432  1.00  0.00    -0.550 OA
ENDBRANCH   5   6
ENDBRANCH   4   5
ENDBRANCH   3   4
ENDBRANCH   2   3
ENDBRANCH   1   2
BRANCH   1   9
ATOM      9  C   UNL     1      64.823  34.625  60.091  1.00  0.00     0.000 C 
BRANCH   9  10
ATOM     10  C   UNL     1      64.085  34.965  61.395  1.00  0.00    -0.000 C 
BRANCH  10  11
ATOM     11  C   UNL     1      63.616  36.429  61.445  1.00  0.00    -0.000 C 
BRANCH  11  12
ATOM     12  C   UNL     1      62.424  36.699  60.510  1.00  0.00    -0.000 C 
BRANCH  12  13
ATOM     13  C   UNL     1      61.318  35.641  60.648  1.00  0.00    -0.003 C 
ATOM     14  C   UNL     1      60.797  35.152  59.297  1.00  0.00     0.004 C 
ENDBRANCH  12  13
ENDBRANCH  11  12
ENDBRANCH  10  11
ENDBRANCH   9  10
ENDBRANCH   1   9
TORSDOF 10
ENDMDL
MODEL 9
REMARK VINA RESULT:    -3.375     12.927     14.337
REMARK INTER + INTRA:          -6.154
REMARK INTER:                  -5.316
REMARK INTRA:                  -0.837
REMARK UNBOUND:                -0.806
REMARK SMILES CCCCCCCCCCCC(=O)[O-]
REMARK SMILES IDX 7 1 8 2 9 3 10 4 11 5 12 6 13 7 14 8 6 9 5 10 4 11 3 12 2 13
REMARK SMILES IDX 1 14
REMARK H PARENT
REMARK Flexibility Score: inf
ROOT
ATOM      1  C   UNL     1      62.389  31.832  59.857  1.00  0.00     0.000 C 
ENDROOT
BRANCH   1   2
ATOM      2  C   UNL     1      62.935  33.248  59.644  1.00  0.00     0.000 C 
BRANCH   2   3
ATOM      3  C   UNL     1      61.950  34.302  60.164  1.00  0.00     0.000 C 
BRANCH   3   4
ATOM      4  C   UNL     1      62.665  35.341  61.037  1.00  0.00     0.006 C 
BRANCH   4   5
ATOM      5  C   UNL     1      64.067  34.861  61.426  1.00  0.00     0.053 C 
BRANCH   5   6
ATOM      6  C   UNL     1      65.025  36.010  61.453  1.00  0.00     0.041 C 
ATOM      7  O   UNL     1      66.027  36.017  60.690  1.00  0.00    -0.550 OA
ATOM      8  O   UNL     1      64.786  37.095  62.286  1.00  0.00    -0.550 OA
ENDBRANCH   5   6
ENDBRANCH   4   5
ENDBRANCH   3   4
ENDBRANCH   2   3
ENDBRANCH   1   2
BRANCH   1   9
ATOM      9  C   UNL     1      61.139  31.851  60.746  1.00  0.00     0.000 C 
BRANCH   9  10
ATOM     10  C   UNL     1      61.066  30.590  61.621  1.00  0.00    -0.000 C 
BRANCH  10  11
ATOM     11  C   UNL     1      62.416  29.860  61.719  1.00  0.00    -0.000 C 
BRANCH  11  12
ATOM     12  C   UNL     1      62.264  28.330  61.666  1.00  0.00    -0.000 C 
BRANCH  12  13
ATOM     13  C   UNL     1      63.031  27.704  60.491  1.00  0.00    -0.003 C 
ATOM     14  C   UNL     1      64.366  28.397  60.221  1.00  0.00     0.004 C 
ENDBRANCH  12  13
ENDBRANCH  11  12
ENDBRANCH  10  11
ENDBRANCH   9  10
ENDBRANCH   1   9
TORSDOF 10
ENDMDL
