MODEL 1
REMARK VINA RESULT:    -3.298      0.000      0.000
REMARK INTER + INTRA:          -9.138
REMARK INTER:                  -6.382
REMARK INTRA:                  -2.756
REMARK UNBOUND:                -2.756
REMARK SMILES CCCCCCCCCCCCCCCCCC(=O)[O-]
REMARK SMILES IDX 10 1 11 2 12 3 13 4 14 5 15 6 16 7 17 8 18 9 19 10 20 11
REMARK SMILES IDX 9 12 8 13 7 14 6 15 5 16 4 17 3 18 2 19 1 20
REMARK H PARENT
REMARK Flexibility Score: inf
ROOT
ATOM      1  C   UNL     1      19.059  14.420  15.806  1.00  0.00     0.000 C 
ENDROOT
BRANCH   1   2
ATOM      2  C   UNL     1      19.535  13.014  16.209  1.00  0.00     0.000 C 
BRANCH   2   3
ATOM      3  C   UNL     1      20.130  12.973  17.628  1.00  0.00     0.000 C 
BRANCH   3   4
ATOM      4  C   UNL     1      20.191  14.336  18.345  1.00  0.00     0.000 C 
BRANCH   4   5
ATOM      5  C   UNL     1      20.528  14.273  19.848  1.00  0.00     0.000 C 
BRANCH   5   6
ATOM      6  C   UNL     1      20.038  15.473  20.677  1.00  0.00     0.000 C 
BRANCH   6   7
ATOM      7  C   UNL     1      18.505  15.524  20.805  1.00  0.00     0.006 C 
BRANCH   7   8
ATOM      8  C   UNL     1      18.055  16.095  22.156  1.00  0.00     0.053 C 
BRANCH   8   9
ATOM      9  C   UNL     1      17.163  17.285  21.987  1.00  0.00     0.041 C 
ATOM     10  O   UNL     1      16.243  17.512  22.817  1.00  0.00    -0.550 OA
ATOM     11  O   UNL     1      17.362  18.158  20.925  1.00  0.00    -0.550 OA
ENDBRANCH   8   9
ENDBRANCH   7   8
ENDBRANCH   6   7
ENDBRANCH   5   6
ENDBRANCH   4   5
ENDBRANCH   3   4
ENDBRANCH   2   3
ENDBRANCH   1   2
BRANCH   1  12
ATOM     12  C   UNL     1      17.529  14.520  15.707  1.00  0.00     0.000 C 
BRANCH  12  13
ATOM     13  C   UNL     1      17.005  15.925  16.041  1.00  0.00    -0.000 C 
BRANCH  13  14
ATOM     14  C   UNL     1      17.424  16.346  17.454  1.00  0.00    -0.000 C 
BRANCH  14  15
ATOM     15  C   UNL     1      17.854  17.818  17.485  1.00  0.00    -0.000 C 
BRANCH  15  16
ATOM     16  C   UNL     1      19.310  17.957  17.941  1.00  0.00    -0.000 C 
BRANCH  16  17
ATOM     17  C   UNL     1      20.278  17.708  16.774  1.00  0.00    -0.000 C 
BRANCH  17  18
ATOM     18  C   UNL     1      19.939  18.544  15.526  1.00  0.00    -0.000 C 
BRANCH  18  19
ATOM     19  C   UNL     1      19.797  17.735  14.224  1.00  0.00    -0.003 C 
ATOM     20  C   UNL     1      18.490  18.015  13.484  1.00  0.00     0.004 C 
ENDBRANCH  18  19
ENDBRANCH  17  18
ENDBRANCH  16  17
ENDBRANCH  15  16
ENDBRANCH  14  15
ENDBRANCH  13  14
ENDBRANCH  12  13
ENDBRANCH   1  12
TORSDOF 16
ENDMDL
MODEL 2
REMARK VINA RESULT:    -3.291      2.742      4.496
REMARK INTER + INTRA:          -9.125
REMARK INTER:                  -6.325
REMARK INTRA:                  -2.801
REMARK UNBOUND:                -2.756
REMARK SMILES CCCCCCCCCCCCCCCCCC(=O)[O-]
REMARK SMILES IDX 10 1 11 2 12 3 13 4 14 5 15 6 16 7 17 8 18 9 19 10 20 11
REMARK SMILES IDX 9 12 8 13 7 14 6 15 5 16 4 17 3 18 2 19 1 20
REMARK H PARENT
REMARK Flexibility Score: inf
ROOT
ATOM      1  C   UNL     1      17.752  14.554  15.854  1.00  0.00     0.000 C 
ENDROOT
BRANCH   1   2
ATOM      2  C   UNL     1      19.153  14.772  15.255  1.00  0.00     0.000 C 
BRANCH   2   3
ATOM      3  C   UNL     1      20.272  14.180  16.130  1.00  0.00     0.000 C 
BRANCH   3   4
ATOM      4  C   UNL     1      19.902  12.871  16.856  1.00  0.00     0.000 C 
BRANCH   4   5
ATOM      5  C   UNL     1      20.629  12.636  18.196  1.00  0.00     0.000 C 
BRANCH   5   6
ATOM      6  C   UNL     1      21.955  13.400  18.360  1.00  0.00     0.000 C 
BRANCH   6   7
ATOM      7  C   UNL     1      22.126  14.003  19.766  1.00  0.00     0.006 C 
BRANCH   7   8
ATOM      8  C   UNL     1      21.126  13.417  20.772  1.00  0.00     0.053 C 
BRANCH   8   9
ATOM      9  C   UNL     1      21.818  12.692  21.884  1.00  0.00     0.041 C 
ATOM     10  O   UNL     1      21.156  12.242  22.857  1.00  0.00    -0.550 OA
ATOM     11  O   UNL     1      23.191  12.493  21.837  1.00  0.00    -0.550 OA
ENDBRANCH   8   9
ENDBRANCH   7   8
ENDBRANCH   6   7
ENDBRANCH   5   6
ENDBRANCH   4   5
ENDBRANCH   3   4
ENDBRANCH   2   3
ENDBRANCH   1   2
BRANCH   1  12
ATOM     12  C   UNL     1      16.950  15.860  15.971  1.00  0.00     0.000 C 
BRANCH  12  13
ATOM     13  C   UNL     1      17.840  17.109  15.887  1.00  0.00    -0.000 C 
BRANCH  13  14
ATOM     14  C   UNL     1      18.138  17.666  17.285  1.00  0.00    -0.000 C 
BRANCH  14  15
ATOM     15  C   UNL     1      19.638  17.593  17.597  1.00  0.00    -0.000 C 
BRANCH  15  16
ATOM     16  C   UNL     1      19.890  16.856  18.918  1.00  0.00    -0.000 C 
BRANCH  16  17
ATOM     17  C   UNL     1      18.795  15.812  19.181  1.00  0.00    -0.000 C 
BRANCH  17  18
ATOM     18  C   UNL     1      18.155  15.951  20.574  1.00  0.00    -0.000 C 
BRANCH  18  19
ATOM     19  C   UNL     1      17.095  17.061  20.692  1.00  0.00    -0.003 C 
ATOM     20  C   UNL     1      17.555  18.240  21.549  1.00  0.00     0.004 C 
ENDBRANCH  18  19
ENDBRANCH  17  18
ENDBRANCH  16  17
ENDBRANCH  15  16
ENDBRANCH  14  15
ENDBRANCH  13  14
ENDBRANCH  12  13
ENDBRANCH   1  12
TORSDOF 16
ENDMDL
MODEL 3
REMARK VINA RESULT:    -3.278     11.318     14.356
REMARK INTER + INTRA:          -9.101
REMARK INTER:                  -6.727
REMARK INTRA:                  -2.373
REMARK UNBOUND:                -2.756
REMARK SMILES CCCCCCCCCCCCCCCCCC(=O)[O-]
REMARK SMILES IDX 10 1 11 2 12 3 13 4 14 5 15 6 16 7 17 8 18 9 19 10 20 11
REMARK SMILES IDX 9 12 8 13 7 14 6 15 5 16 4 17 3 18 2 19 1 20
REMARK H PARENT
REMARK Flexibility Score: inf
ROOT
ATOM      1  C   UNL     1      24.722   9.246  24.423  1.00  0.00     0.000 C 
ENDROOT
BRANCH   1   2
ATOM      2  C   UNL     1      23.680  10.370  24.559  1.00  0.00     0.000 C 
BRANCH   2   3
ATOM      3  C   UNL     1      23.541  10.880  26.004  1.00  0.00     0.000 C 
BRANCH   3   4
ATOM      4  C   UNL     1      23.349   9.777  27.064  1.00  0.00     0.000 C 
BRANCH   4   5
ATOM      5  C   UNL     1      24.360   9.802  28.227  1.00  0.00     0.000 C 
BRANCH   5   6
ATOM      6  C   UNL     1      25.580  10.717  28.011  1.00  0.00     0.000 C 
BRANCH   6   7
ATOM      7  C   UNL     1      26.881   9.931  27.776  1.00  0.00     0.006 C 
BRANCH   7   8
ATOM      8  C   UNL     1      28.125  10.746  28.151  1.00  0.00     0.053 C 
BRANCH   8   9
ATOM      9  C   UNL     1      29.365   9.906  28.143  1.00  0.00     0.041 C 
ATOM     10  O   UNL     1      29.495   8.959  28.963  1.00  0.00    -0.550 OA
ATOM     11  O   UNL     1      30.368  10.155  27.215  1.00  0.00    -0.550 OA
ENDBRANCH   8   9
ENDBRANCH   7   8
ENDBRANCH   6   7
ENDBRANCH   5   6
ENDBRANCH   4   5
ENDBRANCH   3   4
ENDBRANCH   2   3
ENDBRANCH   1   2
BRANCH   1  12
ATOM     12  C   UNL     1      24.924   8.800  22.967  1.00  0.00     0.000 C 
BRANCH  12  13
ATOM     13  C   UNL     1      24.779   7.281  22.788  1.00  0.00    -0.000 C 
BRANCH  13  14
ATOM     14  C   UNL     1      24.989   6.549  24.119  1.00  0.00    -0.000 C 
BRANCH  14  15
ATOM     15  C   UNL     1      26.290   5.736  24.100  1.00  0.00    -0.000 C 
BRANCH  15  16
ATOM     16  C   UNL     1      27.043   5.871  25.428  1.00  0.00    -0.000 C 
BRANCH  16  17
ATOM     17  C   UNL     1      26.241   6.716  26.430  1.00  0.00    -0.000 C 
BRANCH  17  18
ATOM     18  C   UNL     1      26.299   6.160  27.865  1.00  0.00    -0.000 C 
BRANCH  18  19
ATOM     19  C   UNL     1      24.941   6.085  28.585  1.00  0.00    -0.003 C 
ATOM     20  C   UNL     1      23.751   6.164  27.630  1.00  0.00     0.004 C 
ENDBRANCH  18  19
ENDBRANCH  17  18
ENDBRANCH  16  17
ENDBRANCH  15  16
ENDBRANCH  14  15
ENDBRANCH  13  14
ENDBRANCH  12  13
ENDBRANCH   1  12
TORSDOF 16
ENDMDL
MODEL 4
REMARK VINA RESULT:    -3.276     13.855     16.135
REMARK INTER + INTRA:          -9.097
REMARK INTER:                  -6.892
REMARK INTRA:                  -2.204
REMARK UNBOUND:                -2.756
REMARK SMILES CCCCCCCCCCCCCCCCCC(=O)[O-]
REMARK SMILES IDX 10 1 11 2 12 3 13 4 14 5 15 6 16 7 17 8 18 9 19 10 20 11
REMARK SMILES IDX 9 12 8 13 7 14 6 15 5 16 4 17 3 18 2 19 1 20
REMARK H PARENT
REMARK Flexibility Score: inf
ROOT
ATOM      1  C   UNL     1      27.897   4.166  27.537  1.00  0.00     0.000 C 
ENDROOT
BRANCH   1   2
ATOM      2  C   UNL     1      27.774   3.480  26.165  1.00  0.00     0.000 C 
BRANCH   2   3
ATOM      3  C   UNL     1      27.736   4.485  25.000  1.00  0.00     0.000 C 
BRANCH   3   4
ATOM      4  C   UNL     1      28.026   5.946  25.395  1.00  0.00     0.000 C 
BRANCH   4   5
ATOM      5  C   UNL     1      29.266   6.573  24.728  1.00  0.00     0.000 C 
BRANCH   5   6
ATOM      6  C   UNL     1      29.401   8.096  24.904  1.00  0.00     0.000 C 
BRANCH   6   7
ATOM      7  C   UNL     1      30.733   8.505  25.558  1.00  0.00     0.006 C 
BRANCH   7   8
ATOM      8  C   UNL     1      31.260   9.839  25.013  1.00  0.00     0.053 C 
BRANCH   8   9
ATOM      9  C   UNL     1      31.446  10.850  26.102  1.00  0.00     0.041 C 
ATOM     10  O   UNL     1      30.489  11.143  26.866  1.00  0.00    -0.550 OA
ATOM     11  O   UNL     1      32.683  11.453  26.286  1.00  0.00    -0.550 OA
ENDBRANCH   8   9
ENDBRANCH   7   8
ENDBRANCH   6   7
ENDBRANCH   5   6
ENDBRANCH   4   5
ENDBRANCH   3   4
ENDBRANCH   2   3
ENDBRANCH   1   2
BRANCH   1  12
ATOM     12  C   UNL     1      26.585   4.127  28.336  1.00  0.00     0.000 C 
BRANCH  12  13
ATOM     13  C   UNL     1      25.977   5.522  28.541  1.00  0.00    -0.000 C 
BRANCH  13  14
ATOM     14  C   UNL     1      24.449   5.446  28.644  1.00  0.00    -0.000 C 
BRANCH  14  15
ATOM     15  C   UNL     1      23.782   6.265  27.532  1.00  0.00    -0.000 C 
BRANCH  15  16
ATOM     16  C   UNL     1      24.817   7.088  26.758  1.00  0.00    -0.000 C 
BRANCH  16  17
ATOM     17  C   UNL     1      24.614   8.592  27.000  1.00  0.00    -0.000 C 
BRANCH  17  18
ATOM     18  C   UNL     1      25.630   9.181  27.996  1.00  0.00    -0.000 C 
BRANCH  18  19
ATOM     19  C   UNL     1      27.074   9.269  27.473  1.00  0.00    -0.003 C 
ATOM     20  C   UNL     1      28.075   8.512  28.345  1.00  0.00     0.004 C 
ENDBRANCH  18  19
ENDBRANCH  17  18
ENDBRANCH  16  17
ENDBRANCH  15  16
ENDBRANCH  14  15
ENDBRANCH  13  14
ENDBRANCH  12  13
ENDBRANCH   1  12
TORSDOF 16
ENDMDL
MODEL 5
REMARK VINA RESULT:    -3.258     12.682     15.383
REMARK INTER + INTRA:          -9.062
REMARK INTER:                  -6.404
REMARK INTRA:                  -2.658
REMARK UNBOUND:                -2.756
REMARK SMILES CCCCCCCCCCCCCCCCCC(=O)[O-]
REMARK SMILES IDX 10 1 11 2 12 3 13 4 14 5 15 6 16 7 17 8 18 9 19 10 20 11
REMARK SMILES IDX 9 12 8 13 7 14 6 15 5 16 4 17 3 18 2 19 1 20
REMARK H PARENT
REMARK Flexibility Score: inf
ROOT
ATOM      1  C   UNL     1      27.614   7.471  24.843  1.00  0.00     0.000 C 
ENDROOT
BRANCH   1   2
ATOM      2  C   UNL     1      29.075   7.128  25.184  1.00  0.00     0.000 C 
BRANCH   2   3
ATOM      3  C   UNL     1      30.013   8.342  25.066  1.00  0.00     0.000 C 
BRANCH   3   4
ATOM      4  C   UNL     1      30.215   9.135  26.373  1.00  0.00     0.000 C 
BRANCH   4   5
ATOM      5  C   UNL     1      29.586   8.500  27.629  1.00  0.00     0.000 C 
BRANCH   5   6
ATOM      6  C   UNL     1      28.846   9.482  28.555  1.00  0.00     0.000 C 
BRANCH   6   7
ATOM      7  C   UNL     1      28.819  10.918  28.003  1.00  0.00     0.006 C 
BRANCH   7   8
ATOM      8  C   UNL     1      28.856  11.968  29.120  1.00  0.00     0.053 C 
BRANCH   8   9
ATOM      9  C   UNL     1      30.126  11.896  29.910  1.00  0.00     0.041 C 
ATOM     10  O   UNL     1      31.213  11.614  29.340  1.00  0.00    -0.550 OA
ATOM     11  O   UNL     1      30.113  12.161  31.273  1.00  0.00    -0.550 OA
ENDBRANCH   8   9
ENDBRANCH   7   8
ENDBRANCH   6   7
ENDBRANCH   5   6
ENDBRANCH   4   5
ENDBRANCH   3   4
ENDBRANCH   2   3
ENDBRANCH   1   2
BRANCH   1  12
ATOM     12  C   UNL     1      26.608   6.714  25.724  1.00  0.00     0.000 C 
BRANCH  12  13
ATOM     13  C   UNL     1      27.293   5.808  26.758  1.00  0.00    -0.000 C 
BRANCH  13  14
ATOM     14  C   UNL     1      26.520   5.804  28.083  1.00  0.00    -0.000 C 
BRANCH  14  15
ATOM     15  C   UNL     1      25.272   6.692  27.994  1.00  0.00    -0.000 C 
BRANCH  15  16
ATOM     16  C   UNL     1      25.352   7.854  28.990  1.00  0.00    -0.000 C 
BRANCH  16  17
ATOM     17  C   UNL     1      25.296   9.206  28.262  1.00  0.00    -0.000 C 
BRANCH  17  18
ATOM     18  C   UNL     1      24.100   9.320  27.300  1.00  0.00    -0.000 C 
BRANCH  18  19
ATOM     19  C   UNL     1      24.426   9.947  25.933  1.00  0.00    -0.003 C 
ATOM     20  C   UNL     1      25.862  10.461  25.836  1.00  0.00     0.004 C 
ENDBRANCH  18  19
ENDBRANCH  17  18
ENDBRANCH  16  17
ENDBRANCH  15  16
ENDBRANCH  14  15
ENDBRANCH  13  14
ENDBRANCH  12  13
ENDBRANCH   1  12
TORSDOF 16
ENDMDL
MODEL 6
REMARK VINA RESULT:    -3.254      2.598      4.662
REMARK INTER + INTRA:          -9.054
REMARK INTER:                  -6.164
REMARK INTRA:                  -2.890
REMARK UNBOUND:                -2.756
REMARK SMILES CCCCCCCCCCCCCCCCCC(=O)[O-]
REMARK SMILES IDX 10 1 11 2 12 3 13 4 14 5 15 6 16 7 17 8 18 9 19 10 20 11
REMARK SMILES IDX 9 12 8 13 7 14 6 15 5 16 4 17 3 18 2 19 1 20
REMARK H PARENT
REMARK Flexibility Score: inf
ROOT
ATOM      1  C   UNL     1      17.395  14.976  15.071  1.00  0.00     0.000 C 
ENDROOT
BRANCH   1   2
ATOM      2  C   UNL     1      16.832  15.697  16.308  1.00  0.00     0.000 C 
BRANCH   2   3
ATOM      3  C   UNL     1      17.443  17.096  16.509  1.00  0.00     0.000 C 
BRANCH   3   4
ATOM      4  C   UNL     1      17.979  17.371  17.928  1.00  0.00     0.000 C 
BRANCH   4   5
ATOM      5  C   UNL     1      18.097  16.131  18.836  1.00  0.00     0.000 C 
BRANCH   5   6
ATOM      6  C   UNL     1      19.252  16.175  19.853  1.00  0.00     0.000 C 
BRANCH   6   7
ATOM      7  C   UNL     1      19.690  14.776  20.319  1.00  0.00     0.006 C 
BRANCH   7   8
ATOM      8  C   UNL     1      21.216  14.645  20.402  1.00  0.00     0.053 C 
BRANCH   8   9
ATOM      9  C   UNL     1      21.630  13.522  21.303  1.00  0.00     0.041 C 
ATOM     10  O   UNL     1      22.848  13.229  21.434  1.00  0.00    -0.550 OA
ATOM     11  O   UNL     1      20.672  12.813  22.015  1.00  0.00    -0.550 OA
ENDBRANCH   8   9
ENDBRANCH   7   8
ENDBRANCH   6   7
ENDBRANCH   5   6
ENDBRANCH   4   5
ENDBRANCH   3   4
ENDBRANCH   2   3
ENDBRANCH   1   2
BRANCH   1  12
ATOM     12  C   UNL     1      17.830  15.952  13.966  1.00  0.00     0.000 C 
BRANCH  12  13
ATOM     13  C   UNL     1      19.275  15.714  13.502  1.00  0.00    -0.000 C 
BRANCH  13  14
ATOM     14  C   UNL     1      20.219  16.775  14.081  1.00  0.00    -0.000 C 
BRANCH  14  15
ATOM     15  C   UNL     1      21.354  16.124  14.880  1.00  0.00    -0.000 C 
BRANCH  15  16
ATOM     16  C   UNL     1      20.934  15.879  16.334  1.00  0.00    -0.000 C 
BRANCH  16  17
ATOM     17  C   UNL     1      21.233  14.433  16.756  1.00  0.00    -0.000 C 
BRANCH  17  18
ATOM     18  C   UNL     1      20.214  13.423  16.198  1.00  0.00    -0.000 C 
BRANCH  18  19
ATOM     19  C   UNL     1      19.628  12.452  17.239  1.00  0.00    -0.003 C 
ATOM     20  C   UNL     1      20.694  11.799  18.117  1.00  0.00     0.004 C 
ENDBRANCH  18  19
ENDBRANCH  17  18
ENDBRANCH  16  17
ENDBRANCH  15  16
ENDBRANCH  14  15
ENDBRANCH  13  14
ENDBRANCH  12  13
ENDBRANCH   1  12
TORSDOF 16
ENDMDL
MODEL 7
REMARK VINA RESULT:    -3.239     12.457     15.291
REMARK INTER + INTRA:          -9.025
REMARK INTER:                  -6.189
REMARK INTRA:                  -2.836
REMARK UNBOUND:                -2.756
REMARK SMILES CCCCCCCCCCCCCCCCCC(=O)[O-]
REMARK SMILES IDX 10 1 11 2 12 3 13 4 14 5 15 6 16 7 17 8 18 9 19 10 20 11
REMARK SMILES IDX 9 12 8 13 7 14 6 15 5 16 4 17 3 18 2 19 1 20
REMARK H PARENT
REMARK Flexibility Score: inf
ROOT
ATOM      1  C   UNL     1      27.970   9.170  27.027  1.00  0.00     0.000 C 
ENDROOT
BRANCH   1   2
ATOM      2  C   UNL     1      26.669   9.423  27.809  1.00  0.00     0.000 C 
BRANCH   2   3
ATOM      3  C   UNL     1      25.429   9.472  26.898  1.00  0.00     0.000 C 
BRANCH   3   4
ATOM      4  C   UNL     1      24.492   8.252  27.014  1.00  0.00     0.000 C 
BRANCH   4   5
ATOM      5  C   UNL     1      24.857   7.248  28.125  1.00  0.00     0.000 C 
BRANCH   5   6
ATOM      6  C   UNL     1      24.132   5.892  28.042  1.00  0.00     0.000 C 
BRANCH   6   7
ATOM      7  C   UNL     1      24.608   4.894  29.112  1.00  0.00     0.006 C 
BRANCH   7   8
ATOM      8  C   UNL     1      26.021   4.369  28.826  1.00  0.00     0.053 C 
BRANCH   8   9
ATOM      9  C   UNL     1      26.493   3.432  29.894  1.00  0.00     0.041 C 
ATOM     10  O   UNL     1      26.032   3.518  31.063  1.00  0.00    -0.550 OA
ATOM     11  O   UNL     1      27.428   2.450  29.594  1.00  0.00    -0.550 OA
ENDBRANCH   8   9
ENDBRANCH   7   8
ENDBRANCH   6   7
ENDBRANCH   5   6
ENDBRANCH   4   5
ENDBRANCH   3   4
ENDBRANCH   2   3
ENDBRANCH   1   2
BRANCH   1  12
ATOM     12  C   UNL     1      27.758   9.195  25.505  1.00  0.00     0.000 C 
BRANCH  12  13
ATOM     13  C   UNL     1      28.262   7.917  24.817  1.00  0.00    -0.000 C 
BRANCH  13  14
ATOM     14  C   UNL     1      28.188   6.716  25.767  1.00  0.00    -0.000 C 
BRANCH  14  15
ATOM     15  C   UNL     1      26.919   5.891  25.513  1.00  0.00    -0.000 C 
BRANCH  15  16
ATOM     16  C   UNL     1      26.540   5.908  24.028  1.00  0.00    -0.000 C 
BRANCH  16  17
ATOM     17  C   UNL     1      25.029   6.123  23.850  1.00  0.00    -0.000 C 
BRANCH  17  18
ATOM     18  C   UNL     1      24.695   7.176  22.777  1.00  0.00    -0.000 C 
BRANCH  18  19
ATOM     19  C   UNL     1      24.807   8.637  23.247  1.00  0.00    -0.003 C 
ATOM     20  C   UNL     1      25.632   9.509  22.302  1.00  0.00     0.004 C 
ENDBRANCH  18  19
ENDBRANCH  17  18
ENDBRANCH  16  17
ENDBRANCH  15  16
ENDBRANCH  14  15
ENDBRANCH  13  14
ENDBRANCH  12  13
ENDBRANCH   1  12
TORSDOF 16
ENDMDL
MODEL 8
REMARK VINA RESULT:    -3.216      1.628      4.131
REMARK INTER + INTRA:          -8.980
REMARK INTER:                  -6.580
REMARK INTRA:                  -2.400
REMARK UNBOUND:                -2.756
REMARK SMILES CCCCCCCCCCCCCCCCCC(=O)[O-]
REMARK SMILES IDX 10 1 11 2 12 3 13 4 14 5 15 6 16 7 17 8 18 9 19 10 20 11
REMARK SMILES IDX 9 12 8 13 7 14 6 15 5 16 4 17 3 18 2 19 1 20
REMARK H PARENT
REMARK Flexibility Score: inf
ROOT
ATOM      1  C   UNL     1      17.391  15.259  14.870  1.00  0.00     0.000 C 
ENDROOT
BRANCH   1   2
ATOM      2  C   UNL     1      17.019  15.834  16.249  1.00  0.00     0.000 C 
BRANCH   2   3
ATOM      3  C   UNL     1      17.677  17.199  16.519  1.00  0.00     0.000 C 
BRANCH   3   4
ATOM      4  C   UNL     1      17.889  17.532  18.010  1.00  0.00     0.000 C 
BRANCH   4   5
ATOM      5  C   UNL     1      17.743  16.339  18.975  1.00  0.00     0.000 C 
BRANCH   5   6
ATOM      6  C   UNL     1      19.063  15.812  19.565  1.00  0.00     0.000 C 
BRANCH   6   7
ATOM      7  C   UNL     1      18.892  15.217  20.974  1.00  0.00     0.006 C 
BRANCH   7   8
ATOM      8  C   UNL     1      17.805  15.940  21.779  1.00  0.00     0.053 C 
BRANCH   8   9
ATOM      9  C   UNL     1      18.391  16.830  22.831  1.00  0.00     0.041 C 
ATOM     10  O   UNL     1      18.071  16.682  24.039  1.00  0.00    -0.550 OA
ATOM     11  O   UNL     1      19.309  17.811  22.478  1.00  0.00    -0.550 OA
ENDBRANCH   8   9
ENDBRANCH   7   8
ENDBRANCH   6   7
ENDBRANCH   5   6
ENDBRANCH   4   5
ENDBRANCH   3   4
ENDBRANCH   2   3
ENDBRANCH   1   2
BRANCH   1  12
ATOM     12  C   UNL     1      17.853  16.343  13.884  1.00  0.00     0.000 C 
BRANCH  12  13
ATOM     13  C   UNL     1      19.171  15.981  13.182  1.00  0.00    -0.000 C 
BRANCH  13  14
ATOM     14  C   UNL     1      19.929  14.900  13.962  1.00  0.00    -0.000 C 
BRANCH  14  15
ATOM     15  C   UNL     1      20.924  15.529  14.946  1.00  0.00    -0.000 C 
BRANCH  15  16
ATOM     16  C   UNL     1      20.736  14.961  16.357  1.00  0.00    -0.000 C 
BRANCH  16  17
ATOM     17  C   UNL     1      20.201  13.522  16.303  1.00  0.00    -0.000 C 
BRANCH  17  18
ATOM     18  C   UNL     1      20.059  12.882  17.696  1.00  0.00    -0.000 C 
BRANCH  18  19
ATOM     19  C   UNL     1      21.385  12.466  18.356  1.00  0.00    -0.003 C 
ATOM     20  C   UNL     1      21.485  12.890  19.821  1.00  0.00     0.004 C 
ENDBRANCH  18  19
ENDBRANCH  17  18
ENDBRANCH  16  17
ENDBRANCH  15  16
ENDBRANCH  14  15
ENDBRANCH  13  14
ENDBRANCH  12  13
ENDBRANCH   1  12
TORSDOF 16
ENDMDL
MODEL 9
REMARK VINA RESULT:    -3.184      2.341      3.562
REMARK INTER + INTRA:          -8.919
REMARK INTER:                  -5.750
REMARK INTRA:                  -3.169
REMARK UNBOUND:                -2.756
REMARK SMILES CCCCCCCCCCCCCCCCCC(=O)[O-]
REMARK SMILES IDX 10 1 11 2 12 3 13 4 14 5 15 6 16 7 17 8 18 9 19 10 20 11
REMARK SMILES IDX 9 12 8 13 7 14 6 15 5 16 4 17 3 18 2 19 1 20
REMARK H PARENT
REMARK Flexibility Score: inf
ROOT
ATOM      1  C   UNL     1      17.749  14.532  15.621  1.00  0.00     0.000 C 
ENDROOT
BRANCH   1   2
ATOM      2  C   UNL     1      19.184  14.954  15.259  1.00  0.00     0.000 C 
BRANCH   2   3
ATOM      3  C   UNL     1      20.249  14.041  15.890  1.00  0.00     0.000 C 
BRANCH   3   4
ATOM      4  C   UNL     1      19.785  13.275  17.145  1.00  0.00     0.000 C 
BRANCH   4   5
ATOM      5  C   UNL     1      20.823  12.305  17.743  1.00  0.00     0.000 C 
BRANCH   5   6
ATOM      6  C   UNL     1      21.749  12.918  18.809  1.00  0.00     0.000 C 
BRANCH   6   7
ATOM      7  C   UNL     1      21.116  12.936  20.211  1.00  0.00     0.006 C 
BRANCH   7   8
ATOM      8  C   UNL     1      21.755  13.993  21.121  1.00  0.00     0.053 C 
BRANCH   8   9
ATOM      9  C   UNL     1      21.099  14.039  22.467  1.00  0.00     0.041 C 
ATOM     10  O   UNL     1      20.540  15.094  22.865  1.00  0.00    -0.550 OA
ATOM     11  O   UNL     1      21.087  12.908  23.273  1.00  0.00    -0.550 OA
ENDBRANCH   8   9
ENDBRANCH   7   8
ENDBRANCH   6   7
ENDBRANCH   5   6
ENDBRANCH   4   5
ENDBRANCH   3   4
ENDBRANCH   2   3
ENDBRANCH   1   2
BRANCH   1  12
ATOM     12  C   UNL     1      16.985  15.627  16.382  1.00  0.00     0.000 C 
BRANCH  12  13
ATOM     13  C   UNL     1      17.779  16.937  16.487  1.00  0.00    -0.000 C 
BRANCH  13  14
ATOM     14  C   UNL     1      17.745  17.487  17.918  1.00  0.00    -0.000 C 
BRANCH  14  15
ATOM     15  C   UNL     1      17.627  16.350  18.941  1.00  0.00    -0.000 C 
BRANCH  15  16
ATOM     16  C   UNL     1      19.007  15.939  19.468  1.00  0.00    -0.000 C 
BRANCH  16  17
ATOM     17  C   UNL     1      19.737  17.139  20.091  1.00  0.00    -0.000 C 
BRANCH  17  18
ATOM     18  C   UNL     1      21.156  17.335  19.527  1.00  0.00    -0.000 C 
BRANCH  18  19
ATOM     19  C   UNL     1      21.451  16.561  18.230  1.00  0.00    -0.003 C 
ATOM     20  C   UNL     1      21.450  17.450  16.988  1.00  0.00     0.004 C 
ENDBRANCH  18  19
ENDBRANCH  17  18
ENDBRANCH  16  17
ENDBRANCH  15  16
ENDBRANCH  14  15
ENDBRANCH  13  14
ENDBRANCH  12  13
ENDBRANCH   1  12
TORSDOF 16
ENDMDL
