MODEL 1
REMARK VINA RESULT:    -5.606      0.000      0.000
REMARK INTER + INTRA:         -11.974
REMARK INTER:                 -10.849
REMARK INTRA:                  -1.126
REMARK UNBOUND:                -1.126
REMARK SMILES CCCCCCCCCCCCCCCCCC(=O)[O-]
REMARK SMILES IDX 10 1 11 2 12 3 13 4 14 5 15 6 16 7 17 8 18 9 19 10 20 11
REMARK SMILES IDX 9 12 8 13 7 14 6 15 5 16 4 17 3 18 2 19 1 20
REMARK H PARENT
REMARK Flexibility Score: inf
ROOT
ATOM      1  C   UNL     1      13.529   7.356 -20.435  1.00  0.00     0.000 C 
ENDROOT
BRANCH   1   2
ATOM      2  C   UNL     1      14.708   6.487 -20.888  1.00  0.00     0.000 C 
BRANCH   2   3
ATOM      3  C   UNL     1      15.766   7.327 -21.612  1.00  0.00     0.000 C 
BRANCH   3   4
ATOM      4  C   UNL     1      15.233   8.728 -21.933  1.00  0.00     0.000 C 
BRANCH   4   5
ATOM      5  C   UNL     1      16.377   9.745 -22.025  1.00  0.00     0.000 C 
BRANCH   5   6
ATOM      6  C   UNL     1      17.433   9.486 -20.940  1.00  0.00     0.000 C 
BRANCH   6   7
ATOM      7  C   UNL     1      18.144  10.769 -20.471  1.00  0.00     0.006 C 
BRANCH   7   8
ATOM      8  C   UNL     1      17.320  12.052 -20.680  1.00  0.00     0.053 C 
BRANCH   8   9
ATOM      9  C   UNL     1      17.802  13.193 -19.835  1.00  0.00     0.041 C 
ATOM     10  O   UNL     1      16.979  13.995 -19.321  1.00  0.00    -0.550 OA
ATOM     11  O   UNL     1      19.164  13.389 -19.644  1.00  0.00    -0.550 OA
ENDBRANCH   8   9
ENDBRANCH   7   8
ENDBRANCH   6   7
ENDBRANCH   5   6
ENDBRANCH   4   5
ENDBRANCH   3   4
ENDBRANCH   2   3
ENDBRANCH   1   2
BRANCH   1  12
ATOM     12  C   UNL     1      13.232   7.149 -18.946  1.00  0.00     0.000 C 
BRANCH  12  13
ATOM     13  C   UNL     1      12.511   8.366 -18.353  1.00  0.00    -0.000 C 
BRANCH  13  14
ATOM     14  C   UNL     1      11.597   9.026 -19.397  1.00  0.00    -0.000 C 
BRANCH  14  15
ATOM     15  C   UNL     1      10.799  10.207 -18.824  1.00  0.00    -0.000 C 
BRANCH  15  16
ATOM     16  C   UNL     1      10.583  11.329 -19.851  1.00  0.00    -0.000 C 
BRANCH  16  17
ATOM     17  C   UNL     1       9.890  12.536 -19.208  1.00  0.00    -0.000 C 
BRANCH  17  18
ATOM     18  C   UNL     1      10.363  12.737 -17.763  1.00  0.00    -0.000 C 
BRANCH  18  19
ATOM     19  C   UNL     1       9.514  13.795 -17.048  1.00  0.00    -0.003 C 
ATOM     20  C   UNL     1       9.320  15.030 -17.924  1.00  0.00     0.004 C 
ENDBRANCH  18  19
ENDBRANCH  17  18
ENDBRANCH  16  17
ENDBRANCH  15  16
ENDBRANCH  14  15
ENDBRANCH  13  14
ENDBRANCH  12  13
ENDBRANCH   1  12
TORSDOF 16
ENDMDL
MODEL 2
REMARK VINA RESULT:    -5.496      1.780      3.399
REMARK INTER + INTRA:         -11.763
REMARK INTER:                 -10.682
REMARK INTRA:                  -1.081
REMARK UNBOUND:                -1.126
REMARK SMILES CCCCCCCCCCCCCCCCCC(=O)[O-]
REMARK SMILES IDX 10 1 11 2 12 3 13 4 14 5 15 6 16 7 17 8 18 9 19 10 20 11
REMARK SMILES IDX 9 12 8 13 7 14 6 15 5 16 4 17 3 18 2 19 1 20
REMARK H PARENT
REMARK Flexibility Score: inf
ROOT
ATOM      1  C   UNL     1      11.640   8.811 -19.215  1.00  0.00     0.000 C 
ENDROOT
BRANCH   1   2
ATOM      2  C   UNL     1      12.541   8.253 -18.107  1.00  0.00     0.000 C 
BRANCH   2   3
ATOM      3  C   UNL     1      13.415   7.107 -18.632  1.00  0.00     0.000 C 
BRANCH   3   4
ATOM      4  C   UNL     1      13.510   7.142 -20.161  1.00  0.00     0.000 C 
BRANCH   4   5
ATOM      5  C   UNL     1      14.912   6.740 -20.635  1.00  0.00     0.000 C 
BRANCH   5   6
ATOM      6  C   UNL     1      15.410   7.681 -21.743  1.00  0.00     0.000 C 
BRANCH   6   7
ATOM      7  C   UNL     1      16.475   8.679 -21.253  1.00  0.00     0.006 C 
BRANCH   7   8
ATOM      8  C   UNL     1      16.905   8.467 -19.791  1.00  0.00     0.053 C 
BRANCH   8   9
ATOM      9  C   UNL     1      17.934   9.460 -19.341  1.00  0.00     0.041 C 
ATOM     10  O   UNL     1      17.691  10.695 -19.388  1.00  0.00    -0.550 OA
ATOM     11  O   UNL     1      19.177   9.021 -18.899  1.00  0.00    -0.550 OA
ENDBRANCH   8   9
ENDBRANCH   7   8
ENDBRANCH   6   7
ENDBRANCH   5   6
ENDBRANCH   4   5
ENDBRANCH   3   4
ENDBRANCH   2   3
ENDBRANCH   1   2
BRANCH   1  12
ATOM     12  C   UNL     1      10.904  10.070 -18.745  1.00  0.00     0.000 C 
BRANCH  12  13
ATOM     13  C   UNL     1      10.740  11.074 -19.892  1.00  0.00    -0.000 C 
BRANCH  13  14
ATOM     14  C   UNL     1       9.591  12.053 -19.606  1.00  0.00    -0.000 C 
BRANCH  14  15
ATOM     15  C   UNL     1       8.569  12.118 -20.751  1.00  0.00    -0.000 C 
BRANCH  15  16
ATOM     16  C   UNL     1       7.955  13.516 -20.920  1.00  0.00    -0.000 C 
BRANCH  16  17
ATOM     17  C   UNL     1       8.987  14.608 -20.612  1.00  0.00    -0.000 C 
BRANCH  17  18
ATOM     18  C   UNL     1       8.364  15.734 -19.777  1.00  0.00    -0.000 C 
BRANCH  18  19
ATOM     19  C   UNL     1       9.278  16.122 -18.609  1.00  0.00    -0.003 C 
ATOM     20  C   UNL     1       9.323  15.020 -17.554  1.00  0.00     0.004 C 
ENDBRANCH  18  19
ENDBRANCH  17  18
ENDBRANCH  16  17
ENDBRANCH  15  16
ENDBRANCH  14  15
ENDBRANCH  13  14
ENDBRANCH  12  13
ENDBRANCH   1  12
TORSDOF 16
ENDMDL
MODEL 3
REMARK VINA RESULT:    -5.476      2.884      4.266
REMARK INTER + INTRA:         -11.724
REMARK INTER:                 -10.889
REMARK INTRA:                  -0.834
REMARK UNBOUND:                -1.126
REMARK SMILES CCCCCCCCCCCCCCCCCC(=O)[O-]
REMARK SMILES IDX 10 1 11 2 12 3 13 4 14 5 15 6 16 7 17 8 18 9 19 10 20 11
REMARK SMILES IDX 9 12 8 13 7 14 6 15 5 16 4 17 3 18 2 19 1 20
REMARK H PARENT
REMARK Flexibility Score: inf
ROOT
ATOM      1  C   UNL     1      11.770   9.206 -19.638  1.00  0.00     0.000 C 
ENDROOT
BRANCH   1   2
ATOM      2  C   UNL     1      12.210   8.294 -18.487  1.00  0.00     0.000 C 
BRANCH   2   3
ATOM      3  C   UNL     1      13.197   7.228 -18.975  1.00  0.00     0.000 C 
BRANCH   3   4
ATOM      4  C   UNL     1      13.458   7.366 -20.479  1.00  0.00     0.000 C 
BRANCH   4   5
ATOM      5  C   UNL     1      14.817   6.766 -20.860  1.00  0.00     0.000 C 
BRANCH   5   6
ATOM      6  C   UNL     1      15.589   7.702 -21.802  1.00  0.00     0.000 C 
BRANCH   6   7
ATOM      7  C   UNL     1      16.451   8.735 -21.054  1.00  0.00     0.006 C 
BRANCH   7   8
ATOM      8  C   UNL     1      16.793   8.333 -19.609  1.00  0.00     0.053 C 
BRANCH   8   9
ATOM      9  C   UNL     1      17.708   9.313 -18.937  1.00  0.00     0.041 C 
ATOM     10  O   UNL     1      18.426   8.952 -17.967  1.00  0.00    -0.550 OA
ATOM     11  O   UNL     1      17.741  10.636 -19.361  1.00  0.00    -0.550 OA
ENDBRANCH   8   9
ENDBRANCH   7   8
ENDBRANCH   6   7
ENDBRANCH   5   6
ENDBRANCH   4   5
ENDBRANCH   3   4
ENDBRANCH   2   3
ENDBRANCH   1   2
BRANCH   1  12
ATOM     12  C   UNL     1      10.710  10.210 -19.171  1.00  0.00     0.000 C 
BRANCH  12  13
ATOM     13  C   UNL     1      10.797  11.516 -19.970  1.00  0.00    -0.000 C 
BRANCH  13  14
ATOM     14  C   UNL     1       9.397  12.026 -20.345  1.00  0.00    -0.000 C 
BRANCH  14  15
ATOM     15  C   UNL     1       9.116  13.436 -19.803  1.00  0.00    -0.000 C 
BRANCH  15  16
ATOM     16  C   UNL     1       8.417  14.338 -20.832  1.00  0.00    -0.000 C 
BRANCH  16  17
ATOM     17  C   UNL     1       7.074  13.737 -21.265  1.00  0.00    -0.000 C 
BRANCH  17  18
ATOM     18  C   UNL     1       6.074  14.838 -21.640  1.00  0.00    -0.000 C 
BRANCH  18  19
ATOM     19  C   UNL     1       4.883  14.259 -22.412  1.00  0.00    -0.003 C 
ATOM     20  C   UNL     1       5.157  12.824 -22.855  1.00  0.00     0.004 C 
ENDBRANCH  18  19
ENDBRANCH  17  18
ENDBRANCH  16  17
ENDBRANCH  15  16
ENDBRANCH  14  15
ENDBRANCH  13  14
ENDBRANCH  12  13
ENDBRANCH   1  12
TORSDOF 16
ENDMDL
MODEL 4
REMARK VINA RESULT:    -5.433      1.734      3.465
REMARK INTER + INTRA:         -11.640
REMARK INTER:                 -10.736
REMARK INTRA:                  -0.905
REMARK UNBOUND:                -1.126
REMARK SMILES CCCCCCCCCCCCCCCCCC(=O)[O-]
REMARK SMILES IDX 10 1 11 2 12 3 13 4 14 5 15 6 16 7 17 8 18 9 19 10 20 11
REMARK SMILES IDX 9 12 8 13 7 14 6 15 5 16 4 17 3 18 2 19 1 20
REMARK H PARENT
REMARK Flexibility Score: inf
ROOT
ATOM      1  C   UNL     1      11.786   9.054 -19.500  1.00  0.00     0.000 C 
ENDROOT
BRANCH   1   2
ATOM      2  C   UNL     1      12.369   8.303 -18.297  1.00  0.00     0.000 C 
BRANCH   2   3
ATOM      3  C   UNL     1      13.265   7.145 -18.751  1.00  0.00     0.000 C 
BRANCH   3   4
ATOM      4  C   UNL     1      13.436   7.146 -20.274  1.00  0.00     0.000 C 
BRANCH   4   5
ATOM      5  C   UNL     1      14.868   6.764 -20.668  1.00  0.00     0.000 C 
BRANCH   5   6
ATOM      6  C   UNL     1      15.415   7.713 -21.745  1.00  0.00     0.000 C 
BRANCH   6   7
ATOM      7  C   UNL     1      16.533   8.636 -21.226  1.00  0.00     0.006 C 
BRANCH   7   8
ATOM      8  C   UNL     1      16.840   8.463 -19.728  1.00  0.00     0.053 C 
BRANCH   8   9
ATOM      9  C   UNL     1      17.861   9.441 -19.230  1.00  0.00     0.041 C 
ATOM     10  O   UNL     1      17.662  10.680 -19.340  1.00  0.00    -0.550 OA
ATOM     11  O   UNL     1      19.049   8.983 -18.673  1.00  0.00    -0.550 OA
ENDBRANCH   8   9
ENDBRANCH   7   8
ENDBRANCH   6   7
ENDBRANCH   5   6
ENDBRANCH   4   5
ENDBRANCH   3   4
ENDBRANCH   2   3
ENDBRANCH   1   2
BRANCH   1  12
ATOM     12  C   UNL     1      10.825  10.159 -19.047  1.00  0.00     0.000 C 
BRANCH  12  13
ATOM     13  C   UNL     1      10.805  11.317 -20.052  1.00  0.00    -0.000 C 
BRANCH  13  14
ATOM     14  C   UNL     1       9.602  12.240 -19.803  1.00  0.00    -0.000 C 
BRANCH  14  15
ATOM     15  C   UNL     1       9.804  13.166 -18.594  1.00  0.00    -0.000 C 
BRANCH  15  16
ATOM     16  C   UNL     1       9.324  14.601 -18.859  1.00  0.00    -0.000 C 
BRANCH  16  17
ATOM     17  C   UNL     1       9.284  15.415 -17.560  1.00  0.00    -0.000 C 
BRANCH  17  18
ATOM     18  C   UNL     1       9.464  14.509 -16.337  1.00  0.00    -0.000 C 
BRANCH  18  19
ATOM     19  C   UNL     1       9.752  15.335 -15.078  1.00  0.00    -0.003 C 
ATOM     20  C   UNL     1       8.606  15.231 -14.075  1.00  0.00     0.004 C 
ENDBRANCH  18  19
ENDBRANCH  17  18
ENDBRANCH  16  17
ENDBRANCH  15  16
ENDBRANCH  14  15
ENDBRANCH  13  14
ENDBRANCH  12  13
ENDBRANCH   1  12
TORSDOF 16
ENDMDL
MODEL 5
REMARK VINA RESULT:    -5.408      1.238      1.828
REMARK INTER + INTRA:         -11.592
REMARK INTER:                 -10.499
REMARK INTRA:                  -1.093
REMARK UNBOUND:                -1.126
REMARK SMILES CCCCCCCCCCCCCCCCCC(=O)[O-]
REMARK SMILES IDX 10 1 11 2 12 3 13 4 14 5 15 6 16 7 17 8 18 9 19 10 20 11
REMARK SMILES IDX 9 12 8 13 7 14 6 15 5 16 4 17 3 18 2 19 1 20
REMARK H PARENT
REMARK Flexibility Score: inf
ROOT
ATOM      1  C   UNL     1      14.568   7.140 -20.403  1.00  0.00     0.000 C 
ENDROOT
BRANCH   1   2
ATOM      2  C   UNL     1      15.404   7.476 -21.644  1.00  0.00     0.000 C 
BRANCH   2   3
ATOM      3  C   UNL     1      16.608   8.351 -21.277  1.00  0.00     0.000 C 
BRANCH   3   4
ATOM      4  C   UNL     1      16.774   8.451 -19.757  1.00  0.00     0.000 C 
BRANCH   4   5
ATOM      5  C   UNL     1      17.826   9.503 -19.385  1.00  0.00     0.000 C 
BRANCH   5   6
ATOM      6  C   UNL     1      18.837   9.698 -20.524  1.00  0.00     0.000 C 
BRANCH   6   7
ATOM      7  C   UNL     1      19.250  11.168 -20.721  1.00  0.00     0.006 C 
BRANCH   7   8
ATOM      8  C   UNL     1      18.073  12.113 -21.017  1.00  0.00     0.053 C 
BRANCH   8   9
ATOM      9  C   UNL     1      17.924  13.193 -19.987  1.00  0.00     0.041 C 
ATOM     10  O   UNL     1      16.785  13.646 -19.700  1.00  0.00    -0.550 OA
ATOM     11  O   UNL     1      19.050  13.722 -19.368  1.00  0.00    -0.550 OA
ENDBRANCH   8   9
ENDBRANCH   7   8
ENDBRANCH   6   7
ENDBRANCH   5   6
ENDBRANCH   4   5
ENDBRANCH   3   4
ENDBRANCH   2   3
ENDBRANCH   1   2
BRANCH   1  12
ATOM     12  C   UNL     1      13.212   7.853 -20.443  1.00  0.00     0.000 C 
BRANCH  12  13
ATOM     13  C   UNL     1      12.380   7.525 -19.198  1.00  0.00    -0.000 C 
BRANCH  13  14
ATOM     14  C   UNL     1      12.174   8.775 -18.329  1.00  0.00    -0.000 C 
BRANCH  14  15
ATOM     15  C   UNL     1      11.156   9.755 -18.933  1.00  0.00    -0.000 C 
BRANCH  15  16
ATOM     16  C   UNL     1      10.806  10.908 -17.979  1.00  0.00    -0.000 C 
BRANCH  16  17
ATOM     17  C   UNL     1      10.421  12.170 -18.761  1.00  0.00    -0.000 C 
BRANCH  17  18
ATOM     18  C   UNL     1       9.967  11.819 -20.183  1.00  0.00    -0.000 C 
BRANCH  18  19
ATOM     19  C   UNL     1       8.637  12.504 -20.520  1.00  0.00    -0.003 C 
ATOM     20  C   UNL     1       8.819  14.011 -20.682  1.00  0.00     0.004 C 
ENDBRANCH  18  19
ENDBRANCH  17  18
ENDBRANCH  16  17
ENDBRANCH  15  16
ENDBRANCH  14  15
ENDBRANCH  13  14
ENDBRANCH  12  13
ENDBRANCH   1  12
TORSDOF 16
ENDMDL
MODEL 6
REMARK VINA RESULT:    -5.295      3.256      7.262
REMARK INTER + INTRA:         -11.373
REMARK INTER:                 -10.147
REMARK INTRA:                  -1.226
REMARK UNBOUND:                -1.126
REMARK SMILES CCCCCCCCCCCCCCCCCC(=O)[O-]
REMARK SMILES IDX 10 1 11 2 12 3 13 4 14 5 15 6 16 7 17 8 18 9 19 10 20 11
REMARK SMILES IDX 9 12 8 13 7 14 6 15 5 16 4 17 3 18 2 19 1 20
REMARK H PARENT
REMARK Flexibility Score: inf
ROOT
ATOM      1  C   UNL     1      14.855   6.828 -20.614  1.00  0.00     0.000 C 
ENDROOT
BRANCH   1   2
ATOM      2  C   UNL     1      13.427   7.075 -20.116  1.00  0.00     0.000 C 
BRANCH   2   3
ATOM      3  C   UNL     1      13.402   7.294 -18.599  1.00  0.00     0.000 C 
BRANCH   3   4
ATOM      4  C   UNL     1      12.326   8.313 -18.206  1.00  0.00     0.000 C 
BRANCH   4   5
ATOM      5  C   UNL     1      11.822   9.082 -19.433  1.00  0.00     0.000 C 
BRANCH   5   6
ATOM      6  C   UNL     1      10.754  10.112 -19.037  1.00  0.00     0.000 C 
BRANCH   6   7
ATOM      7  C   UNL     1      10.751  11.358 -19.942  1.00  0.00     0.006 C 
BRANCH   7   8
ATOM      8  C   UNL     1       9.788  12.465 -19.479  1.00  0.00     0.053 C 
BRANCH   8   9
ATOM      9  C   UNL     1       8.796  12.849 -20.535  1.00  0.00     0.041 C 
ATOM     10  O   UNL     1       8.019  11.986 -21.022  1.00  0.00    -0.550 OA
ATOM     11  O   UNL     1       8.753  14.156 -21.006  1.00  0.00    -0.550 OA
ENDBRANCH   8   9
ENDBRANCH   7   8
ENDBRANCH   6   7
ENDBRANCH   5   6
ENDBRANCH   4   5
ENDBRANCH   3   4
ENDBRANCH   2   3
ENDBRANCH   1   2
BRANCH   1  12
ATOM     12  C   UNL     1      15.225   7.807 -21.735  1.00  0.00     0.000 C 
BRANCH  12  13
ATOM     13  C   UNL     1      16.513   8.568 -21.399  1.00  0.00    -0.000 C 
BRANCH  13  14
ATOM     14  C   UNL     1      16.831   8.476 -19.899  1.00  0.00    -0.000 C 
BRANCH  14  15
ATOM     15  C   UNL     1      17.942   9.446 -19.468  1.00  0.00    -0.000 C 
BRANCH  15  16
ATOM     16  C   UNL     1      19.197   9.338 -20.348  1.00  0.00    -0.000 C 
BRANCH  16  17
ATOM     17  C   UNL     1      19.753  10.727 -20.682  1.00  0.00    -0.000 C 
BRANCH  17  18
ATOM     18  C   UNL     1      18.637  11.671 -21.145  1.00  0.00    -0.000 C 
BRANCH  18  19
ATOM     19  C   UNL     1      18.570  12.920 -20.259  1.00  0.00    -0.003 C 
ATOM     20  C   UNL     1      17.205  13.597 -20.362  1.00  0.00     0.004 C 
ENDBRANCH  18  19
ENDBRANCH  17  18
ENDBRANCH  16  17
ENDBRANCH  15  16
ENDBRANCH  14  15
ENDBRANCH  13  14
ENDBRANCH  12  13
ENDBRANCH   1  12
TORSDOF 16
ENDMDL
MODEL 7
REMARK VINA RESULT:    -5.217      3.219      7.640
REMARK INTER + INTRA:         -11.222
REMARK INTER:                  -9.980
REMARK INTRA:                  -1.242
REMARK UNBOUND:                -1.126
REMARK SMILES CCCCCCCCCCCCCCCCCC(=O)[O-]
REMARK SMILES IDX 10 1 11 2 12 3 13 4 14 5 15 6 16 7 17 8 18 9 19 10 20 11
REMARK SMILES IDX 9 12 8 13 7 14 6 15 5 16 4 17 3 18 2 19 1 20
REMARK H PARENT
REMARK Flexibility Score: inf
ROOT
ATOM      1  C   UNL     1      15.400   7.847 -21.886  1.00  0.00     0.000 C 
ENDROOT
BRANCH   1   2
ATOM      2  C   UNL     1      14.962   6.843 -20.813  1.00  0.00     0.000 C 
BRANCH   2   3
ATOM      3  C   UNL     1      13.497   7.063 -20.417  1.00  0.00     0.000 C 
BRANCH   3   4
ATOM      4  C   UNL     1      13.375   7.410 -18.929  1.00  0.00     0.000 C 
BRANCH   4   5
ATOM      5  C   UNL     1      12.043   8.111 -18.635  1.00  0.00     0.000 C 
BRANCH   5   6
ATOM      6  C   UNL     1      11.720   9.156 -19.713  1.00  0.00     0.000 C 
BRANCH   6   7
ATOM      7  C   UNL     1      10.751  10.248 -19.224  1.00  0.00     0.006 C 
BRANCH   7   8
ATOM      8  C   UNL     1      10.784  11.535 -20.066  1.00  0.00     0.053 C 
BRANCH   8   9
ATOM      9  C   UNL     1       9.497  12.302 -20.003  1.00  0.00     0.041 C 
ATOM     10  O   UNL     1       8.555  12.030 -20.793  1.00  0.00    -0.550 OA
ATOM     11  O   UNL     1       9.351  13.340 -19.091  1.00  0.00    -0.550 OA
ENDBRANCH   8   9
ENDBRANCH   7   8
ENDBRANCH   6   7
ENDBRANCH   5   6
ENDBRANCH   4   5
ENDBRANCH   3   4
ENDBRANCH   2   3
ENDBRANCH   1   2
BRANCH   1  12
ATOM     12  C   UNL     1      16.591   8.683 -21.404  1.00  0.00     0.000 C 
BRANCH  12  13
ATOM     13  C   UNL     1      16.809   8.515 -19.896  1.00  0.00    -0.000 C 
BRANCH  13  14
ATOM     14  C   UNL     1      17.878   9.492 -19.382  1.00  0.00    -0.000 C 
BRANCH  14  15
ATOM     15  C   UNL     1      19.207   9.370 -20.143  1.00  0.00    -0.000 C 
BRANCH  15  16
ATOM     16  C   UNL     1      19.815  10.737 -20.494  1.00  0.00    -0.000 C 
BRANCH  16  17
ATOM     17  C   UNL     1      19.809  10.967 -22.010  1.00  0.00    -0.000 C 
BRANCH  17  18
ATOM     18  C   UNL     1      18.612  11.828 -22.432  1.00  0.00    -0.000 C 
BRANCH  18  19
ATOM     19  C   UNL     1      18.279  11.621 -23.914  1.00  0.00    -0.003 C 
ATOM     20  C   UNL     1      19.540  11.660 -24.773  1.00  0.00     0.004 C 
ENDBRANCH  18  19
ENDBRANCH  17  18
ENDBRANCH  16  17
ENDBRANCH  15  16
ENDBRANCH  14  15
ENDBRANCH  13  14
ENDBRANCH  12  13
ENDBRANCH   1  12
TORSDOF 16
ENDMDL
MODEL 8
REMARK VINA RESULT:    -5.138      2.991      7.884
REMARK INTER + INTRA:         -11.069
REMARK INTER:                 -10.016
REMARK INTRA:                  -1.053
REMARK UNBOUND:                -1.126
REMARK SMILES CCCCCCCCCCCCCCCCCC(=O)[O-]
REMARK SMILES IDX 10 1 11 2 12 3 13 4 14 5 15 6 16 7 17 8 18 9 19 10 20 11
REMARK SMILES IDX 9 12 8 13 7 14 6 15 5 16 4 17 3 18 2 19 1 20
REMARK H PARENT
REMARK Flexibility Score: inf
ROOT
ATOM      1  C   UNL     1      10.758  10.214 -18.945  1.00  0.00     0.000 C 
ENDROOT
BRANCH   1   2
ATOM      2  C   UNL     1      10.731  11.409 -19.905  1.00  0.00     0.000 C 
BRANCH   2   3
ATOM      3  C   UNL     1       9.295  11.886 -20.150  1.00  0.00     0.000 C 
BRANCH   3   4
ATOM      4  C   UNL     1       9.279  13.204 -20.934  1.00  0.00     0.000 C 
BRANCH   4   5
ATOM      5  C   UNL     1       7.888  13.849 -20.898  1.00  0.00     0.000 C 
BRANCH   5   6
ATOM      6  C   UNL     1       7.978  15.332 -20.508  1.00  0.00     0.000 C 
BRANCH   6   7
ATOM      7  C   UNL     1       9.242  15.668 -19.697  1.00  0.00     0.006 C 
BRANCH   7   8
ATOM      8  C   UNL     1       8.956  16.125 -18.255  1.00  0.00     0.053 C 
BRANCH   8   9
ATOM      9  C   UNL     1       9.336  15.094 -17.235  1.00  0.00     0.041 C 
ATOM     10  O   UNL     1       9.966  14.060 -17.579  1.00  0.00    -0.550 OA
ATOM     11  O   UNL     1       8.963  15.261 -15.906  1.00  0.00    -0.550 OA
ENDBRANCH   8   9
ENDBRANCH   7   8
ENDBRANCH   6   7
ENDBRANCH   5   6
ENDBRANCH   4   5
ENDBRANCH   3   4
ENDBRANCH   2   3
ENDBRANCH   1   2
BRANCH   1  12
ATOM     12  C   UNL     1      11.610   9.072 -19.511  1.00  0.00     0.000 C 
BRANCH  12  13
ATOM     13  C   UNL     1      12.359   8.337 -18.393  1.00  0.00    -0.000 C 
BRANCH  13  14
ATOM     14  C   UNL     1      13.199   7.182 -18.960  1.00  0.00    -0.000 C 
BRANCH  14  15
ATOM     15  C   UNL     1      13.533   7.367 -20.448  1.00  0.00    -0.000 C 
BRANCH  15  16
ATOM     16  C   UNL     1      14.856   6.696 -20.846  1.00  0.00    -0.000 C 
BRANCH  16  17
ATOM     17  C   UNL     1      15.548   7.472 -21.973  1.00  0.00    -0.000 C 
BRANCH  17  18
ATOM     18  C   UNL     1      16.234   8.733 -21.433  1.00  0.00    -0.000 C 
BRANCH  18  19
ATOM     19  C   UNL     1      16.871   8.469 -20.063  1.00  0.00    -0.003 C 
ATOM     20  C   UNL     1      17.801   9.609 -19.658  1.00  0.00     0.004 C 
ENDBRANCH  18  19
ENDBRANCH  17  18
ENDBRANCH  16  17
ENDBRANCH  15  16
ENDBRANCH  14  15
ENDBRANCH  13  14
ENDBRANCH  12  13
ENDBRANCH   1  12
TORSDOF 16
ENDMDL
MODEL 9
REMARK VINA RESULT:    -5.086      2.050      2.592
REMARK INTER + INTRA:         -10.969
REMARK INTER:                  -9.932
REMARK INTRA:                  -1.038
REMARK UNBOUND:                -1.126
REMARK SMILES CCCCCCCCCCCCCCCCCC(=O)[O-]
REMARK SMILES IDX 10 1 11 2 12 3 13 4 14 5 15 6 16 7 17 8 18 9 19 10 20 11
REMARK SMILES IDX 9 12 8 13 7 14 6 15 5 16 4 17 3 18 2 19 1 20
REMARK H PARENT
REMARK Flexibility Score: inf
ROOT
ATOM      1  C   UNL     1      14.845   6.893 -20.271  1.00  0.00     0.000 C 
ENDROOT
BRANCH   1   2
ATOM      2  C   UNL     1      15.287   7.784 -21.438  1.00  0.00     0.000 C 
BRANCH   2   3
ATOM      3  C   UNL     1      16.726   8.274 -21.243  1.00  0.00     0.000 C 
BRANCH   3   4
ATOM      4  C   UNL     1      16.984   8.658 -19.782  1.00  0.00     0.000 C 
BRANCH   4   5
ATOM      5  C   UNL     1      17.763   9.976 -19.688  1.00  0.00     0.000 C 
BRANCH   5   6
ATOM      6  C   UNL     1      19.073   9.900 -20.486  1.00  0.00     0.000 C 
BRANCH   6   7
ATOM      7  C   UNL     1      19.580  11.279 -20.946  1.00  0.00     0.006 C 
BRANCH   7   8
ATOM      8  C   UNL     1      18.587  12.044 -21.840  1.00  0.00     0.053 C 
BRANCH   8   9
ATOM      9  C   UNL     1      18.585  11.551 -23.256  1.00  0.00     0.041 C 
ATOM     10  O   UNL     1      19.590  11.731 -23.993  1.00  0.00    -0.550 OA
ATOM     11  O   UNL     1      17.458  10.923 -23.771  1.00  0.00    -0.550 OA
ENDBRANCH   8   9
ENDBRANCH   7   8
ENDBRANCH   6   7
ENDBRANCH   5   6
ENDBRANCH   4   5
ENDBRANCH   3   4
ENDBRANCH   2   3
ENDBRANCH   1   2
BRANCH   1  12
ATOM     12  C   UNL     1      13.316   6.819 -20.183  1.00  0.00     0.000 C 
BRANCH  12  13
ATOM     13  C   UNL     1      12.772   7.841 -19.178  1.00  0.00    -0.000 C 
BRANCH  13  14
ATOM     14  C   UNL     1      11.870   8.871 -19.874  1.00  0.00    -0.000 C 
BRANCH  14  15
ATOM     15  C   UNL     1      11.120   9.771 -18.880  1.00  0.00    -0.000 C 
BRANCH  15  16
ATOM     16  C   UNL     1      10.714  11.121 -19.492  1.00  0.00    -0.000 C 
BRANCH  16  17
ATOM     17  C   UNL     1      10.425  12.155 -18.398  1.00  0.00    -0.000 C 
BRANCH  17  18
ATOM     18  C   UNL     1       9.557  13.298 -18.936  1.00  0.00    -0.000 C 
BRANCH  18  19
ATOM     19  C   UNL     1       9.033  12.978 -20.341  1.00  0.00    -0.003 C 
ATOM     20  C   UNL     1       8.118  14.086 -20.855  1.00  0.00     0.004 C 
ENDBRANCH  18  19
ENDBRANCH  17  18
ENDBRANCH  16  17
ENDBRANCH  15  16
ENDBRANCH  14  15
ENDBRANCH  13  14
ENDBRANCH  12  13
ENDBRANCH   1  12
TORSDOF 16
ENDMDL
