MODEL 1
REMARK VINA RESULT:    -7.132      0.000      0.000
REMARK INTER + INTRA:          -8.903
REMARK INTER:                  -8.592
REMARK INTRA:                  -0.311
REMARK UNBOUND:                -0.311
REMARK SMILES O=c1c(O)c(-c2ccc(O)c(O)c2)oc2cc(O)cc(O)c12
REMARK SMILES IDX 5 1 3 2 2 3 1 4 22 5 20 6 19 7 17 8 16 9 15 10 14 11 6 12
REMARK SMILES IDX 7 13 8 14 9 15 13 16 11 17 10 18 12 20 4 22 21 24 18 26
REMARK H PARENT 10 19 12 21 4 23 21 25 18 27
REMARK Flexibility Score: inf
ROOT
ATOM      1  C   UNL     1     -13.888   8.034  11.794  1.00  0.00     0.180 A 
ATOM      2  C   UNL     1     -13.190   8.835  10.870  1.00  0.00     0.208 A 
ATOM      3  C   UNL     1     -12.024   8.326  10.275  1.00  0.00     0.238 A 
ATOM      4  O   UNL     1     -11.397   9.029   9.439  1.00  0.00    -0.285 OA
ATOM      5  C   UNL     1     -11.566   7.040  10.629  1.00  0.00     0.111 A 
ATOM      6  C   UNL     1     -10.400   6.455  10.080  1.00  0.00     0.134 A 
ATOM      7  C   UNL     1     -10.005   5.173  10.490  1.00  0.00     0.093 A 
ATOM      8  C   UNL     1     -10.751   4.467  11.437  1.00  0.00     0.123 A 
ATOM      9  C   UNL     1     -11.905   5.038  11.982  1.00  0.00     0.094 A 
ATOM     10  C   UNL     1     -12.316   6.314  11.585  1.00  0.00     0.146 A 
ATOM     11  O   UNL     1     -13.418   6.832  12.115  1.00  0.00    -0.452 OA
ENDROOT
BRANCH   1  12
ATOM     12  C   UNL     1     -15.134   8.494  12.448  1.00  0.00     0.025 A 
ATOM     13  C   UNL     1     -15.091   8.945  13.777  1.00  0.00     0.016 A 
ATOM     14  C   UNL     1     -16.258   9.363  14.421  1.00  0.00     0.051 A 
ATOM     15  C   UNL     1     -17.489   9.321  13.753  1.00  0.00     0.157 A 
ATOM     16  C   UNL     1     -16.374   8.433  11.788  1.00  0.00     0.062 A 
ATOM     17  C   UNL     1     -17.546   8.849  12.430  1.00  0.00     0.158 A 
BRANCH  15  18
ATOM     18  O   UNL     1     -18.650   9.740  14.398  1.00  0.00    -0.504 OA
ATOM     19  H   UNL     1     -19.393  10.214  13.898  1.00  0.00     0.293 HD
ENDBRANCH  15  18
BRANCH  17  20
ATOM     20  O   UNL     1     -18.757   8.781  11.742  1.00  0.00    -0.504 OA
ATOM     21  H   UNL     1     -18.855   8.268  10.875  1.00  0.00     0.293 HD
ENDBRANCH  17  20
ENDBRANCH   1  12
BRANCH   2  22
ATOM     22  O   UNL     1     -13.637  10.125  10.573  1.00  0.00    -0.502 OA
ATOM     23  H   UNL     1     -13.379  10.607   9.721  1.00  0.00     0.293 HD
ENDBRANCH   2  22
BRANCH   6  24
ATOM     24  O   UNL     1      -9.633   7.135   9.134  1.00  0.00    -0.507 OA
ATOM     25  H   UNL     1      -9.551   6.807   8.179  1.00  0.00     0.293 HD
ENDBRANCH   6  24
BRANCH   8  26
ATOM     26  O   UNL     1     -10.337   3.195  11.827  1.00  0.00    -0.508 OA
ATOM     27  H   UNL     1      -9.479   3.053  12.348  1.00  0.00     0.293 HD
ENDBRANCH   8  26
TORSDOF 6
ENDMDL
MODEL 2
REMARK VINA RESULT:    -6.519      0.728      1.462
REMARK INTER + INTRA:          -8.165
REMARK INTER:                  -7.906
REMARK INTRA:                  -0.259
REMARK UNBOUND:                -0.311
REMARK SMILES O=c1c(O)c(-c2ccc(O)c(O)c2)oc2cc(O)cc(O)c12
REMARK SMILES IDX 5 1 3 2 2 3 1 4 22 5 20 6 19 7 17 8 16 9 15 10 14 11 6 12
REMARK SMILES IDX 7 13 8 14 9 15 13 16 11 17 10 18 12 20 4 22 21 24 18 26
REMARK H PARENT 10 19 12 21 4 23 21 25 18 27
REMARK Flexibility Score: inf
ROOT
ATOM      1  C   UNL     1     -13.767   7.920  11.572  1.00  0.00     0.180 A 
ATOM      2  C   UNL     1     -12.864   8.759  10.892  1.00  0.00     0.208 A 
ATOM      3  C   UNL     1     -11.682   8.206  10.373  1.00  0.00     0.238 A 
ATOM      4  O   UNL     1     -10.871   8.946   9.753  1.00  0.00    -0.285 OA
ATOM      5  C   UNL     1     -11.415   6.834  10.559  1.00  0.00     0.111 A 
ATOM      6  C   UNL     1     -10.247   6.200  10.072  1.00  0.00     0.134 A 
ATOM      7  C   UNL     1     -10.049   4.831  10.306  1.00  0.00     0.093 A 
ATOM      8  C   UNL     1     -10.992   4.087  11.017  1.00  0.00     0.123 A 
ATOM      9  C   UNL     1     -12.149   4.707  11.501  1.00  0.00     0.094 A 
ATOM     10  C   UNL     1     -12.365   6.070  11.276  1.00  0.00     0.146 A 
ATOM     11  O   UNL     1     -13.474   6.633  11.742  1.00  0.00    -0.452 OA
ENDROOT
BRANCH   1  12
ATOM     12  C   UNL     1     -15.041   8.425  12.131  1.00  0.00     0.025 A 
ATOM     13  C   UNL     1     -16.100   8.738  11.263  1.00  0.00     0.016 A 
ATOM     14  C   UNL     1     -17.304   9.236  11.767  1.00  0.00     0.051 A 
ATOM     15  C   UNL     1     -17.462   9.446  13.142  1.00  0.00     0.157 A 
ATOM     16  C   UNL     1     -15.197   8.656  13.509  1.00  0.00     0.062 A 
ATOM     17  C   UNL     1     -16.400   9.158  14.017  1.00  0.00     0.158 A 
BRANCH  15  18
ATOM     18  O   UNL     1     -18.665   9.942  13.642  1.00  0.00    -0.504 OA
ATOM     19  H   UNL     1     -18.723  10.374  14.556  1.00  0.00     0.293 HD
ENDBRANCH  15  18
BRANCH  17  20
ATOM     20  O   UNL     1     -16.522   9.368  15.391  1.00  0.00    -0.504 OA
ATOM     21  H   UNL     1     -17.118   8.793  15.972  1.00  0.00     0.293 HD
ENDBRANCH  17  20
ENDBRANCH   1  12
BRANCH   2  22
ATOM     22  O   UNL     1     -13.129  10.125  10.763  1.00  0.00    -0.502 OA
ATOM     23  H   UNL     1     -12.399  10.806  10.590  1.00  0.00     0.293 HD
ENDBRANCH   2  22
BRANCH   6  24
ATOM     24  O   UNL     1      -9.285   6.917   9.359  1.00  0.00    -0.507 OA
ATOM     25  H   UNL     1      -8.818   7.723   9.758  1.00  0.00     0.293 HD
ENDBRANCH   6  24
BRANCH   8  26
ATOM     26  O   UNL     1     -10.772   2.729  11.237  1.00  0.00    -0.508 OA
ATOM     27  H   UNL     1     -10.342   2.140  10.533  1.00  0.00     0.293 HD
ENDBRANCH   8  26
TORSDOF 6
ENDMDL
MODEL 3
REMARK VINA RESULT:    -6.479      2.001      7.390
REMARK INTER + INTRA:          -8.116
REMARK INTER:                  -7.797
REMARK INTRA:                  -0.319
REMARK UNBOUND:                -0.311
REMARK SMILES O=c1c(O)c(-c2ccc(O)c(O)c2)oc2cc(O)cc(O)c12
REMARK SMILES IDX 5 1 3 2 2 3 1 4 22 5 20 6 19 7 17 8 16 9 15 10 14 11 6 12
REMARK SMILES IDX 7 13 8 14 9 15 13 16 11 17 10 18 12 20 4 22 21 24 18 26
REMARK H PARENT 10 19 12 21 4 23 21 25 18 27
REMARK Flexibility Score: inf
ROOT
ATOM      1  C   UNL     1     -15.743   8.338  11.984  1.00  0.00     0.180 A 
ATOM      2  C   UNL     1     -16.195   8.906  13.192  1.00  0.00     0.208 A 
ATOM      3  C   UNL     1     -17.566   9.166  13.348  1.00  0.00     0.238 A 
ATOM      4  O   UNL     1     -17.983   9.664  14.429  1.00  0.00    -0.285 OA
ATOM      5  C   UNL     1     -18.455   8.876  12.293  1.00  0.00     0.111 A 
ATOM      6  C   UNL     1     -19.849   9.111  12.368  1.00  0.00     0.134 A 
ATOM      7  C   UNL     1     -20.667   8.803  11.271  1.00  0.00     0.093 A 
ATOM      8  C   UNL     1     -20.120   8.268  10.103  1.00  0.00     0.123 A 
ATOM      9  C   UNL     1     -18.744   8.031  10.022  1.00  0.00     0.094 A 
ATOM     10  C   UNL     1     -17.912   8.330  11.106  1.00  0.00     0.146 A 
ATOM     11  O   UNL     1     -16.609   8.092  11.005  1.00  0.00    -0.452 OA
ENDROOT
BRANCH   1  12
ATOM     12  C   UNL     1     -14.317   8.018  11.752  1.00  0.00     0.025 A 
ATOM     13  C   UNL     1     -13.530   8.891  10.984  1.00  0.00     0.016 A 
ATOM     14  C   UNL     1     -12.187   8.598  10.733  1.00  0.00     0.051 A 
ATOM     15  C   UNL     1     -11.615   7.420  11.232  1.00  0.00     0.157 A 
ATOM     16  C   UNL     1     -13.745   6.827  12.234  1.00  0.00     0.062 A 
ATOM     17  C   UNL     1     -12.401   6.529  11.983  1.00  0.00     0.158 A 
BRANCH  15  18
ATOM     18  O   UNL     1     -10.274   7.132  10.982  1.00  0.00    -0.504 OA
ATOM     19  H   UNL     1      -9.663   6.780  11.709  1.00  0.00     0.293 HD
ENDBRANCH  15  18
BRANCH  17  20
ATOM     20  O   UNL     1     -11.865   5.342  12.482  1.00  0.00    -0.504 OA
ATOM     21  H   UNL     1     -11.333   5.313  13.344  1.00  0.00     0.293 HD
ENDBRANCH  17  20
ENDBRANCH   1  12
BRANCH   2  22
ATOM     22  O   UNL     1     -15.287   9.230  14.203  1.00  0.00    -0.502 OA
ATOM     23  H   UNL     1     -15.553   9.270  15.179  1.00  0.00     0.293 HD
ENDBRANCH   2  22
BRANCH   6  24
ATOM     24  O   UNL     1     -20.425   9.647  13.520  1.00  0.00    -0.507 OA
ATOM     25  H   UNL     1     -19.975   9.571  14.425  1.00  0.00     0.293 HD
ENDBRANCH   6  24
BRANCH   8  26
ATOM     26  O   UNL     1     -20.954   7.971   9.027  1.00  0.00    -0.508 OA
ATOM     27  H   UNL     1     -20.663   7.342   8.288  1.00  0.00     0.293 HD
ENDBRANCH   8  26
TORSDOF 6
ENDMDL
MODEL 4
REMARK VINA RESULT:    -6.387      1.877      7.341
REMARK INTER + INTRA:          -8.006
REMARK INTER:                  -7.890
REMARK INTRA:                  -0.116
REMARK UNBOUND:                -0.311
REMARK SMILES O=c1c(O)c(-c2ccc(O)c(O)c2)oc2cc(O)cc(O)c12
REMARK SMILES IDX 5 1 3 2 2 3 1 4 22 5 20 6 19 7 17 8 16 9 15 10 14 11 6 12
REMARK SMILES IDX 7 13 8 14 9 15 13 16 11 17 10 18 12 20 4 22 21 24 18 26
REMARK H PARENT 10 19 12 21 4 23 21 25 18 27
REMARK Flexibility Score: inf
ROOT
ATOM      1  C   UNL     1     -15.781   8.439  12.036  1.00  0.00     0.180 A 
ATOM      2  C   UNL     1     -16.717   8.533  10.989  1.00  0.00     0.208 A 
ATOM      3  C   UNL     1     -18.059   8.806  11.300  1.00  0.00     0.238 A 
ATOM      4  O   UNL     1     -18.904   8.902  10.369  1.00  0.00    -0.285 OA
ATOM      5  C   UNL     1     -18.444   8.958  12.647  1.00  0.00     0.111 A 
ATOM      6  C   UNL     1     -19.775   9.230  13.047  1.00  0.00     0.134 A 
ATOM      7  C   UNL     1     -20.080   9.360  14.409  1.00  0.00     0.093 A 
ATOM      8  C   UNL     1     -19.085   9.222  15.379  1.00  0.00     0.123 A 
ATOM      9  C   UNL     1     -17.767   8.954  14.992  1.00  0.00     0.094 A 
ATOM     10  C   UNL     1     -17.442   8.824  13.638  1.00  0.00     0.146 A 
ATOM     11  O   UNL     1     -16.183   8.574  13.297  1.00  0.00    -0.452 OA
ENDROOT
BRANCH   1  12
ATOM     12  C   UNL     1     -14.346   8.173  11.786  1.00  0.00     0.025 A 
ATOM     13  C   UNL     1     -13.604   9.069  11.001  1.00  0.00     0.016 A 
ATOM     14  C   UNL     1     -12.254   8.827  10.734  1.00  0.00     0.051 A 
ATOM     15  C   UNL     1     -11.630   7.676  11.234  1.00  0.00     0.157 A 
ATOM     16  C   UNL     1     -13.721   7.009  12.269  1.00  0.00     0.062 A 
ATOM     17  C   UNL     1     -12.370   6.761  12.002  1.00  0.00     0.158 A 
BRANCH  15  18
ATOM     18  O   UNL     1     -10.283   7.439  10.968  1.00  0.00    -0.504 OA
ATOM     19  H   UNL     1      -9.969   7.118  10.060  1.00  0.00     0.293 HD
ENDBRANCH  15  18
BRANCH  17  20
ATOM     20  O   UNL     1     -11.782   5.600  12.503  1.00  0.00    -0.504 OA
ATOM     21  H   UNL     1     -12.264   4.989  13.151  1.00  0.00     0.293 HD
ENDBRANCH  17  20
ENDBRANCH   1  12
BRANCH   2  22
ATOM     22  O   UNL     1     -16.319   8.329   9.665  1.00  0.00    -0.502 OA
ATOM     23  H   UNL     1     -16.599   7.514   9.133  1.00  0.00     0.293 HD
ENDBRANCH   2  22
BRANCH   6  24
ATOM     24  O   UNL     1     -20.792   9.372  12.102  1.00  0.00    -0.507 OA
ATOM     25  H   UNL     1     -21.769   9.405  12.372  1.00  0.00     0.293 HD
ENDBRANCH   6  24
BRANCH   8  26
ATOM     26  O   UNL     1     -19.414   9.354  16.725  1.00  0.00    -0.508 OA
ATOM     27  H   UNL     1     -19.118   8.672  17.414  1.00  0.00     0.293 HD
ENDBRANCH   8  26
TORSDOF 6
ENDMDL
MODEL 5
REMARK VINA RESULT:    -6.316      1.458      2.296
REMARK INTER + INTRA:          -7.920
REMARK INTER:                  -7.628
REMARK INTRA:                  -0.292
REMARK UNBOUND:                -0.311
REMARK SMILES O=c1c(O)c(-c2ccc(O)c(O)c2)oc2cc(O)cc(O)c12
REMARK SMILES IDX 5 1 3 2 2 3 1 4 22 5 20 6 19 7 17 8 16 9 15 10 14 11 6 12
REMARK SMILES IDX 7 13 8 14 9 15 13 16 11 17 10 18 12 20 4 22 21 24 18 26
REMARK H PARENT 10 19 12 21 4 23 21 25 18 27
REMARK Flexibility Score: inf
ROOT
ATOM      1  C   UNL     1     -13.028   7.021  10.792  1.00  0.00     0.180 A 
ATOM      2  C   UNL     1     -11.919   7.871  10.618  1.00  0.00     0.208 A 
ATOM      3  C   UNL     1     -10.652   7.300  10.420  1.00  0.00     0.238 A 
ATOM      4  O   UNL     1      -9.653   8.052  10.252  1.00  0.00    -0.285 OA
ATOM      5  C   UNL     1     -10.511   5.897  10.419  1.00  0.00     0.111 A 
ATOM      6  C   UNL     1      -9.270   5.243  10.231  1.00  0.00     0.134 A 
ATOM      7  C   UNL     1      -9.212   3.842  10.253  1.00  0.00     0.093 A 
ATOM      8  C   UNL     1     -10.366   3.084  10.460  1.00  0.00     0.123 A 
ATOM      9  C   UNL     1     -11.596   3.724  10.646  1.00  0.00     0.094 A 
ATOM     10  C   UNL     1     -11.675   5.120  10.626  1.00  0.00     0.146 A 
ATOM     11  O   UNL     1     -12.856   5.702  10.801  1.00  0.00    -0.452 OA
ENDROOT
BRANCH   1  12
ATOM     12  C   UNL     1     -14.399   7.547  10.987  1.00  0.00     0.025 A 
ATOM     13  C   UNL     1     -15.273   7.620   9.891  1.00  0.00     0.016 A 
ATOM     14  C   UNL     1     -16.563   8.132  10.048  1.00  0.00     0.051 A 
ATOM     15  C   UNL     1     -16.993   8.596  11.298  1.00  0.00     0.157 A 
ATOM     16  C   UNL     1     -14.826   8.032  12.236  1.00  0.00     0.062 A 
ATOM     17  C   UNL     1     -16.117   8.549  12.396  1.00  0.00     0.158 A 
BRANCH  15  18
ATOM     18  O   UNL     1     -18.281   9.105  11.452  1.00  0.00    -0.504 OA
ATOM     19  H   UNL     1     -18.795   8.998  12.318  1.00  0.00     0.293 HD
ENDBRANCH  15  18
BRANCH  17  20
ATOM     20  O   UNL     1     -16.510   9.015  13.651  1.00  0.00    -0.504 OA
ATOM     21  H   UNL     1     -16.988   9.900  13.770  1.00  0.00     0.293 HD
ENDBRANCH  17  20
ENDBRANCH   1  12
BRANCH   2  22
ATOM     22  O   UNL     1     -12.077   9.258  10.671  1.00  0.00    -0.502 OA
ATOM     23  H   UNL     1     -12.987   9.700  10.723  1.00  0.00     0.293 HD
ENDBRANCH   2  22
BRANCH   6  24
ATOM     24  O   UNL     1      -8.099   5.973  10.022  1.00  0.00    -0.507 OA
ATOM     25  H   UNL     1      -7.759   6.640  10.705  1.00  0.00     0.293 HD
ENDBRANCH   6  24
BRANCH   8  26
ATOM     26  O   UNL     1     -10.281   1.694  10.478  1.00  0.00    -0.508 OA
ATOM     27  H   UNL     1     -10.482   1.160  11.316  1.00  0.00     0.293 HD
ENDBRANCH   8  26
TORSDOF 6
ENDMDL
MODEL 6
REMARK VINA RESULT:    -6.307      1.962      6.974
REMARK INTER + INTRA:          -7.908
REMARK INTER:                  -7.924
REMARK INTRA:                   0.016
REMARK UNBOUND:                -0.311
REMARK SMILES O=c1c(O)c(-c2ccc(O)c(O)c2)oc2cc(O)cc(O)c12
REMARK SMILES IDX 5 1 3 2 2 3 1 4 22 5 20 6 19 7 17 8 16 9 15 10 14 11 6 12
REMARK SMILES IDX 7 13 8 14 9 15 13 16 11 17 10 18 12 20 4 22 21 24 18 26
REMARK H PARENT 10 19 12 21 4 23 21 25 18 27
REMARK Flexibility Score: inf
ROOT
ATOM      1  C   UNL     1     -12.056   5.678  10.434  1.00  0.00     0.180 A 
ATOM      2  C   UNL     1     -12.112   6.476   9.276  1.00  0.00     0.208 A 
ATOM      3  C   UNL     1     -12.840   7.676   9.313  1.00  0.00     0.238 A 
ATOM      4  O   UNL     1     -12.888   8.404   8.284  1.00  0.00    -0.285 OA
ATOM      5  C   UNL     1     -13.514   8.046  10.495  1.00  0.00     0.111 A 
ATOM      6  C   UNL     1     -14.272   9.236  10.614  1.00  0.00     0.134 A 
ATOM      7  C   UNL     1     -14.921   9.529  11.822  1.00  0.00     0.093 A 
ATOM      8  C   UNL     1     -14.829   8.658  12.910  1.00  0.00     0.123 A 
ATOM      9  C   UNL     1     -14.081   7.481  12.800  1.00  0.00     0.094 A 
ATOM     10  C   UNL     1     -13.425   7.172  11.604  1.00  0.00     0.146 A 
ATOM     11  O   UNL     1     -12.717   6.051  11.527  1.00  0.00    -0.452 OA
ENDROOT
BRANCH   1  12
ATOM     12  C   UNL     1     -11.294   4.409  10.479  1.00  0.00     0.025 A 
ATOM     13  C   UNL     1     -11.520   3.434   9.495  1.00  0.00     0.016 A 
ATOM     14  C   UNL     1     -10.828   2.220   9.529  1.00  0.00     0.051 A 
ATOM     15  C   UNL     1      -9.913   1.956  10.557  1.00  0.00     0.157 A 
ATOM     16  C   UNL     1     -10.391   4.133  11.520  1.00  0.00     0.062 A 
ATOM     17  C   UNL     1      -9.698   2.918  11.559  1.00  0.00     0.158 A 
BRANCH  15  18
ATOM     18  O   UNL     1      -9.223   0.746  10.587  1.00  0.00    -0.504 OA
ATOM     19  H   UNL     1      -8.293   0.655  10.195  1.00  0.00     0.293 HD
ENDBRANCH  15  18
BRANCH  17  20
ATOM     20  O   UNL     1      -8.804   2.680  12.604  1.00  0.00    -0.504 OA
ATOM     21  H   UNL     1      -7.850   2.383  12.438  1.00  0.00     0.293 HD
ENDBRANCH  17  20
ENDBRANCH   1  12
BRANCH   2  22
ATOM     22  O   UNL     1     -11.476   6.063   8.102  1.00  0.00    -0.502 OA
ATOM     23  H   UNL     1     -11.763   6.387   7.186  1.00  0.00     0.293 HD
ENDBRANCH   2  22
BRANCH   6  24
ATOM     24  O   UNL     1     -14.385  10.125   9.545  1.00  0.00    -0.507 OA
ATOM     25  H   UNL     1     -15.263  10.576   9.318  1.00  0.00     0.293 HD
ENDBRANCH   6  24
BRANCH   8  26
ATOM     26  O   UNL     1     -15.484   8.972  14.099  1.00  0.00    -0.508 OA
ATOM     27  H   UNL     1     -15.011   8.923  14.994  1.00  0.00     0.293 HD
ENDBRANCH   8  26
TORSDOF 6
ENDMDL
MODEL 7
REMARK VINA RESULT:    -6.288      1.749      6.971
REMARK INTER + INTRA:          -7.886
REMARK INTER:                  -7.571
REMARK INTRA:                  -0.315
REMARK UNBOUND:                -0.311
REMARK SMILES O=c1c(O)c(-c2ccc(O)c(O)c2)oc2cc(O)cc(O)c12
REMARK SMILES IDX 5 1 3 2 2 3 1 4 22 5 20 6 19 7 17 8 16 9 15 10 14 11 6 12
REMARK SMILES IDX 7 13 8 14 9 15 13 16 11 17 10 18 12 20 4 22 21 24 18 26
REMARK H PARENT 10 19 12 21 4 23 21 25 18 27
REMARK Flexibility Score: inf
ROOT
ATOM      1  C   UNL     1     -13.302   6.739  10.756  1.00  0.00     0.180 A 
ATOM      2  C   UNL     1     -14.296   6.705   9.759  1.00  0.00     0.208 A 
ATOM      3  C   UNL     1     -15.533   7.317  10.013  1.00  0.00     0.238 A 
ATOM      4  O   UNL     1     -16.427   7.301   9.124  1.00  0.00    -0.285 OA
ATOM      5  C   UNL     1     -15.763   7.933  11.261  1.00  0.00     0.111 A 
ATOM      6  C   UNL     1     -16.982   8.569  11.599  1.00  0.00     0.134 A 
ATOM      7  C   UNL     1     -17.135   9.152  12.865  1.00  0.00     0.093 A 
ATOM      8  C   UNL     1     -16.097   9.111  13.798  1.00  0.00     0.123 A 
ATOM      9  C   UNL     1     -14.889   8.485  13.471  1.00  0.00     0.094 A 
ATOM     10  C   UNL     1     -14.716   7.900  12.213  1.00  0.00     0.146 A 
ATOM     11  O   UNL     1     -13.559   7.316  11.926  1.00  0.00    -0.452 OA
ENDROOT
BRANCH   1  12
ATOM     12  C   UNL     1     -11.966   6.132  10.555  1.00  0.00     0.025 A 
ATOM     13  C   UNL     1     -10.971   6.859   9.883  1.00  0.00     0.016 A 
ATOM     14  C   UNL     1      -9.711   6.298   9.663  1.00  0.00     0.051 A 
ATOM     15  C   UNL     1      -9.431   4.995  10.097  1.00  0.00     0.157 A 
ATOM     16  C   UNL     1     -11.689   4.817  10.970  1.00  0.00     0.062 A 
ATOM     17  C   UNL     1     -10.428   4.251  10.750  1.00  0.00     0.158 A 
BRANCH  15  18
ATOM     18  O   UNL     1      -8.172   4.439   9.878  1.00  0.00    -0.504 OA
ATOM     19  H   UNL     1      -7.443   4.485  10.580  1.00  0.00     0.293 HD
ENDBRANCH  15  18
BRANCH  17  20
ATOM     20  O   UNL     1     -10.186   2.947  11.182  1.00  0.00    -0.504 OA
ATOM     21  H   UNL     1     -10.882   2.216  11.102  1.00  0.00     0.293 HD
ENDBRANCH  17  20
ENDBRANCH   1  12
BRANCH   2  22
ATOM     22  O   UNL     1     -14.061   6.045   8.550  1.00  0.00    -0.502 OA
ATOM     23  H   UNL     1     -14.235   6.479   7.651  1.00  0.00     0.293 HD
ENDBRANCH   2  22
BRANCH   6  24
ATOM     24  O   UNL     1     -18.037   8.625  10.688  1.00  0.00    -0.507 OA
ATOM     25  H   UNL     1     -18.087   9.343   9.974  1.00  0.00     0.293 HD
ENDBRANCH   6  24
BRANCH   8  26
ATOM     26  O   UNL     1     -16.275   9.697  15.050  1.00  0.00    -0.508 OA
ATOM     27  H   UNL     1     -15.958   9.243  15.898  1.00  0.00     0.293 HD
ENDBRANCH   8  26
TORSDOF 6
ENDMDL
MODEL 8
REMARK VINA RESULT:    -5.882      2.313      7.591
REMARK INTER + INTRA:          -7.397
REMARK INTER:                  -7.159
REMARK INTRA:                  -0.238
REMARK UNBOUND:                -0.311
REMARK SMILES O=c1c(O)c(-c2ccc(O)c(O)c2)oc2cc(O)cc(O)c12
REMARK SMILES IDX 5 1 3 2 2 3 1 4 22 5 20 6 19 7 17 8 16 9 15 10 14 11 6 12
REMARK SMILES IDX 7 13 8 14 9 15 13 16 11 17 10 18 12 20 4 22 21 24 18 26
REMARK H PARENT 10 19 12 21 4 23 21 25 18 27
REMARK Flexibility Score: inf
ROOT
ATOM      1  C   UNL     1     -12.101   6.052  10.118  1.00  0.00     0.180 A 
ATOM      2  C   UNL     1     -12.463   6.046  11.479  1.00  0.00     0.208 A 
ATOM      3  C   UNL     1     -13.517   6.870  11.905  1.00  0.00     0.238 A 
ATOM      4  O   UNL     1     -13.856   6.865  13.119  1.00  0.00    -0.285 OA
ATOM      5  C   UNL     1     -14.175   7.698  10.972  1.00  0.00     0.111 A 
ATOM      6  C   UNL     1     -15.243   8.560  11.319  1.00  0.00     0.134 A 
ATOM      7  C   UNL     1     -15.840   9.359  10.334  1.00  0.00     0.093 A 
ATOM      8  C   UNL     1     -15.392   9.315   9.012  1.00  0.00     0.123 A 
ATOM      9  C   UNL     1     -14.337   8.465   8.661  1.00  0.00     0.094 A 
ATOM     10  C   UNL     1     -13.730   7.659   9.629  1.00  0.00     0.146 A 
ATOM     11  O   UNL     1     -12.734   6.857   9.269  1.00  0.00    -0.452 OA
ENDROOT
BRANCH   1  12
ATOM     12  C   UNL     1     -11.013   5.198   9.590  1.00  0.00     0.025 A 
ATOM     13  C   UNL     1     -11.335   4.055   8.841  1.00  0.00     0.016 A 
ATOM     14  C   UNL     1     -10.325   3.223   8.351  1.00  0.00     0.051 A 
ATOM     15  C   UNL     1      -8.980   3.510   8.617  1.00  0.00     0.157 A 
ATOM     16  C   UNL     1      -9.663   5.472   9.873  1.00  0.00     0.062 A 
ATOM     17  C   UNL     1      -8.649   4.639   9.386  1.00  0.00     0.158 A 
BRANCH  15  18
ATOM     18  O   UNL     1      -7.976   2.679   8.125  1.00  0.00    -0.504 OA
ATOM     19  H   UNL     1      -7.530   2.855   7.233  1.00  0.00     0.293 HD
ENDBRANCH  15  18
BRANCH  17  20
ATOM     20  O   UNL     1      -7.320   4.945   9.680  1.00  0.00    -0.504 OA
ATOM     21  H   UNL     1      -6.910   5.840   9.443  1.00  0.00     0.293 HD
ENDBRANCH  17  20
ENDBRANCH   1  12
BRANCH   2  22
ATOM     22  O   UNL     1     -11.763   5.254  12.392  1.00  0.00    -0.502 OA
ATOM     23  H   UNL     1     -10.764   5.097  12.322  1.00  0.00     0.293 HD
ENDBRANCH   2  22
BRANCH   6  24
ATOM     24  O   UNL     1     -15.712   8.627  12.631  1.00  0.00    -0.507 OA
ATOM     25  H   UNL     1     -15.178   9.077  13.366  1.00  0.00     0.293 HD
ENDBRANCH   6  24
BRANCH   8  26
ATOM     26  O   UNL     1     -16.002  10.120   8.052  1.00  0.00    -0.508 OA
ATOM     27  H   UNL     1     -16.627  10.874   8.312  1.00  0.00     0.293 HD
ENDBRANCH   8  26
TORSDOF 6
ENDMDL
