MODEL 1
REMARK VINA RESULT:    -3.874      0.000      0.000
REMARK INTER + INTRA:         -15.644
REMARK INTER:                 -10.215
REMARK INTRA:                  -5.429
REMARK UNBOUND:                -5.429
REMARK SMILES CCCCCCCCCCCCCCCCCCCCCCCCCCCCCC(=O)[O-]
REMARK SMILES IDX 16 1 17 2 18 3 19 4 20 5 21 6 22 7 23 8 24 9 25 10 26 11
REMARK SMILES IDX 27 12 28 13 29 14 30 15 31 16 32 17 15 18 14 19 13 20 12 21
REMARK SMILES IDX 11 22 10 23 9 24 8 25 7 26 6 27 5 28 4 29 3 30 2 31 1 32
REMARK H PARENT
REMARK Flexibility Score: inf
ROOT
ATOM      1  C   UNL     1      25.439 -11.110   4.595  1.00  0.00     0.000 C 
ENDROOT
BRANCH   1   2
ATOM      2  C   UNL     1      25.395 -11.813   3.228  1.00  0.00     0.000 C 
BRANCH   2   3
ATOM      3  C   UNL     1      24.810 -10.894   2.143  1.00  0.00     0.000 C 
BRANCH   3   4
ATOM      4  C   UNL     1      23.748 -11.582   1.267  1.00  0.00     0.000 C 
BRANCH   4   5
ATOM      5  C   UNL     1      23.631 -13.106   1.449  1.00  0.00     0.000 C 
BRANCH   5   6
ATOM      6  C   UNL     1      22.299 -13.605   2.041  1.00  0.00     0.000 C 
BRANCH   6   7
ATOM      7  C   UNL     1      21.689 -14.828   1.332  1.00  0.00     0.000 C 
BRANCH   7   8
ATOM      8  C   UNL     1      21.430 -16.013   2.277  1.00  0.00     0.000 C 
BRANCH   8   9
ATOM      9  C   UNL     1      22.467 -17.120   2.039  1.00  0.00     0.000 C 
BRANCH   9  10
ATOM     10  C   UNL     1      23.771 -16.896   2.835  1.00  0.00     0.000 C 
BRANCH  10  11
ATOM     11  C   UNL     1      23.532 -16.450   4.290  1.00  0.00     0.000 C 
BRANCH  11  12
ATOM     12  C   UNL     1      24.305 -15.185   4.714  1.00  0.00     0.000 C 
BRANCH  12  13
ATOM     13  C   UNL     1      23.487 -14.172   5.540  1.00  0.00     0.006 C 
BRANCH  13  14
ATOM     14  C   UNL     1      22.017 -14.583   5.710  1.00  0.00     0.053 C 
BRANCH  14  15
ATOM     15  C   UNL     1      21.606 -14.495   7.146  1.00  0.00     0.041 C 
ATOM     16  O   UNL     1      21.406 -15.544   7.814  1.00  0.00    -0.550 OA
ATOM     17  O   UNL     1      21.456 -13.251   7.754  1.00  0.00    -0.550 OA
ENDBRANCH  14  15
ENDBRANCH  13  14
ENDBRANCH  12  13
ENDBRANCH  11  12
ENDBRANCH  10  11
ENDBRANCH   9  10
ENDBRANCH   8   9
ENDBRANCH   7   8
ENDBRANCH   6   7
ENDBRANCH   5   6
ENDBRANCH   4   5
ENDBRANCH   3   4
ENDBRANCH   2   3
ENDBRANCH   1   2
BRANCH   1  18
ATOM     18  C   UNL     1      26.271 -11.892   5.633  1.00  0.00     0.000 C 
BRANCH  18  19
ATOM     19  C   UNL     1      27.346 -12.793   4.996  1.00  0.00     0.000 C 
BRANCH  19  20
ATOM     20  C   UNL     1      28.780 -12.220   5.033  1.00  0.00     0.000 C 
BRANCH  20  21
ATOM     21  C   UNL     1      29.489 -12.112   3.665  1.00  0.00     0.000 C 
BRANCH  21  22
ATOM     22  C   UNL     1      29.730 -10.674   3.168  1.00  0.00     0.000 C 
BRANCH  22  23
ATOM     23  C   UNL     1      28.468 -10.049   2.551  1.00  0.00     0.000 C 
BRANCH  23  24
ATOM     24  C   UNL     1      28.022  -8.779   3.296  1.00  0.00    -0.000 C 
BRANCH  24  25
ATOM     25  C   UNL     1      28.687  -8.625   4.683  1.00  0.00    -0.000 C 
BRANCH  25  26
ATOM     26  C   UNL     1      27.689  -8.358   5.832  1.00  0.00    -0.000 C 
BRANCH  26  27
ATOM     27  C   UNL     1      26.719  -7.185   5.599  1.00  0.00    -0.000 C 
BRANCH  27  28
ATOM     28  C   UNL     1      25.241  -7.597   5.731  1.00  0.00    -0.000 C 
BRANCH  28  29
ATOM     29  C   UNL     1      24.631  -7.163   7.071  1.00  0.00    -0.000 C 
BRANCH  29  30
ATOM     30  C   UNL     1      23.741  -8.244   7.704  1.00  0.00    -0.000 C 
BRANCH  30  31
ATOM     31  C   UNL     1      24.566  -9.488   8.063  1.00  0.00    -0.003 C 
ATOM     32  C   UNL     1      23.671 -10.618   8.572  1.00  0.00     0.004 C 
ENDBRANCH  30  31
ENDBRANCH  29  30
ENDBRANCH  28  29
ENDBRANCH  27  28
ENDBRANCH  26  27
ENDBRANCH  25  26
ENDBRANCH  24  25
ENDBRANCH  23  24
ENDBRANCH  22  23
ENDBRANCH  21  22
ENDBRANCH  20  21
ENDBRANCH  19  20
ENDBRANCH  18  19
ENDBRANCH   1  18
TORSDOF 28
ENDMDL
MODEL 2
REMARK VINA RESULT:    -3.833      1.403      2.129
REMARK INTER + INTRA:         -15.537
REMARK INTER:                  -9.928
REMARK INTRA:                  -5.609
REMARK UNBOUND:                -5.429
REMARK SMILES CCCCCCCCCCCCCCCCCCCCCCCCCCCCCC(=O)[O-]
REMARK SMILES IDX 16 1 17 2 18 3 19 4 20 5 21 6 22 7 23 8 24 9 25 10 26 11
REMARK SMILES IDX 27 12 28 13 29 14 30 15 31 16 32 17 15 18 14 19 13 20 12 21
REMARK SMILES IDX 11 22 10 23 9 24 8 25 7 26 6 27 5 28 4 29 3 30 2 31 1 32
REMARK H PARENT
REMARK Flexibility Score: inf
ROOT
ATOM      1  C   UNL     1      24.833 -12.536   4.512  1.00  0.00     0.000 C 
ENDROOT
BRANCH   1   2
ATOM      2  C   UNL     1      24.424 -13.388   3.299  1.00  0.00     0.000 C 
BRANCH   2   3
ATOM      3  C   UNL     1      23.921 -12.510   2.142  1.00  0.00     0.000 C 
BRANCH   3   4
ATOM      4  C   UNL     1      22.745 -13.133   1.368  1.00  0.00     0.000 C 
BRANCH   4   5
ATOM      5  C   UNL     1      21.906 -14.156   2.156  1.00  0.00     0.000 C 
BRANCH   5   6
ATOM      6  C   UNL     1      21.871 -15.580   1.571  1.00  0.00     0.000 C 
BRANCH   6   7
ATOM      7  C   UNL     1      23.224 -16.109   1.062  1.00  0.00     0.000 C 
BRANCH   7   8
ATOM      8  C   UNL     1      23.693 -17.380   1.789  1.00  0.00     0.000 C 
BRANCH   8   9
ATOM      9  C   UNL     1      23.133 -17.413   3.219  1.00  0.00     0.000 C 
BRANCH   9  10
ATOM     10  C   UNL     1      24.169 -16.972   4.275  1.00  0.00     0.000 C 
BRANCH  10  11
ATOM     11  C   UNL     1      23.549 -16.200   5.455  1.00  0.00     0.000 C 
BRANCH  11  12
ATOM     12  C   UNL     1      22.042 -15.905   5.316  1.00  0.00     0.000 C 
BRANCH  12  13
ATOM     13  C   UNL     1      21.590 -14.551   5.899  1.00  0.00     0.006 C 
BRANCH  13  14
ATOM     14  C   UNL     1      22.529 -14.025   6.994  1.00  0.00     0.053 C 
BRANCH  14  15
ATOM     15  C   UNL     1      21.816 -13.937   8.306  1.00  0.00     0.041 C 
ATOM     16  O   UNL     1      21.336 -12.839   8.694  1.00  0.00    -0.550 OA
ATOM     17  O   UNL     1      21.666 -15.073   9.096  1.00  0.00    -0.550 OA
ENDBRANCH  14  15
ENDBRANCH  13  14
ENDBRANCH  12  13
ENDBRANCH  11  12
ENDBRANCH  10  11
ENDBRANCH   9  10
ENDBRANCH   8   9
ENDBRANCH   7   8
ENDBRANCH   6   7
ENDBRANCH   5   6
ENDBRANCH   4   5
ENDBRANCH   3   4
ENDBRANCH   2   3
ENDBRANCH   1   2
BRANCH   1  18
ATOM     18  C   UNL     1      26.130 -13.042   5.177  1.00  0.00     0.000 C 
BRANCH  18  19
ATOM     19  C   UNL     1      27.395 -12.330   4.660  1.00  0.00     0.000 C 
BRANCH  19  20
ATOM     20  C   UNL     1      28.157 -13.084   3.547  1.00  0.00     0.000 C 
BRANCH  20  21
ATOM     21  C   UNL     1      27.996 -12.509   2.123  1.00  0.00     0.000 C 
BRANCH  21  22
ATOM     22  C   UNL     1      28.673 -11.144   1.891  1.00  0.00     0.000 C 
BRANCH  22  23
ATOM     23  C   UNL     1      27.911 -10.278   0.876  1.00  0.00     0.000 C 
BRANCH  23  24
ATOM     24  C   UNL     1      26.385 -10.368   1.060  1.00  0.00    -0.000 C 
BRANCH  24  25
ATOM     25  C   UNL     1      25.766  -9.071   1.627  1.00  0.00    -0.000 C 
BRANCH  25  26
ATOM     26  C   UNL     1      25.639  -9.057   3.167  1.00  0.00    -0.000 C 
BRANCH  26  27
ATOM     27  C   UNL     1      26.884  -8.557   3.923  1.00  0.00    -0.000 C 
BRANCH  27  28
ATOM     28  C   UNL     1      26.638  -8.389   5.434  1.00  0.00    -0.000 C 
BRANCH  28  29
ATOM     29  C   UNL     1      25.641  -9.420   5.981  1.00  0.00    -0.000 C 
BRANCH  29  30
ATOM     30  C   UNL     1      25.818  -9.687   7.485  1.00  0.00    -0.000 C 
BRANCH  30  31
ATOM     31  C   UNL     1      24.972 -10.889   7.929  1.00  0.00    -0.003 C 
ATOM     32  C   UNL     1      23.775 -10.444   8.767  1.00  0.00     0.004 C 
ENDBRANCH  30  31
ENDBRANCH  29  30
ENDBRANCH  28  29
ENDBRANCH  27  28
ENDBRANCH  26  27
ENDBRANCH  25  26
ENDBRANCH  24  25
ENDBRANCH  23  24
ENDBRANCH  22  23
ENDBRANCH  21  22
ENDBRANCH  20  21
ENDBRANCH  19  20
ENDBRANCH  18  19
ENDBRANCH   1  18
TORSDOF 28
ENDMDL
MODEL 3
REMARK VINA RESULT:    -3.810      2.952      4.915
REMARK INTER + INTRA:         -15.474
REMARK INTER:                 -12.351
REMARK INTRA:                  -3.123
REMARK UNBOUND:                -5.429
REMARK SMILES CCCCCCCCCCCCCCCCCCCCCCCCCCCCCC(=O)[O-]
REMARK SMILES IDX 16 1 17 2 18 3 19 4 20 5 21 6 22 7 23 8 24 9 25 10 26 11
REMARK SMILES IDX 27 12 28 13 29 14 30 15 31 16 32 17 15 18 14 19 13 20 12 21
REMARK SMILES IDX 11 22 10 23 9 24 8 25 7 26 6 27 5 28 4 29 3 30 2 31 1 32
REMARK H PARENT
REMARK Flexibility Score: inf
ROOT
ATOM      1  C   UNL     1      25.437 -11.735   7.094  1.00  0.00     0.000 C 
ENDROOT
BRANCH   1   2
ATOM      2  C   UNL     1      26.334 -10.796   6.271  1.00  0.00     0.000 C 
BRANCH   2   3
ATOM      3  C   UNL     1      26.337 -11.184   4.783  1.00  0.00     0.000 C 
BRANCH   3   4
ATOM      4  C   UNL     1      25.118 -12.027   4.369  1.00  0.00     0.000 C 
BRANCH   4   5
ATOM      5  C   UNL     1      24.703 -11.903   2.892  1.00  0.00     0.000 C 
BRANCH   5   6
ATOM      6  C   UNL     1      24.176 -13.195   2.237  1.00  0.00     0.000 C 
BRANCH   6   7
ATOM      7  C   UNL     1      22.983 -13.002   1.283  1.00  0.00     0.000 C 
BRANCH   7   8
ATOM      8  C   UNL     1      21.698 -13.690   1.769  1.00  0.00     0.000 C 
BRANCH   8   9
ATOM      9  C   UNL     1      21.788 -15.207   1.547  1.00  0.00     0.000 C 
BRANCH   9  10
ATOM     10  C   UNL     1      21.540 -16.014   2.839  1.00  0.00     0.000 C 
BRANCH  10  11
ATOM     11  C   UNL     1      21.816 -15.212   4.125  1.00  0.00     0.000 C 
BRANCH  11  12
ATOM     12  C   UNL     1      23.178 -15.501   4.787  1.00  0.00     0.000 C 
BRANCH  12  13
ATOM     13  C   UNL     1      23.259 -15.144   6.285  1.00  0.00     0.006 C 
BRANCH  13  14
ATOM     14  C   UNL     1      22.300 -14.014   6.686  1.00  0.00     0.053 C 
BRANCH  14  15
ATOM     15  C   UNL     1      21.764 -14.239   8.064  1.00  0.00     0.041 C 
ATOM     16  O   UNL     1      21.210 -13.296   8.691  1.00  0.00    -0.550 OA
ATOM     17  O   UNL     1      21.861 -15.496   8.655  1.00  0.00    -0.550 OA
ENDBRANCH  14  15
ENDBRANCH  13  14
ENDBRANCH  12  13
ENDBRANCH  11  12
ENDBRANCH  10  11
ENDBRANCH   9  10
ENDBRANCH   8   9
ENDBRANCH   7   8
ENDBRANCH   6   7
ENDBRANCH   5   6
ENDBRANCH   4   5
ENDBRANCH   3   4
ENDBRANCH   2   3
ENDBRANCH   1   2
BRANCH   1  18
ATOM     18  C   UNL     1      24.496 -10.967   8.045  1.00  0.00     0.000 C 
BRANCH  18  19
ATOM     19  C   UNL     1      24.867  -9.479   8.196  1.00  0.00     0.000 C 
BRANCH  19  20
ATOM     20  C   UNL     1      23.684  -8.496   8.041  1.00  0.00     0.000 C 
BRANCH  20  21
ATOM     21  C   UNL     1      23.933  -7.300   7.095  1.00  0.00     0.000 C 
BRANCH  21  22
ATOM     22  C   UNL     1      23.567  -5.922   7.678  1.00  0.00     0.000 C 
BRANCH  22  23
ATOM     23  C   UNL     1      24.540  -4.820   7.228  1.00  0.00     0.000 C 
BRANCH  23  24
ATOM     24  C   UNL     1      25.978  -5.344   7.060  1.00  0.00    -0.000 C 
BRANCH  24  25
ATOM     25  C   UNL     1      26.937  -4.296   6.453  1.00  0.00    -0.000 C 
BRANCH  25  26
ATOM     26  C   UNL     1      27.213  -3.088   7.376  1.00  0.00    -0.000 C 
BRANCH  26  27
ATOM     27  C   UNL     1      27.693  -3.443   8.795  1.00  0.00    -0.000 C 
BRANCH  27  28
ATOM     28  C   UNL     1      27.227  -2.427   9.855  1.00  0.00    -0.000 C 
BRANCH  28  29
ATOM     29  C   UNL     1      25.851  -1.831   9.527  1.00  0.00    -0.000 C 
BRANCH  29  30
ATOM     30  C   UNL     1      24.691  -2.609  10.170  1.00  0.00    -0.000 C 
BRANCH  30  31
ATOM     31  C   UNL     1      23.594  -1.651  10.655  1.00  0.00    -0.003 C 
ATOM     32  C   UNL     1      22.416  -1.619   9.683  1.00  0.00     0.004 C 
ENDBRANCH  30  31
ENDBRANCH  29  30
ENDBRANCH  28  29
ENDBRANCH  27  28
ENDBRANCH  26  27
ENDBRANCH  25  26
ENDBRANCH  24  25
ENDBRANCH  23  24
ENDBRANCH  22  23
ENDBRANCH  21  22
ENDBRANCH  20  21
ENDBRANCH  19  20
ENDBRANCH  18  19
ENDBRANCH   1  18
TORSDOF 28
ENDMDL
MODEL 4
REMARK VINA RESULT:    -3.803      2.739      5.865
REMARK INTER + INTRA:         -15.457
REMARK INTER:                 -10.587
REMARK INTRA:                  -4.871
REMARK UNBOUND:                -5.429
REMARK SMILES CCCCCCCCCCCCCCCCCCCCCCCCCCCCCC(=O)[O-]
REMARK SMILES IDX 16 1 17 2 18 3 19 4 20 5 21 6 22 7 23 8 24 9 25 10 26 11
REMARK SMILES IDX 27 12 28 13 29 14 30 15 31 16 32 17 15 18 14 19 13 20 12 21
REMARK SMILES IDX 11 22 10 23 9 24 8 25 7 26 6 27 5 28 4 29 3 30 2 31 1 32
REMARK H PARENT
REMARK Flexibility Score: inf
ROOT
ATOM      1  C   UNL     1      22.071 -14.737   4.445  1.00  0.00     0.000 C 
ENDROOT
BRANCH   1   2
ATOM      2  C   UNL     1      21.908 -15.258   3.008  1.00  0.00     0.000 C 
BRANCH   2   3
ATOM      3  C   UNL     1      21.858 -14.104   1.994  1.00  0.00     0.000 C 
BRANCH   3   4
ATOM      4  C   UNL     1      23.122 -13.999   1.123  1.00  0.00     0.000 C 
BRANCH   4   5
ATOM      5  C   UNL     1      23.966 -12.729   1.336  1.00  0.00     0.000 C 
BRANCH   5   6
ATOM      6  C   UNL     1      25.492 -12.919   1.235  1.00  0.00     0.000 C 
BRANCH   6   7
ATOM      7  C   UNL     1      26.024 -14.238   1.824  1.00  0.00     0.000 C 
BRANCH   7   8
ATOM      8  C   UNL     1      26.669 -14.070   3.208  1.00  0.00     0.000 C 
BRANCH   8   9
ATOM      9  C   UNL     1      25.617 -14.255   4.313  1.00  0.00     0.000 C 
BRANCH   9  10
ATOM     10  C   UNL     1      25.399 -12.975   5.148  1.00  0.00     0.000 C 
BRANCH  10  11
ATOM     11  C   UNL     1      26.695 -12.182   5.404  1.00  0.00     0.000 C 
BRANCH  11  12
ATOM     12  C   UNL     1      26.682 -10.733   4.878  1.00  0.00     0.000 C 
BRANCH  12  13
ATOM     13  C   UNL     1      25.498 -10.390   3.951  1.00  0.00     0.006 C 
BRANCH  13  14
ATOM     14  C   UNL     1      25.593  -8.979   3.353  1.00  0.00     0.053 C 
BRANCH  14  15
ATOM     15  C   UNL     1      25.398  -9.019   1.871  1.00  0.00     0.041 C 
ATOM     16  O   UNL     1      24.292  -9.379   1.386  1.00  0.00    -0.550 OA
ATOM     17  O   UNL     1      26.434  -8.644   1.020  1.00  0.00    -0.550 OA
ENDBRANCH  14  15
ENDBRANCH  13  14
ENDBRANCH  12  13
ENDBRANCH  11  12
ENDBRANCH  10  11
ENDBRANCH   9  10
ENDBRANCH   8   9
ENDBRANCH   7   8
ENDBRANCH   6   7
ENDBRANCH   5   6
ENDBRANCH   4   5
ENDBRANCH   3   4
ENDBRANCH   2   3
ENDBRANCH   1   2
BRANCH   1  18
ATOM     18  C   UNL     1      21.615 -15.766   5.501  1.00  0.00     0.000 C 
BRANCH  18  19
ATOM     19  C   UNL     1      21.145 -15.118   6.817  1.00  0.00     0.000 C 
BRANCH  19  20
ATOM     20  C   UNL     1      22.103 -14.052   7.396  1.00  0.00     0.000 C 
BRANCH  20  21
ATOM     21  C   UNL     1      21.469 -13.059   8.394  1.00  0.00     0.000 C 
BRANCH  21  22
ATOM     22  C   UNL     1      22.315 -11.807   8.694  1.00  0.00     0.000 C 
BRANCH  22  23
ATOM     23  C   UNL     1      23.702 -11.867   8.035  1.00  0.00     0.000 C 
BRANCH  23  24
ATOM     24  C   UNL     1      24.591 -10.676   8.438  1.00  0.00    -0.000 C 
BRANCH  24  25
ATOM     25  C   UNL     1      24.406  -9.445   7.522  1.00  0.00    -0.000 C 
BRANCH  25  26
ATOM     26  C   UNL     1      23.733  -8.241   8.218  1.00  0.00    -0.000 C 
BRANCH  26  27
ATOM     27  C   UNL     1      23.550  -6.993   7.336  1.00  0.00    -0.000 C 
BRANCH  27  28
ATOM     28  C   UNL     1      24.598  -6.897   6.212  1.00  0.00    -0.000 C 
BRANCH  28  29
ATOM     29  C   UNL     1      25.943  -6.350   6.712  1.00  0.00    -0.000 C 
BRANCH  29  30
ATOM     30  C   UNL     1      27.036  -6.362   5.631  1.00  0.00    -0.000 C 
BRANCH  30  31
ATOM     31  C   UNL     1      28.117  -7.401   5.959  1.00  0.00    -0.003 C 
ATOM     32  C   UNL     1      27.849  -8.073   7.305  1.00  0.00     0.004 C 
ENDBRANCH  30  31
ENDBRANCH  29  30
ENDBRANCH  28  29
ENDBRANCH  27  28
ENDBRANCH  26  27
ENDBRANCH  25  26
ENDBRANCH  24  25
ENDBRANCH  23  24
ENDBRANCH  22  23
ENDBRANCH  21  22
ENDBRANCH  20  21
ENDBRANCH  19  20
ENDBRANCH  18  19
ENDBRANCH   1  18
TORSDOF 28
ENDMDL
MODEL 5
REMARK VINA RESULT:    -3.801      4.078      9.997
REMARK INTER + INTRA:         -15.450
REMARK INTER:                 -12.701
REMARK INTRA:                  -2.749
REMARK UNBOUND:                -5.429
REMARK SMILES CCCCCCCCCCCCCCCCCCCCCCCCCCCCCC(=O)[O-]
REMARK SMILES IDX 16 1 17 2 18 3 19 4 20 5 21 6 22 7 23 8 24 9 25 10 26 11
REMARK SMILES IDX 27 12 28 13 29 14 30 15 31 16 32 17 15 18 14 19 13 20 12 21
REMARK SMILES IDX 11 22 10 23 9 24 8 25 7 26 6 27 5 28 4 29 3 30 2 31 1 32
REMARK H PARENT
REMARK Flexibility Score: inf
ROOT
ATOM      1  C   UNL     1      23.910 -10.576   8.301  1.00  0.00     0.000 C 
ENDROOT
BRANCH   1   2
ATOM      2  C   UNL     1      24.603  -9.276   7.859  1.00  0.00     0.000 C 
BRANCH   2   3
ATOM      3  C   UNL     1      23.663  -8.067   7.987  1.00  0.00     0.000 C 
BRANCH   3   4
ATOM      4  C   UNL     1      24.144  -6.832   7.205  1.00  0.00     0.000 C 
BRANCH   4   5
ATOM      5  C   UNL     1      25.456  -7.019   6.421  1.00  0.00     0.000 C 
BRANCH   5   6
ATOM      6  C   UNL     1      26.223  -5.725   6.088  1.00  0.00     0.000 C 
BRANCH   6   7
ATOM      7  C   UNL     1      26.190  -4.648   7.188  1.00  0.00     0.000 C 
BRANCH   7   8
ATOM      8  C   UNL     1      27.587  -4.236   7.678  1.00  0.00     0.000 C 
BRANCH   8   9
ATOM      9  C   UNL     1      27.518  -2.890   8.414  1.00  0.00     0.000 C 
BRANCH   9  10
ATOM     10  C   UNL     1      27.998  -2.987   9.879  1.00  0.00     0.000 C 
BRANCH  10  11
ATOM     11  C   UNL     1      27.307  -1.978  10.817  1.00  0.00     0.000 C 
BRANCH  11  12
ATOM     12  C   UNL     1      26.241  -1.092  10.142  1.00  0.00     0.000 C 
BRANCH  12  13
ATOM     13  C   UNL     1      24.787  -1.400  10.553  1.00  0.00     0.006 C 
BRANCH  13  14
ATOM     14  C   UNL     1      24.332  -2.807  10.140  1.00  0.00     0.053 C 
BRANCH  14  15
ATOM     15  C   UNL     1      22.861  -2.829   9.869  1.00  0.00     0.041 C 
ATOM     16  O   UNL     1      22.239  -1.754   9.660  1.00  0.00    -0.550 OA
ATOM     17  O   UNL     1      22.176  -4.041   9.831  1.00  0.00    -0.550 OA
ENDBRANCH  14  15
ENDBRANCH  13  14
ENDBRANCH  12  13
ENDBRANCH  11  12
ENDBRANCH  10  11
ENDBRANCH   9  10
ENDBRANCH   8   9
ENDBRANCH   7   8
ENDBRANCH   6   7
ENDBRANCH   5   6
ENDBRANCH   4   5
ENDBRANCH   3   4
ENDBRANCH   2   3
ENDBRANCH   1   2
BRANCH   1  18
ATOM     18  C   UNL     1      24.631 -11.835   7.779  1.00  0.00     0.000 C 
BRANCH  18  19
ATOM     19  C   UNL     1      25.728 -11.522   6.743  1.00  0.00     0.000 C 
BRANCH  19  20
ATOM     20  C   UNL     1      25.444 -12.043   5.316  1.00  0.00     0.000 C 
BRANCH  20  21
ATOM     21  C   UNL     1      25.547 -10.990   4.191  1.00  0.00     0.000 C 
BRANCH  21  22
ATOM     22  C   UNL     1      24.775 -11.336   2.903  1.00  0.00     0.000 C 
BRANCH  22  23
ATOM     23  C   UNL     1      24.217 -12.768   2.922  1.00  0.00     0.000 C 
BRANCH  23  24
ATOM     24  C   UNL     1      23.385 -13.087   1.667  1.00  0.00    -0.000 C 
BRANCH  24  25
ATOM     25  C   UNL     1      21.986 -13.654   1.995  1.00  0.00    -0.000 C 
BRANCH  25  26
ATOM     26  C   UNL     1      21.721 -15.055   1.400  1.00  0.00    -0.000 C 
BRANCH  26  27
ATOM     27  C   UNL     1      21.363 -16.147   2.425  1.00  0.00    -0.000 C 
BRANCH  27  28
ATOM     28  C   UNL     1      22.431 -16.308   3.522  1.00  0.00    -0.000 C 
BRANCH  28  29
ATOM     29  C   UNL     1      21.888 -15.977   4.919  1.00  0.00    -0.000 C 
BRANCH  29  30
ATOM     30  C   UNL     1      22.463 -14.672   5.493  1.00  0.00    -0.000 C 
BRANCH  30  31
ATOM     31  C   UNL     1      22.347 -14.651   7.024  1.00  0.00    -0.003 C 
ATOM     32  C   UNL     1      20.893 -14.793   7.471  1.00  0.00     0.004 C 
ENDBRANCH  30  31
ENDBRANCH  29  30
ENDBRANCH  28  29
ENDBRANCH  27  28
ENDBRANCH  26  27
ENDBRANCH  25  26
ENDBRANCH  24  25
ENDBRANCH  23  24
ENDBRANCH  22  23
ENDBRANCH  21  22
ENDBRANCH  20  21
ENDBRANCH  19  20
ENDBRANCH  18  19
ENDBRANCH   1  18
TORSDOF 28
ENDMDL
MODEL 6
REMARK VINA RESULT:    -3.754      5.236     11.176
REMARK INTER + INTRA:         -15.329
REMARK INTER:                 -12.392
REMARK INTRA:                  -2.937
REMARK UNBOUND:                -5.429
REMARK SMILES CCCCCCCCCCCCCCCCCCCCCCCCCCCCCC(=O)[O-]
REMARK SMILES IDX 16 1 17 2 18 3 19 4 20 5 21 6 22 7 23 8 24 9 25 10 26 11
REMARK SMILES IDX 27 12 28 13 29 14 30 15 31 16 32 17 15 18 14 19 13 20 12 21
REMARK SMILES IDX 11 22 10 23 9 24 8 25 7 26 6 27 5 28 4 29 3 30 2 31 1 32
REMARK H PARENT
REMARK Flexibility Score: inf
ROOT
ATOM      1  C   UNL     1      24.174  -5.733   7.234  1.00  0.00     0.000 C 
ENDROOT
BRANCH   1   2
ATOM      2  C   UNL     1      25.292  -4.920   6.559  1.00  0.00     0.000 C 
BRANCH   2   3
ATOM      3  C   UNL     1      26.360  -4.485   7.574  1.00  0.00     0.000 C 
BRANCH   3   4
ATOM      4  C   UNL     1      27.732  -5.142   7.338  1.00  0.00     0.000 C 
BRANCH   4   5
ATOM      5  C   UNL     1      28.765  -4.932   8.461  1.00  0.00     0.000 C 
BRANCH   5   6
ATOM      6  C   UNL     1      28.505  -3.730   9.389  1.00  0.00     0.000 C 
BRANCH   6   7
ATOM      7  C   UNL     1      29.608  -3.459  10.427  1.00  0.00     0.000 C 
BRANCH   7   8
ATOM      8  C   UNL     1      29.063  -3.000  11.789  1.00  0.00     0.000 C 
BRANCH   8   9
ATOM      9  C   UNL     1      29.793  -1.731  12.255  1.00  0.00     0.000 C 
BRANCH   9  10
ATOM     10  C   UNL     1      28.840  -0.531  12.446  1.00  0.00     0.000 C 
BRANCH  10  11
ATOM     11  C   UNL     1      27.979  -0.229  11.204  1.00  0.00     0.000 C 
BRANCH  11  12
ATOM     12  C   UNL     1      26.470  -0.487  11.384  1.00  0.00     0.000 C 
BRANCH  12  13
ATOM     13  C   UNL     1      25.750  -1.024  10.131  1.00  0.00     0.006 C 
BRANCH  13  14
ATOM     14  C   UNL     1      25.182  -2.438  10.325  1.00  0.00     0.053 C 
BRANCH  14  15
ATOM     15  C   UNL     1      23.710  -2.457  10.059  1.00  0.00     0.041 C 
ATOM     16  O   UNL     1      23.220  -3.303   9.264  1.00  0.00    -0.550 OA
ATOM     17  O   UNL     1      22.872  -1.549  10.702  1.00  0.00    -0.550 OA
ENDBRANCH  14  15
ENDBRANCH  13  14
ENDBRANCH  12  13
ENDBRANCH  11  12
ENDBRANCH  10  11
ENDBRANCH   9  10
ENDBRANCH   8   9
ENDBRANCH   7   8
ENDBRANCH   6   7
ENDBRANCH   5   6
ENDBRANCH   4   5
ENDBRANCH   3   4
ENDBRANCH   2   3
ENDBRANCH   1   2
BRANCH   1  18
ATOM     18  C   UNL     1      24.249  -7.235   6.892  1.00  0.00     0.000 C 
BRANCH  18  19
ATOM     19  C   UNL     1      23.646  -8.138   7.986  1.00  0.00     0.000 C 
BRANCH  19  20
ATOM     20  C   UNL     1      24.572  -9.275   8.475  1.00  0.00     0.000 C 
BRANCH  20  21
ATOM     21  C   UNL     1      23.982 -10.699   8.382  1.00  0.00     0.000 C 
BRANCH  21  22
ATOM     22  C   UNL     1      24.878 -11.730   7.671  1.00  0.00     0.000 C 
BRANCH  22  23
ATOM     23  C   UNL     1      25.515 -11.168   6.390  1.00  0.00     0.000 C 
BRANCH  23  24
ATOM     24  C   UNL     1      26.710 -12.012   5.913  1.00  0.00    -0.000 C 
BRANCH  24  25
ATOM     25  C   UNL     1      26.331 -13.033   4.817  1.00  0.00    -0.000 C 
BRANCH  25  26
ATOM     26  C   UNL     1      24.931 -12.807   4.205  1.00  0.00    -0.000 C 
BRANCH  26  27
ATOM     27  C   UNL     1      23.941 -13.973   4.382  1.00  0.00    -0.000 C 
BRANCH  27  28
ATOM     28  C   UNL     1      24.279 -14.864   5.592  1.00  0.00    -0.000 C 
BRANCH  28  29
ATOM     29  C   UNL     1      23.053 -15.624   6.118  1.00  0.00    -0.000 C 
BRANCH  29  30
ATOM     30  C   UNL     1      21.769 -14.779   6.098  1.00  0.00    -0.000 C 
BRANCH  30  31
ATOM     31  C   UNL     1      21.148 -14.699   7.500  1.00  0.00    -0.003 C 
ATOM     32  C   UNL     1      21.535 -13.400   8.204  1.00  0.00     0.004 C 
ENDBRANCH  30  31
ENDBRANCH  29  30
ENDBRANCH  28  29
ENDBRANCH  27  28
ENDBRANCH  26  27
ENDBRANCH  25  26
ENDBRANCH  24  25
ENDBRANCH  23  24
ENDBRANCH  22  23
ENDBRANCH  21  22
ENDBRANCH  20  21
ENDBRANCH  19  20
ENDBRANCH  18  19
ENDBRANCH   1  18
TORSDOF 28
ENDMDL
MODEL 7
REMARK VINA RESULT:    -3.719      2.123      7.582
REMARK INTER + INTRA:         -15.235
REMARK INTER:                 -10.432
REMARK INTRA:                  -4.803
REMARK UNBOUND:                -5.429
REMARK SMILES CCCCCCCCCCCCCCCCCCCCCCCCCCCCCC(=O)[O-]
REMARK SMILES IDX 16 1 17 2 18 3 19 4 20 5 21 6 22 7 23 8 24 9 25 10 26 11
REMARK SMILES IDX 27 12 28 13 29 14 30 15 31 16 32 17 15 18 14 19 13 20 12 21
REMARK SMILES IDX 11 22 10 23 9 24 8 25 7 26 6 27 5 28 4 29 3 30 2 31 1 32
REMARK H PARENT
REMARK Flexibility Score: inf
ROOT
ATOM      1  C   UNL     1      25.539 -12.979   2.947  1.00  0.00     0.000 C 
ENDROOT
BRANCH   1   2
ATOM      2  C   UNL     1      24.315 -12.072   2.732  1.00  0.00     0.000 C 
BRANCH   2   3
ATOM      3  C   UNL     1      24.255 -11.544   1.290  1.00  0.00     0.000 C 
BRANCH   3   4
ATOM      4  C   UNL     1      24.187 -10.009   1.203  1.00  0.00     0.000 C 
BRANCH   4   5
ATOM      5  C   UNL     1      24.983  -9.253   2.282  1.00  0.00     0.000 C 
BRANCH   5   6
ATOM      6  C   UNL     1      26.357  -8.712   1.841  1.00  0.00     0.000 C 
BRANCH   6   7
ATOM      7  C   UNL     1      27.381  -9.789   1.441  1.00  0.00     0.000 C 
BRANCH   7   8
ATOM      8  C   UNL     1      28.734  -9.637   2.155  1.00  0.00     0.000 C 
BRANCH   8   9
ATOM      9  C   UNL     1      28.636  -8.576   3.262  1.00  0.00     0.000 C 
BRANCH   9  10
ATOM     10  C   UNL     1      29.213  -9.064   4.608  1.00  0.00     0.000 C 
BRANCH  10  11
ATOM     11  C   UNL     1      28.283  -8.794   5.806  1.00  0.00     0.000 C 
BRANCH  11  12
ATOM     12  C   UNL     1      27.028  -7.962   5.477  1.00  0.00     0.000 C 
BRANCH  12  13
ATOM     13  C   UNL     1      26.017  -7.828   6.633  1.00  0.00     0.006 C 
BRANCH  13  14
ATOM     14  C   UNL     1      24.726  -7.105   6.222  1.00  0.00     0.053 C 
BRANCH  14  15
ATOM     15  C   UNL     1      23.778  -7.018   7.375  1.00  0.00     0.041 C 
ATOM     16  O   UNL     1      23.224  -5.923   7.661  1.00  0.00    -0.550 OA
ATOM     17  O   UNL     1      23.491  -8.152   8.131  1.00  0.00    -0.550 OA
ENDBRANCH  14  15
ENDBRANCH  13  14
ENDBRANCH  12  13
ENDBRANCH  11  12
ENDBRANCH  10  11
ENDBRANCH   9  10
ENDBRANCH   8   9
ENDBRANCH   7   8
ENDBRANCH   6   7
ENDBRANCH   5   6
ENDBRANCH   4   5
ENDBRANCH   3   4
ENDBRANCH   2   3
ENDBRANCH   1   2
BRANCH   1  18
ATOM     18  C   UNL     1      26.545 -12.383   3.952  1.00  0.00     0.000 C 
BRANCH  18  19
ATOM     19  C   UNL     1      25.885 -11.475   5.008  1.00  0.00     0.000 C 
BRANCH  19  20
ATOM     20  C   UNL     1      25.452 -12.196   6.305  1.00  0.00     0.000 C 
BRANCH  20  21
ATOM     21  C   UNL     1      25.032 -11.274   7.470  1.00  0.00     0.000 C 
BRANCH  21  22
ATOM     22  C   UNL     1      23.724 -11.674   8.179  1.00  0.00     0.000 C 
BRANCH  22  23
ATOM     23  C   UNL     1      23.120 -12.966   7.606  1.00  0.00     0.000 C 
BRANCH  23  24
ATOM     24  C   UNL     1      21.739 -13.281   8.207  1.00  0.00    -0.000 C 
BRANCH  24  25
ATOM     25  C   UNL     1      21.081 -14.536   7.591  1.00  0.00    -0.000 C 
BRANCH  25  26
ATOM     26  C   UNL     1      21.461 -14.783   6.114  1.00  0.00    -0.000 C 
BRANCH  26  27
ATOM     27  C   UNL     1      21.197 -16.209   5.599  1.00  0.00    -0.000 C 
BRANCH  27  28
ATOM     28  C   UNL     1      22.242 -16.675   4.568  1.00  0.00    -0.000 C 
BRANCH  28  29
ATOM     29  C   UNL     1      22.937 -15.499   3.868  1.00  0.00    -0.000 C 
BRANCH  29  30
ATOM     30  C   UNL     1      23.166 -15.744   2.368  1.00  0.00    -0.000 C 
BRANCH  30  31
ATOM     31  C   UNL     1      21.870 -15.528   1.574  1.00  0.00    -0.003 C 
ATOM     32  C   UNL     1      21.504 -14.046   1.503  1.00  0.00     0.004 C 
ENDBRANCH  30  31
ENDBRANCH  29  30
ENDBRANCH  28  29
ENDBRANCH  27  28
ENDBRANCH  26  27
ENDBRANCH  25  26
ENDBRANCH  24  25
ENDBRANCH  23  24
ENDBRANCH  22  23
ENDBRANCH  21  22
ENDBRANCH  20  21
ENDBRANCH  19  20
ENDBRANCH  18  19
ENDBRANCH   1  18
TORSDOF 28
ENDMDL
MODEL 8
REMARK VINA RESULT:    -3.719      1.583      4.355
REMARK INTER + INTRA:         -15.235
REMARK INTER:                 -11.111
REMARK INTRA:                  -4.124
REMARK UNBOUND:                -5.429
REMARK SMILES CCCCCCCCCCCCCCCCCCCCCCCCCCCCCC(=O)[O-]
REMARK SMILES IDX 16 1 17 2 18 3 19 4 20 5 21 6 22 7 23 8 24 9 25 10 26 11
REMARK SMILES IDX 27 12 28 13 29 14 30 15 31 16 32 17 15 18 14 19 13 20 12 21
REMARK SMILES IDX 11 22 10 23 9 24 8 25 7 26 6 27 5 28 4 29 3 30 2 31 1 32
REMARK H PARENT
REMARK Flexibility Score: inf
ROOT
ATOM      1  C   UNL     1      24.820 -11.280   7.189  1.00  0.00     0.000 C 
ENDROOT
BRANCH   1   2
ATOM      2  C   UNL     1      26.121 -11.706   6.489  1.00  0.00     0.000 C 
BRANCH   2   3
ATOM      3  C   UNL     1      25.838 -12.344   5.119  1.00  0.00     0.000 C 
BRANCH   3   4
ATOM      4  C   UNL     1      25.979 -11.359   3.945  1.00  0.00     0.000 C 
BRANCH   4   5
ATOM      5  C   UNL     1      24.821 -11.376   2.929  1.00  0.00     0.000 C 
BRANCH   5   6
ATOM      6  C   UNL     1      24.034 -12.697   2.839  1.00  0.00     0.000 C 
BRANCH   6   7
ATOM      7  C   UNL     1      23.285 -12.919   1.512  1.00  0.00     0.000 C 
BRANCH   7   8
ATOM      8  C   UNL     1      21.937 -13.636   1.687  1.00  0.00     0.000 C 
BRANCH   8   9
ATOM      9  C   UNL     1      22.147 -15.155   1.766  1.00  0.00     0.000 C 
BRANCH   9  10
ATOM     10  C   UNL     1      21.608 -15.764   3.079  1.00  0.00     0.000 C 
BRANCH  10  11
ATOM     11  C   UNL     1      22.715 -16.321   3.995  1.00  0.00     0.000 C 
BRANCH  11  12
ATOM     12  C   UNL     1      23.234 -15.332   5.058  1.00  0.00     0.000 C 
BRANCH  12  13
ATOM     13  C   UNL     1      22.600 -15.488   6.454  1.00  0.00     0.006 C 
BRANCH  13  14
ATOM     14  C   UNL     1      21.523 -14.432   6.747  1.00  0.00     0.053 C 
BRANCH  14  15
ATOM     15  C   UNL     1      21.616 -13.961   8.163  1.00  0.00     0.041 C 
ATOM     16  O   UNL     1      21.572 -14.789   9.111  1.00  0.00    -0.550 OA
ATOM     17  O   UNL     1      21.765 -12.604   8.439  1.00  0.00    -0.550 OA
ENDBRANCH  14  15
ENDBRANCH  13  14
ENDBRANCH  12  13
ENDBRANCH  11  12
ENDBRANCH  10  11
ENDBRANCH   9  10
ENDBRANCH   8   9
ENDBRANCH   7   8
ENDBRANCH   6   7
ENDBRANCH   5   6
ENDBRANCH   4   5
ENDBRANCH   3   4
ENDBRANCH   2   3
ENDBRANCH   1   2
BRANCH   1  18
ATOM     18  C   UNL     1      25.037 -10.114   8.177  1.00  0.00     0.000 C 
BRANCH  18  19
ATOM     19  C   UNL     1      23.980  -9.001   8.045  1.00  0.00     0.000 C 
BRANCH  19  20
ATOM     20  C   UNL     1      24.420  -7.783   7.202  1.00  0.00     0.000 C 
BRANCH  20  21
ATOM     21  C   UNL     1      23.580  -6.502   7.395  1.00  0.00     0.000 C 
BRANCH  21  22
ATOM     22  C   UNL     1      24.365  -5.183   7.262  1.00  0.00     0.000 C 
BRANCH  22  23
ATOM     23  C   UNL     1      25.523  -5.289   6.257  1.00  0.00     0.000 C 
BRANCH  23  24
ATOM     24  C   UNL     1      26.668  -4.312   6.581  1.00  0.00    -0.000 C 
BRANCH  24  25
ATOM     25  C   UNL     1      27.624  -4.841   7.674  1.00  0.00    -0.000 C 
BRANCH  25  26
ATOM     26  C   UNL     1      28.853  -5.596   7.120  1.00  0.00    -0.000 C 
BRANCH  26  27
ATOM     27  C   UNL     1      29.034  -7.031   7.650  1.00  0.00    -0.000 C 
BRANCH  27  28
ATOM     28  C   UNL     1      27.870  -7.962   7.262  1.00  0.00    -0.000 C 
BRANCH  28  29
ATOM     29  C   UNL     1      28.115  -8.678   5.927  1.00  0.00    -0.000 C 
BRANCH  29  30
ATOM     30  C   UNL     1      27.334  -8.054   4.759  1.00  0.00    -0.000 C 
BRANCH  30  31
ATOM     31  C   UNL     1      28.286  -7.628   3.633  1.00  0.00    -0.003 C 
ATOM     32  C   UNL     1      28.444  -6.109   3.586  1.00  0.00     0.004 C 
ENDBRANCH  30  31
ENDBRANCH  29  30
ENDBRANCH  28  29
ENDBRANCH  27  28
ENDBRANCH  26  27
ENDBRANCH  25  26
ENDBRANCH  24  25
ENDBRANCH  23  24
ENDBRANCH  22  23
ENDBRANCH  21  22
ENDBRANCH  20  21
ENDBRANCH  19  20
ENDBRANCH  18  19
ENDBRANCH   1  18
TORSDOF 28
ENDMDL
MODEL 9
REMARK VINA RESULT:    -3.708      2.318      7.769
REMARK INTER + INTRA:         -15.205
REMARK INTER:                  -9.611
REMARK INTRA:                  -5.594
REMARK UNBOUND:                -5.429
REMARK SMILES CCCCCCCCCCCCCCCCCCCCCCCCCCCCCC(=O)[O-]
REMARK SMILES IDX 16 1 17 2 18 3 19 4 20 5 21 6 22 7 23 8 24 9 25 10 26 11
REMARK SMILES IDX 27 12 28 13 29 14 30 15 31 16 32 17 15 18 14 19 13 20 12 21
REMARK SMILES IDX 11 22 10 23 9 24 8 25 7 26 6 27 5 28 4 29 3 30 2 31 1 32
REMARK H PARENT
REMARK Flexibility Score: inf
ROOT
ATOM      1  C   UNL     1      25.526 -10.752   4.105  1.00  0.00     0.000 C 
ENDROOT
BRANCH   1   2
ATOM      2  C   UNL     1      25.911 -12.238   4.187  1.00  0.00     0.000 C 
BRANCH   2   3
ATOM      3  C   UNL     1      26.916 -12.496   5.321  1.00  0.00     0.000 C 
BRANCH   3   4
ATOM      4  C   UNL     1      28.384 -12.339   4.886  1.00  0.00     0.000 C 
BRANCH   4   5
ATOM      5  C   UNL     1      28.662 -12.617   3.397  1.00  0.00     0.000 C 
BRANCH   5   6
ATOM      6  C   UNL     1      29.055 -11.389   2.553  1.00  0.00     0.000 C 
BRANCH   6   7
ATOM      7  C   UNL     1      29.398 -10.125   3.363  1.00  0.00     0.000 C 
BRANCH   7   8
ATOM      8  C   UNL     1      28.641  -8.874   2.889  1.00  0.00     0.000 C 
BRANCH   8   9
ATOM      9  C   UNL     1      28.023  -8.139   4.089  1.00  0.00     0.000 C 
BRANCH   9  10
ATOM     10  C   UNL     1      28.423  -8.765   5.442  1.00  0.00     0.000 C 
BRANCH  10  11
ATOM     11  C   UNL     1      27.735  -8.102   6.651  1.00  0.00     0.000 C 
BRANCH  11  12
ATOM     12  C   UNL     1      26.562  -8.904   7.248  1.00  0.00     0.000 C 
BRANCH  12  13
ATOM     13  C   UNL     1      25.162  -8.433   6.805  1.00  0.00     0.006 C 
BRANCH  13  14
ATOM     14  C   UNL     1      25.167  -7.019   6.205  1.00  0.00     0.053 C 
BRANCH  14  15
ATOM     15  C   UNL     1      24.229  -6.125   6.952  1.00  0.00     0.041 C 
ATOM     16  O   UNL     1      23.063  -6.516   7.228  1.00  0.00    -0.550 OA
ATOM     17  O   UNL     1      24.645  -4.860   7.359  1.00  0.00    -0.550 OA
ENDBRANCH  14  15
ENDBRANCH  13  14
ENDBRANCH  12  13
ENDBRANCH  11  12
ENDBRANCH  10  11
ENDBRANCH   9  10
ENDBRANCH   8   9
ENDBRANCH   7   8
ENDBRANCH   6   7
ENDBRANCH   5   6
ENDBRANCH   4   5
ENDBRANCH   3   4
ENDBRANCH   2   3
ENDBRANCH   1   2
BRANCH   1  18
ATOM     18  C   UNL     1      25.216 -10.302   2.663  1.00  0.00     0.000 C 
BRANCH  18  19
ATOM     19  C   UNL     1      25.181 -11.468   1.656  1.00  0.00     0.000 C 
BRANCH  19  20
ATOM     20  C   UNL     1      23.767 -11.892   1.200  1.00  0.00     0.000 C 
BRANCH  20  21
ATOM     21  C   UNL     1      23.261 -13.238   1.763  1.00  0.00     0.000 C 
BRANCH  21  22
ATOM     22  C   UNL     1      21.837 -13.633   1.328  1.00  0.00     0.000 C 
BRANCH  22  23
ATOM     23  C   UNL     1      21.511 -15.099   1.655  1.00  0.00     0.000 C 
BRANCH  23  24
ATOM     24  C   UNL     1      22.679 -16.045   1.322  1.00  0.00    -0.000 C 
BRANCH  24  25
ATOM     25  C   UNL     1      22.919 -17.117   2.409  1.00  0.00    -0.000 C 
BRANCH  25  26
ATOM     26  C   UNL     1      24.358 -17.129   2.972  1.00  0.00    -0.000 C 
BRANCH  26  27
ATOM     27  C   UNL     1      24.891 -15.762   3.437  1.00  0.00    -0.000 C 
BRANCH  27  28
ATOM     28  C   UNL     1      25.264 -15.742   4.931  1.00  0.00    -0.000 C 
BRANCH  28  29
ATOM     29  C   UNL     1      24.049 -15.481   5.833  1.00  0.00    -0.000 C 
BRANCH  29  30
ATOM     30  C   UNL     1      23.059 -14.473   5.228  1.00  0.00    -0.000 C 
BRANCH  30  31
ATOM     31  C   UNL     1      21.644 -14.699   5.781  1.00  0.00    -0.003 C 
ATOM     32  C   UNL     1      21.128 -16.094   5.429  1.00  0.00     0.004 C 
ENDBRANCH  30  31
ENDBRANCH  29  30
ENDBRANCH  28  29
ENDBRANCH  27  28
ENDBRANCH  26  27
ENDBRANCH  25  26
ENDBRANCH  24  25
ENDBRANCH  23  24
ENDBRANCH  22  23
ENDBRANCH  21  22
ENDBRANCH  20  21
ENDBRANCH  19  20
ENDBRANCH  18  19
ENDBRANCH   1  18
TORSDOF 28
ENDMDL
