MODEL 1
REMARK VINA RESULT:    -7.775      0.000      0.000
REMARK INTER + INTRA:          -9.654
REMARK INTER:                  -9.366
REMARK INTRA:                  -0.288
REMARK UNBOUND:                -0.288
REMARK SMILES O=c1c(O)c(-c2ccc(O)c(O)c2)oc2cc(O)cc(O)c12
REMARK SMILES IDX 5 1 3 2 2 3 1 4 22 5 20 6 19 7 17 8 16 9 15 10 14 11 6 12
REMARK SMILES IDX 7 13 8 14 9 15 13 16 11 17 10 18 12 20 4 22 21 24 18 26
REMARK H PARENT 10 19 12 21 4 23 21 25 18 27
REMARK Flexibility Score: inf
ROOT
ATOM      1  C   UNL     1      -2.211  -2.503   5.462  1.00  0.00     0.180 A 
ATOM      2  C   UNL     1      -1.129  -2.825   6.300  1.00  0.00     0.208 A 
ATOM      3  C   UNL     1      -1.050  -4.116   6.843  1.00  0.00     0.238 A 
ATOM      4  O   UNL     1      -0.108  -4.382   7.635  1.00  0.00    -0.285 OA
ATOM      5  C   UNL     1      -2.044  -5.074   6.531  1.00  0.00     0.111 A 
ATOM      6  C   UNL     1      -2.043  -6.425   6.993  1.00  0.00     0.134 A 
ATOM      7  C   UNL     1      -3.145  -7.247   6.727  1.00  0.00     0.093 A 
ATOM      8  C   UNL     1      -4.217  -6.790   5.963  1.00  0.00     0.123 A 
ATOM      9  C   UNL     1      -4.201  -5.490   5.455  1.00  0.00     0.094 A 
ATOM     10  C   UNL     1      -3.133  -4.635   5.733  1.00  0.00     0.146 A 
ATOM     11  O   UNL     1      -3.162  -3.402   5.241  1.00  0.00    -0.452 OA
ENDROOT
BRANCH   1  12
ATOM     12  C   UNL     1      -2.351  -1.170   4.832  1.00  0.00     0.025 A 
ATOM     13  C   UNL     1      -3.210  -0.194   5.367  1.00  0.00     0.016 A 
ATOM     14  C   UNL     1      -3.308   1.065   4.769  1.00  0.00     0.051 A 
ATOM     15  C   UNL     1      -2.540   1.373   3.639  1.00  0.00     0.157 A 
ATOM     16  C   UNL     1      -1.567  -0.849   3.711  1.00  0.00     0.062 A 
ATOM     17  C   UNL     1      -1.663   0.411   3.110  1.00  0.00     0.158 A 
BRANCH  15  18
ATOM     18  O   UNL     1      -2.641   2.630   3.043  1.00  0.00    -0.504 OA
ATOM     19  H   UNL     1      -3.383   2.849   2.389  1.00  0.00     0.293 HD
ENDBRANCH  15  18
BRANCH  17  20
ATOM     20  O   UNL     1      -0.880   0.689   1.990  1.00  0.00    -0.504 OA
ATOM     21  H   UNL     1      -0.016   1.213   2.054  1.00  0.00     0.293 HD
ENDBRANCH  17  20
ENDBRANCH   1  12
BRANCH   2  22
ATOM     22  O   UNL     1      -0.170  -1.857   6.613  1.00  0.00    -0.502 OA
ATOM     23  H   UNL     1      -0.335  -0.867   6.481  1.00  0.00     0.293 HD
ENDBRANCH   2  22
BRANCH   6  24
ATOM     24  O   UNL     1      -0.980  -7.011   7.686  1.00  0.00    -0.507 OA
ATOM     25  H   UNL     1      -0.552  -6.627   8.515  1.00  0.00     0.293 HD
ENDBRANCH   6  24
BRANCH   8  26
ATOM     26  O   UNL     1      -5.290  -7.641   5.705  1.00  0.00    -0.508 OA
ATOM     27  H   UNL     1      -5.373  -8.137   4.825  1.00  0.00     0.293 HD
ENDBRANCH   8  26
TORSDOF 6
ENDMDL
MODEL 2
REMARK VINA RESULT:    -7.667      2.366      7.106
REMARK INTER + INTRA:          -9.523
REMARK INTER:                  -9.517
REMARK INTRA:                  -0.006
REMARK UNBOUND:                -0.288
REMARK SMILES O=c1c(O)c(-c2ccc(O)c(O)c2)oc2cc(O)cc(O)c12
REMARK SMILES IDX 5 1 3 2 2 3 1 4 22 5 20 6 19 7 17 8 16 9 15 10 14 11 6 12
REMARK SMILES IDX 7 13 8 14 9 15 13 16 11 17 10 18 12 20 4 22 21 24 18 26
REMARK H PARENT 10 19 12 21 4 23 21 25 18 27
REMARK Flexibility Score: inf
ROOT
ATOM      1  C   UNL     1      -2.498  -0.941   4.193  1.00  0.00     0.180 A 
ATOM      2  C   UNL     1      -1.757  -0.123   3.322  1.00  0.00     0.208 A 
ATOM      3  C   UNL     1      -1.902   1.270   3.410  1.00  0.00     0.238 A 
ATOM      4  O   UNL     1      -1.278   1.995   2.592  1.00  0.00    -0.285 OA
ATOM      5  C   UNL     1      -2.772   1.829   4.377  1.00  0.00     0.111 A 
ATOM      6  C   UNL     1      -2.966   3.228   4.582  1.00  0.00     0.134 A 
ATOM      7  C   UNL     1      -3.949   3.666   5.478  1.00  0.00     0.093 A 
ATOM      8  C   UNL     1      -4.699   2.759   6.223  1.00  0.00     0.123 A 
ATOM      9  C   UNL     1      -4.476   1.389   6.075  1.00  0.00     0.094 A 
ATOM     10  C   UNL     1      -3.528   0.921   5.163  1.00  0.00     0.146 A 
ATOM     11  O   UNL     1      -3.355  -0.391   5.044  1.00  0.00    -0.452 OA
ENDROOT
BRANCH   1  12
ATOM     12  C   UNL     1      -2.381  -2.418   4.178  1.00  0.00     0.025 A 
ATOM     13  C   UNL     1      -2.118  -3.143   5.354  1.00  0.00     0.016 A 
ATOM     14  C   UNL     1      -2.035  -4.537   5.320  1.00  0.00     0.051 A 
ATOM     15  C   UNL     1      -2.227  -5.228   4.117  1.00  0.00     0.157 A 
ATOM     16  C   UNL     1      -2.592  -3.116   2.978  1.00  0.00     0.062 A 
ATOM     17  C   UNL     1      -2.509  -4.513   2.941  1.00  0.00     0.158 A 
BRANCH  15  18
ATOM     18  O   UNL     1      -2.141  -6.619   4.086  1.00  0.00    -0.504 OA
ATOM     19  H   UNL     1      -1.366  -7.113   4.512  1.00  0.00     0.293 HD
ENDBRANCH  15  18
BRANCH  17  20
ATOM     20  O   UNL     1      -2.711  -5.171   1.728  1.00  0.00    -0.504 OA
ATOM     21  H   UNL     1      -2.284  -6.067   1.524  1.00  0.00     0.293 HD
ENDBRANCH  17  20
ENDBRANCH   1  12
BRANCH   2  22
ATOM     22  O   UNL     1      -0.921  -0.696   2.360  1.00  0.00    -0.502 OA
ATOM     23  H   UNL     1      -0.110  -0.216   1.989  1.00  0.00     0.293 HD
ENDBRANCH   2  22
BRANCH   6  24
ATOM     24  O   UNL     1      -2.206   4.221   3.955  1.00  0.00    -0.507 OA
ATOM     25  H   UNL     1      -2.563   4.879   3.280  1.00  0.00     0.293 HD
ENDBRANCH   6  24
BRANCH   8  26
ATOM     26  O   UNL     1      -5.657   3.230   7.118  1.00  0.00    -0.508 OA
ATOM     27  H   UNL     1      -6.235   2.596   7.658  1.00  0.00     0.293 HD
ENDBRANCH   8  26
TORSDOF 6
ENDMDL
MODEL 3
REMARK VINA RESULT:    -7.650     14.088     16.100
REMARK INTER + INTRA:          -9.502
REMARK INTER:                  -9.215
REMARK INTRA:                  -0.287
REMARK UNBOUND:                -0.288
REMARK SMILES O=c1c(O)c(-c2ccc(O)c(O)c2)oc2cc(O)cc(O)c12
REMARK SMILES IDX 5 1 3 2 2 3 1 4 22 5 20 6 19 7 17 8 16 9 15 10 14 11 6 12
REMARK SMILES IDX 7 13 8 14 9 15 13 16 11 17 10 18 12 20 4 22 21 24 18 26
REMARK H PARENT 10 19 12 21 4 23 21 25 18 27
REMARK Flexibility Score: inf
ROOT
ATOM      1  C   UNL     1       1.791   6.700  -6.377  1.00  0.00     0.180 A 
ATOM      2  C   UNL     1       2.096   6.667  -7.749  1.00  0.00     0.208 A 
ATOM      3  C   UNL     1       1.279   5.917  -8.609  1.00  0.00     0.238 A 
ATOM      4  O   UNL     1       1.589   5.847  -9.827  1.00  0.00    -0.285 OA
ATOM      5  C   UNL     1       0.158   5.225  -8.091  1.00  0.00     0.111 A 
ATOM      6  C   UNL     1      -0.762   4.467  -8.878  1.00  0.00     0.134 A 
ATOM      7  C   UNL     1      -1.759   3.717  -8.243  1.00  0.00     0.093 A 
ATOM      8  C   UNL     1      -1.911   3.747  -6.858  1.00  0.00     0.123 A 
ATOM      9  C   UNL     1      -1.055   4.532  -6.084  1.00  0.00     0.094 A 
ATOM     10  C   UNL     1      -0.028   5.263  -6.685  1.00  0.00     0.146 A 
ATOM     11  O   UNL     1       0.772   5.987  -5.911  1.00  0.00    -0.452 OA
ENDROOT
BRANCH   1  12
ATOM     12  C   UNL     1       2.591   7.488  -5.410  1.00  0.00     0.025 A 
ATOM     13  C   UNL     1       2.134   8.723  -4.918  1.00  0.00     0.016 A 
ATOM     14  C   UNL     1       2.895   9.437  -3.988  1.00  0.00     0.051 A 
ATOM     15  C   UNL     1       4.114   8.923  -3.527  1.00  0.00     0.157 A 
ATOM     16  C   UNL     1       3.803   6.967  -4.929  1.00  0.00     0.062 A 
ATOM     17  C   UNL     1       4.567   7.680  -3.999  1.00  0.00     0.158 A 
BRANCH  15  18
ATOM     18  O   UNL     1       4.871   9.639  -2.601  1.00  0.00    -0.504 OA
ATOM     19  H   UNL     1       4.467   9.987  -1.740  1.00  0.00     0.293 HD
ENDBRANCH  15  18
BRANCH  17  20
ATOM     20  O   UNL     1       5.773   7.137  -3.554  1.00  0.00    -0.504 OA
ATOM     21  H   UNL     1       5.906   6.139  -3.445  1.00  0.00     0.293 HD
ENDBRANCH  17  20
ENDBRANCH   1  12
BRANCH   2  22
ATOM     22  O   UNL     1       3.220   7.340  -8.235  1.00  0.00    -0.502 OA
ATOM     23  H   UNL     1       3.593   7.175  -9.162  1.00  0.00     0.293 HD
ENDBRANCH   2  22
BRANCH   6  24
ATOM     24  O   UNL     1      -0.756   4.442 -10.276  1.00  0.00    -0.507 OA
ATOM     25  H   UNL     1      -1.267   5.082 -10.865  1.00  0.00     0.293 HD
ENDBRANCH   6  24
BRANCH   8  26
ATOM     26  O   UNL     1      -2.925   3.001  -6.261  1.00  0.00    -0.508 OA
ATOM     27  H   UNL     1      -3.365   3.300  -5.398  1.00  0.00     0.293 HD
ENDBRANCH   8  26
TORSDOF 6
ENDMDL
MODEL 4
REMARK VINA RESULT:    -7.640      2.215      3.021
REMARK INTER + INTRA:          -9.491
REMARK INTER:                  -9.168
REMARK INTRA:                  -0.323
REMARK UNBOUND:                -0.288
REMARK SMILES O=c1c(O)c(-c2ccc(O)c(O)c2)oc2cc(O)cc(O)c12
REMARK SMILES IDX 5 1 3 2 2 3 1 4 22 5 20 6 19 7 17 8 16 9 15 10 14 11 6 12
REMARK SMILES IDX 7 13 8 14 9 15 13 16 11 17 10 18 12 20 4 22 21 24 18 26
REMARK H PARENT 10 19 12 21 4 23 21 25 18 27
REMARK Flexibility Score: inf
ROOT
ATOM      1  C   UNL     1      -2.663  -1.015   4.670  1.00  0.00     0.180 A 
ATOM      2  C   UNL     1      -2.242  -1.921   3.682  1.00  0.00     0.208 A 
ATOM      3  C   UNL     1      -2.473  -3.292   3.874  1.00  0.00     0.238 A 
ATOM      4  O   UNL     1      -2.046  -4.104   3.011  1.00  0.00    -0.285 OA
ATOM      5  C   UNL     1      -3.135  -3.739   5.042  1.00  0.00     0.111 A 
ATOM      6  C   UNL     1      -3.458  -5.101   5.322  1.00  0.00     0.134 A 
ATOM      7  C   UNL     1      -3.998  -5.442   6.567  1.00  0.00     0.093 A 
ATOM      8  C   UNL     1      -4.287  -4.465   7.519  1.00  0.00     0.123 A 
ATOM      9  C   UNL     1      -4.031  -3.123   7.233  1.00  0.00     0.094 A 
ATOM     10  C   UNL     1      -3.460  -2.756   6.013  1.00  0.00     0.146 A 
ATOM     11  O   UNL     1      -3.222  -1.469   5.785  1.00  0.00    -0.452 OA
ENDROOT
BRANCH   1  12
ATOM     12  C   UNL     1      -2.476   0.448   4.529  1.00  0.00     0.025 A 
ATOM     13  C   UNL     1      -1.312   1.085   4.993  1.00  0.00     0.016 A 
ATOM     14  C   UNL     1      -1.147   2.463   4.827  1.00  0.00     0.051 A 
ATOM     15  C   UNL     1      -2.135   3.221   4.185  1.00  0.00     0.157 A 
ATOM     16  C   UNL     1      -3.454   1.209   3.868  1.00  0.00     0.062 A 
ATOM     17  C   UNL     1      -3.293   2.589   3.701  1.00  0.00     0.158 A 
BRANCH  15  18
ATOM     18  O   UNL     1      -1.969   4.596   4.024  1.00  0.00    -0.504 OA
ATOM     19  H   UNL     1      -2.080   5.239   4.799  1.00  0.00     0.293 HD
ENDBRANCH  15  18
BRANCH  17  20
ATOM     20  O   UNL     1      -4.292   3.315   3.052  1.00  0.00    -0.504 OA
ATOM     21  H   UNL     1      -4.747   4.110   3.484  1.00  0.00     0.293 HD
ENDBRANCH  17  20
ENDBRANCH   1  12
BRANCH   2  22
ATOM     22  O   UNL     1      -1.569  -1.461   2.546  1.00  0.00    -0.502 OA
ATOM     23  H   UNL     1      -0.698  -0.948   2.601  1.00  0.00     0.293 HD
ENDBRANCH   2  22
BRANCH   6  24
ATOM     24  O   UNL     1      -3.296  -6.145   4.405  1.00  0.00    -0.507 OA
ATOM     25  H   UNL     1      -2.420  -6.404   3.978  1.00  0.00     0.293 HD
ENDBRANCH   6  24
BRANCH   8  26
ATOM     26  O   UNL     1      -4.839  -4.838   8.743  1.00  0.00    -0.508 OA
ATOM     27  H   UNL     1      -4.321  -4.743   9.608  1.00  0.00     0.293 HD
ENDBRANCH   8  26
TORSDOF 6
ENDMDL
MODEL 5
REMARK VINA RESULT:    -7.429      2.281      3.044
REMARK INTER + INTRA:          -9.237
REMARK INTER:                  -9.291
REMARK INTRA:                   0.055
REMARK UNBOUND:                -0.288
REMARK SMILES O=c1c(O)c(-c2ccc(O)c(O)c2)oc2cc(O)cc(O)c12
REMARK SMILES IDX 5 1 3 2 2 3 1 4 22 5 20 6 19 7 17 8 16 9 15 10 14 11 6 12
REMARK SMILES IDX 7 13 8 14 9 15 13 16 11 17 10 18 12 20 4 22 21 24 18 26
REMARK H PARENT 10 19 12 21 4 23 21 25 18 27
REMARK Flexibility Score: inf
ROOT
ATOM      1  C   UNL     1      -2.656  -0.591   5.118  1.00  0.00     0.180 A 
ATOM      2  C   UNL     1      -3.627  -0.677   6.131  1.00  0.00     0.208 A 
ATOM      3  C   UNL     1      -4.137  -1.937   6.479  1.00  0.00     0.238 A 
ATOM      4  O   UNL     1      -5.046  -2.002   7.349  1.00  0.00    -0.285 OA
ATOM      5  C   UNL     1      -3.659  -3.097   5.824  1.00  0.00     0.111 A 
ATOM      6  C   UNL     1      -4.075  -4.429   6.124  1.00  0.00     0.134 A 
ATOM      7  C   UNL     1      -3.632  -5.488   5.324  1.00  0.00     0.093 A 
ATOM      8  C   UNL     1      -2.739  -5.275   4.276  1.00  0.00     0.123 A 
ATOM      9  C   UNL     1      -2.278  -3.984   4.010  1.00  0.00     0.094 A 
ATOM     10  C   UNL     1      -2.730  -2.902   4.768  1.00  0.00     0.146 A 
ATOM     11  O   UNL     1      -2.276  -1.689   4.476  1.00  0.00    -0.452 OA
ENDROOT
BRANCH   1  12
ATOM     12  C   UNL     1      -2.053   0.700   4.712  1.00  0.00     0.025 A 
ATOM     13  C   UNL     1      -1.634   1.644   5.666  1.00  0.00     0.016 A 
ATOM     14  C   UNL     1      -1.046   2.844   5.260  1.00  0.00     0.051 A 
ATOM     15  C   UNL     1      -0.855   3.114   3.899  1.00  0.00     0.157 A 
ATOM     16  C   UNL     1      -1.840   0.965   3.349  1.00  0.00     0.062 A 
ATOM     17  C   UNL     1      -1.252   2.167   2.940  1.00  0.00     0.158 A 
BRANCH  15  18
ATOM     18  O   UNL     1      -0.270   4.314   3.496  1.00  0.00    -0.504 OA
ATOM     19  H   UNL     1      -0.751   5.199   3.597  1.00  0.00     0.293 HD
ENDBRANCH  15  18
BRANCH  17  20
ATOM     20  O   UNL     1      -1.069   2.402   1.577  1.00  0.00    -0.504 OA
ATOM     21  H   UNL     1      -1.738   2.090   0.883  1.00  0.00     0.293 HD
ENDBRANCH  17  20
ENDBRANCH   1  12
BRANCH   2  22
ATOM     22  O   UNL     1      -4.102   0.483   6.750  1.00  0.00    -0.502 OA
ATOM     23  H   UNL     1      -3.512   1.073   7.324  1.00  0.00     0.293 HD
ENDBRANCH   2  22
BRANCH   6  24
ATOM     24  O   UNL     1      -4.894  -4.764   7.207  1.00  0.00    -0.507 OA
ATOM     25  H   UNL     1      -5.216  -5.697   7.418  1.00  0.00     0.293 HD
ENDBRANCH   6  24
BRANCH   8  26
ATOM     26  O   UNL     1      -2.306  -6.355   3.509  1.00  0.00    -0.508 OA
ATOM     27  H   UNL     1      -2.951  -6.898   2.947  1.00  0.00     0.293 HD
ENDBRANCH   8  26
TORSDOF 6
ENDMDL
MODEL 6
REMARK VINA RESULT:    -7.401      5.072     10.276
REMARK INTER + INTRA:          -9.202
REMARK INTER:                  -8.870
REMARK INTRA:                  -0.332
REMARK UNBOUND:                -0.288
REMARK SMILES O=c1c(O)c(-c2ccc(O)c(O)c2)oc2cc(O)cc(O)c12
REMARK SMILES IDX 5 1 3 2 2 3 1 4 22 5 20 6 19 7 17 8 16 9 15 10 14 11 6 12
REMARK SMILES IDX 7 13 8 14 9 15 13 16 11 17 10 18 12 20 4 22 21 24 18 26
REMARK H PARENT 10 19 12 21 4 23 21 25 18 27
REMARK Flexibility Score: inf
ROOT
ATOM      1  C   UNL     1      -1.283   4.407   4.647  1.00  0.00     0.180 A 
ATOM      2  C   UNL     1      -0.387   4.678   5.696  1.00  0.00     0.208 A 
ATOM      3  C   UNL     1       0.042   5.999   5.900  1.00  0.00     0.238 A 
ATOM      4  O   UNL     1       0.886   6.227   6.806  1.00  0.00    -0.285 OA
ATOM      5  C   UNL     1      -0.443   7.034   5.066  1.00  0.00     0.111 A 
ATOM      6  C   UNL     1      -0.108   8.415   5.208  1.00  0.00     0.134 A 
ATOM      7  C   UNL     1      -0.543   9.334   4.246  1.00  0.00     0.093 A 
ATOM      8  C   UNL     1      -1.354   8.936   3.184  1.00  0.00     0.123 A 
ATOM      9  C   UNL     1      -1.737   7.599   3.069  1.00  0.00     0.094 A 
ATOM     10  C   UNL     1      -1.290   6.652   3.993  1.00  0.00     0.146 A 
ATOM     11  O   UNL     1      -1.668   5.388   3.841  1.00  0.00    -0.452 OA
ENDROOT
BRANCH   1  12
ATOM     12  C   UNL     1      -1.799   3.044   4.384  1.00  0.00     0.025 A 
ATOM     13  C   UNL     1      -2.937   2.552   5.047  1.00  0.00     0.016 A 
ATOM     14  C   UNL     1      -3.420   1.271   4.765  1.00  0.00     0.051 A 
ATOM     15  C   UNL     1      -2.783   0.470   3.809  1.00  0.00     0.157 A 
ATOM     16  C   UNL     1      -1.176   2.244   3.411  1.00  0.00     0.062 A 
ATOM     17  C   UNL     1      -1.658   0.962   3.127  1.00  0.00     0.158 A 
BRANCH  15  18
ATOM     18  O   UNL     1      -3.266  -0.808   3.531  1.00  0.00    -0.504 OA
ATOM     19  H   UNL     1      -3.806  -1.002   2.696  1.00  0.00     0.293 HD
ENDBRANCH  15  18
BRANCH  17  20
ATOM     20  O   UNL     1      -1.005   0.191   2.164  1.00  0.00    -0.504 OA
ATOM     21  H   UNL     1      -0.337  -0.528   2.413  1.00  0.00     0.293 HD
ENDBRANCH  17  20
ENDBRANCH   1  12
BRANCH   2  22
ATOM     22  O   UNL     1       0.097   3.637   6.494  1.00  0.00    -0.502 OA
ATOM     23  H   UNL     1       0.720   2.923   6.137  1.00  0.00     0.293 HD
ENDBRANCH   2  22
BRANCH   6  24
ATOM     24  O   UNL     1       0.620   8.934   6.283  1.00  0.00    -0.507 OA
ATOM     25  H   UNL     1       1.206   8.389   6.898  1.00  0.00     0.293 HD
ENDBRANCH   6  24
BRANCH   8  26
ATOM     26  O   UNL     1      -1.782   9.881   2.254  1.00  0.00    -0.508 OA
ATOM     27  H   UNL     1      -1.911   9.642   1.277  1.00  0.00     0.293 HD
ENDBRANCH   8  26
TORSDOF 6
ENDMDL
MODEL 7
REMARK VINA RESULT:    -7.339     11.304     14.438
REMARK INTER + INTRA:          -9.129
REMARK INTER:                  -8.797
REMARK INTRA:                  -0.331
REMARK UNBOUND:                -0.288
REMARK SMILES O=c1c(O)c(-c2ccc(O)c(O)c2)oc2cc(O)cc(O)c12
REMARK SMILES IDX 5 1 3 2 2 3 1 4 22 5 20 6 19 7 17 8 16 9 15 10 14 11 6 12
REMARK SMILES IDX 7 13 8 14 9 15 13 16 11 17 10 18 12 20 4 22 21 24 18 26
REMARK H PARENT 10 19 12 21 4 23 21 25 18 27
REMARK Flexibility Score: inf
ROOT
ATOM      1  C   UNL     1      -8.061  -2.521  -5.788  1.00  0.00     0.180 A 
ATOM      2  C   UNL     1      -8.893  -2.304  -6.901  1.00  0.00     0.208 A 
ATOM      3  C   UNL     1      -8.483  -1.395  -7.889  1.00  0.00     0.238 A 
ATOM      4  O   UNL     1      -9.256  -1.164  -8.855  1.00  0.00    -0.285 OA
ATOM      5  C   UNL     1      -7.241  -0.728  -7.761  1.00  0.00     0.111 A 
ATOM      6  C   UNL     1      -6.707   0.183  -8.722  1.00  0.00     0.134 A 
ATOM      7  C   UNL     1      -5.531   0.884  -8.430  1.00  0.00     0.093 A 
ATOM      8  C   UNL     1      -4.834   0.661  -7.244  1.00  0.00     0.123 A 
ATOM      9  C   UNL     1      -5.315  -0.272  -6.324  1.00  0.00     0.094 A 
ATOM     10  C   UNL     1      -6.505  -0.960  -6.570  1.00  0.00     0.146 A 
ATOM     11  O   UNL     1      -6.934  -1.831  -5.664  1.00  0.00    -0.452 OA
ENDROOT
BRANCH   1  12
ATOM     12  C   UNL     1      -8.413  -3.481  -4.717  1.00  0.00     0.025 A 
ATOM     13  C   UNL     1      -8.021  -4.830  -4.786  1.00  0.00     0.016 A 
ATOM     14  C   UNL     1      -8.344  -5.713  -3.753  1.00  0.00     0.051 A 
ATOM     15  C   UNL     1      -9.050  -5.261  -2.630  1.00  0.00     0.157 A 
ATOM     16  C   UNL     1      -9.103  -3.028  -3.580  1.00  0.00     0.062 A 
ATOM     17  C   UNL     1      -9.428  -3.910  -2.543  1.00  0.00     0.158 A 
BRANCH  15  18
ATOM     18  O   UNL     1      -9.372  -6.144  -1.601  1.00  0.00    -0.504 OA
ATOM     19  H   UNL     1     -10.299  -6.545  -1.517  1.00  0.00     0.293 HD
ENDBRANCH  15  18
BRANCH  17  20
ATOM     20  O   UNL     1     -10.125  -3.427  -1.436  1.00  0.00    -0.504 OA
ATOM     21  H   UNL     1     -10.383  -2.452  -1.347  1.00  0.00     0.293 HD
ENDBRANCH  17  20
ENDBRANCH   1  12
BRANCH   2  22
ATOM     22  O   UNL     1     -10.125  -2.956  -6.996  1.00  0.00    -0.502 OA
ATOM     23  H   UNL     1     -10.982  -2.555  -6.634  1.00  0.00     0.293 HD
ENDBRANCH   2  22
BRANCH   6  24
ATOM     24  O   UNL     1      -7.274   0.412  -9.979  1.00  0.00    -0.507 OA
ATOM     25  H   UNL     1      -7.210  -0.220 -10.763  1.00  0.00     0.293 HD
ENDBRANCH   6  24
BRANCH   8  26
ATOM     26  O   UNL     1      -3.658   1.364  -6.994  1.00  0.00    -0.508 OA
ATOM     27  H   UNL     1      -3.465   2.252  -7.443  1.00  0.00     0.293 HD
ENDBRANCH   8  26
TORSDOF 6
ENDMDL
MODEL 8
REMARK VINA RESULT:    -7.267      6.077     10.516
REMARK INTER + INTRA:          -9.041
REMARK INTER:                  -8.753
REMARK INTRA:                  -0.288
REMARK UNBOUND:                -0.288
REMARK SMILES O=c1c(O)c(-c2ccc(O)c(O)c2)oc2cc(O)cc(O)c12
REMARK SMILES IDX 5 1 3 2 2 3 1 4 22 5 20 6 19 7 17 8 16 9 15 10 14 11 6 12
REMARK SMILES IDX 7 13 8 14 9 15 13 16 11 17 10 18 12 20 4 22 21 24 18 26
REMARK H PARENT 10 19 12 21 4 23 21 25 18 27
REMARK Flexibility Score: inf
ROOT
ATOM      1  C   UNL     1      -0.666   5.105   5.411  1.00  0.00     0.180 A 
ATOM      2  C   UNL     1      -1.029   6.430   5.111  1.00  0.00     0.208 A 
ATOM      3  C   UNL     1      -0.271   7.481   5.651  1.00  0.00     0.238 A 
ATOM      4  O   UNL     1      -0.633   8.665   5.423  1.00  0.00    -0.285 OA
ATOM      5  C   UNL     1       0.849   7.195   6.468  1.00  0.00     0.111 A 
ATOM      6  C   UNL     1       1.712   8.181   7.035  1.00  0.00     0.134 A 
ATOM      7  C   UNL     1       2.711   7.790   7.934  1.00  0.00     0.093 A 
ATOM      8  C   UNL     1       2.921   6.446   8.238  1.00  0.00     0.123 A 
ATOM      9  C   UNL     1       2.122   5.468   7.643  1.00  0.00     0.094 A 
ATOM     10  C   UNL     1       1.094   5.830   6.770  1.00  0.00     0.146 A 
ATOM     11  O   UNL     1       0.349   4.870   6.234  1.00  0.00    -0.452 OA
ENDROOT
BRANCH   1  12
ATOM     12  C   UNL     1      -1.401   3.943   4.860  1.00  0.00     0.025 A 
ATOM     13  C   UNL     1      -2.631   3.532   5.402  1.00  0.00     0.016 A 
ATOM     14  C   UNL     1      -3.319   2.447   4.852  1.00  0.00     0.051 A 
ATOM     15  C   UNL     1      -2.796   1.767   3.744  1.00  0.00     0.157 A 
ATOM     16  C   UNL     1      -0.891   3.271   3.737  1.00  0.00     0.062 A 
ATOM     17  C   UNL     1      -1.577   2.184   3.183  1.00  0.00     0.158 A 
BRANCH  15  18
ATOM     18  O   UNL     1      -3.483   0.684   3.198  1.00  0.00    -0.504 OA
ATOM     19  H   UNL     1      -3.965   0.012   3.782  1.00  0.00     0.293 HD
ENDBRANCH  15  18
BRANCH  17  20
ATOM     20  O   UNL     1      -1.033   1.532   2.076  1.00  0.00    -0.504 OA
ATOM     21  H   UNL     1      -1.537   1.444   1.202  1.00  0.00     0.293 HD
ENDBRANCH  17  20
ENDBRANCH   1  12
BRANCH   2  22
ATOM     22  O   UNL     1      -2.151   6.690   4.320  1.00  0.00    -0.502 OA
ATOM     23  H   UNL     1      -2.885   6.006   4.176  1.00  0.00     0.293 HD
ENDBRANCH   2  22
BRANCH   6  24
ATOM     24  O   UNL     1       1.648   9.544   6.728  1.00  0.00    -0.507 OA
ATOM     25  H   UNL     1       1.413   9.919   5.821  1.00  0.00     0.293 HD
ENDBRANCH   6  24
BRANCH   8  26
ATOM     26  O   UNL     1       3.935   6.091   9.125  1.00  0.00    -0.508 OA
ATOM     27  H   UNL     1       4.584   5.342   8.915  1.00  0.00     0.293 HD
ENDBRANCH   8  26
TORSDOF 6
ENDMDL
MODEL 9
REMARK VINA RESULT:    -7.259     13.304     15.909
REMARK INTER + INTRA:          -9.032
REMARK INTER:                  -8.930
REMARK INTRA:                  -0.102
REMARK UNBOUND:                -0.288
REMARK SMILES O=c1c(O)c(-c2ccc(O)c(O)c2)oc2cc(O)cc(O)c12
REMARK SMILES IDX 5 1 3 2 2 3 1 4 22 5 20 6 19 7 17 8 16 9 15 10 14 11 6 12
REMARK SMILES IDX 7 13 8 14 9 15 13 16 11 17 10 18 12 20 4 22 21 24 18 26
REMARK H PARENT 10 19 12 21 4 23 21 25 18 27
REMARK Flexibility Score: inf
ROOT
ATOM      1  C   UNL     1      -3.576   1.548  -8.314  1.00  0.00     0.180 A 
ATOM      2  C   UNL     1      -3.283   1.884  -9.647  1.00  0.00     0.208 A 
ATOM      3  C   UNL     1      -2.349   2.900  -9.903  1.00  0.00     0.238 A 
ATOM      4  O   UNL     1      -2.132   3.234 -11.098  1.00  0.00    -0.285 OA
ATOM      5  C   UNL     1      -1.708   3.556  -8.825  1.00  0.00     0.111 A 
ATOM      6  C   UNL     1      -0.715   4.572  -8.969  1.00  0.00     0.134 A 
ATOM      7  C   UNL     1      -0.244   5.242  -7.834  1.00  0.00     0.093 A 
ATOM      8  C   UNL     1      -0.678   4.891  -6.557  1.00  0.00     0.123 A 
ATOM      9  C   UNL     1      -1.604   3.858  -6.401  1.00  0.00     0.094 A 
ATOM     10  C   UNL     1      -2.120   3.195  -7.516  1.00  0.00     0.146 A 
ATOM     11  O   UNL     1      -3.007   2.226  -7.324  1.00  0.00    -0.452 OA
ENDROOT
BRANCH   1  12
ATOM     12  C   UNL     1      -4.531   0.471  -7.964  1.00  0.00     0.025 A 
ATOM     13  C   UNL     1      -4.363  -0.840  -8.443  1.00  0.00     0.016 A 
ATOM     14  C   UNL     1      -5.263  -1.845  -8.081  1.00  0.00     0.051 A 
ATOM     15  C   UNL     1      -6.335  -1.560  -7.225  1.00  0.00     0.157 A 
ATOM     16  C   UNL     1      -5.595   0.748  -7.090  1.00  0.00     0.062 A 
ATOM     17  C   UNL     1      -6.498  -0.257  -6.725  1.00  0.00     0.158 A 
BRANCH  15  18
ATOM     18  O   UNL     1      -7.232  -2.564  -6.866  1.00  0.00    -0.504 OA
ATOM     19  H   UNL     1      -8.158  -2.619  -7.274  1.00  0.00     0.293 HD
ENDBRANCH  15  18
BRANCH  17  20
ATOM     20  O   UNL     1      -7.551   0.058  -5.866  1.00  0.00    -0.504 OA
ATOM     21  H   UNL     1      -8.518   0.034  -6.168  1.00  0.00     0.293 HD
ENDBRANCH  17  20
ENDBRANCH   1  12
BRANCH   2  22
ATOM     22  O   UNL     1      -3.945   1.239 -10.696  1.00  0.00    -0.502 OA
ATOM     23  H   UNL     1      -4.253   1.729 -11.527  1.00  0.00     0.293 HD
ENDBRANCH   2  22
BRANCH   6  24
ATOM     24  O   UNL     1      -0.144   4.937 -10.192  1.00  0.00    -0.507 OA
ATOM     25  H   UNL     1       0.527   5.680 -10.315  1.00  0.00     0.293 HD
ENDBRANCH   6  24
BRANCH   8  26
ATOM     26  O   UNL     1      -0.175   5.569  -5.448  1.00  0.00    -0.508 OA
ATOM     27  H   UNL     1       0.152   6.526  -5.516  1.00  0.00     0.293 HD
ENDBRANCH   8  26
TORSDOF 6
ENDMDL
