MODEL 1
REMARK VINA RESULT:    54.615      0.000      0.000
REMARK INTER + INTRA:          73.163
REMARK INTER:                  72.175
REMARK INTRA:                   0.988
REMARK UNBOUND:                 0.988
REMARK SMILES CC[C@H](C=C[C@@H](C)[C@@H]1CC[C@@H]2[C@H]3CC=C4C[C@@H](O)CC[C@@]4(C)[C@H]3CC[C@@]21C)C(C)C
REMARK SMILES IDX 6 1 7 2 5 3 4 4 3 5 2 6 1 7 28 8 29 9 30 10 8 11 9 12 26 13
REMARK SMILES IDX 10 14 11 15 25 16 27 17 12 18 24 19 23 20 13 21 21 22 14 23
REMARK SMILES IDX 15 24 20 25 22 26 16 27 19 28 17 29 18 30
REMARK H PARENT 18 31
REMARK Flexibility Score: inf
ROOT
ATOM      1  C   UNL     1      27.745  26.753   1.028  1.00  0.00     0.012 C 
ATOM      2  C   UNL     1      27.284  25.316   1.406  1.00  0.00     0.012 C 
ENDROOT
BRANCH   1   3
ATOM      3  C   UNL     1      29.119  26.951   1.646  1.00  0.00    -0.028 C 
ATOM      4  C   UNL     1      29.546  28.137   2.139  1.00  0.00    -0.027 C 
BRANCH   4   5
ATOM      5  C   UNL     1      30.908  28.324   2.803  1.00  0.00     0.014 C 
BRANCH   5   6
ATOM      6  C   UNL     1      32.020  27.596   2.003  1.00  0.00     0.004 C 
ATOM      7  C   UNL     1      32.308  26.161   2.455  1.00  0.00     0.004 C 
ENDBRANCH   5   6
BRANCH   5   8
ATOM      8  C   UNL     1      31.250  29.816   3.167  1.00  0.00    -0.011 C 
ATOM      9  C   UNL     1      30.000  30.706   3.090  1.00  0.00     0.008 C 
ATOM     10  C   UNL     1      31.873  29.972   4.565  1.00  0.00     0.008 C 
ENDBRANCH   5   8
ENDBRANCH   4   5
ENDBRANCH   1   3
BRANCH   1  11
ATOM     11  C   UNL     1      26.821  27.936   1.486  1.00  0.00     0.002 C 
ATOM     12  C   UNL     1      27.169  29.307   0.891  1.00  0.00     0.005 C 
ATOM     13  C   UNL     1      26.473  28.172   2.994  1.00  0.00    -0.026 C 
ATOM     14  C   UNL     1      26.714  30.351   1.906  1.00  0.00     0.005 C 
ATOM     15  C   UNL     1      25.890  29.599   2.958  1.00  0.00    -0.001 C 
ATOM     16  C   UNL     1      27.722  28.136   3.917  1.00  0.00     0.007 C 
ATOM     17  C   UNL     1      25.423  27.138   3.451  1.00  0.00     0.012 C 
ATOM     18  C   UNL     1      25.809  30.381   4.304  1.00  0.00     0.000 C 
ATOM     19  C   UNL     1      27.445  28.705   5.320  1.00  0.00     0.005 C 
ATOM     20  C   UNL     1      27.017  30.184   5.258  1.00  0.00     0.003 C 
ATOM     21  C   UNL     1      24.491  30.129   5.037  1.00  0.00     0.031 C 
ATOM     22  C   UNL     1      26.824  30.906   6.684  1.00  0.00    -0.008 C 
ATOM     23  C   UNL     1      24.358  31.121   6.143  1.00  0.00    -0.027 C 
ATOM     24  C   UNL     1      25.416  31.486   6.890  1.00  0.00    -0.065 C 
ATOM     25  C   UNL     1      27.059  29.962   7.916  1.00  0.00     0.014 C 
ATOM     26  C   UNL     1      27.846  32.081   6.738  1.00  0.00     0.016 C 
ATOM     27  C   UNL     1      25.155  32.256   8.155  1.00  0.00     0.063 C 
ATOM     28  C   UNL     1      26.725  30.592   9.296  1.00  0.00     0.033 C 
ATOM     29  C   UNL     1      25.358  31.315   9.353  1.00  0.00     0.118 C 
BRANCH  29  30
ATOM     30  O   UNL     1      24.331  30.361   9.438  1.00  0.00    -0.393 OA
ATOM     31  H   UNL     1      24.063  30.226  10.387  1.00  0.00     0.210 HD
ENDBRANCH  29  30
ENDBRANCH   1  11
TORSDOF 6
ENDMDL
MODEL 2
REMARK VINA RESULT:    55.831     11.243     15.508
REMARK INTER + INTRA:          74.770
REMARK INTER:                  75.680
REMARK INTRA:                  -0.910
REMARK UNBOUND:                 0.988
REMARK SMILES CC[C@H](C=C[C@@H](C)[C@@H]1CC[C@@H]2[C@H]3CC=C4C[C@@H](O)CC[C@@]4(C)[C@H]3CC[C@@]21C)C(C)C
REMARK SMILES IDX 6 1 7 2 5 3 4 4 3 5 2 6 1 7 28 8 29 9 30 10 8 11 9 12 26 13
REMARK SMILES IDX 10 14 11 15 25 16 27 17 12 18 24 19 23 20 13 21 21 22 14 23
REMARK SMILES IDX 15 24 20 25 22 26 16 27 19 28 17 29 18 30
REMARK H PARENT 18 31
REMARK Flexibility Score: inf
ROOT
ATOM      1  C   UNL     1      16.893  24.987  15.270  1.00  0.00     0.012 C 
ATOM      2  C   UNL     1      16.253  24.385  16.553  1.00  0.00     0.012 C 
ENDROOT
BRANCH   1   3
ATOM      3  C   UNL     1      16.148  26.276  14.969  1.00  0.00    -0.028 C 
ATOM      4  C   UNL     1      16.641  27.503  15.260  1.00  0.00    -0.027 C 
BRANCH   4   5
ATOM      5  C   UNL     1      15.912  28.800  14.915  1.00  0.00     0.014 C 
BRANCH   5   6
ATOM      6  C   UNL     1      14.518  28.507  14.299  1.00  0.00     0.004 C 
ATOM      7  C   UNL     1      14.515  28.286  12.783  1.00  0.00     0.004 C 
ENDBRANCH   5   6
BRANCH   5   8
ATOM      8  C   UNL     1      15.891  29.858  16.078  1.00  0.00    -0.011 C 
ATOM      9  C   UNL     1      14.706  30.824  15.928  1.00  0.00     0.008 C 
ATOM     10  C   UNL     1      15.826  29.221  17.477  1.00  0.00     0.008 C 
ENDBRANCH   5   8
ENDBRANCH   4   5
ENDBRANCH   1   3
BRANCH   1  11
ATOM     11  C   UNL     1      16.872  24.091  13.982  1.00  0.00     0.002 C 
ATOM     12  C   UNL     1      16.249  22.700  14.162  1.00  0.00     0.005 C 
ATOM     13  C   UNL     1      18.143  23.906  13.086  1.00  0.00    -0.026 C 
ATOM     14  C   UNL     1      16.920  21.787  13.140  1.00  0.00     0.005 C 
ATOM     15  C   UNL     1      17.737  22.699  12.217  1.00  0.00    -0.001 C 
ATOM     16  C   UNL     1      19.416  23.560  13.907  1.00  0.00     0.007 C 
ATOM     17  C   UNL     1      18.367  25.173  12.235  1.00  0.00     0.012 C 
ATOM     18  C   UNL     1      18.873  21.921  11.485  1.00  0.00     0.000 C 
ATOM     19  C   UNL     1      20.569  23.040  13.031  1.00  0.00     0.005 C 
ATOM     20  C   UNL     1      20.182  21.740  12.297  1.00  0.00     0.003 C 
ATOM     21  C   UNL     1      19.167  22.501  10.102  1.00  0.00     0.031 C 
ATOM     22  C   UNL     1      21.364  21.049  11.451  1.00  0.00    -0.008 C 
ATOM     23  C   UNL     1      20.034  21.546   9.353  1.00  0.00    -0.027 C 
ATOM     24  C   UNL     1      21.028  20.874   9.962  1.00  0.00    -0.065 C 
ATOM     25  C   UNL     1      22.717  21.845  11.472  1.00  0.00     0.014 C 
ATOM     26  C   UNL     1      21.593  19.635  12.065  1.00  0.00     0.016 C 
ATOM     27  C   UNL     1      22.031  20.161   9.097  1.00  0.00     0.063 C 
ATOM     28  C   UNL     1      23.822  21.282  10.537  1.00  0.00     0.033 C 
ATOM     29  C   UNL     1      23.341  20.964   9.100  1.00  0.00     0.118 C 
BRANCH  29  30
ATOM     30  O   UNL     1      23.212  22.162   8.378  1.00  0.00    -0.393 OA
ATOM     31  H   UNL     1      24.036  22.334   7.846  1.00  0.00     0.210 HD
ENDBRANCH  29  30
ENDBRANCH   1  11
TORSDOF 6
ENDMDL
