MODEL 1
REMARK VINA RESULT:    -4.759      0.000      0.000
REMARK INTER + INTRA:          -6.987
REMARK INTER:                  -6.428
REMARK INTRA:                  -0.559
REMARK UNBOUND:                -0.559
REMARK SMILES C=C[C@](C)(CCC=C(C)C)OC(C)=O
REMARK SMILES IDX 3 1 4 2 5 3 6 4 7 5 9 6 8 7 10 8 2 9 1 10 11 11 12 12 14 13
REMARK SMILES IDX 13 14
REMARK H PARENT
REMARK Flexibility Score: inf
ROOT
ATOM      1  C   UNL     1      67.904  52.743  19.480  1.00  0.00     0.127 C 
ATOM      2  C   UNL     1      67.915  54.262  19.231  1.00  0.00     0.061 C 
ENDROOT
BRANCH   1   3
ATOM      3  C   UNL     1      68.803  52.022  18.433  1.00  0.00     0.057 C 
BRANCH   3   4
ATOM      4  C   UNL     1      69.488  52.962  17.414  1.00  0.00     0.032 C 
BRANCH   4   5
ATOM      5  C   UNL     1      70.945  53.196  17.741  1.00  0.00    -0.028 C 
ATOM      6  C   UNL     1      71.330  54.637  15.727  1.00  0.00     0.039 C 
ATOM      7  C   UNL     1      71.778  53.962  17.002  1.00  0.00    -0.080 C 
ATOM      8  C   UNL     1      73.206  54.116  17.460  1.00  0.00     0.039 C 
ENDBRANCH   4   5
ENDBRANCH   3   4
ENDBRANCH   1   3
BRANCH   1   9
ATOM      9  C   UNL     1      66.472  52.244  19.347  1.00  0.00     0.013 C 
ATOM     10  C   UNL     1      66.161  51.146  18.649  1.00  0.00     0.008 C 
ENDBRANCH   1   9
BRANCH   1  11
ATOM     11  O   UNL     1      68.391  52.510  20.812  1.00  0.00    -0.455 OA
BRANCH  11  12
ATOM     12  C   UNL     1      69.504  51.723  21.145  1.00  0.00     0.303 C 
ATOM     13  O   UNL     1      70.675  52.184  21.069  1.00  0.00    -0.253 OA
ATOM     14  C   UNL     1      69.299  50.300  21.536  1.00  0.00     0.139 C 
ENDBRANCH  11  12
ENDBRANCH   1  11
TORSDOF 6
ENDMDL
MODEL 2
REMARK VINA RESULT:    -4.643      1.000      1.458
REMARK INTER + INTRA:          -6.830
REMARK INTER:                  -6.521
REMARK INTRA:                  -0.309
REMARK UNBOUND:                -0.559
REMARK SMILES C=C[C@](C)(CCC=C(C)C)OC(C)=O
REMARK SMILES IDX 3 1 4 2 5 3 6 4 7 5 9 6 8 7 10 8 2 9 1 10 11 11 12 12 14 13
REMARK SMILES IDX 13 14
REMARK H PARENT
REMARK Flexibility Score: inf
ROOT
ATOM      1  C   UNL     1      68.204  52.199  19.351  1.00  0.00     0.127 C 
ATOM      2  C   UNL     1      67.851  53.583  19.924  1.00  0.00     0.061 C 
ENDROOT
BRANCH   1   3
ATOM      3  C   UNL     1      68.641  52.332  17.862  1.00  0.00     0.057 C 
BRANCH   3   4
ATOM      4  C   UNL     1      70.064  52.897  17.655  1.00  0.00     0.032 C 
BRANCH   4   5
ATOM      5  C   UNL     1      70.122  53.907  16.531  1.00  0.00    -0.028 C 
ATOM      6  C   UNL     1      72.576  54.326  16.820  1.00  0.00     0.039 C 
ATOM      7  C   UNL     1      71.247  54.541  16.134  1.00  0.00    -0.080 C 
ATOM      8  C   UNL     1      71.155  55.513  14.986  1.00  0.00     0.039 C 
ENDBRANCH   4   5
ENDBRANCH   3   4
ENDBRANCH   1   3
BRANCH   1   9
ATOM      9  C   UNL     1      66.970  51.312  19.439  1.00  0.00     0.013 C 
ATOM     10  C   UNL     1      65.869  51.547  18.716  1.00  0.00     0.008 C 
ENDBRANCH   1   9
BRANCH   1  11
ATOM     11  O   UNL     1      69.270  51.651  20.144  1.00  0.00    -0.455 OA
BRANCH  11  12
ATOM     12  C   UNL     1      69.160  51.240  21.481  1.00  0.00     0.303 C 
ATOM     13  O   UNL     1      69.115  52.080  22.420  1.00  0.00    -0.253 OA
ATOM     14  C   UNL     1      69.159  49.784  21.798  1.00  0.00     0.139 C 
ENDBRANCH  11  12
ENDBRANCH   1  11
TORSDOF 6
ENDMDL
MODEL 3
REMARK VINA RESULT:    -4.478      2.246      4.105
REMARK INTER + INTRA:          -6.607
REMARK INTER:                  -5.526
REMARK INTRA:                  -1.081
REMARK UNBOUND:                -0.559
REMARK SMILES C=C[C@](C)(CCC=C(C)C)OC(C)=O
REMARK SMILES IDX 3 1 4 2 5 3 6 4 7 5 9 6 8 7 10 8 2 9 1 10 11 11 12 12 14 13
REMARK SMILES IDX 13 14
REMARK H PARENT
REMARK Flexibility Score: inf
ROOT
ATOM      1  C   UNL     1      68.167  52.433  19.186  1.00  0.00     0.127 C 
ATOM      2  C   UNL     1      69.506  52.317  18.438  1.00  0.00     0.061 C 
ENDROOT
BRANCH   1   3
ATOM      3  C   UNL     1      68.170  51.506  20.437  1.00  0.00     0.057 C 
BRANCH   3   4
ATOM      4  C   UNL     1      69.573  51.046  20.895  1.00  0.00     0.032 C 
BRANCH   4   5
ATOM      5  C   UNL     1      69.908  51.529  22.288  1.00  0.00    -0.028 C 
ATOM      6  C   UNL     1      71.568  53.221  21.474  1.00  0.00     0.039 C 
ATOM      7  C   UNL     1      70.788  52.519  22.560  1.00  0.00    -0.080 C 
ATOM      8  C   UNL     1      71.009  52.906  24.000  1.00  0.00     0.039 C 
ENDBRANCH   4   5
ENDBRANCH   3   4
ENDBRANCH   1   3
BRANCH   1   9
ATOM      9  C   UNL     1      67.050  52.006  18.244  1.00  0.00     0.013 C 
ATOM     10  C   UNL     1      66.036  51.230  18.643  1.00  0.00     0.008 C 
ENDBRANCH   1   9
BRANCH   1  11
ATOM     11  O   UNL     1      67.994  53.806  19.574  1.00  0.00    -0.455 OA
BRANCH  11  12
ATOM     12  C   UNL     1      67.232  54.254  20.663  1.00  0.00     0.303 C 
ATOM     13  O   UNL     1      65.972  54.261  20.619  1.00  0.00    -0.253 OA
ATOM     14  C   UNL     1      67.928  54.788  21.868  1.00  0.00     0.139 C 
ENDBRANCH  11  12
ENDBRANCH   1  11
TORSDOF 6
ENDMDL
MODEL 4
REMARK VINA RESULT:    -4.425      1.332      2.595
REMARK INTER + INTRA:          -6.536
REMARK INTER:                  -5.932
REMARK INTRA:                  -0.604
REMARK UNBOUND:                -0.559
REMARK SMILES C=C[C@](C)(CCC=C(C)C)OC(C)=O
REMARK SMILES IDX 3 1 4 2 5 3 6 4 7 5 9 6 8 7 10 8 2 9 1 10 11 11 12 12 14 13
REMARK SMILES IDX 13 14
REMARK H PARENT
REMARK Flexibility Score: inf
ROOT
ATOM      1  C   UNL     1      67.862  52.405  19.217  1.00  0.00     0.127 C 
ATOM      2  C   UNL     1      66.532  51.634  19.166  1.00  0.00     0.061 C 
ENDROOT
BRANCH   1   3
ATOM      3  C   UNL     1      68.781  51.967  18.038  1.00  0.00     0.057 C 
BRANCH   3   4
ATOM      4  C   UNL     1      69.483  53.129  17.300  1.00  0.00     0.032 C 
BRANCH   4   5
ATOM      5  C   UNL     1      70.915  53.311  17.749  1.00  0.00    -0.028 C 
ATOM      6  C   UNL     1      71.572  54.563  15.680  1.00  0.00     0.039 C 
ATOM      7  C   UNL     1      71.858  53.970  17.040  1.00  0.00    -0.080 C 
ATOM      8  C   UNL     1      73.243  54.085  17.623  1.00  0.00     0.039 C 
ENDBRANCH   4   5
ENDBRANCH   3   4
ENDBRANCH   1   3
BRANCH   1   9
ATOM      9  C   UNL     1      68.551  52.093  20.538  1.00  0.00     0.013 C 
ATOM     10  C   UNL     1      69.578  51.240  20.623  1.00  0.00     0.008 C 
ENDBRANCH   1   9
BRANCH   1  11
ATOM     11  O   UNL     1      67.563  53.808  19.130  1.00  0.00    -0.455 OA
BRANCH  11  12
ATOM     12  C   UNL     1      67.544  54.704  20.210  1.00  0.00     0.303 C 
ATOM     13  O   UNL     1      68.584  55.323  20.563  1.00  0.00    -0.253 OA
ATOM     14  C   UNL     1      66.286  54.878  20.990  1.00  0.00     0.139 C 
ENDBRANCH  11  12
ENDBRANCH   1  11
TORSDOF 6
ENDMDL
MODEL 5
REMARK VINA RESULT:    -4.383      2.558      4.789
REMARK INTER + INTRA:          -6.479
REMARK INTER:                  -5.845
REMARK INTRA:                  -0.634
REMARK UNBOUND:                -0.559
REMARK SMILES C=C[C@](C)(CCC=C(C)C)OC(C)=O
REMARK SMILES IDX 3 1 4 2 5 3 6 4 7 5 9 6 8 7 10 8 2 9 1 10 11 11 12 12 14 13
REMARK SMILES IDX 13 14
REMARK H PARENT
REMARK Flexibility Score: inf
ROOT
ATOM      1  C   UNL     1      68.035  53.040  19.030  1.00  0.00     0.127 C 
ATOM      2  C   UNL     1      68.671  52.307  17.835  1.00  0.00     0.061 C 
ENDROOT
BRANCH   1   3
ATOM      3  C   UNL     1      68.921  52.863  20.298  1.00  0.00     0.057 C 
BRANCH   3   4
ATOM      4  C   UNL     1      69.835  51.616  20.279  1.00  0.00     0.032 C 
BRANCH   4   5
ATOM      5  C   UNL     1      69.225  50.447  21.017  1.00  0.00    -0.028 C 
ATOM      6  C   UNL     1      70.302  51.054  23.196  1.00  0.00     0.039 C 
ATOM      7  C   UNL     1      69.411  50.194  22.331  1.00  0.00    -0.080 C 
ATOM      8  C   UNL     1      68.724  48.997  22.935  1.00  0.00     0.039 C 
ENDBRANCH   4   5
ENDBRANCH   3   4
ENDBRANCH   1   3
BRANCH   1   9
ATOM      9  C   UNL     1      66.660  52.440  19.286  1.00  0.00     0.013 C 
ATOM     10  C   UNL     1      66.264  51.294  18.721  1.00  0.00     0.008 C 
ENDBRANCH   1   9
BRANCH   1  11
ATOM     11  O   UNL     1      67.917  54.429  18.684  1.00  0.00    -0.455 OA
BRANCH  11  12
ATOM     12  C   UNL     1      68.104  55.505  19.565  1.00  0.00     0.303 C 
ATOM     13  O   UNL     1      69.207  56.111  19.630  1.00  0.00    -0.253 OA
ATOM     14  C   UNL     1      66.996  55.897  20.482  1.00  0.00     0.139 C 
ENDBRANCH  11  12
ENDBRANCH   1  11
TORSDOF 6
ENDMDL
MODEL 6
REMARK VINA RESULT:    -4.361      2.284      5.206
REMARK INTER + INTRA:          -6.449
REMARK INTER:                  -5.659
REMARK INTRA:                  -0.790
REMARK UNBOUND:                -0.559
REMARK SMILES C=C[C@](C)(CCC=C(C)C)OC(C)=O
REMARK SMILES IDX 3 1 4 2 5 3 6 4 7 5 9 6 8 7 10 8 2 9 1 10 11 11 12 12 14 13
REMARK SMILES IDX 13 14
REMARK H PARENT
REMARK Flexibility Score: inf
ROOT
ATOM      1  C   UNL     1      71.243  53.728  18.850  1.00  0.00     0.127 C 
ATOM      2  C   UNL     1      70.458  55.048  18.748  1.00  0.00     0.061 C 
ENDROOT
BRANCH   1   3
ATOM      3  C   UNL     1      70.398  52.556  18.269  1.00  0.00     0.057 C 
BRANCH   3   4
ATOM      4  C   UNL     1      69.184  52.996  17.418  1.00  0.00     0.032 C 
BRANCH   4   5
ATOM      5  C   UNL     1      67.990  52.089  17.612  1.00  0.00    -0.028 C 
ATOM      6  C   UNL     1      67.298  53.195  19.752  1.00  0.00     0.039 C 
ATOM      7  C   UNL     1      67.124  52.181  18.646  1.00  0.00    -0.080 C 
ATOM      8  C   UNL     1      65.968  51.216  18.699  1.00  0.00     0.039 C 
ENDBRANCH   4   5
ENDBRANCH   3   4
ENDBRANCH   1   3
BRANCH   1   9
ATOM      9  C   UNL     1      71.541  53.457  20.318  1.00  0.00     0.013 C 
ATOM     10  C   UNL     1      70.797  52.625  21.056  1.00  0.00     0.008 C 
ENDBRANCH   1   9
BRANCH   1  11
ATOM     11  O   UNL     1      72.467  53.884  18.113  1.00  0.00    -0.455 OA
BRANCH  11  12
ATOM     12  C   UNL     1      72.637  54.694  16.980  1.00  0.00     0.303 C 
ATOM     13  O   UNL     1      72.130  54.378  15.871  1.00  0.00    -0.253 OA
ATOM     14  C   UNL     1      73.485  55.916  17.079  1.00  0.00     0.139 C 
ENDBRANCH  11  12
ENDBRANCH   1  11
TORSDOF 6
ENDMDL
MODEL 7
REMARK VINA RESULT:    -4.318      1.730      2.415
REMARK INTER + INTRA:          -6.391
REMARK INTER:                  -5.652
REMARK INTRA:                  -0.739
REMARK UNBOUND:                -0.559
REMARK SMILES C=C[C@](C)(CCC=C(C)C)OC(C)=O
REMARK SMILES IDX 3 1 4 2 5 3 6 4 7 5 9 6 8 7 10 8 2 9 1 10 11 11 12 12 14 13
REMARK SMILES IDX 13 14
REMARK H PARENT
REMARK Flexibility Score: inf
ROOT
ATOM      1  C   UNL     1      68.231  52.542  18.862  1.00  0.00     0.127 C 
ATOM      2  C   UNL     1      68.022  52.598  17.339  1.00  0.00     0.061 C 
ENDROOT
BRANCH   1   3
ATOM      3  C   UNL     1      69.683  52.080  19.187  1.00  0.00     0.057 C 
BRANCH   3   4
ATOM      4  C   UNL     1      70.743  53.204  19.140  1.00  0.00     0.032 C 
BRANCH   4   5
ATOM      5  C   UNL     1      71.309  53.401  17.752  1.00  0.00    -0.028 C 
ATOM      6  C   UNL     1      70.316  55.687  17.498  1.00  0.00     0.039 C 
ATOM      7  C   UNL     1      71.141  54.519  17.012  1.00  0.00    -0.080 C 
ATOM      8  C   UNL     1      71.778  54.577  15.648  1.00  0.00     0.039 C 
ENDBRANCH   4   5
ENDBRANCH   3   4
ENDBRANCH   1   3
BRANCH   1   9
ATOM      9  C   UNL     1      67.241  51.544  19.448  1.00  0.00     0.013 C 
ATOM     10  C   UNL     1      66.147  51.152  18.785  1.00  0.00     0.008 C 
ENDBRANCH   1   9
BRANCH   1  11
ATOM     11  O   UNL     1      67.987  53.855  19.391  1.00  0.00    -0.455 OA
BRANCH  11  12
ATOM     12  C   UNL     1      67.392  54.136  20.630  1.00  0.00     0.303 C 
ATOM     13  O   UNL     1      66.169  54.431  20.715  1.00  0.00    -0.253 OA
ATOM     14  C   UNL     1      68.236  54.144  21.858  1.00  0.00     0.139 C 
ENDBRANCH  11  12
ENDBRANCH   1  11
TORSDOF 6
ENDMDL
MODEL 8
REMARK VINA RESULT:    -4.305      2.360      5.459
REMARK INTER + INTRA:          -6.373
REMARK INTER:                  -5.710
REMARK INTRA:                  -0.663
REMARK UNBOUND:                -0.559
REMARK SMILES C=C[C@](C)(CCC=C(C)C)OC(C)=O
REMARK SMILES IDX 3 1 4 2 5 3 6 4 7 5 9 6 8 7 10 8 2 9 1 10 11 11 12 12 14 13
REMARK SMILES IDX 13 14
REMARK H PARENT
REMARK Flexibility Score: inf
ROOT
ATOM      1  C   UNL     1      71.158  54.454  16.913  1.00  0.00     0.127 C 
ATOM      2  C   UNL     1      72.131  53.475  17.594  1.00  0.00     0.061 C 
ENDROOT
BRANCH   1   3
ATOM      3  C   UNL     1      69.719  53.860  16.905  1.00  0.00     0.057 C 
BRANCH   3   4
ATOM      4  C   UNL     1      69.573  52.512  17.648  1.00  0.00     0.032 C 
BRANCH   4   5
ATOM      5  C   UNL     1      68.140  52.032  17.688  1.00  0.00    -0.028 C 
ATOM      6  C   UNL     1      67.936  52.345  20.166  1.00  0.00     0.039 C 
ATOM      7  C   UNL     1      67.387  51.971  18.809  1.00  0.00    -0.080 C 
ATOM      8  C   UNL     1      65.966  51.485  18.692  1.00  0.00     0.039 C 
ENDBRANCH   4   5
ENDBRANCH   3   4
ENDBRANCH   1   3
BRANCH   1   9
ATOM      9  C   UNL     1      71.622  54.676  15.480  1.00  0.00     0.013 C 
ATOM     10  C   UNL     1      71.644  55.890  14.917  1.00  0.00     0.008 C 
ENDBRANCH   1   9
BRANCH   1  11
ATOM     11  O   UNL     1      71.191  55.690  17.645  1.00  0.00    -0.455 OA
BRANCH  11  12
ATOM     12  C   UNL     1      70.165  56.176  18.470  1.00  0.00     0.303 C 
ATOM     13  O   UNL     1      69.356  57.050  18.058  1.00  0.00    -0.253 OA
ATOM     14  C   UNL     1      70.071  55.692  19.876  1.00  0.00     0.139 C 
ENDBRANCH  11  12
ENDBRANCH   1  11
TORSDOF 6
ENDMDL
MODEL 9
REMARK VINA RESULT:    -4.279      1.426      2.989
REMARK INTER + INTRA:          -6.339
REMARK INTER:                  -5.581
REMARK INTRA:                  -0.758
REMARK UNBOUND:                -0.559
REMARK SMILES C=C[C@](C)(CCC=C(C)C)OC(C)=O
REMARK SMILES IDX 3 1 4 2 5 3 6 4 7 5 9 6 8 7 10 8 2 9 1 10 11 11 12 12 14 13
REMARK SMILES IDX 13 14
REMARK H PARENT
REMARK Flexibility Score: inf
ROOT
ATOM      1  C   UNL     1      68.749  52.652  19.986  1.00  0.00     0.127 C 
ATOM      2  C   UNL     1      70.081  51.882  20.028  1.00  0.00     0.061 C 
ENDROOT
BRANCH   1   3
ATOM      3  C   UNL     1      68.663  53.503  18.684  1.00  0.00     0.057 C 
BRANCH   3   4
ATOM      4  C   UNL     1      69.420  52.909  17.474  1.00  0.00     0.032 C 
BRANCH   4   5
ATOM      5  C   UNL     1      70.055  53.978  16.614  1.00  0.00    -0.028 C 
ATOM      6  C   UNL     1      72.344  53.606  17.564  1.00  0.00     0.039 C 
ATOM      7  C   UNL     1      71.370  54.287  16.631  1.00  0.00    -0.080 C 
ATOM      8  C   UNL     1      71.864  55.368  15.704  1.00  0.00     0.039 C 
ENDBRANCH   4   5
ENDBRANCH   3   4
ENDBRANCH   1   3
BRANCH   1   9
ATOM      9  C   UNL     1      68.686  53.572  21.197  1.00  0.00     0.013 C 
ATOM     10  C   UNL     1      67.972  54.704  21.197  1.00  0.00     0.008 C 
ENDBRANCH   1   9
BRANCH   1  11
ATOM     11  O   UNL     1      67.681  51.691  20.034  1.00  0.00    -0.455 OA
BRANCH  11  12
ATOM     12  C   UNL     1      66.473  51.781  19.326  1.00  0.00     0.303 C 
ATOM     13  O   UNL     1      65.583  52.609  19.658  1.00  0.00    -0.253 OA
ATOM     14  C   UNL     1      66.217  50.839  18.201  1.00  0.00     0.139 C 
ENDBRANCH  11  12
ENDBRANCH   1  11
TORSDOF 6
ENDMDL
