MODEL 1
REMARK VINA RESULT:    -4.451      0.000      0.000
REMARK INTER + INTRA:         -17.930
REMARK INTER:                 -11.736
REMARK INTRA:                  -6.194
REMARK UNBOUND:                -6.194
REMARK SMILES CCCCCCCCCCCCCCCCCCCCCCCCCCCCCC(=O)[O-]
REMARK SMILES IDX 16 1 17 2 18 3 19 4 20 5 21 6 22 7 23 8 24 9 25 10 26 11
REMARK SMILES IDX 27 12 28 13 29 14 30 15 31 16 32 17 15 18 14 19 13 20 12 21
REMARK SMILES IDX 11 22 10 23 9 24 8 25 7 26 6 27 5 28 4 29 3 30 2 31 1 32
REMARK H PARENT
REMARK Flexibility Score: inf
ROOT
ATOM      1  C   UNL     1      11.606 -17.284  23.125  1.00  0.00     0.000 C 
ENDROOT
BRANCH   1   2
ATOM      2  C   UNL     1      11.061 -15.927  23.609  1.00  0.00     0.000 C 
BRANCH   2   3
ATOM      3  C   UNL     1       9.746 -15.999  24.412  1.00  0.00     0.000 C 
BRANCH   3   4
ATOM      4  C   UNL     1       8.552 -15.245  23.791  1.00  0.00     0.000 C 
BRANCH   4   5
ATOM      5  C   UNL     1       7.405 -16.146  23.302  1.00  0.00     0.000 C 
BRANCH   5   6
ATOM      6  C   UNL     1       7.725 -16.847  21.974  1.00  0.00     0.000 C 
BRANCH   6   7
ATOM      7  C   UNL     1       7.556 -18.367  22.099  1.00  0.00     0.000 C 
BRANCH   7   8
ATOM      8  C   UNL     1       7.592 -18.804  23.570  1.00  0.00     0.000 C 
BRANCH   8   9
ATOM      9  C   UNL     1       7.411 -20.323  23.739  1.00  0.00     0.000 C 
BRANCH   9  10
ATOM     10  C   UNL     1       7.261 -21.047  22.388  1.00  0.00     0.000 C 
BRANCH  10  11
ATOM     11  C   UNL     1       8.331 -22.136  22.185  1.00  0.00     0.000 C 
BRANCH  11  12
ATOM     12  C   UNL     1       8.745 -22.327  20.708  1.00  0.00     0.000 C 
BRANCH  12  13
ATOM     13  C   UNL     1       8.162 -21.257  19.765  1.00  0.00     0.006 C 
BRANCH  13  14
ATOM     14  C   UNL     1       9.139 -20.786  18.678  1.00  0.00     0.053 C 
BRANCH  14  15
ATOM     15  C   UNL     1       8.981 -19.323  18.388  1.00  0.00     0.041 C 
ATOM     16  O   UNL     1       9.961 -18.646  17.980  1.00  0.00    -0.550 OA
ATOM     17  O   UNL     1       7.743 -18.712  18.548  1.00  0.00    -0.550 OA
ENDBRANCH  14  15
ENDBRANCH  13  14
ENDBRANCH  12  13
ENDBRANCH  11  12
ENDBRANCH  10  11
ENDBRANCH   9  10
ENDBRANCH   8   9
ENDBRANCH   7   8
ENDBRANCH   6   7
ENDBRANCH   5   6
ENDBRANCH   4   5
ENDBRANCH   3   4
ENDBRANCH   2   3
ENDBRANCH   1   2
BRANCH   1  18
ATOM     18  C   UNL     1      11.300 -17.550  21.645  1.00  0.00     0.000 C 
BRANCH  18  19
ATOM     19  C   UNL     1      10.919 -19.023  21.417  1.00  0.00     0.000 C 
BRANCH  19  20
ATOM     20  C   UNL     1      11.289 -19.933  22.607  1.00  0.00     0.000 C 
BRANCH  20  21
ATOM     21  C   UNL     1      12.145 -21.159  22.230  1.00  0.00     0.000 C 
BRANCH  21  22
ATOM     22  C   UNL     1      12.180 -21.514  20.732  1.00  0.00     0.000 C 
BRANCH  22  23
ATOM     23  C   UNL     1      13.492 -21.164  20.001  1.00  0.00     0.000 C 
BRANCH  23  24
ATOM     24  C   UNL     1      13.343 -20.182  18.824  1.00  0.00    -0.000 C 
BRANCH  24  25
ATOM     25  C   UNL     1      14.695 -19.681  18.289  1.00  0.00    -0.000 C 
BRANCH  25  26
ATOM     26  C   UNL     1      15.048 -18.271  18.794  1.00  0.00    -0.000 C 
BRANCH  26  27
ATOM     27  C   UNL     1      15.838 -18.288  20.114  1.00  0.00    -0.000 C 
BRANCH  27  28
ATOM     28  C   UNL     1      14.989 -17.851  21.321  1.00  0.00    -0.000 C 
BRANCH  28  29
ATOM     29  C   UNL     1      15.001 -18.860  22.490  1.00  0.00    -0.000 C 
BRANCH  29  30
ATOM     30  C   UNL     1      16.127 -19.901  22.352  1.00  0.00    -0.000 C 
BRANCH  30  31
ATOM     31  C   UNL     1      15.742 -21.264  22.948  1.00  0.00    -0.003 C 
ATOM     32  C   UNL     1      16.957 -22.154  23.218  1.00  0.00     0.004 C 
ENDBRANCH  30  31
ENDBRANCH  29  30
ENDBRANCH  28  29
ENDBRANCH  27  28
ENDBRANCH  26  27
ENDBRANCH  25  26
ENDBRANCH  24  25
ENDBRANCH  23  24
ENDBRANCH  22  23
ENDBRANCH  21  22
ENDBRANCH  20  21
ENDBRANCH  19  20
ENDBRANCH  18  19
ENDBRANCH   1  18
TORSDOF 28
ENDMDL
MODEL 2
REMARK VINA RESULT:    -4.404      1.855      4.317
REMARK INTER + INTRA:         -17.806
REMARK INTER:                 -11.070
REMARK INTRA:                  -6.736
REMARK UNBOUND:                -6.194
REMARK SMILES CCCCCCCCCCCCCCCCCCCCCCCCCCCCCC(=O)[O-]
REMARK SMILES IDX 16 1 17 2 18 3 19 4 20 5 21 6 22 7 23 8 24 9 25 10 26 11
REMARK SMILES IDX 27 12 28 13 29 14 30 15 31 16 32 17 15 18 14 19 13 20 12 21
REMARK SMILES IDX 11 22 10 23 9 24 8 25 7 26 6 27 5 28 4 29 3 30 2 31 1 32
REMARK H PARENT
REMARK Flexibility Score: inf
ROOT
ATOM      1  C   UNL     1      11.711 -18.083  17.659  1.00  0.00     0.000 C 
ENDROOT
BRANCH   1   2
ATOM      2  C   UNL     1      10.428 -17.581  18.348  1.00  0.00     0.000 C 
BRANCH   2   3
ATOM      3  C   UNL     1       9.282 -18.610  18.428  1.00  0.00     0.000 C 
BRANCH   3   4
ATOM      4  C   UNL     1       8.145 -18.256  19.410  1.00  0.00     0.000 C 
BRANCH   4   5
ATOM      5  C   UNL     1       8.517 -17.212  20.476  1.00  0.00     0.000 C 
BRANCH   5   6
ATOM      6  C   UNL     1       7.833 -17.473  21.826  1.00  0.00     0.000 C 
BRANCH   6   7
ATOM      7  C   UNL     1       8.094 -16.322  22.807  1.00  0.00     0.000 C 
BRANCH   7   8
ATOM      8  C   UNL     1       7.716 -16.724  24.239  1.00  0.00     0.000 C 
BRANCH   8   9
ATOM      9  C   UNL     1       6.719 -17.895  24.280  1.00  0.00     0.000 C 
BRANCH   9  10
ATOM     10  C   UNL     1       7.012 -18.871  25.435  1.00  0.00     0.000 C 
BRANCH  10  11
ATOM     11  C   UNL     1       6.837 -20.342  25.018  1.00  0.00     0.000 C 
BRANCH  11  12
ATOM     12  C   UNL     1       6.440 -20.520  23.534  1.00  0.00     0.000 C 
BRANCH  12  13
ATOM     13  C   UNL     1       7.445 -21.365  22.728  1.00  0.00     0.006 C 
BRANCH  13  14
ATOM     14  C   UNL     1       7.306 -21.215  21.206  1.00  0.00     0.053 C 
BRANCH  14  15
ATOM     15  C   UNL     1       8.289 -22.077  20.473  1.00  0.00     0.041 C 
ATOM     16  O   UNL     1       8.484 -21.914  19.240  1.00  0.00    -0.550 OA
ATOM     17  O   UNL     1       9.009 -23.048  21.160  1.00  0.00    -0.550 OA
ENDBRANCH  14  15
ENDBRANCH  13  14
ENDBRANCH  12  13
ENDBRANCH  11  12
ENDBRANCH  10  11
ENDBRANCH   9  10
ENDBRANCH   8   9
ENDBRANCH   7   8
ENDBRANCH   6   7
ENDBRANCH   5   6
ENDBRANCH   4   5
ENDBRANCH   3   4
ENDBRANCH   2   3
ENDBRANCH   1   2
BRANCH   1  18
ATOM     18  C   UNL     1      11.737 -19.609  17.498  1.00  0.00     0.000 C 
BRANCH  18  19
ATOM     19  C   UNL     1      12.827 -20.237  18.382  1.00  0.00     0.000 C 
BRANCH  19  20
ATOM     20  C   UNL     1      12.257 -20.974  19.612  1.00  0.00     0.000 C 
BRANCH  20  21
ATOM     21  C   UNL     1      12.371 -20.189  20.935  1.00  0.00     0.000 C 
BRANCH  21  22
ATOM     22  C   UNL     1      11.038 -19.784  21.590  1.00  0.00     0.000 C 
BRANCH  22  23
ATOM     23  C   UNL     1      10.861 -20.227  23.057  1.00  0.00     0.000 C 
BRANCH  23  24
ATOM     24  C   UNL     1      10.260 -19.164  23.993  1.00  0.00    -0.000 C 
BRANCH  24  25
ATOM     25  C   UNL     1      11.327 -18.407  24.802  1.00  0.00    -0.000 C 
BRANCH  25  26
ATOM     26  C   UNL     1      11.454 -16.932  24.385  1.00  0.00    -0.000 C 
BRANCH  26  27
ATOM     27  C   UNL     1      12.530 -16.704  23.310  1.00  0.00    -0.000 C 
BRANCH  27  28
ATOM     28  C   UNL     1      11.967 -16.055  22.033  1.00  0.00    -0.000 C 
BRANCH  28  29
ATOM     29  C   UNL     1      12.825 -16.308  20.774  1.00  0.00    -0.000 C 
BRANCH  29  30
ATOM     30  C   UNL     1      14.259 -16.746  21.123  1.00  0.00    -0.000 C 
BRANCH  30  31
ATOM     31  C   UNL     1      14.875 -17.652  20.045  1.00  0.00    -0.003 C 
ATOM     32  C   UNL     1      15.971 -18.565  20.598  1.00  0.00     0.004 C 
ENDBRANCH  30  31
ENDBRANCH  29  30
ENDBRANCH  28  29
ENDBRANCH  27  28
ENDBRANCH  26  27
ENDBRANCH  25  26
ENDBRANCH  24  25
ENDBRANCH  23  24
ENDBRANCH  22  23
ENDBRANCH  21  22
ENDBRANCH  20  21
ENDBRANCH  19  20
ENDBRANCH  18  19
ENDBRANCH   1  18
TORSDOF 28
ENDMDL
MODEL 3
REMARK VINA RESULT:    -4.378      2.063      4.433
REMARK INTER + INTRA:         -17.739
REMARK INTER:                 -12.029
REMARK INTRA:                  -5.710
REMARK UNBOUND:                -6.194
REMARK SMILES CCCCCCCCCCCCCCCCCCCCCCCCCCCCCC(=O)[O-]
REMARK SMILES IDX 16 1 17 2 18 3 19 4 20 5 21 6 22 7 23 8 24 9 25 10 26 11
REMARK SMILES IDX 27 12 28 13 29 14 30 15 31 16 32 17 15 18 14 19 13 20 12 21
REMARK SMILES IDX 11 22 10 23 9 24 8 25 7 26 6 27 5 28 4 29 3 30 2 31 1 32
REMARK H PARENT
REMARK Flexibility Score: inf
ROOT
ATOM      1  C   UNL     1       8.486 -16.741  24.795  1.00  0.00     0.000 C 
ENDROOT
BRANCH   1   2
ATOM      2  C   UNL     1       7.303 -17.726  24.845  1.00  0.00     0.000 C 
BRANCH   2   3
ATOM      3  C   UNL     1       7.666 -19.199  24.562  1.00  0.00     0.000 C 
BRANCH   3   4
ATOM      4  C   UNL     1       6.591 -20.010  23.808  1.00  0.00     0.000 C 
BRANCH   4   5
ATOM      5  C   UNL     1       7.115 -21.268  23.094  1.00  0.00     0.000 C 
BRANCH   5   6
ATOM      6  C   UNL     1       6.977 -21.185  21.567  1.00  0.00     0.000 C 
BRANCH   6   7
ATOM      7  C   UNL     1       7.600 -22.413  20.891  1.00  0.00     0.000 C 
BRANCH   7   8
ATOM      8  C   UNL     1       8.718 -23.010  21.757  1.00  0.00     0.000 C 
BRANCH   8   9
ATOM      9  C   UNL     1      10.121 -22.662  21.231  1.00  0.00     0.000 C 
BRANCH   9  10
ATOM     10  C   UNL     1      11.181 -22.663  22.349  1.00  0.00     0.000 C 
BRANCH  10  11
ATOM     11  C   UNL     1      11.735 -21.255  22.633  1.00  0.00     0.000 C 
BRANCH  11  12
ATOM     12  C   UNL     1      10.634 -20.193  22.861  1.00  0.00     0.000 C 
BRANCH  12  13
ATOM     13  C   UNL     1      11.184 -18.829  23.317  1.00  0.00     0.006 C 
BRANCH  13  14
ATOM     14  C   UNL     1      11.973 -18.081  22.232  1.00  0.00     0.053 C 
BRANCH  14  15
ATOM     15  C   UNL     1      12.623 -16.843  22.774  1.00  0.00     0.041 C 
ATOM     16  O   UNL     1      13.738 -16.464  22.331  1.00  0.00    -0.550 OA
ATOM     17  O   UNL     1      11.981 -16.094  23.754  1.00  0.00    -0.550 OA
ENDBRANCH  14  15
ENDBRANCH  13  14
ENDBRANCH  12  13
ENDBRANCH  11  12
ENDBRANCH  10  11
ENDBRANCH   9  10
ENDBRANCH   8   9
ENDBRANCH   7   8
ENDBRANCH   6   7
ENDBRANCH   5   6
ENDBRANCH   4   5
ENDBRANCH   3   4
ENDBRANCH   2   3
ENDBRANCH   1   2
BRANCH   1  18
ATOM     18  C   UNL     1       8.293 -15.638  23.745  1.00  0.00     0.000 C 
BRANCH  18  19
ATOM     19  C   UNL     1       7.119 -15.969  22.809  1.00  0.00     0.000 C 
BRANCH  19  20
ATOM     20  C   UNL     1       7.565 -16.261  21.361  1.00  0.00     0.000 C 
BRANCH  20  21
ATOM     21  C   UNL     1       8.198 -17.652  21.157  1.00  0.00     0.000 C 
BRANCH  21  22
ATOM     22  C   UNL     1       8.678 -17.965  19.727  1.00  0.00     0.000 C 
BRANCH  22  23
ATOM     23  C   UNL     1       9.206 -19.397  19.506  1.00  0.00     0.000 C 
BRANCH  23  24
ATOM     24  C   UNL     1       9.647 -19.716  18.066  1.00  0.00    -0.000 C 
BRANCH  24  25
ATOM     25  C   UNL     1      11.024 -20.398  18.001  1.00  0.00    -0.000 C 
BRANCH  25  26
ATOM     26  C   UNL     1      11.858 -20.180  19.275  1.00  0.00    -0.000 C 
BRANCH  26  27
ATOM     27  C   UNL     1      13.373 -20.225  19.015  1.00  0.00    -0.000 C 
BRANCH  27  28
ATOM     28  C   UNL     1      14.061 -18.871  19.262  1.00  0.00    -0.000 C 
BRANCH  28  29
ATOM     29  C   UNL     1      15.323 -18.964  20.146  1.00  0.00    -0.000 C 
BRANCH  29  30
ATOM     30  C   UNL     1      15.147 -19.952  21.314  1.00  0.00    -0.000 C 
BRANCH  30  31
ATOM     31  C   UNL     1      15.624 -19.369  22.653  1.00  0.00    -0.003 C 
ATOM     32  C   UNL     1      16.803 -20.143  23.246  1.00  0.00     0.004 C 
ENDBRANCH  30  31
ENDBRANCH  29  30
ENDBRANCH  28  29
ENDBRANCH  27  28
ENDBRANCH  26  27
ENDBRANCH  25  26
ENDBRANCH  24  25
ENDBRANCH  23  24
ENDBRANCH  22  23
ENDBRANCH  21  22
ENDBRANCH  20  21
ENDBRANCH  19  20
ENDBRANCH  18  19
ENDBRANCH   1  18
TORSDOF 28
ENDMDL
MODEL 4
REMARK VINA RESULT:    -4.372      2.264      5.688
REMARK INTER + INTRA:         -17.724
REMARK INTER:                 -11.502
REMARK INTRA:                  -6.221
REMARK UNBOUND:                -6.194
REMARK SMILES CCCCCCCCCCCCCCCCCCCCCCCCCCCCCC(=O)[O-]
REMARK SMILES IDX 16 1 17 2 18 3 19 4 20 5 21 6 22 7 23 8 24 9 25 10 26 11
REMARK SMILES IDX 27 12 28 13 29 14 30 15 31 16 32 17 15 18 14 19 13 20 12 21
REMARK SMILES IDX 11 22 10 23 9 24 8 25 7 26 6 27 5 28 4 29 3 30 2 31 1 32
REMARK H PARENT
REMARK Flexibility Score: inf
ROOT
ATOM      1  C   UNL     1       8.800 -17.019  19.816  1.00  0.00     0.000 C 
ENDROOT
BRANCH   1   2
ATOM      2  C   UNL     1       8.778 -16.798  21.340  1.00  0.00     0.000 C 
BRANCH   2   3
ATOM      3  C   UNL     1       7.433 -16.300  21.910  1.00  0.00     0.000 C 
BRANCH   3   4
ATOM      4  C   UNL     1       7.520 -15.581  23.273  1.00  0.00     0.000 C 
BRANCH   4   5
ATOM      5  C   UNL     1       8.930 -15.535  23.888  1.00  0.00     0.000 C 
BRANCH   5   6
ATOM      6  C   UNL     1       8.942 -15.922  25.374  1.00  0.00     0.000 C 
BRANCH   6   7
ATOM      7  C   UNL     1       9.917 -17.078  25.633  1.00  0.00     0.000 C 
BRANCH   7   8
ATOM      8  C   UNL     1       9.575 -18.292  24.760  1.00  0.00     0.000 C 
BRANCH   8   9
ATOM      9  C   UNL     1      10.790 -18.816  23.974  1.00  0.00     0.000 C 
BRANCH   9  10
ATOM     10  C   UNL     1      12.125 -18.342  24.578  1.00  0.00     0.000 C 
BRANCH  10  11
ATOM     11  C   UNL     1      13.017 -17.634  23.544  1.00  0.00     0.000 C 
BRANCH  11  12
ATOM     12  C   UNL     1      12.607 -16.168  23.275  1.00  0.00     0.000 C 
BRANCH  12  13
ATOM     13  C   UNL     1      12.391 -15.856  21.781  1.00  0.00     0.006 C 
BRANCH  13  14
ATOM     14  C   UNL     1      12.489 -17.087  20.868  1.00  0.00     0.053 C 
BRANCH  14  15
ATOM     15  C   UNL     1      13.552 -16.918  19.824  1.00  0.00     0.041 C 
ATOM     16  O   UNL     1      13.239 -16.655  18.633  1.00  0.00    -0.550 OA
ATOM     17  O   UNL     1      14.893 -17.030  20.173  1.00  0.00    -0.550 OA
ENDBRANCH  14  15
ENDBRANCH  13  14
ENDBRANCH  12  13
ENDBRANCH  11  12
ENDBRANCH  10  11
ENDBRANCH   9  10
ENDBRANCH   8   9
ENDBRANCH   7   8
ENDBRANCH   6   7
ENDBRANCH   5   6
ENDBRANCH   4   5
ENDBRANCH   3   4
ENDBRANCH   2   3
ENDBRANCH   1   2
BRANCH   1  18
ATOM     18  C   UNL     1       8.491 -18.471  19.425  1.00  0.00     0.000 C 
BRANCH  18  19
ATOM     19  C   UNL     1       9.739 -19.357  19.568  1.00  0.00     0.000 C 
BRANCH  19  20
ATOM     20  C   UNL     1       9.910 -20.351  18.400  1.00  0.00     0.000 C 
BRANCH  20  21
ATOM     21  C   UNL     1      11.246 -21.123  18.410  1.00  0.00     0.000 C 
BRANCH  21  22
ATOM     22  C   UNL     1      12.481 -20.316  18.851  1.00  0.00     0.000 C 
BRANCH  22  23
ATOM     23  C   UNL     1      13.313 -20.950  19.984  1.00  0.00     0.000 C 
BRANCH  23  24
ATOM     24  C   UNL     1      12.727 -20.785  21.398  1.00  0.00    -0.000 C 
BRANCH  24  25
ATOM     25  C   UNL     1      12.100 -22.081  21.940  1.00  0.00    -0.000 C 
BRANCH  25  26
ATOM     26  C   UNL     1      10.584 -21.959  22.164  1.00  0.00    -0.000 C 
BRANCH  26  27
ATOM     27  C   UNL     1       9.771 -22.944  21.306  1.00  0.00    -0.000 C 
BRANCH  27  28
ATOM     28  C   UNL     1       8.295 -23.031  21.736  1.00  0.00    -0.000 C 
BRANCH  28  29
ATOM     29  C   UNL     1       7.366 -22.058  20.978  1.00  0.00    -0.000 C 
BRANCH  29  30
ATOM     30  C   UNL     1       7.181 -20.725  21.725  1.00  0.00    -0.000 C 
BRANCH  30  31
ATOM     31  C   UNL     1       6.935 -20.925  23.229  1.00  0.00    -0.003 C 
ATOM     32  C   UNL     1       6.455 -19.648  23.922  1.00  0.00     0.004 C 
ENDBRANCH  30  31
ENDBRANCH  29  30
ENDBRANCH  28  29
ENDBRANCH  27  28
ENDBRANCH  26  27
ENDBRANCH  25  26
ENDBRANCH  24  25
ENDBRANCH  23  24
ENDBRANCH  22  23
ENDBRANCH  21  22
ENDBRANCH  20  21
ENDBRANCH  19  20
ENDBRANCH  18  19
ENDBRANCH   1  18
TORSDOF 28
ENDMDL
MODEL 5
REMARK VINA RESULT:    -4.360      1.558      5.406
REMARK INTER + INTRA:         -17.691
REMARK INTER:                 -11.586
REMARK INTRA:                  -6.105
REMARK UNBOUND:                -6.194
REMARK SMILES CCCCCCCCCCCCCCCCCCCCCCCCCCCCCC(=O)[O-]
REMARK SMILES IDX 16 1 17 2 18 3 19 4 20 5 21 6 22 7 23 8 24 9 25 10 26 11
REMARK SMILES IDX 27 12 28 13 29 14 30 15 31 16 32 17 15 18 14 19 13 20 12 21
REMARK SMILES IDX 11 22 10 23 9 24 8 25 7 26 6 27 5 28 4 29 3 30 2 31 1 32
REMARK H PARENT
REMARK Flexibility Score: inf
ROOT
ATOM      1  C   UNL     1       7.547 -20.263  23.662  1.00  0.00     0.000 C 
ENDROOT
BRANCH   1   2
ATOM      2  C   UNL     1       7.255 -20.893  22.287  1.00  0.00     0.000 C 
BRANCH   2   3
ATOM      3  C   UNL     1       8.448 -21.624  21.636  1.00  0.00     0.000 C 
BRANCH   3   4
ATOM      4  C   UNL     1       8.266 -21.985  20.147  1.00  0.00     0.000 C 
BRANCH   4   5
ATOM      5  C   UNL     1       8.534 -20.831  19.166  1.00  0.00     0.000 C 
BRANCH   5   6
ATOM      6  C   UNL     1       9.573 -21.191  18.095  1.00  0.00     0.000 C 
BRANCH   6   7
ATOM      7  C   UNL     1      10.893 -20.445  18.336  1.00  0.00     0.000 C 
BRANCH   7   8
ATOM      8  C   UNL     1      11.722 -21.135  19.428  1.00  0.00     0.000 C 
BRANCH   8   9
ATOM      9  C   UNL     1      11.922 -20.246  20.668  1.00  0.00     0.000 C 
BRANCH   9  10
ATOM     10  C   UNL     1      11.441 -18.801  20.434  1.00  0.00     0.000 C 
BRANCH  10  11
ATOM     11  C   UNL     1      10.252 -18.426  21.337  1.00  0.00     0.000 C 
BRANCH  11  12
ATOM     12  C   UNL     1       9.439 -17.218  20.817  1.00  0.00     0.000 C 
BRANCH  12  13
ATOM     13  C   UNL     1       8.001 -17.582  20.402  1.00  0.00     0.006 C 
BRANCH  13  14
ATOM     14  C   UNL     1       7.207 -16.407  19.812  1.00  0.00     0.053 C 
BRANCH  14  15
ATOM     15  C   UNL     1       7.715 -16.021  18.455  1.00  0.00     0.041 C 
ATOM     16  O   UNL     1       7.775 -14.810  18.119  1.00  0.00    -0.550 OA
ATOM     17  O   UNL     1       8.145 -17.003  17.569  1.00  0.00    -0.550 OA
ENDBRANCH  14  15
ENDBRANCH  13  14
ENDBRANCH  12  13
ENDBRANCH  11  12
ENDBRANCH  10  11
ENDBRANCH   9  10
ENDBRANCH   8   9
ENDBRANCH   7   8
ENDBRANCH   6   7
ENDBRANCH   5   6
ENDBRANCH   4   5
ENDBRANCH   3   4
ENDBRANCH   2   3
ENDBRANCH   1   2
BRANCH   1  18
ATOM     18  C   UNL     1       6.721 -18.995  23.918  1.00  0.00     0.000 C 
BRANCH  18  19
ATOM     19  C   UNL     1       7.633 -17.795  24.223  1.00  0.00     0.000 C 
BRANCH  19  20
ATOM     20  C   UNL     1       7.129 -16.479  23.595  1.00  0.00     0.000 C 
BRANCH  20  21
ATOM     21  C   UNL     1       8.158 -15.330  23.610  1.00  0.00     0.000 C 
BRANCH  21  22
ATOM     22  C   UNL     1       9.315 -15.482  24.615  1.00  0.00     0.000 C 
BRANCH  22  23
ATOM     23  C   UNL     1      10.680 -15.849  24.000  1.00  0.00     0.000 C 
BRANCH  23  24
ATOM     24  C   UNL     1      11.338 -17.117  24.575  1.00  0.00    -0.000 C 
BRANCH  24  25
ATOM     25  C   UNL     1      12.779 -17.321  24.078  1.00  0.00    -0.000 C 
BRANCH  25  26
ATOM     26  C   UNL     1      13.210 -16.260  23.052  1.00  0.00    -0.000 C 
BRANCH  26  27
ATOM     27  C   UNL     1      14.166 -16.814  21.983  1.00  0.00    -0.000 C 
BRANCH  27  28
ATOM     28  C   UNL     1      14.590 -18.268  22.258  1.00  0.00    -0.000 C 
BRANCH  28  29
ATOM     29  C   UNL     1      15.709 -18.780  21.326  1.00  0.00    -0.000 C 
BRANCH  29  30
ATOM     30  C   UNL     1      15.612 -18.179  19.912  1.00  0.00    -0.000 C 
BRANCH  30  31
ATOM     31  C   UNL     1      15.231 -19.227  18.854  1.00  0.00    -0.003 C 
ATOM     32  C   UNL     1      14.156 -18.727  17.888  1.00  0.00     0.004 C 
ENDBRANCH  30  31
ENDBRANCH  29  30
ENDBRANCH  28  29
ENDBRANCH  27  28
ENDBRANCH  26  27
ENDBRANCH  25  26
ENDBRANCH  24  25
ENDBRANCH  23  24
ENDBRANCH  22  23
ENDBRANCH  21  22
ENDBRANCH  20  21
ENDBRANCH  19  20
ENDBRANCH  18  19
ENDBRANCH   1  18
TORSDOF 28
ENDMDL
MODEL 6
REMARK VINA RESULT:    -4.341      2.741      6.625
REMARK INTER + INTRA:         -17.642
REMARK INTER:                 -11.977
REMARK INTRA:                  -5.665
REMARK UNBOUND:                -6.194
REMARK SMILES CCCCCCCCCCCCCCCCCCCCCCCCCCCCCC(=O)[O-]
REMARK SMILES IDX 16 1 17 2 18 3 19 4 20 5 21 6 22 7 23 8 24 9 25 10 26 11
REMARK SMILES IDX 27 12 28 13 29 14 30 15 31 16 32 17 15 18 14 19 13 20 12 21
REMARK SMILES IDX 11 22 10 23 9 24 8 25 7 26 6 27 5 28 4 29 3 30 2 31 1 32
REMARK H PARENT
REMARK Flexibility Score: inf
ROOT
ATOM      1  C   UNL     1       8.806 -18.843  24.261  1.00  0.00     0.000 C 
ENDROOT
BRANCH   1   2
ATOM      2  C   UNL     1       8.590 -17.744  25.318  1.00  0.00     0.000 C 
BRANCH   2   3
ATOM      3  C   UNL     1       9.859 -16.964  25.721  1.00  0.00     0.000 C 
BRANCH   3   4
ATOM      4  C   UNL     1      11.180 -17.754  25.614  1.00  0.00     0.000 C 
BRANCH   4   5
ATOM      5  C   UNL     1      12.158 -17.234  24.547  1.00  0.00     0.000 C 
BRANCH   5   6
ATOM      6  C   UNL     1      11.538 -16.149  23.654  1.00  0.00     0.000 C 
BRANCH   6   7
ATOM      7  C   UNL     1      12.627 -15.317  22.963  1.00  0.00     0.000 C 
BRANCH   7   8
ATOM      8  C   UNL     1      13.840 -16.188  22.606  1.00  0.00     0.000 C 
BRANCH   8   9
ATOM      9  C   UNL     1      13.766 -16.746  21.174  1.00  0.00     0.000 C 
BRANCH   9  10
ATOM     10  C   UNL     1      15.098 -17.374  20.722  1.00  0.00     0.000 C 
BRANCH  10  11
ATOM     11  C   UNL     1      15.169 -18.881  21.028  1.00  0.00     0.000 C 
BRANCH  11  12
ATOM     12  C   UNL     1      16.379 -19.277  21.905  1.00  0.00     0.000 C 
BRANCH  12  13
ATOM     13  C   UNL     1      16.001 -20.165  23.106  1.00  0.00     0.006 C 
BRANCH  13  14
ATOM     14  C   UNL     1      14.725 -19.719  23.834  1.00  0.00     0.053 C 
BRANCH  14  15
ATOM     15  C   UNL     1      14.570 -20.413  25.154  1.00  0.00     0.041 C 
ATOM     16  O   UNL     1      13.436 -20.802  25.539  1.00  0.00    -0.550 OA
ATOM     17  O   UNL     1      15.685 -20.649  25.950  1.00  0.00    -0.550 OA
ENDBRANCH  14  15
ENDBRANCH  13  14
ENDBRANCH  12  13
ENDBRANCH  11  12
ENDBRANCH  10  11
ENDBRANCH   9  10
ENDBRANCH   8   9
ENDBRANCH   7   8
ENDBRANCH   6   7
ENDBRANCH   5   6
ENDBRANCH   4   5
ENDBRANCH   3   4
ENDBRANCH   2   3
ENDBRANCH   1   2
BRANCH   1  18
ATOM     18  C   UNL     1       7.524 -19.179  23.487  1.00  0.00     0.000 C 
BRANCH  18  19
ATOM     19  C   UNL     1       7.262 -20.694  23.484  1.00  0.00     0.000 C 
BRANCH  19  20
ATOM     20  C   UNL     1       6.650 -21.199  22.161  1.00  0.00     0.000 C 
BRANCH  20  21
ATOM     21  C   UNL     1       7.487 -20.874  20.906  1.00  0.00     0.000 C 
BRANCH  21  22
ATOM     22  C   UNL     1       8.309 -22.041  20.330  1.00  0.00     0.000 C 
BRANCH  22  23
ATOM     23  C   UNL     1       8.801 -23.075  21.363  1.00  0.00     0.000 C 
BRANCH  23  24
ATOM     24  C   UNL     1      10.288 -22.960  21.746  1.00  0.00    -0.000 C 
BRANCH  24  25
ATOM     25  C   UNL     1      11.046 -21.926  20.896  1.00  0.00    -0.000 C 
BRANCH  25  26
ATOM     26  C   UNL     1      11.986 -21.043  21.733  1.00  0.00    -0.000 C 
BRANCH  26  27
ATOM     27  C   UNL     1      11.460 -19.609  21.914  1.00  0.00    -0.000 C 
BRANCH  27  28
ATOM     28  C   UNL     1      10.543 -19.161  20.762  1.00  0.00    -0.000 C 
BRANCH  28  29
ATOM     29  C   UNL     1      10.058 -17.700  20.882  1.00  0.00    -0.000 C 
BRANCH  29  30
ATOM     30  C   UNL     1       9.039 -17.331  19.788  1.00  0.00    -0.000 C 
BRANCH  30  31
ATOM     31  C   UNL     1       7.605 -17.238  20.330  1.00  0.00    -0.003 C 
ATOM     32  C   UNL     1       7.441 -16.139  21.381  1.00  0.00     0.004 C 
ENDBRANCH  30  31
ENDBRANCH  29  30
ENDBRANCH  28  29
ENDBRANCH  27  28
ENDBRANCH  26  27
ENDBRANCH  25  26
ENDBRANCH  24  25
ENDBRANCH  23  24
ENDBRANCH  22  23
ENDBRANCH  21  22
ENDBRANCH  20  21
ENDBRANCH  19  20
ENDBRANCH  18  19
ENDBRANCH   1  18
TORSDOF 28
ENDMDL
MODEL 7
REMARK VINA RESULT:    -4.338      2.638      6.622
REMARK INTER + INTRA:         -17.633
REMARK INTER:                 -11.400
REMARK INTRA:                  -6.232
REMARK UNBOUND:                -6.194
REMARK SMILES CCCCCCCCCCCCCCCCCCCCCCCCCCCCCC(=O)[O-]
REMARK SMILES IDX 16 1 17 2 18 3 19 4 20 5 21 6 22 7 23 8 24 9 25 10 26 11
REMARK SMILES IDX 27 12 28 13 29 14 30 15 31 16 32 17 15 18 14 19 13 20 12 21
REMARK SMILES IDX 11 22 10 23 9 24 8 25 7 26 6 27 5 28 4 29 3 30 2 31 1 32
REMARK H PARENT
REMARK Flexibility Score: inf
ROOT
ATOM      1  C   UNL     1       8.042 -20.015  24.009  1.00  0.00     0.000 C 
ENDROOT
BRANCH   1   2
ATOM      2  C   UNL     1       6.821 -20.298  23.114  1.00  0.00     0.000 C 
BRANCH   2   3
ATOM      3  C   UNL     1       7.144 -20.946  21.752  1.00  0.00     0.000 C 
BRANCH   3   4
ATOM      4  C   UNL     1       8.302 -21.966  21.764  1.00  0.00     0.000 C 
BRANCH   4   5
ATOM      5  C   UNL     1       9.275 -21.850  20.578  1.00  0.00     0.000 C 
BRANCH   5   6
ATOM      6  C   UNL     1       8.615 -21.256  19.325  1.00  0.00     0.000 C 
BRANCH   6   7
ATOM      7  C   UNL     1       9.644 -21.055  18.205  1.00  0.00     0.000 C 
BRANCH   7   8
ATOM      8  C   UNL     1      11.074 -21.073  18.762  1.00  0.00     0.000 C 
BRANCH   8   9
ATOM      9  C   UNL     1      11.919 -19.890  18.259  1.00  0.00     0.000 C 
BRANCH   9  10
ATOM     10  C   UNL     1      13.340 -19.893  18.853  1.00  0.00     0.000 C 
BRANCH  10  11
ATOM     11  C   UNL     1      13.461 -20.817  20.078  1.00  0.00     0.000 C 
BRANCH  11  12
ATOM     12  C   UNL     1      14.651 -20.467  21.001  1.00  0.00     0.000 C 
BRANCH  12  13
ATOM     13  C   UNL     1      14.486 -20.994  22.439  1.00  0.00     0.006 C 
BRANCH  13  14
ATOM     14  C   UNL     1      15.125 -20.097  23.509  1.00  0.00     0.053 C 
BRANCH  14  15
ATOM     15  C   UNL     1      14.738 -20.524  24.893  1.00  0.00     0.041 C 
ATOM     16  O   UNL     1      13.533 -20.750  25.176  1.00  0.00    -0.550 OA
ATOM     17  O   UNL     1      15.716 -20.695  25.867  1.00  0.00    -0.550 OA
ENDBRANCH  14  15
ENDBRANCH  13  14
ENDBRANCH  12  13
ENDBRANCH  11  12
ENDBRANCH  10  11
ENDBRANCH   9  10
ENDBRANCH   8   9
ENDBRANCH   7   8
ENDBRANCH   6   7
ENDBRANCH   5   6
ENDBRANCH   4   5
ENDBRANCH   3   4
ENDBRANCH   2   3
ENDBRANCH   1   2
BRANCH   1  18
ATOM     18  C   UNL     1       7.913 -18.698  24.787  1.00  0.00     0.000 C 
BRANCH  18  19
ATOM     19  C   UNL     1       7.279 -17.603  23.914  1.00  0.00     0.000 C 
BRANCH  19  20
ATOM     20  C   UNL     1       8.186 -16.366  23.745  1.00  0.00     0.000 C 
BRANCH  20  21
ATOM     21  C   UNL     1       7.505 -15.165  23.057  1.00  0.00     0.000 C 
BRANCH  21  22
ATOM     22  C   UNL     1       6.556 -15.511  21.894  1.00  0.00     0.000 C 
BRANCH  22  23
ATOM     23  C   UNL     1       7.241 -15.764  20.536  1.00  0.00     0.000 C 
BRANCH  23  24
ATOM     24  C   UNL     1       7.303 -17.238  20.099  1.00  0.00    -0.000 C 
BRANCH  24  25
ATOM     25  C   UNL     1       8.591 -17.581  19.332  1.00  0.00    -0.000 C 
BRANCH  25  26
ATOM     26  C   UNL     1       9.856 -17.425  20.194  1.00  0.00    -0.000 C 
BRANCH  26  27
ATOM     27  C   UNL     1       9.968 -18.495  21.293  1.00  0.00    -0.000 C 
BRANCH  27  28
ATOM     28  C   UNL     1      11.401 -18.646  21.832  1.00  0.00    -0.000 C 
BRANCH  28  29
ATOM     29  C   UNL     1      11.498 -18.585  23.372  1.00  0.00    -0.000 C 
BRANCH  29  30
ATOM     30  C   UNL     1      12.522 -17.540  23.852  1.00  0.00    -0.000 C 
BRANCH  30  31
ATOM     31  C   UNL     1      12.741 -16.419  22.825  1.00  0.00    -0.003 C 
ATOM     32  C   UNL     1      11.745 -15.269  22.986  1.00  0.00     0.004 C 
ENDBRANCH  30  31
ENDBRANCH  29  30
ENDBRANCH  28  29
ENDBRANCH  27  28
ENDBRANCH  26  27
ENDBRANCH  25  26
ENDBRANCH  24  25
ENDBRANCH  23  24
ENDBRANCH  22  23
ENDBRANCH  21  22
ENDBRANCH  20  21
ENDBRANCH  19  20
ENDBRANCH  18  19
ENDBRANCH   1  18
TORSDOF 28
ENDMDL
MODEL 8
REMARK VINA RESULT:    -4.334      3.138      7.392
REMARK INTER + INTRA:         -17.623
REMARK INTER:                 -11.940
REMARK INTRA:                  -5.683
REMARK UNBOUND:                -6.194
REMARK SMILES CCCCCCCCCCCCCCCCCCCCCCCCCCCCCC(=O)[O-]
REMARK SMILES IDX 16 1 17 2 18 3 19 4 20 5 21 6 22 7 23 8 24 9 25 10 26 11
REMARK SMILES IDX 27 12 28 13 29 14 30 15 31 16 32 17 15 18 14 19 13 20 12 21
REMARK SMILES IDX 11 22 10 23 9 24 8 25 7 26 6 27 5 28 4 29 3 30 2 31 1 32
REMARK H PARENT
REMARK Flexibility Score: inf
ROOT
ATOM      1  C   UNL     1      11.220 -18.997  21.853  1.00  0.00     0.000 C 
ENDROOT
BRANCH   1   2
ATOM      2  C   UNL     1      11.714 -19.061  20.395  1.00  0.00     0.000 C 
BRANCH   2   3
ATOM      3  C   UNL     1      12.050 -17.697  19.757  1.00  0.00     0.000 C 
BRANCH   3   4
ATOM      4  C   UNL     1      11.981 -16.487  20.713  1.00  0.00     0.000 C 
BRANCH   4   5
ATOM      5  C   UNL     1      13.346 -15.887  21.092  1.00  0.00     0.000 C 
BRANCH   5   6
ATOM      6  C   UNL     1      14.011 -16.622  22.266  1.00  0.00     0.000 C 
BRANCH   6   7
ATOM      7  C   UNL     1      14.983 -17.696  21.761  1.00  0.00     0.000 C 
BRANCH   7   8
ATOM      8  C   UNL     1      14.934 -18.945  22.652  1.00  0.00     0.000 C 
BRANCH   8   9
ATOM      9  C   UNL     1      14.989 -20.251  21.842  1.00  0.00     0.000 C 
BRANCH   9  10
ATOM     10  C   UNL     1      14.698 -21.490  22.710  1.00  0.00     0.000 C 
BRANCH  10  11
ATOM     11  C   UNL     1      14.553 -21.139  24.202  1.00  0.00     0.000 C 
BRANCH  11  12
ATOM     12  C   UNL     1      15.025 -22.266  25.150  1.00  0.00     0.000 C 
BRANCH  12  13
ATOM     13  C   UNL     1      16.426 -22.807  24.808  1.00  0.00     0.006 C 
BRANCH  13  14
ATOM     14  C   UNL     1      17.573 -21.876  25.228  1.00  0.00     0.053 C 
BRANCH  14  15
ATOM     15  C   UNL     1      18.401 -21.452  24.051  1.00  0.00     0.041 C 
ATOM     16  O   UNL     1      18.126 -20.394  23.428  1.00  0.00    -0.550 OA
ATOM     17  O   UNL     1      19.492 -22.218  23.658  1.00  0.00    -0.550 OA
ENDBRANCH  14  15
ENDBRANCH  13  14
ENDBRANCH  12  13
ENDBRANCH  11  12
ENDBRANCH  10  11
ENDBRANCH   9  10
ENDBRANCH   8   9
ENDBRANCH   7   8
ENDBRANCH   6   7
ENDBRANCH   5   6
ENDBRANCH   4   5
ENDBRANCH   3   4
ENDBRANCH   2   3
ENDBRANCH   1   2
BRANCH   1  18
ATOM     18  C   UNL     1      11.240 -20.367  22.544  1.00  0.00     0.000 C 
BRANCH  18  19
ATOM     19  C   UNL     1      11.132 -21.505  21.515  1.00  0.00     0.000 C 
BRANCH  19  20
ATOM     20  C   UNL     1      10.417 -22.755  22.069  1.00  0.00     0.000 C 
BRANCH  20  21
ATOM     21  C   UNL     1       8.946 -22.895  21.628  1.00  0.00     0.000 C 
BRANCH  21  22
ATOM     22  C   UNL     1       8.418 -21.787  20.698  1.00  0.00     0.000 C 
BRANCH  22  23
ATOM     23  C   UNL     1       7.465 -20.770  21.358  1.00  0.00     0.000 C 
BRANCH  23  24
ATOM     24  C   UNL     1       7.267 -20.948  22.874  1.00  0.00    -0.000 C 
BRANCH  24  25
ATOM     25  C   UNL     1       7.979 -19.864  23.701  1.00  0.00    -0.000 C 
BRANCH  25  26
ATOM     26  C   UNL     1       7.237 -18.517  23.681  1.00  0.00    -0.000 C 
BRANCH  26  27
ATOM     27  C   UNL     1       8.019 -17.412  22.951  1.00  0.00    -0.000 C 
BRANCH  27  28
ATOM     28  C   UNL     1       7.858 -16.032  23.612  1.00  0.00    -0.000 C 
BRANCH  28  29
ATOM     29  C   UNL     1       9.006 -15.663  24.575  1.00  0.00    -0.000 C 
BRANCH  29  30
ATOM     30  C   UNL     1      10.392 -15.952  23.970  1.00  0.00    -0.000 C 
BRANCH  30  31
ATOM     31  C   UNL     1      11.246 -16.862  24.867  1.00  0.00    -0.003 C 
ATOM     32  C   UNL     1      10.409 -17.639  25.884  1.00  0.00     0.004 C 
ENDBRANCH  30  31
ENDBRANCH  29  30
ENDBRANCH  28  29
ENDBRANCH  27  28
ENDBRANCH  26  27
ENDBRANCH  25  26
ENDBRANCH  24  25
ENDBRANCH  23  24
ENDBRANCH  22  23
ENDBRANCH  21  22
ENDBRANCH  20  21
ENDBRANCH  19  20
ENDBRANCH  18  19
ENDBRANCH   1  18
TORSDOF 28
ENDMDL
MODEL 9
REMARK VINA RESULT:    -4.278      2.670      7.401
REMARK INTER + INTRA:         -17.475
REMARK INTER:                 -11.021
REMARK INTRA:                  -6.454
REMARK UNBOUND:                -6.194
REMARK SMILES CCCCCCCCCCCCCCCCCCCCCCCCCCCCCC(=O)[O-]
REMARK SMILES IDX 16 1 17 2 18 3 19 4 20 5 21 6 22 7 23 8 24 9 25 10 26 11
REMARK SMILES IDX 27 12 28 13 29 14 30 15 31 16 32 17 15 18 14 19 13 20 12 21
REMARK SMILES IDX 11 22 10 23 9 24 8 25 7 26 6 27 5 28 4 29 3 30 2 31 1 32
REMARK H PARENT
REMARK Flexibility Score: inf
ROOT
ATOM      1  C   UNL     1      11.652 -18.649  17.760  1.00  0.00     0.000 C 
ENDROOT
BRANCH   1   2
ATOM      2  C   UNL     1      12.311 -20.007  18.067  1.00  0.00     0.000 C 
BRANCH   2   3
ATOM      3  C   UNL     1      11.728 -20.758  19.282  1.00  0.00     0.000 C 
BRANCH   3   4
ATOM      4  C   UNL     1      12.743 -21.109  20.390  1.00  0.00     0.000 C 
BRANCH   4   5
ATOM      5  C   UNL     1      14.054 -20.306  20.341  1.00  0.00     0.000 C 
BRANCH   5   6
ATOM      6  C   UNL     1      14.622 -20.010  21.737  1.00  0.00     0.000 C 
BRANCH   6   7
ATOM      7  C   UNL     1      14.729 -18.499  21.978  1.00  0.00     0.000 C 
BRANCH   7   8
ATOM      8  C   UNL     1      14.050 -17.712  20.848  1.00  0.00     0.000 C 
BRANCH   8   9
ATOM      9  C   UNL     1      12.993 -16.723  21.370  1.00  0.00     0.000 C 
BRANCH   9  10
ATOM     10  C   UNL     1      11.566 -17.111  20.937  1.00  0.00     0.000 C 
BRANCH  10  11
ATOM     11  C   UNL     1      10.947 -18.183  21.852  1.00  0.00     0.000 C 
BRANCH  11  12
ATOM     12  C   UNL     1      11.211 -17.938  23.356  1.00  0.00     0.000 C 
BRANCH  12  13
ATOM     13  C   UNL     1      11.735 -19.184  24.095  1.00  0.00     0.006 C 
BRANCH  13  14
ATOM     14  C   UNL     1      12.711 -18.866  25.238  1.00  0.00     0.053 C 
BRANCH  14  15
ATOM     15  C   UNL     1      13.676 -19.989  25.471  1.00  0.00     0.041 C 
ATOM     16  O   UNL     1      14.702 -19.811  26.178  1.00  0.00    -0.550 OA
ATOM     17  O   UNL     1      13.429 -21.243  24.922  1.00  0.00    -0.550 OA
ENDBRANCH  14  15
ENDBRANCH  13  14
ENDBRANCH  12  13
ENDBRANCH  11  12
ENDBRANCH  10  11
ENDBRANCH   9  10
ENDBRANCH   8   9
ENDBRANCH   7   8
ENDBRANCH   6   7
ENDBRANCH   5   6
ENDBRANCH   4   5
ENDBRANCH   3   4
ENDBRANCH   2   3
ENDBRANCH   1   2
BRANCH   1  18
ATOM     18  C   UNL     1      10.205 -18.793  17.266  1.00  0.00     0.000 C 
BRANCH  18  19
ATOM     19  C   UNL     1       9.238 -17.994  18.155  1.00  0.00     0.000 C 
BRANCH  19  20
ATOM     20  C   UNL     1       8.443 -18.884  19.134  1.00  0.00     0.000 C 
BRANCH  20  21
ATOM     21  C   UNL     1       7.514 -18.108  20.090  1.00  0.00     0.000 C 
BRANCH  21  22
ATOM     22  C   UNL     1       7.908 -16.645  20.364  1.00  0.00     0.000 C 
BRANCH  22  23
ATOM     23  C   UNL     1       6.821 -15.784  21.040  1.00  0.00     0.000 C 
BRANCH  23  24
ATOM     24  C   UNL     1       7.142 -15.336  22.477  1.00  0.00    -0.000 C 
BRANCH  24  25
ATOM     25  C   UNL     1       7.928 -16.394  23.272  1.00  0.00    -0.000 C 
BRANCH  25  26
ATOM     26  C   UNL     1       7.033 -17.530  23.796  1.00  0.00    -0.000 C 
BRANCH  26  27
ATOM     27  C   UNL     1       7.833 -18.668  24.453  1.00  0.00    -0.000 C 
BRANCH  27  28
ATOM     28  C   UNL     1       7.394 -20.061  23.968  1.00  0.00    -0.000 C 
BRANCH  28  29
ATOM     29  C   UNL     1       8.322 -20.670  22.894  1.00  0.00    -0.000 C 
BRANCH  29  30
ATOM     30  C   UNL     1       7.537 -21.401  21.790  1.00  0.00    -0.000 C 
BRANCH  30  31
ATOM     31  C   UNL     1       8.329 -22.569  21.183  1.00  0.00    -0.003 C 
ATOM     32  C   UNL     1       9.702 -22.751  21.832  1.00  0.00     0.004 C 
ENDBRANCH  30  31
ENDBRANCH  29  30
ENDBRANCH  28  29
ENDBRANCH  27  28
ENDBRANCH  26  27
ENDBRANCH  25  26
ENDBRANCH  24  25
ENDBRANCH  23  24
ENDBRANCH  22  23
ENDBRANCH  21  22
ENDBRANCH  20  21
ENDBRANCH  19  20
ENDBRANCH  18  19
ENDBRANCH   1  18
TORSDOF 28
ENDMDL
