MODEL 1
REMARK VINA RESULT:    44.010      0.000      0.000
REMARK INTER + INTRA:          66.405
REMARK INTER:                  63.306
REMARK INTRA:                   3.099
REMARK UNBOUND:                 3.099
REMARK SMILES O=c1c(O[C@H]2O[C@H](CO)[C@@H](O)[C@@H](O)[C@H]2O)c(-c2ccc(O)cc2)oc2cc(O)cc(O)c12
REMARK SMILES IDX 4 1 3 2 16 3 24 4 2 5 25 6 1 7 32 8 26 9 30 10 27 11 29 12
REMARK SMILES IDX 17 13 18 14 19 15 20 16 23 17 22 18 21 19 31 21 28 23 5 25
REMARK SMILES IDX 14 26 6 27 12 28 7 29 10 30 15 31 13 33 8 35 9 36 11 38
REMARK H PARENT 21 20 31 22 28 24 15 32 13 34 9 37 11 39
REMARK Flexibility Score: inf
ROOT
ATOM      1  O   UNL     1     -17.156  -2.045  13.890  1.00  0.00    -0.454 OA
ENDROOT
BRANCH   1   2
ATOM      2  C   UNL     1     -16.557  -2.142  12.621  1.00  0.00     0.214 A 
ATOM      3  C   UNL     1     -15.273  -2.706  12.521  1.00  0.00     0.180 A 
ATOM      4  O   UNL     1     -14.712  -2.885  11.330  1.00  0.00    -0.452 OA
ATOM      5  C   UNL     1     -17.203  -1.722  11.442  1.00  0.00     0.239 A 
ATOM      6  C   UNL     1     -15.293  -2.526  10.191  1.00  0.00     0.146 A 
ATOM      7  O   UNL     1     -18.331  -1.166  11.509  1.00  0.00    -0.285 OA
ATOM      8  C   UNL     1     -16.570  -1.916  10.194  1.00  0.00     0.111 A 
ATOM      9  C   UNL     1     -14.624  -2.755   8.985  1.00  0.00     0.094 A 
ATOM     10  C   UNL     1     -17.151  -1.533   8.962  1.00  0.00     0.134 A 
ATOM     11  C   UNL     1     -15.206  -2.376   7.772  1.00  0.00     0.123 A 
ATOM     12  C   UNL     1     -16.462  -1.766   7.763  1.00  0.00     0.093 A 
BRANCH   3  13
ATOM     13  C   UNL     1     -14.539  -3.158  13.723  1.00  0.00     0.021 A 
ATOM     14  C   UNL     1     -13.938  -4.427  13.734  1.00  0.00     0.016 A 
ATOM     15  C   UNL     1     -13.263  -4.878  14.875  1.00  0.00     0.047 A 
ATOM     16  C   UNL     1     -13.170  -4.058  16.007  1.00  0.00     0.115 A 
ATOM     17  C   UNL     1     -14.424  -2.331  14.854  1.00  0.00     0.016 A 
ATOM     18  C   UNL     1     -13.748  -2.783  15.992  1.00  0.00     0.047 A 
BRANCH  16  19
ATOM     19  O   UNL     1     -12.507  -4.496  17.151  1.00  0.00    -0.508 OA
ATOM     20  H   UNL     1     -11.931  -5.328  17.141  1.00  0.00     0.293 HD
ENDBRANCH  16  19
ENDBRANCH   3  13
BRANCH  10  21
ATOM     21  O   UNL     1     -18.407  -0.925   8.919  1.00  0.00    -0.507 OA
ATOM     22  H   UNL     1     -19.238  -1.441   8.659  1.00  0.00     0.293 HD
ENDBRANCH  10  21
BRANCH  11  23
ATOM     23  O   UNL     1     -14.543  -2.599   6.566  1.00  0.00    -0.508 OA
ATOM     24  H   UNL     1     -13.556  -2.399   6.460  1.00  0.00     0.293 HD
ENDBRANCH  11  23
ENDBRANCH   1   2
BRANCH   1  25
ATOM     25  C   UNL     1     -18.429  -2.590  14.246  1.00  0.00     0.339 C 
ATOM     26  C   UNL     1     -18.271  -3.697  15.337  1.00  0.00     0.214 C 
ATOM     27  O   UNL     1     -19.118  -3.043  13.085  1.00  0.00    -0.332 OA
ATOM     28  C   UNL     1     -19.125  -4.949  15.009  1.00  0.00     0.180 C 
ATOM     29  C   UNL     1     -18.561  -4.253  12.609  1.00  0.00     0.179 C 
ATOM     30  C   UNL     1     -18.991  -5.421  13.534  1.00  0.00     0.177 C 
BRANCH  26  31
ATOM     31  O   UNL     1     -16.921  -4.027  15.561  1.00  0.00    -0.384 OA
ATOM     32  H   UNL     1     -16.468  -4.085  14.684  1.00  0.00     0.211 HD
ENDBRANCH  26  31
BRANCH  28  33
ATOM     33  O   UNL     1     -18.905  -5.995  15.927  1.00  0.00    -0.387 OA
ATOM     34  H   UNL     1     -19.520  -5.861  16.695  1.00  0.00     0.211 HD
ENDBRANCH  28  33
BRANCH  29  35
ATOM     35  C   UNL     1     -19.031  -4.487  11.168  1.00  0.00     0.191 C 
BRANCH  35  36
ATOM     36  O   UNL     1     -19.124  -3.269  10.477  1.00  0.00    -0.394 OA
ATOM     37  H   UNL     1     -20.090  -3.061  10.389  1.00  0.00     0.210 HD
ENDBRANCH  35  36
ENDBRANCH  29  35
BRANCH  30  38
ATOM     38  O   UNL     1     -18.129  -6.528  13.402  1.00  0.00    -0.387 OA
ATOM     39  H   UNL     1     -18.643  -7.290  13.027  1.00  0.00     0.211 HD
ENDBRANCH  30  38
ENDBRANCH   1  25
TORSDOF 11
ENDMDL
MODEL 2
REMARK VINA RESULT:    45.412      3.585      6.442
REMARK INTER + INTRA:          68.423
REMARK INTER:                  64.858
REMARK INTRA:                   3.564
REMARK UNBOUND:                 3.099
REMARK SMILES O=c1c(O[C@H]2O[C@H](CO)[C@@H](O)[C@@H](O)[C@H]2O)c(-c2ccc(O)cc2)oc2cc(O)cc(O)c12
REMARK SMILES IDX 4 1 3 2 16 3 24 4 2 5 25 6 1 7 32 8 26 9 30 10 27 11 29 12
REMARK SMILES IDX 17 13 18 14 19 15 20 16 23 17 22 18 21 19 31 21 28 23 5 25
REMARK SMILES IDX 14 26 6 27 12 28 7 29 10 30 15 31 13 33 8 35 9 36 11 38
REMARK H PARENT 21 20 31 22 28 24 15 32 13 34 9 37 11 39
REMARK Flexibility Score: inf
ROOT
ATOM      1  O   UNL     1     -17.702   0.138   9.968  1.00  0.00    -0.454 OA
ENDROOT
BRANCH   1   2
ATOM      2  C   UNL     1     -17.802   0.962   8.833  1.00  0.00     0.214 A 
ATOM      3  C   UNL     1     -17.487   0.420   7.574  1.00  0.00     0.180 A 
ATOM      4  O   UNL     1     -17.647   1.148   6.474  1.00  0.00    -0.452 OA
ATOM      5  C   UNL     1     -18.234   2.301   8.902  1.00  0.00     0.239 A 
ATOM      6  C   UNL     1     -18.072   2.405   6.489  1.00  0.00     0.146 A 
ATOM      7  O   UNL     1     -18.472   2.827  10.022  1.00  0.00    -0.285 OA
ATOM      8  C   UNL     1     -18.379   3.048   7.711  1.00  0.00     0.111 A 
ATOM      9  C   UNL     1     -18.211   3.090   5.278  1.00  0.00     0.094 A 
ATOM     10  C   UNL     1     -18.815   4.394   7.690  1.00  0.00     0.134 A 
ATOM     11  C   UNL     1     -18.644   4.419   5.264  1.00  0.00     0.123 A 
ATOM     12  C   UNL     1     -18.942   5.066   6.465  1.00  0.00     0.093 A 
BRANCH   3  13
ATOM     13  C   UNL     1     -17.020  -0.976   7.436  1.00  0.00     0.021 A 
ATOM     14  C   UNL     1     -17.928  -1.979   7.062  1.00  0.00     0.016 A 
ATOM     15  C   UNL     1     -17.506  -3.309   6.954  1.00  0.00     0.047 A 
ATOM     16  C   UNL     1     -16.168  -3.645   7.204  1.00  0.00     0.115 A 
ATOM     17  C   UNL     1     -15.675  -1.316   7.665  1.00  0.00     0.016 A 
ATOM     18  C   UNL     1     -15.254  -2.645   7.556  1.00  0.00     0.047 A 
BRANCH  16  19
ATOM     19  O   UNL     1     -15.735  -4.966   7.107  1.00  0.00    -0.508 OA
ATOM     20  H   UNL     1     -15.697  -5.569   7.918  1.00  0.00     0.293 HD
ENDBRANCH  16  19
ENDBRANCH   3  13
BRANCH  10  21
ATOM     21  O   UNL     1     -19.125   5.068   8.872  1.00  0.00    -0.507 OA
ATOM     22  H   UNL     1     -20.018   4.949   9.333  1.00  0.00     0.293 HD
ENDBRANCH  10  21
BRANCH  11  23
ATOM     23  O   UNL     1     -18.781   5.109   4.061  1.00  0.00    -0.508 OA
ATOM     24  H   UNL     1     -18.407   6.042   3.940  1.00  0.00     0.293 HD
ENDBRANCH  11  23
ENDBRANCH   1   2
BRANCH   1  25
ATOM     25  C   UNL     1     -17.980  -1.264   9.997  1.00  0.00     0.339 C 
ATOM     26  C   UNL     1     -18.786  -1.641  11.281  1.00  0.00     0.214 C 
ATOM     27  O   UNL     1     -16.778  -2.013   9.852  1.00  0.00    -0.332 OA
ATOM     28  C   UNL     1     -18.221  -2.917  11.957  1.00  0.00     0.180 C 
ATOM     29  C   UNL     1     -16.018  -1.982  11.045  1.00  0.00     0.179 C 
ATOM     30  C   UNL     1     -16.674  -2.909  12.101  1.00  0.00     0.177 C 
BRANCH  26  31
ATOM     31  O   UNL     1     -18.872  -0.564  12.184  1.00  0.00    -0.384 OA
ATOM     32  H   UNL     1     -18.031  -0.047  12.129  1.00  0.00     0.211 HD
ENDBRANCH  26  31
BRANCH  28  33
ATOM     33  O   UNL     1     -18.870  -3.203  13.175  1.00  0.00    -0.387 OA
ATOM     34  H   UNL     1     -19.347  -2.383  13.466  1.00  0.00     0.211 HD
ENDBRANCH  28  33
BRANCH  29  35
ATOM     35  C   UNL     1     -14.583  -2.425  10.736  1.00  0.00     0.191 C 
BRANCH  35  36
ATOM     36  O   UNL     1     -14.526  -3.815  10.551  1.00  0.00    -0.394 OA
ATOM     37  H   UNL     1     -13.617  -4.105  10.823  1.00  0.00     0.210 HD
ENDBRANCH  35  36
ENDBRANCH  29  35
BRANCH  30  38
ATOM     38  O   UNL     1     -16.260  -2.578  13.407  1.00  0.00    -0.387 OA
ATOM     39  H   UNL     1     -15.656  -1.792  13.360  1.00  0.00     0.211 HD
ENDBRANCH  30  38
ENDBRANCH   1  25
TORSDOF 11
ENDMDL
MODEL 3
REMARK VINA RESULT:    46.065     12.570     14.533
REMARK INTER + INTRA:          69.362
REMARK INTER:                  64.494
REMARK INTRA:                   4.868
REMARK UNBOUND:                 3.099
REMARK SMILES O=c1c(O[C@H]2O[C@H](CO)[C@@H](O)[C@@H](O)[C@H]2O)c(-c2ccc(O)cc2)oc2cc(O)cc(O)c12
REMARK SMILES IDX 4 1 3 2 16 3 24 4 2 5 25 6 1 7 32 8 26 9 30 10 27 11 29 12
REMARK SMILES IDX 17 13 18 14 19 15 20 16 23 17 22 18 21 19 31 21 28 23 5 25
REMARK SMILES IDX 14 26 6 27 12 28 7 29 10 30 15 31 13 33 8 35 9 36 11 38
REMARK H PARENT 21 20 31 22 28 24 15 32 13 34 9 37 11 39
REMARK Flexibility Score: inf
ROOT
ATOM      1  O   UNL     1      -5.919   3.850  11.744  1.00  0.00    -0.454 OA
ENDROOT
BRANCH   1   2
ATOM      2  C   UNL     1      -5.412   2.543  11.863  1.00  0.00     0.214 A 
ATOM      3  C   UNL     1      -5.134   2.042  13.147  1.00  0.00     0.180 A 
ATOM      4  O   UNL     1      -4.729   0.785  13.300  1.00  0.00    -0.452 OA
ATOM      5  C   UNL     1      -5.198   1.707  10.751  1.00  0.00     0.239 A 
ATOM      6  C   UNL     1      -4.535  -0.046  12.283  1.00  0.00     0.146 A 
ATOM      7  O   UNL     1      -5.389   2.150   9.587  1.00  0.00    -0.285 OA
ATOM      8  C   UNL     1      -4.754   0.381  10.952  1.00  0.00     0.111 A 
ATOM      9  C   UNL     1      -4.109  -1.351  12.543  1.00  0.00     0.094 A 
ATOM     10  C   UNL     1      -4.523  -0.528   9.892  1.00  0.00     0.134 A 
ATOM     11  C   UNL     1      -3.885  -2.244  11.492  1.00  0.00     0.123 A 
ATOM     12  C   UNL     1      -4.089  -1.832  10.173  1.00  0.00     0.093 A 
BRANCH   3  13
ATOM     13  C   UNL     1      -5.330   2.873  14.354  1.00  0.00     0.021 A 
ATOM     14  C   UNL     1      -4.333   2.910  15.342  1.00  0.00     0.016 A 
ATOM     15  C   UNL     1      -4.517   3.672  16.502  1.00  0.00     0.047 A 
ATOM     16  C   UNL     1      -5.692   4.415  16.676  1.00  0.00     0.115 A 
ATOM     17  C   UNL     1      -6.497   3.638  14.525  1.00  0.00     0.016 A 
ATOM     18  C   UNL     1      -6.679   4.399  15.684  1.00  0.00     0.047 A 
BRANCH  16  19
ATOM     19  O   UNL     1      -5.892   5.172  17.829  1.00  0.00    -0.508 OA
ATOM     20  H   UNL     1      -5.559   4.857  18.731  1.00  0.00     0.293 HD
ENDBRANCH  16  19
ENDBRANCH   3  13
BRANCH  10  21
ATOM     21  O   UNL     1      -4.721  -0.148   8.564  1.00  0.00    -0.507 OA
ATOM     22  H   UNL     1      -5.635   0.115   8.218  1.00  0.00     0.293 HD
ENDBRANCH  10  21
BRANCH  11  23
ATOM     23  O   UNL     1      -3.457  -3.546  11.744  1.00  0.00    -0.508 OA
ATOM     24  H   UNL     1      -3.885  -4.342  11.288  1.00  0.00     0.293 HD
ENDBRANCH  11  23
ENDBRANCH   1   2
BRANCH   1  25
ATOM     25  C   UNL     1      -5.501   4.972  12.525  1.00  0.00     0.339 C 
ATOM     26  C   UNL     1      -5.381   6.251  11.635  1.00  0.00     0.214 C 
ATOM     27  O   UNL     1      -4.302   4.668  13.231  1.00  0.00    -0.332 OA
ATOM     28  C   UNL     1      -4.075   7.032  11.929  1.00  0.00     0.180 C 
ATOM     29  C   UNL     1      -3.190   4.666  12.356  1.00  0.00     0.179 C 
ATOM     30  C   UNL     1      -2.813   6.127  11.994  1.00  0.00     0.177 C 
BRANCH  26  31
ATOM     31  O   UNL     1      -5.519   5.954  10.266  1.00  0.00    -0.384 OA
ATOM     32  H   UNL     1      -6.359   6.363   9.945  1.00  0.00     0.211 HD
ENDBRANCH  26  31
BRANCH  28  33
ATOM     33  O   UNL     1      -3.904   8.125  11.056  1.00  0.00    -0.387 OA
ATOM     34  H   UNL     1      -3.035   8.010  10.590  1.00  0.00     0.211 HD
ENDBRANCH  28  33
BRANCH  29  35
ATOM     35  C   UNL     1      -2.020   3.946  13.037  1.00  0.00     0.191 C 
BRANCH  35  36
ATOM     36  O   UNL     1      -0.891   4.778  13.085  1.00  0.00    -0.394 OA
ATOM     37  H   UNL     1      -0.602   4.818  14.033  1.00  0.00     0.210 HD
ENDBRANCH  35  36
ENDBRANCH  29  35
BRANCH  30  38
ATOM     38  O   UNL     1      -2.051   6.184  10.810  1.00  0.00    -0.387 OA
ATOM     39  H   UNL     1      -1.097   6.032  11.037  1.00  0.00     0.211 HD
ENDBRANCH  30  38
ENDBRANCH   1  25
TORSDOF 11
ENDMDL
