MODEL 1
REMARK VINA RESULT:    -5.168      0.000      0.000
REMARK INTER + INTRA:         -18.647
REMARK INTER:                 -13.627
REMARK INTRA:                  -5.020
REMARK UNBOUND:                -5.020
REMARK SMILES CCCCCCCCCCCCCCCCCCCCCCCCCCCCCC(=O)[O-]
REMARK SMILES IDX 16 1 17 2 18 3 19 4 20 5 21 6 22 7 23 8 24 9 25 10 26 11
REMARK SMILES IDX 27 12 28 13 29 14 30 15 31 16 32 17 15 18 14 19 13 20 12 21
REMARK SMILES IDX 11 22 10 23 9 24 8 25 7 26 6 27 5 28 4 29 3 30 2 31 1 32
REMARK H PARENT
REMARK Flexibility Score: inf
ROOT
ATOM      1  C   UNL     1      15.427 -30.346  23.346  1.00  0.00     0.000 C 
ENDROOT
BRANCH   1   2
ATOM      2  C   UNL     1      14.084 -31.101  23.393  1.00  0.00     0.000 C 
BRANCH   2   3
ATOM      3  C   UNL     1      14.202 -32.501  24.020  1.00  0.00     0.000 C 
BRANCH   3   4
ATOM      4  C   UNL     1      15.525 -33.207  23.672  1.00  0.00     0.000 C 
BRANCH   4   5
ATOM      5  C   UNL     1      16.158 -34.016  24.819  1.00  0.00     0.000 C 
BRANCH   5   6
ATOM      6  C   UNL     1      17.433 -33.369  25.381  1.00  0.00     0.000 C 
BRANCH   6   7
ATOM      7  C   UNL     1      18.124 -32.501  24.321  1.00  0.00     0.000 C 
BRANCH   7   8
ATOM      8  C   UNL     1      18.519 -31.135  24.902  1.00  0.00     0.000 C 
BRANCH   8   9
ATOM      9  C   UNL     1      19.884 -30.646  24.392  1.00  0.00     0.000 C 
BRANCH   9  10
ATOM     10  C   UNL     1      20.165 -31.090  22.946  1.00  0.00     0.000 C 
BRANCH  10  11
ATOM     11  C   UNL     1      21.207 -30.205  22.241  1.00  0.00     0.000 C 
BRANCH  11  12
ATOM     12  C   UNL     1      20.688 -29.435  21.009  1.00  0.00     0.000 C 
BRANCH  12  13
ATOM     13  C   UNL     1      20.625 -27.904  21.171  1.00  0.00     0.006 C 
BRANCH  13  14
ATOM     14  C   UNL     1      21.796 -27.147  20.526  1.00  0.00     0.053 C 
BRANCH  14  15
ATOM     15  C   UNL     1      21.402 -25.766  20.100  1.00  0.00     0.041 C 
ATOM     16  O   UNL     1      20.192 -25.419  20.113  1.00  0.00    -0.550 OA
ATOM     17  O   UNL     1      22.370 -24.871  19.664  1.00  0.00    -0.550 OA
ENDBRANCH  14  15
ENDBRANCH  13  14
ENDBRANCH  12  13
ENDBRANCH  11  12
ENDBRANCH  10  11
ENDBRANCH   9  10
ENDBRANCH   8   9
ENDBRANCH   7   8
ENDBRANCH   6   7
ENDBRANCH   5   6
ENDBRANCH   4   5
ENDBRANCH   3   4
ENDBRANCH   2   3
ENDBRANCH   1   2
BRANCH   1  18
ATOM     18  C   UNL     1      15.802 -29.739  21.981  1.00  0.00     0.000 C 
BRANCH  18  19
ATOM     19  C   UNL     1      17.043 -30.393  21.351  1.00  0.00     0.000 C 
BRANCH  19  20
ATOM     20  C   UNL     1      16.785 -31.836  20.887  1.00  0.00     0.000 C 
BRANCH  20  21
ATOM     21  C   UNL     1      18.026 -32.603  20.392  1.00  0.00     0.000 C 
BRANCH  21  22
ATOM     22  C   UNL     1      17.722 -33.657  19.308  1.00  0.00     0.000 C 
BRANCH  22  23
ATOM     23  C   UNL     1      16.259 -34.136  19.337  1.00  0.00     0.000 C 
BRANCH  23  24
ATOM     24  C   UNL     1      16.065 -35.416  20.166  1.00  0.00    -0.000 C 
BRANCH  24  25
ATOM     25  C   UNL     1      17.017 -36.565  19.771  1.00  0.00    -0.000 C 
BRANCH  25  26
ATOM     26  C   UNL     1      17.919 -36.996  20.939  1.00  0.00    -0.000 C 
BRANCH  26  27
ATOM     27  C   UNL     1      17.809 -36.020  22.118  1.00  0.00    -0.000 C 
BRANCH  27  28
ATOM     28  C   UNL     1      19.176 -35.660  22.723  1.00  0.00    -0.000 C 
BRANCH  28  29
ATOM     29  C   UNL     1      20.033 -36.889  23.096  1.00  0.00    -0.000 C 
BRANCH  29  30
ATOM     30  C   UNL     1      19.365 -37.753  24.181  1.00  0.00    -0.000 C 
BRANCH  30  31
ATOM     31  C   UNL     1      19.301 -37.048  25.545  1.00  0.00    -0.003 C 
ATOM     32  C   UNL     1      17.882 -36.975  26.106  1.00  0.00     0.004 C 
ENDBRANCH  30  31
ENDBRANCH  29  30
ENDBRANCH  28  29
ENDBRANCH  27  28
ENDBRANCH  26  27
ENDBRANCH  25  26
ENDBRANCH  24  25
ENDBRANCH  23  24
ENDBRANCH  22  23
ENDBRANCH  21  22
ENDBRANCH  20  21
ENDBRANCH  19  20
ENDBRANCH  18  19
ENDBRANCH   1  18
TORSDOF 28
ENDMDL
MODEL 2
REMARK VINA RESULT:    -5.156      1.496      2.987
REMARK INTER + INTRA:         -18.615
REMARK INTER:                 -13.996
REMARK INTRA:                  -4.619
REMARK UNBOUND:                -5.020
REMARK SMILES CCCCCCCCCCCCCCCCCCCCCCCCCCCCCC(=O)[O-]
REMARK SMILES IDX 16 1 17 2 18 3 19 4 20 5 21 6 22 7 23 8 24 9 25 10 26 11
REMARK SMILES IDX 27 12 28 13 29 14 30 15 31 16 32 17 15 18 14 19 13 20 12 21
REMARK SMILES IDX 11 22 10 23 9 24 8 25 7 26 6 27 5 28 4 29 3 30 2 31 1 32
REMARK H PARENT
REMARK Flexibility Score: inf
ROOT
ATOM      1  C   UNL     1      14.698 -30.825  23.720  1.00  0.00     0.000 C 
ENDROOT
BRANCH   1   2
ATOM      2  C   UNL     1      15.182 -29.529  23.041  1.00  0.00     0.000 C 
BRANCH   2   3
ATOM      3  C   UNL     1      16.569 -29.670  22.391  1.00  0.00     0.000 C 
BRANCH   3   4
ATOM      4  C   UNL     1      17.038 -31.133  22.286  1.00  0.00     0.000 C 
BRANCH   4   5
ATOM      5  C   UNL     1      17.517 -31.570  20.889  1.00  0.00     0.000 C 
BRANCH   5   6
ATOM      6  C   UNL     1      18.932 -32.169  20.898  1.00  0.00     0.000 C 
BRANCH   6   7
ATOM      7  C   UNL     1      19.602 -31.979  22.265  1.00  0.00     0.000 C 
BRANCH   7   8
ATOM      8  C   UNL     1      20.811 -31.037  22.157  1.00  0.00     0.000 C 
BRANCH   8   9
ATOM      9  C   UNL     1      20.416 -29.554  22.245  1.00  0.00     0.000 C 
BRANCH   9  10
ATOM     10  C   UNL     1      20.486 -28.844  20.882  1.00  0.00     0.000 C 
BRANCH  10  11
ATOM     11  C   UNL     1      21.747 -27.977  20.724  1.00  0.00     0.000 C 
BRANCH  11  12
ATOM     12  C   UNL     1      22.039 -27.024  21.902  1.00  0.00     0.000 C 
BRANCH  12  13
ATOM     13  C   UNL     1      21.680 -25.546  21.655  1.00  0.00     0.006 C 
BRANCH  13  14
ATOM     14  C   UNL     1      21.723 -25.120  20.179  1.00  0.00     0.053 C 
BRANCH  14  15
ATOM     15  C   UNL     1      23.045 -24.521  19.808  1.00  0.00     0.041 C 
ATOM     16  O   UNL     1      23.658 -23.783  20.623  1.00  0.00    -0.550 OA
ATOM     17  O   UNL     1      23.587 -24.760  18.552  1.00  0.00    -0.550 OA
ENDBRANCH  14  15
ENDBRANCH  13  14
ENDBRANCH  12  13
ENDBRANCH  11  12
ENDBRANCH  10  11
ENDBRANCH   9  10
ENDBRANCH   8   9
ENDBRANCH   7   8
ENDBRANCH   6   7
ENDBRANCH   5   6
ENDBRANCH   4   5
ENDBRANCH   3   4
ENDBRANCH   2   3
ENDBRANCH   1   2
BRANCH   1  18
ATOM     18  C   UNL     1      13.407 -31.435  23.144  1.00  0.00     0.000 C 
BRANCH  18  19
ATOM     19  C   UNL     1      13.018 -30.845  21.778  1.00  0.00     0.000 C 
BRANCH  19  20
ATOM     20  C   UNL     1      13.331 -31.794  20.609  1.00  0.00     0.000 C 
BRANCH  20  21
ATOM     21  C   UNL     1      14.220 -33.003  20.961  1.00  0.00     0.000 C 
BRANCH  21  22
ATOM     22  C   UNL     1      14.818 -33.720  19.734  1.00  0.00     0.000 C 
BRANCH  22  23
ATOM     23  C   UNL     1      15.378 -35.113  20.073  1.00  0.00     0.000 C 
BRANCH  23  24
ATOM     24  C   UNL     1      16.759 -35.372  19.448  1.00  0.00    -0.000 C 
BRANCH  24  25
ATOM     25  C   UNL     1      17.299 -36.796  19.696  1.00  0.00    -0.000 C 
BRANCH  25  26
ATOM     26  C   UNL     1      17.917 -36.945  21.095  1.00  0.00    -0.000 C 
BRANCH  26  27
ATOM     27  C   UNL     1      18.266 -35.579  21.699  1.00  0.00    -0.000 C 
BRANCH  27  28
ATOM     28  C   UNL     1      19.081 -35.691  22.998  1.00  0.00    -0.000 C 
BRANCH  28  29
ATOM     29  C   UNL     1      18.246 -35.461  24.276  1.00  0.00    -0.000 C 
BRANCH  29  30
ATOM     30  C   UNL     1      16.980 -34.629  23.999  1.00  0.00    -0.000 C 
BRANCH  30  31
ATOM     31  C   UNL     1      16.727 -33.559  25.073  1.00  0.00    -0.003 C 
ATOM     32  C   UNL     1      18.005 -32.841  25.502  1.00  0.00     0.004 C 
ENDBRANCH  30  31
ENDBRANCH  29  30
ENDBRANCH  28  29
ENDBRANCH  27  28
ENDBRANCH  26  27
ENDBRANCH  25  26
ENDBRANCH  24  25
ENDBRANCH  23  24
ENDBRANCH  22  23
ENDBRANCH  21  22
ENDBRANCH  20  21
ENDBRANCH  19  20
ENDBRANCH  18  19
ENDBRANCH   1  18
TORSDOF 28
ENDMDL
MODEL 3
REMARK VINA RESULT:    -5.144      3.301      8.012
REMARK INTER + INTRA:         -18.584
REMARK INTER:                 -14.059
REMARK INTRA:                  -4.525
REMARK UNBOUND:                -5.020
REMARK SMILES CCCCCCCCCCCCCCCCCCCCCCCCCCCCCC(=O)[O-]
REMARK SMILES IDX 16 1 17 2 18 3 19 4 20 5 21 6 22 7 23 8 24 9 25 10 26 11
REMARK SMILES IDX 27 12 28 13 29 14 30 15 31 16 32 17 15 18 14 19 13 20 12 21
REMARK SMILES IDX 11 22 10 23 9 24 8 25 7 26 6 27 5 28 4 29 3 30 2 31 1 32
REMARK H PARENT
REMARK Flexibility Score: inf
ROOT
ATOM      1  C   UNL     1      15.473 -29.939  23.271  1.00  0.00     0.000 C 
ENDROOT
BRANCH   1   2
ATOM      2  C   UNL     1      13.950 -29.868  23.500  1.00  0.00     0.000 C 
BRANCH   2   3
ATOM      3  C   UNL     1      13.212 -31.139  23.046  1.00  0.00     0.000 C 
BRANCH   3   4
ATOM      4  C   UNL     1      12.971 -31.183  21.525  1.00  0.00     0.000 C 
BRANCH   4   5
ATOM      5  C   UNL     1      13.850 -32.183  20.751  1.00  0.00     0.000 C 
BRANCH   5   6
ATOM      6  C   UNL     1      14.657 -33.111  21.670  1.00  0.00     0.000 C 
BRANCH   6   7
ATOM      7  C   UNL     1      15.107 -34.373  20.922  1.00  0.00     0.000 C 
BRANCH   7   8
ATOM      8  C   UNL     1      15.874 -34.007  19.641  1.00  0.00     0.000 C 
BRANCH   8   9
ATOM      9  C   UNL     1      16.959 -35.036  19.286  1.00  0.00     0.000 C 
BRANCH   9  10
ATOM     10  C   UNL     1      16.708 -36.406  19.941  1.00  0.00     0.000 C 
BRANCH  10  11
ATOM     11  C   UNL     1      17.888 -36.879  20.808  1.00  0.00     0.000 C 
BRANCH  11  12
ATOM     12  C   UNL     1      18.568 -35.777  21.646  1.00  0.00     0.000 C 
BRANCH  12  13
ATOM     13  C   UNL     1      18.351 -35.883  23.168  1.00  0.00     0.006 C 
BRANCH  13  14
ATOM     14  C   UNL     1      17.460 -34.780  23.761  1.00  0.00     0.053 C 
BRANCH  14  15
ATOM     15  C   UNL     1      17.450 -34.815  25.259  1.00  0.00     0.041 C 
ATOM     16  O   UNL     1      18.242 -35.569  25.881  1.00  0.00    -0.550 OA
ATOM     17  O   UNL     1      16.546 -34.032  25.965  1.00  0.00    -0.550 OA
ENDBRANCH  14  15
ENDBRANCH  13  14
ENDBRANCH  12  13
ENDBRANCH  11  12
ENDBRANCH  10  11
ENDBRANCH   9  10
ENDBRANCH   8   9
ENDBRANCH   7   8
ENDBRANCH   6   7
ENDBRANCH   5   6
ENDBRANCH   4   5
ENDBRANCH   3   4
ENDBRANCH   2   3
ENDBRANCH   1   2
BRANCH   1  18
ATOM     18  C   UNL     1      15.989 -29.227  22.006  1.00  0.00     0.000 C 
BRANCH  18  19
ATOM     19  C   UNL     1      17.414 -29.654  21.613  1.00  0.00     0.000 C 
BRANCH  19  20
ATOM     20  C   UNL     1      17.454 -31.034  20.935  1.00  0.00     0.000 C 
BRANCH  20  21
ATOM     21  C   UNL     1      18.472 -32.030  21.525  1.00  0.00     0.000 C 
BRANCH  21  22
ATOM     22  C   UNL     1      19.344 -31.442  22.653  1.00  0.00     0.000 C 
BRANCH  22  23
ATOM     23  C   UNL     1      20.850 -31.545  22.357  1.00  0.00     0.000 C 
BRANCH  23  24
ATOM     24  C   UNL     1      21.640 -30.314  22.832  1.00  0.00    -0.000 C 
BRANCH  24  25
ATOM     25  C   UNL     1      20.990 -28.969  22.446  1.00  0.00    -0.000 C 
BRANCH  25  26
ATOM     26  C   UNL     1      21.012 -28.730  20.928  1.00  0.00    -0.000 C 
BRANCH  26  27
ATOM     27  C   UNL     1      19.787 -27.926  20.473  1.00  0.00    -0.000 C 
BRANCH  27  28
ATOM     28  C   UNL     1      19.756 -26.503  21.057  1.00  0.00    -0.000 C 
BRANCH  28  29
ATOM     29  C   UNL     1      20.425 -25.447  20.151  1.00  0.00    -0.000 C 
BRANCH  29  30
ATOM     30  C   UNL     1      21.876 -25.154  20.575  1.00  0.00    -0.000 C 
BRANCH  30  31
ATOM     31  C   UNL     1      22.875 -25.307  19.417  1.00  0.00    -0.003 C 
ATOM     32  C   UNL     1      23.640 -26.627  19.469  1.00  0.00     0.004 C 
ENDBRANCH  30  31
ENDBRANCH  29  30
ENDBRANCH  28  29
ENDBRANCH  27  28
ENDBRANCH  26  27
ENDBRANCH  25  26
ENDBRANCH  24  25
ENDBRANCH  23  24
ENDBRANCH  22  23
ENDBRANCH  21  22
ENDBRANCH  20  21
ENDBRANCH  19  20
ENDBRANCH  18  19
ENDBRANCH   1  18
TORSDOF 28
ENDMDL
MODEL 4
REMARK VINA RESULT:    -5.001      1.572      2.666
REMARK INTER + INTRA:         -18.207
REMARK INTER:                 -14.532
REMARK INTRA:                  -3.675
REMARK UNBOUND:                -5.020
REMARK SMILES CCCCCCCCCCCCCCCCCCCCCCCCCCCCCC(=O)[O-]
REMARK SMILES IDX 16 1 17 2 18 3 19 4 20 5 21 6 22 7 23 8 24 9 25 10 26 11
REMARK SMILES IDX 27 12 28 13 29 14 30 15 31 16 32 17 15 18 14 19 13 20 12 21
REMARK SMILES IDX 11 22 10 23 9 24 8 25 7 26 6 27 5 28 4 29 3 30 2 31 1 32
REMARK H PARENT
REMARK Flexibility Score: inf
ROOT
ATOM      1  C   UNL     1      12.705 -30.739  22.441  1.00  0.00     0.000 C 
ENDROOT
BRANCH   1   2
ATOM      2  C   UNL     1      13.815 -30.715  23.510  1.00  0.00     0.000 C 
BRANCH   2   3
ATOM      3  C   UNL     1      14.776 -29.524  23.355  1.00  0.00     0.000 C 
BRANCH   3   4
ATOM      4  C   UNL     1      16.244 -29.954  23.181  1.00  0.00     0.000 C 
BRANCH   4   5
ATOM      5  C   UNL     1      16.589 -31.349  23.737  1.00  0.00     0.000 C 
BRANCH   5   6
ATOM      6  C   UNL     1      17.154 -32.299  22.671  1.00  0.00     0.000 C 
BRANCH   6   7
ATOM      7  C   UNL     1      17.326 -31.581  21.327  1.00  0.00     0.000 C 
BRANCH   7   8
ATOM      8  C   UNL     1      18.811 -31.476  20.947  1.00  0.00     0.000 C 
BRANCH   8   9
ATOM      9  C   UNL     1      19.311 -30.023  20.910  1.00  0.00     0.000 C 
BRANCH   9  10
ATOM     10  C   UNL     1      20.696 -29.861  21.560  1.00  0.00     0.000 C 
BRANCH  10  11
ATOM     11  C   UNL     1      21.172 -28.397  21.596  1.00  0.00     0.000 C 
BRANCH  11  12
ATOM     12  C   UNL     1      20.248 -27.390  20.880  1.00  0.00     0.000 C 
BRANCH  12  13
ATOM     13  C   UNL     1      20.905 -26.047  20.509  1.00  0.00     0.006 C 
BRANCH  13  14
ATOM     14  C   UNL     1      22.404 -25.959  20.838  1.00  0.00     0.053 C 
BRANCH  14  15
ATOM     15  C   UNL     1      22.992 -24.646  20.422  1.00  0.00     0.041 C 
ATOM     16  O   UNL     1      23.155 -23.728  21.268  1.00  0.00    -0.550 OA
ATOM     17  O   UNL     1      23.336 -24.430  19.095  1.00  0.00    -0.550 OA
ENDBRANCH  14  15
ENDBRANCH  13  14
ENDBRANCH  12  13
ENDBRANCH  11  12
ENDBRANCH  10  11
ENDBRANCH   9  10
ENDBRANCH   8   9
ENDBRANCH   7   8
ENDBRANCH   6   7
ENDBRANCH   5   6
ENDBRANCH   4   5
ENDBRANCH   3   4
ENDBRANCH   2   3
ENDBRANCH   1   2
BRANCH   1  18
ATOM     18  C   UNL     1      13.105 -31.342  21.081  1.00  0.00     0.000 C 
BRANCH  18  19
ATOM     19  C   UNL     1      13.945 -32.624  21.213  1.00  0.00     0.000 C 
BRANCH  19  20
ATOM     20  C   UNL     1      14.299 -33.245  19.852  1.00  0.00     0.000 C 
BRANCH  20  21
ATOM     21  C   UNL     1      15.236 -34.467  19.907  1.00  0.00     0.000 C 
BRANCH  21  22
ATOM     22  C   UNL     1      16.528 -34.305  19.080  1.00  0.00     0.000 C 
BRANCH  22  23
ATOM     23  C   UNL     1      17.656 -35.242  19.547  1.00  0.00     0.000 C 
BRANCH  23  24
ATOM     24  C   UNL     1      17.284 -36.048  20.803  1.00  0.00    -0.000 C 
BRANCH  24  25
ATOM     25  C   UNL     1      18.354 -37.078  21.222  1.00  0.00    -0.000 C 
BRANCH  25  26
ATOM     26  C   UNL     1      18.943 -36.770  22.607  1.00  0.00    -0.000 C 
BRANCH  26  27
ATOM     27  C   UNL     1      18.047 -35.802  23.391  1.00  0.00    -0.000 C 
BRANCH  27  28
ATOM     28  C   UNL     1      18.791 -35.094  24.536  1.00  0.00    -0.000 C 
BRANCH  28  29
ATOM     29  C   UNL     1      17.877 -34.689  25.712  1.00  0.00    -0.000 C 
BRANCH  29  30
ATOM     30  C   UNL     1      16.842 -35.780  26.046  1.00  0.00    -0.000 C 
BRANCH  30  31
ATOM     31  C   UNL     1      17.487 -37.055  26.612  1.00  0.00    -0.003 C 
ATOM     32  C   UNL     1      16.470 -37.994  27.256  1.00  0.00     0.004 C 
ENDBRANCH  30  31
ENDBRANCH  29  30
ENDBRANCH  28  29
ENDBRANCH  27  28
ENDBRANCH  26  27
ENDBRANCH  25  26
ENDBRANCH  24  25
ENDBRANCH  23  24
ENDBRANCH  22  23
ENDBRANCH  21  22
ENDBRANCH  20  21
ENDBRANCH  19  20
ENDBRANCH  18  19
ENDBRANCH   1  18
TORSDOF 28
ENDMDL
MODEL 5
REMARK VINA RESULT:    -4.968      1.549      3.417
REMARK INTER + INTRA:         -18.121
REMARK INTER:                 -14.432
REMARK INTRA:                  -3.689
REMARK UNBOUND:                -5.020
REMARK SMILES CCCCCCCCCCCCCCCCCCCCCCCCCCCCCC(=O)[O-]
REMARK SMILES IDX 16 1 17 2 18 3 19 4 20 5 21 6 22 7 23 8 24 9 25 10 26 11
REMARK SMILES IDX 27 12 28 13 29 14 30 15 31 16 32 17 15 18 14 19 13 20 12 21
REMARK SMILES IDX 11 22 10 23 9 24 8 25 7 26 6 27 5 28 4 29 3 30 2 31 1 32
REMARK H PARENT
REMARK Flexibility Score: inf
ROOT
ATOM      1  C   UNL     1      13.974 -32.033  21.284  1.00  0.00     0.000 C 
ENDROOT
BRANCH   1   2
ATOM      2  C   UNL     1      13.237 -31.721  22.601  1.00  0.00     0.000 C 
BRANCH   2   3
ATOM      3  C   UNL     1      14.124 -31.002  23.632  1.00  0.00     0.000 C 
BRANCH   3   4
ATOM      4  C   UNL     1      14.931 -29.840  23.023  1.00  0.00     0.000 C 
BRANCH   4   5
ATOM      5  C   UNL     1      16.460 -30.028  23.032  1.00  0.00     0.000 C 
BRANCH   5   6
ATOM      6  C   UNL     1      17.105 -29.782  21.660  1.00  0.00     0.000 C 
BRANCH   6   7
ATOM      7  C   UNL     1      17.621 -31.092  21.051  1.00  0.00     0.000 C 
BRANCH   7   8
ATOM      8  C   UNL     1      19.155 -31.089  20.963  1.00  0.00     0.000 C 
BRANCH   8   9
ATOM      9  C   UNL     1      19.798 -30.021  21.862  1.00  0.00     0.000 C 
BRANCH   9  10
ATOM     10  C   UNL     1      21.164 -29.550  21.333  1.00  0.00     0.000 C 
BRANCH  10  11
ATOM     11  C   UNL     1      21.078 -28.229  20.549  1.00  0.00     0.000 C 
BRANCH  11  12
ATOM     12  C   UNL     1      19.757 -27.450  20.721  1.00  0.00     0.000 C 
BRANCH  12  13
ATOM     13  C   UNL     1      19.868 -25.923  20.545  1.00  0.00     0.006 C 
BRANCH  13  14
ATOM     14  C   UNL     1      21.213 -25.445  19.975  1.00  0.00     0.053 C 
BRANCH  14  15
ATOM     15  C   UNL     1      22.016 -24.694  20.992  1.00  0.00     0.041 C 
ATOM     16  O   UNL     1      21.453 -23.878  21.768  1.00  0.00    -0.550 OA
ATOM     17  O   UNL     1      23.390 -24.877  21.064  1.00  0.00    -0.550 OA
ENDBRANCH  14  15
ENDBRANCH  13  14
ENDBRANCH  12  13
ENDBRANCH  11  12
ENDBRANCH  10  11
ENDBRANCH   9  10
ENDBRANCH   8   9
ENDBRANCH   7   8
ENDBRANCH   6   7
ENDBRANCH   5   6
ENDBRANCH   4   5
ENDBRANCH   3   4
ENDBRANCH   2   3
ENDBRANCH   1   2
BRANCH   1  18
ATOM     18  C   UNL     1      14.801 -33.333  21.276  1.00  0.00     0.000 C 
BRANCH  18  19
ATOM     19  C   UNL     1      14.888 -33.984  19.886  1.00  0.00     0.000 C 
BRANCH  19  20
ATOM     20  C   UNL     1      16.314 -34.438  19.530  1.00  0.00     0.000 C 
BRANCH  20  21
ATOM     21  C   UNL     1      16.508 -35.961  19.400  1.00  0.00     0.000 C 
BRANCH  21  22
ATOM     22  C   UNL     1      17.437 -36.569  20.471  1.00  0.00     0.000 C 
BRANCH  22  23
ATOM     23  C   UNL     1      18.241 -35.503  21.237  1.00  0.00     0.000 C 
BRANCH  23  24
ATOM     24  C   UNL     1      17.928 -35.484  22.742  1.00  0.00    -0.000 C 
BRANCH  24  25
ATOM     25  C   UNL     1      17.722 -34.067  23.317  1.00  0.00    -0.000 C 
BRANCH  25  26
ATOM     26  C   UNL     1      16.516 -33.997  24.267  1.00  0.00    -0.000 C 
BRANCH  26  27
ATOM     27  C   UNL     1      16.963 -33.966  25.734  1.00  0.00    -0.000 C 
BRANCH  27  28
ATOM     28  C   UNL     1      16.532 -35.219  26.516  1.00  0.00    -0.000 C 
BRANCH  28  29
ATOM     29  C   UNL     1      17.498 -36.412  26.355  1.00  0.00    -0.000 C 
BRANCH  29  30
ATOM     30  C   UNL     1      16.906 -37.717  26.919  1.00  0.00    -0.000 C 
BRANCH  30  31
ATOM     31  C   UNL     1      16.169 -37.507  28.251  1.00  0.00    -0.003 C 
ATOM     32  C   UNL     1      17.076 -37.700  29.464  1.00  0.00     0.004 C 
ENDBRANCH  30  31
ENDBRANCH  29  30
ENDBRANCH  28  29
ENDBRANCH  27  28
ENDBRANCH  26  27
ENDBRANCH  25  26
ENDBRANCH  24  25
ENDBRANCH  23  24
ENDBRANCH  22  23
ENDBRANCH  21  22
ENDBRANCH  20  21
ENDBRANCH  19  20
ENDBRANCH  18  19
ENDBRANCH   1  18
TORSDOF 28
ENDMDL
MODEL 6
REMARK VINA RESULT:    -4.958      1.926      3.382
REMARK INTER + INTRA:         -18.094
REMARK INTER:                 -11.867
REMARK INTRA:                  -6.227
REMARK UNBOUND:                -5.020
REMARK SMILES CCCCCCCCCCCCCCCCCCCCCCCCCCCCCC(=O)[O-]
REMARK SMILES IDX 16 1 17 2 18 3 19 4 20 5 21 6 22 7 23 8 24 9 25 10 26 11
REMARK SMILES IDX 27 12 28 13 29 14 30 15 31 16 32 17 15 18 14 19 13 20 12 21
REMARK SMILES IDX 11 22 10 23 9 24 8 25 7 26 6 27 5 28 4 29 3 30 2 31 1 32
REMARK H PARENT
REMARK Flexibility Score: inf
ROOT
ATOM      1  C   UNL     1      15.810 -30.549  23.447  1.00  0.00     0.000 C 
ENDROOT
BRANCH   1   2
ATOM      2  C   UNL     1      16.124 -29.474  22.388  1.00  0.00     0.000 C 
BRANCH   2   3
ATOM      3  C   UNL     1      17.389 -29.786  21.569  1.00  0.00     0.000 C 
BRANCH   3   4
ATOM      4  C   UNL     1      17.390 -31.211  20.984  1.00  0.00     0.000 C 
BRANCH   4   5
ATOM      5  C   UNL     1      18.764 -31.907  20.956  1.00  0.00     0.000 C 
BRANCH   5   6
ATOM      6  C   UNL     1      18.863 -33.081  21.941  1.00  0.00     0.000 C 
BRANCH   6   7
ATOM      7  C   UNL     1      17.490 -33.422  22.533  1.00  0.00     0.000 C 
BRANCH   7   8
ATOM      8  C   UNL     1      17.617 -33.843  24.006  1.00  0.00     0.000 C 
BRANCH   8   9
ATOM      9  C   UNL     1      18.887 -33.291  24.672  1.00  0.00     0.000 C 
BRANCH   9  10
ATOM     10  C   UNL     1      18.598 -32.618  26.025  1.00  0.00     0.000 C 
BRANCH  10  11
ATOM     11  C   UNL     1      18.709 -31.084  25.965  1.00  0.00     0.000 C 
BRANCH  11  12
ATOM     12  C   UNL     1      19.238 -30.517  24.631  1.00  0.00     0.000 C 
BRANCH  12  13
ATOM     13  C   UNL     1      20.766 -30.325  24.561  1.00  0.00     0.006 C 
BRANCH  13  14
ATOM     14  C   UNL     1      21.379 -30.592  23.178  1.00  0.00     0.053 C 
BRANCH  14  15
ATOM     15  C   UNL     1      21.454 -29.346  22.350  1.00  0.00     0.041 C 
ATOM     16  O   UNL     1      21.823 -28.261  22.869  1.00  0.00    -0.550 OA
ATOM     17  O   UNL     1      21.091 -29.381  21.010  1.00  0.00    -0.550 OA
ENDBRANCH  14  15
ENDBRANCH  13  14
ENDBRANCH  12  13
ENDBRANCH  11  12
ENDBRANCH  10  11
ENDBRANCH   9  10
ENDBRANCH   8   9
ENDBRANCH   7   8
ENDBRANCH   6   7
ENDBRANCH   5   6
ENDBRANCH   4   5
ENDBRANCH   3   4
ENDBRANCH   2   3
ENDBRANCH   1   2
BRANCH   1  18
ATOM     18  C   UNL     1      14.468 -31.285  23.270  1.00  0.00     0.000 C 
BRANCH  18  19
ATOM     19  C   UNL     1      13.652 -30.770  22.072  1.00  0.00     0.000 C 
BRANCH  19  20
ATOM     20  C   UNL     1      13.592 -31.782  20.915  1.00  0.00     0.000 C 
BRANCH  20  21
ATOM     21  C   UNL     1      14.343 -33.105  21.157  1.00  0.00     0.000 C 
BRANCH  21  22
ATOM     22  C   UNL     1      14.795 -33.815  19.864  1.00  0.00     0.000 C 
BRANCH  22  23
ATOM     23  C   UNL     1      15.501 -35.155  20.136  1.00  0.00     0.000 C 
BRANCH  23  24
ATOM     24  C   UNL     1      16.890 -35.244  19.483  1.00  0.00    -0.000 C 
BRANCH  24  25
ATOM     25  C   UNL     1      17.472 -36.674  19.450  1.00  0.00    -0.000 C 
BRANCH  25  26
ATOM     26  C   UNL     1      17.607 -37.277  20.857  1.00  0.00    -0.000 C 
BRANCH  26  27
ATOM     27  C   UNL     1      18.728 -36.594  21.651  1.00  0.00    -0.000 C 
BRANCH  27  28
ATOM     28  C   UNL     1      19.010 -37.282  22.997  1.00  0.00    -0.000 C 
BRANCH  28  29
ATOM     29  C   UNL     1      20.113 -36.591  23.828  1.00  0.00    -0.000 C 
BRANCH  29  30
ATOM     30  C   UNL     1      21.352 -36.252  22.979  1.00  0.00    -0.000 C 
BRANCH  30  31
ATOM     31  C   UNL     1      21.919 -34.857  23.288  1.00  0.00    -0.003 C 
ATOM     32  C   UNL     1      22.175 -34.641  24.778  1.00  0.00     0.004 C 
ENDBRANCH  30  31
ENDBRANCH  29  30
ENDBRANCH  28  29
ENDBRANCH  27  28
ENDBRANCH  26  27
ENDBRANCH  25  26
ENDBRANCH  24  25
ENDBRANCH  23  24
ENDBRANCH  22  23
ENDBRANCH  21  22
ENDBRANCH  20  21
ENDBRANCH  19  20
ENDBRANCH  18  19
ENDBRANCH   1  18
TORSDOF 28
ENDMDL
MODEL 7
REMARK VINA RESULT:    -4.937      1.502      3.766
REMARK INTER + INTRA:         -18.038
REMARK INTER:                 -12.914
REMARK INTRA:                  -5.124
REMARK UNBOUND:                -5.020
REMARK SMILES CCCCCCCCCCCCCCCCCCCCCCCCCCCCCC(=O)[O-]
REMARK SMILES IDX 16 1 17 2 18 3 19 4 20 5 21 6 22 7 23 8 24 9 25 10 26 11
REMARK SMILES IDX 27 12 28 13 29 14 30 15 31 16 32 17 15 18 14 19 13 20 12 21
REMARK SMILES IDX 11 22 10 23 9 24 8 25 7 26 6 27 5 28 4 29 3 30 2 31 1 32
REMARK H PARENT
REMARK Flexibility Score: inf
ROOT
ATOM      1  C   UNL     1      14.085 -32.421  21.077  1.00  0.00     0.000 C 
ENDROOT
BRANCH   1   2
ATOM      2  C   UNL     1      14.553 -32.715  22.516  1.00  0.00     0.000 C 
BRANCH   2   3
ATOM      3  C   UNL     1      14.794 -31.440  23.343  1.00  0.00     0.000 C 
BRANCH   3   4
ATOM      4  C   UNL     1      14.643 -30.149  22.517  1.00  0.00     0.000 C 
BRANCH   4   5
ATOM      5  C   UNL     1      15.951 -29.378  22.259  1.00  0.00     0.000 C 
BRANCH   5   6
ATOM      6  C   UNL     1      17.195 -30.278  22.285  1.00  0.00     0.000 C 
BRANCH   6   7
ATOM      7  C   UNL     1      17.490 -30.852  20.893  1.00  0.00     0.000 C 
BRANCH   7   8
ATOM      8  C   UNL     1      18.832 -31.601  20.882  1.00  0.00     0.000 C 
BRANCH   8   9
ATOM      9  C   UNL     1      19.889 -30.937  21.778  1.00  0.00     0.000 C 
BRANCH   9  10
ATOM     10  C   UNL     1      20.660 -29.822  21.051  1.00  0.00     0.000 C 
BRANCH  10  11
ATOM     11  C   UNL     1      20.291 -28.415  21.554  1.00  0.00     0.000 C 
BRANCH  11  12
ATOM     12  C   UNL     1      19.722 -27.463  20.481  1.00  0.00     0.000 C 
BRANCH  12  13
ATOM     13  C   UNL     1      20.492 -26.140  20.304  1.00  0.00     0.006 C 
BRANCH  13  14
ATOM     14  C   UNL     1      21.912 -26.146  20.893  1.00  0.00     0.053 C 
BRANCH  14  15
ATOM     15  C   UNL     1      22.682 -24.921  20.506  1.00  0.00     0.041 C 
ATOM     16  O   UNL     1      23.199 -24.191  21.392  1.00  0.00    -0.550 OA
ATOM     17  O   UNL     1      22.807 -24.574  19.168  1.00  0.00    -0.550 OA
ENDBRANCH  14  15
ENDBRANCH  13  14
ENDBRANCH  12  13
ENDBRANCH  11  12
ENDBRANCH  10  11
ENDBRANCH   9  10
ENDBRANCH   8   9
ENDBRANCH   7   8
ENDBRANCH   6   7
ENDBRANCH   5   6
ENDBRANCH   4   5
ENDBRANCH   3   4
ENDBRANCH   2   3
ENDBRANCH   1   2
BRANCH   1  18
ATOM     18  C   UNL     1      14.357 -33.536  20.049  1.00  0.00     0.000 C 
BRANCH  18  19
ATOM     19  C   UNL     1      15.823 -34.002  20.039  1.00  0.00     0.000 C 
BRANCH  19  20
ATOM     20  C   UNL     1      15.969 -35.493  19.692  1.00  0.00     0.000 C 
BRANCH  20  21
ATOM     21  C   UNL     1      17.372 -36.089  19.919  1.00  0.00     0.000 C 
BRANCH  21  22
ATOM     22  C   UNL     1      18.251 -35.273  20.890  1.00  0.00     0.000 C 
BRANCH  22  23
ATOM     23  C   UNL     1      18.086 -35.713  22.355  1.00  0.00     0.000 C 
BRANCH  23  24
ATOM     24  C   UNL     1      17.484 -34.614  23.247  1.00  0.00    -0.000 C 
BRANCH  24  25
ATOM     25  C   UNL     1      17.319 -35.031  24.724  1.00  0.00    -0.000 C 
BRANCH  25  26
ATOM     26  C   UNL     1      16.973 -33.836  25.627  1.00  0.00    -0.000 C 
BRANCH  26  27
ATOM     27  C   UNL     1      17.725 -32.572  25.191  1.00  0.00    -0.000 C 
BRANCH  27  28
ATOM     28  C   UNL     1      18.951 -32.274  26.071  1.00  0.00    -0.000 C 
BRANCH  28  29
ATOM     29  C   UNL     1      20.162 -31.731  25.282  1.00  0.00    -0.000 C 
BRANCH  29  30
ATOM     30  C   UNL     1      21.334 -32.730  25.258  1.00  0.00    -0.000 C 
BRANCH  30  31
ATOM     31  C   UNL     1      20.967 -34.058  24.577  1.00  0.00    -0.003 C 
ATOM     32  C   UNL     1      21.326 -34.080  23.093  1.00  0.00     0.004 C 
ENDBRANCH  30  31
ENDBRANCH  29  30
ENDBRANCH  28  29
ENDBRANCH  27  28
ENDBRANCH  26  27
ENDBRANCH  25  26
ENDBRANCH  24  25
ENDBRANCH  23  24
ENDBRANCH  22  23
ENDBRANCH  21  22
ENDBRANCH  20  21
ENDBRANCH  19  20
ENDBRANCH  18  19
ENDBRANCH   1  18
TORSDOF 28
ENDMDL
MODEL 8
REMARK VINA RESULT:    -4.934      2.474      5.199
REMARK INTER + INTRA:         -18.031
REMARK INTER:                 -11.822
REMARK INTRA:                  -6.209
REMARK UNBOUND:                -5.020
REMARK SMILES CCCCCCCCCCCCCCCCCCCCCCCCCCCCCC(=O)[O-]
REMARK SMILES IDX 16 1 17 2 18 3 19 4 20 5 21 6 22 7 23 8 24 9 25 10 26 11
REMARK SMILES IDX 27 12 28 13 29 14 30 15 31 16 32 17 15 18 14 19 13 20 12 21
REMARK SMILES IDX 11 22 10 23 9 24 8 25 7 26 6 27 5 28 4 29 3 30 2 31 1 32
REMARK H PARENT
REMARK Flexibility Score: inf
ROOT
ATOM      1  C   UNL     1      16.859 -33.205  24.611  1.00  0.00     0.000 C 
ENDROOT
BRANCH   1   2
ATOM      2  C   UNL     1      17.359 -34.111  25.754  1.00  0.00     0.000 C 
BRANCH   2   3
ATOM      3  C   UNL     1      16.817 -35.548  25.665  1.00  0.00     0.000 C 
BRANCH   3   4
ATOM      4  C   UNL     1      17.659 -36.559  26.465  1.00  0.00     0.000 C 
BRANCH   4   5
ATOM      5  C   UNL     1      18.670 -37.372  25.635  1.00  0.00     0.000 C 
BRANCH   5   6
ATOM      6  C   UNL     1      20.060 -36.721  25.575  1.00  0.00     0.000 C 
BRANCH   6   7
ATOM      7  C   UNL     1      20.591 -36.687  24.136  1.00  0.00     0.000 C 
BRANCH   7   8
ATOM      8  C   UNL     1      19.480 -36.293  23.150  1.00  0.00     0.000 C 
BRANCH   8   9
ATOM      9  C   UNL     1      19.812 -35.014  22.364  1.00  0.00     0.000 C 
BRANCH   9  10
ATOM     10  C   UNL     1      20.866 -34.145  23.072  1.00  0.00     0.000 C 
BRANCH  10  11
ATOM     11  C   UNL     1      20.254 -32.930  23.790  1.00  0.00     0.000 C 
BRANCH  11  12
ATOM     12  C   UNL     1      20.793 -32.669  25.212  1.00  0.00     0.000 C 
BRANCH  12  13
ATOM     13  C   UNL     1      20.977 -31.184  25.581  1.00  0.00     0.006 C 
BRANCH  13  14
ATOM     14  C   UNL     1      21.208 -30.254  24.380  1.00  0.00     0.053 C 
BRANCH  14  15
ATOM     15  C   UNL     1      22.666 -30.024  24.123  1.00  0.00     0.041 C 
ATOM     16  O   UNL     1      23.345 -30.887  23.507  1.00  0.00    -0.550 OA
ATOM     17  O   UNL     1      23.278 -28.867  24.586  1.00  0.00    -0.550 OA
ENDBRANCH  14  15
ENDBRANCH  13  14
ENDBRANCH  12  13
ENDBRANCH  11  12
ENDBRANCH  10  11
ENDBRANCH   9  10
ENDBRANCH   8   9
ENDBRANCH   7   8
ENDBRANCH   6   7
ENDBRANCH   5   6
ENDBRANCH   4   5
ENDBRANCH   3   4
ENDBRANCH   2   3
ENDBRANCH   1   2
BRANCH   1  18
ATOM     18  C   UNL     1      16.408 -33.936  23.332  1.00  0.00     0.000 C 
BRANCH  18  19
ATOM     19  C   UNL     1      14.990 -33.546  22.883  1.00  0.00     0.000 C 
BRANCH  19  20
ATOM     20  C   UNL     1      14.260 -32.670  23.915  1.00  0.00     0.000 C 
BRANCH  20  21
ATOM     21  C   UNL     1      14.061 -31.197  23.508  1.00  0.00     0.000 C 
BRANCH  21  22
ATOM     22  C   UNL     1      14.211 -30.938  21.994  1.00  0.00     0.000 C 
BRANCH  22  23
ATOM     23  C   UNL     1      15.388 -30.003  21.664  1.00  0.00     0.000 C 
BRANCH  23  24
ATOM     24  C   UNL     1      16.331 -29.782  22.858  1.00  0.00    -0.000 C 
BRANCH  24  25
ATOM     25  C   UNL     1      17.737 -30.388  22.662  1.00  0.00    -0.000 C 
BRANCH  25  26
ATOM     26  C   UNL     1      18.149 -30.426  21.182  1.00  0.00    -0.000 C 
BRANCH  26  27
ATOM     27  C   UNL     1      18.611 -31.829  20.768  1.00  0.00    -0.000 C 
BRANCH  27  28
ATOM     28  C   UNL     1      17.457 -32.712  20.264  1.00  0.00    -0.000 C 
BRANCH  28  29
ATOM     29  C   UNL     1      17.921 -33.913  19.413  1.00  0.00    -0.000 C 
BRANCH  29  30
ATOM     30  C   UNL     1      16.755 -34.848  19.043  1.00  0.00    -0.000 C 
BRANCH  30  31
ATOM     31  C   UNL     1      16.443 -35.871  20.146  1.00  0.00    -0.003 C 
ATOM     32  C   UNL     1      17.487 -36.983  20.233  1.00  0.00     0.004 C 
ENDBRANCH  30  31
ENDBRANCH  29  30
ENDBRANCH  28  29
ENDBRANCH  27  28
ENDBRANCH  26  27
ENDBRANCH  25  26
ENDBRANCH  24  25
ENDBRANCH  23  24
ENDBRANCH  22  23
ENDBRANCH  21  22
ENDBRANCH  20  21
ENDBRANCH  19  20
ENDBRANCH  18  19
ENDBRANCH   1  18
TORSDOF 28
ENDMDL
MODEL 9
REMARK VINA RESULT:    -4.921      1.541      2.741
REMARK INTER + INTRA:         -17.997
REMARK INTER:                 -13.086
REMARK INTRA:                  -4.911
REMARK UNBOUND:                -5.020
REMARK SMILES CCCCCCCCCCCCCCCCCCCCCCCCCCCCCC(=O)[O-]
REMARK SMILES IDX 16 1 17 2 18 3 19 4 20 5 21 6 22 7 23 8 24 9 25 10 26 11
REMARK SMILES IDX 27 12 28 13 29 14 30 15 31 16 32 17 15 18 14 19 13 20 12 21
REMARK SMILES IDX 11 22 10 23 9 24 8 25 7 26 6 27 5 28 4 29 3 30 2 31 1 32
REMARK H PARENT
REMARK Flexibility Score: inf
ROOT
ATOM      1  C   UNL     1      17.108 -30.102  22.143  1.00  0.00     0.000 C 
ENDROOT
BRANCH   1   2
ATOM      2  C   UNL     1      17.348 -31.015  20.924  1.00  0.00     0.000 C 
BRANCH   2   3
ATOM      3  C   UNL     1      18.078 -32.321  21.284  1.00  0.00     0.000 C 
BRANCH   3   4
ATOM      4  C   UNL     1      17.813 -32.779  22.730  1.00  0.00     0.000 C 
BRANCH   4   5
ATOM      5  C   UNL     1      19.074 -33.066  23.568  1.00  0.00     0.000 C 
BRANCH   5   6
ATOM      6  C   UNL     1      20.377 -32.882  22.776  1.00  0.00     0.000 C 
BRANCH   6   7
ATOM      7  C   UNL     1      21.343 -31.946  23.514  1.00  0.00     0.000 C 
BRANCH   7   8
ATOM      8  C   UNL     1      21.747 -30.761  22.623  1.00  0.00     0.000 C 
BRANCH   8   9
ATOM      9  C   UNL     1      20.597 -29.763  22.407  1.00  0.00     0.000 C 
BRANCH   9  10
ATOM     10  C   UNL     1      20.635 -29.115  21.013  1.00  0.00     0.000 C 
BRANCH  10  11
ATOM     11  C   UNL     1      19.701 -27.897  20.895  1.00  0.00     0.000 C 
BRANCH  11  12
ATOM     12  C   UNL     1      20.313 -26.668  20.190  1.00  0.00     0.000 C 
BRANCH  12  13
ATOM     13  C   UNL     1      20.998 -25.651  21.124  1.00  0.00     0.006 C 
BRANCH  13  14
ATOM     14  C   UNL     1      22.532 -25.740  21.146  1.00  0.00     0.053 C 
BRANCH  14  15
ATOM     15  C   UNL     1      23.169 -24.583  20.440  1.00  0.00     0.041 C 
ATOM     16  O   UNL     1      23.580 -23.589  21.094  1.00  0.00    -0.550 OA
ATOM     17  O   UNL     1      23.285 -24.593  19.056  1.00  0.00    -0.550 OA
ENDBRANCH  14  15
ENDBRANCH  13  14
ENDBRANCH  12  13
ENDBRANCH  11  12
ENDBRANCH  10  11
ENDBRANCH   9  10
ENDBRANCH   8   9
ENDBRANCH   7   8
ENDBRANCH   6   7
ENDBRANCH   5   6
ENDBRANCH   4   5
ENDBRANCH   3   4
ENDBRANCH   2   3
ENDBRANCH   1   2
BRANCH   1  18
ATOM     18  C   UNL     1      15.707 -29.470  22.234  1.00  0.00     0.000 C 
BRANCH  18  19
ATOM     19  C   UNL     1      14.710 -30.325  23.034  1.00  0.00     0.000 C 
BRANCH  19  20
ATOM     20  C   UNL     1      13.410 -30.603  22.260  1.00  0.00     0.000 C 
BRANCH  20  21
ATOM     21  C   UNL     1      13.558 -31.518  21.029  1.00  0.00     0.000 C 
BRANCH  21  22
ATOM     22  C   UNL     1      14.269 -32.855  21.322  1.00  0.00     0.000 C 
BRANCH  22  23
ATOM     23  C   UNL     1      14.639 -33.626  20.043  1.00  0.00     0.000 C 
BRANCH  23  24
ATOM     24  C   UNL     1      15.466 -34.891  20.323  1.00  0.00    -0.000 C 
BRANCH  24  25
ATOM     25  C   UNL     1      16.629 -35.108  19.331  1.00  0.00    -0.000 C 
BRANCH  25  26
ATOM     26  C   UNL     1      17.638 -36.149  19.841  1.00  0.00    -0.000 C 
BRANCH  26  27
ATOM     27  C   UNL     1      17.656 -36.204  21.374  1.00  0.00    -0.000 C 
BRANCH  27  28
ATOM     28  C   UNL     1      19.077 -36.317  21.951  1.00  0.00    -0.000 C 
BRANCH  28  29
ATOM     29  C   UNL     1      19.180 -37.265  23.165  1.00  0.00    -0.000 C 
BRANCH  29  30
ATOM     30  C   UNL     1      20.350 -36.893  24.094  1.00  0.00    -0.000 C 
BRANCH  30  31
ATOM     31  C   UNL     1      19.878 -36.346  25.451  1.00  0.00    -0.003 C 
ATOM     32  C   UNL     1      18.356 -36.297  25.570  1.00  0.00     0.004 C 
ENDBRANCH  30  31
ENDBRANCH  29  30
ENDBRANCH  28  29
ENDBRANCH  27  28
ENDBRANCH  26  27
ENDBRANCH  25  26
ENDBRANCH  24  25
ENDBRANCH  23  24
ENDBRANCH  22  23
ENDBRANCH  21  22
ENDBRANCH  20  21
ENDBRANCH  19  20
ENDBRANCH  18  19
ENDBRANCH   1  18
TORSDOF 28
ENDMDL
