MODEL 1
REMARK VINA RESULT:    -7.850      0.000      0.000
REMARK INTER + INTRA:          -8.543
REMARK INTER:                  -8.538
REMARK INTRA:                  -0.005
REMARK UNBOUND:                -0.005
REMARK SMILES C[C@@H]1[C@H](C)CC[C@@]2(C(=O)[O-])CC[C@@]3(C)C(=CC[C@@H]4[C@]5(C)CC[C@@H](O)C(C)(C)[C@H]5CC[C@@]43C)[C@@H]12
REMARK SMILES IDX 7 1 6 2 11 3 33 4 5 5 12 6 15 7 2 8 3 9 13 10 16 11 1 12
REMARK SMILES IDX 4 13 14 14 31 15 17 16 18 17 30 18 32 19 19 20 29 21 28 22
REMARK SMILES IDX 21 23 20 24 25 25 22 26 23 27 26 28 27 29 8 30 9 31 10 32
REMARK SMILES IDX 24 33
REMARK H PARENT 24 34
REMARK Flexibility Score: inf
ROOT
ATOM      1  C   UNL     1     -14.056  16.623 -24.970  1.00  0.00     0.017 C 
ATOM      2  C   UNL     1     -14.102  17.365 -26.342  1.00  0.00     0.014 C 
ATOM      3  C   UNL     1     -15.125  15.474 -24.987  1.00  0.00     0.014 C 
ATOM      4  C   UNL     1     -12.591  16.074 -24.729  1.00  0.00     0.030 C 
ATOM      5  C   UNL     1     -13.039  18.462 -26.490  1.00  0.00     0.004 C 
ATOM      6  C   UNL     1     -14.570  14.114 -24.542  1.00  0.00     0.013 C 
ATOM      7  C   UNL     1     -12.347  14.763 -25.529  1.00  0.00    -0.063 C 
ATOM      8  C   UNL     1     -11.497  17.194 -24.895  1.00  0.00    -0.003 C 
ATOM      9  C   UNL     1     -11.627  17.893 -26.277  1.00  0.00    -0.011 C 
ATOM     10  C   UNL     1     -13.388  13.631 -25.456  1.00  0.00    -0.006 C 
ATOM     11  C   UNL     1     -11.170  14.483 -26.131  1.00  0.00    -0.027 C 
ATOM     12  C   UNL     1     -11.463  18.190 -23.712  1.00  0.00     0.008 C 
ATOM     13  C   UNL     1     -10.562  18.978 -26.497  1.00  0.00     0.008 C 
ATOM     14  C   UNL     1     -13.997  13.417 -26.878  1.00  0.00     0.017 C 
ATOM     15  C   UNL     1     -12.669  12.290 -24.909  1.00  0.00    -0.020 C 
ATOM     16  C   UNL     1     -10.851  13.111 -26.641  1.00  0.00     0.032 C 
ATOM     17  C   UNL     1     -11.251  12.003 -25.622  1.00  0.00     0.006 C 
ATOM     18  C   UNL     1     -13.627  11.051 -24.998  1.00  0.00     0.008 C 
ATOM     19  C   UNL     1     -12.366  12.475 -23.386  1.00  0.00     0.012 C 
ATOM     20  C   UNL     1     -11.032  10.507 -26.150  1.00  0.00    -0.025 C 
ATOM     21  C   UNL     1     -13.634  10.250 -26.311  1.00  0.00     0.005 C 
ATOM     22  C   UNL     1     -12.262  10.089 -27.029  1.00  0.00     0.003 C 
ATOM     23  C   UNL     1      -9.735  10.421 -27.032  1.00  0.00     0.010 C 
ATOM     24  C   UNL     1     -10.833   9.556 -24.919  1.00  0.00     0.012 C 
ATOM     25  C   UNL     1     -12.112   8.732 -27.840  1.00  0.00    -0.006 C 
ATOM     26  C   UNL     1      -9.552   9.089 -27.769  1.00  0.00     0.033 C 
ATOM     27  C   UNL     1     -10.775   8.775 -28.650  1.00  0.00     0.120 C 
ATOM     28  C   UNL     1     -13.275   8.628 -28.861  1.00  0.00     0.014 C 
ATOM     29  C   UNL     1     -12.164   7.452 -26.953  1.00  0.00     0.014 C 
ENDROOT
BRANCH   1  30
ATOM     30  C   UNL     1     -14.464  17.556 -23.833  1.00  0.00     0.048 C 
ATOM     31  O   UNL     1     -14.888  18.720 -24.066  1.00  0.00    -0.550 OA
ATOM     32  O   UNL     1     -14.482  17.088 -22.524  1.00  0.00    -0.550 OA
ENDBRANCH   1  30
BRANCH  27  33
ATOM     33  O   UNL     1     -10.570   7.598 -29.396  1.00  0.00    -0.393 OA
ATOM     34  H   UNL     1      -9.985   6.993 -28.871  1.00  0.00     0.210 HD
ENDBRANCH  27  33
TORSDOF 2
ENDMDL
MODEL 2
REMARK VINA RESULT:    -7.633      1.565      2.309
REMARK INTER + INTRA:          -8.307
REMARK INTER:                  -8.296
REMARK INTRA:                  -0.011
REMARK UNBOUND:                -0.005
REMARK SMILES C[C@@H]1[C@H](C)CC[C@@]2(C(=O)[O-])CC[C@@]3(C)C(=CC[C@@H]4[C@]5(C)CC[C@@H](O)C(C)(C)[C@H]5CC[C@@]43C)[C@@H]12
REMARK SMILES IDX 7 1 6 2 11 3 33 4 5 5 12 6 15 7 2 8 3 9 13 10 16 11 1 12
REMARK SMILES IDX 4 13 14 14 31 15 17 16 18 17 30 18 32 19 19 20 29 21 28 22
REMARK SMILES IDX 21 23 20 24 25 25 22 26 23 27 26 28 27 29 8 30 9 31 10 32
REMARK SMILES IDX 24 33
REMARK H PARENT 24 34
REMARK Flexibility Score: inf
ROOT
ATOM      1  C   UNL     1     -13.956  18.914 -25.176  1.00  0.00     0.017 C 
ATOM      2  C   UNL     1     -13.762  19.400 -26.646  1.00  0.00     0.014 C 
ATOM      3  C   UNL     1     -15.125  17.867 -25.147  1.00  0.00     0.014 C 
ATOM      4  C   UNL     1     -12.594  18.305 -24.649  1.00  0.00     0.030 C 
ATOM      5  C   UNL     1     -12.585  20.367 -26.828  1.00  0.00     0.004 C 
ATOM      6  C   UNL     1     -14.766  16.569 -24.410  1.00  0.00     0.013 C 
ATOM      7  C   UNL     1     -12.387  16.857 -25.178  1.00  0.00    -0.063 C 
ATOM      8  C   UNL     1     -11.381  19.290 -24.848  1.00  0.00    -0.003 C 
ATOM      9  C   UNL     1     -11.273  19.738 -26.332  1.00  0.00    -0.011 C 
ATOM     10  C   UNL     1     -13.537  15.840 -25.060  1.00  0.00    -0.006 C 
ATOM     11  C   UNL     1     -11.179  16.384 -25.558  1.00  0.00    -0.027 C 
ATOM     12  C   UNL     1     -11.392  20.475 -23.855  1.00  0.00     0.008 C 
ATOM     13  C   UNL     1     -10.085  20.681 -26.583  1.00  0.00     0.008 C 
ATOM     14  C   UNL     1     -13.988  15.424 -26.496  1.00  0.00     0.017 C 
ATOM     15  C   UNL     1     -13.027  14.567 -24.204  1.00  0.00    -0.020 C 
ATOM     16  C   UNL     1     -10.940  14.923 -25.783  1.00  0.00     0.032 C 
ATOM     17  C   UNL     1     -11.569  14.049 -24.659  1.00  0.00     0.006 C 
ATOM     18  C   UNL     1     -14.086  13.411 -24.214  1.00  0.00     0.008 C 
ATOM     19  C   UNL     1     -12.894  14.997 -22.706  1.00  0.00     0.012 C 
ATOM     20  C   UNL     1     -11.438  12.470 -24.894  1.00  0.00    -0.025 C 
ATOM     21  C   UNL     1     -14.014  12.390 -25.363  1.00  0.00     0.005 C 
ATOM     22  C   UNL     1     -12.588  11.998 -25.851  1.00  0.00     0.003 C 
ATOM     23  C   UNL     1     -10.059  12.129 -25.564  1.00  0.00     0.010 C 
ATOM     24  C   UNL     1     -11.486  11.741 -23.507  1.00  0.00     0.012 C 
ATOM     25  C   UNL     1     -12.478  10.511 -26.395  1.00  0.00    -0.006 C 
ATOM     26  C   UNL     1      -9.922  10.676 -26.036  1.00  0.00     0.033 C 
ATOM     27  C   UNL     1     -11.055  10.305 -27.011  1.00  0.00     0.120 C 
ATOM     28  C   UNL     1     -13.513  10.317 -27.534  1.00  0.00     0.014 C 
ATOM     29  C   UNL     1     -12.764   9.418 -25.322  1.00  0.00     0.014 C 
ENDROOT
BRANCH   1  30
ATOM     30  C   UNL     1     -14.403  20.064 -24.277  1.00  0.00     0.048 C 
ATOM     31  O   UNL     1     -14.696  21.191 -24.759  1.00  0.00    -0.550 OA
ATOM     32  O   UNL     1     -14.607  19.844 -22.919  1.00  0.00    -0.550 OA
ENDBRANCH   1  30
BRANCH  27  33
ATOM     33  O   UNL     1     -10.880   9.001 -27.515  1.00  0.00    -0.393 OA
ATOM     34  H   UNL     1     -10.908   9.043 -28.506  1.00  0.00     0.210 HD
ENDBRANCH  27  33
TORSDOF 2
ENDMDL
MODEL 3
REMARK VINA RESULT:    -7.393      1.926      8.194
REMARK INTER + INTRA:          -8.046
REMARK INTER:                  -8.031
REMARK INTRA:                  -0.015
REMARK UNBOUND:                -0.005
REMARK SMILES C[C@@H]1[C@H](C)CC[C@@]2(C(=O)[O-])CC[C@@]3(C)C(=CC[C@@H]4[C@]5(C)CC[C@@H](O)C(C)(C)[C@H]5CC[C@@]43C)[C@@H]12
REMARK SMILES IDX 7 1 6 2 11 3 33 4 5 5 12 6 15 7 2 8 3 9 13 10 16 11 1 12
REMARK SMILES IDX 4 13 14 14 31 15 17 16 18 17 30 18 32 19 19 20 29 21 28 22
REMARK SMILES IDX 21 23 20 24 25 25 22 26 23 27 26 28 27 29 8 30 9 31 10 32
REMARK SMILES IDX 24 33
REMARK H PARENT 24 34
REMARK Flexibility Score: inf
ROOT
ATOM      1  C   UNL     1     -10.685  11.380 -26.124  1.00  0.00     0.017 C 
ATOM      2  C   UNL     1     -10.414  11.441 -27.660  1.00  0.00     0.014 C 
ATOM      3  C   UNL     1      -9.681  12.347 -25.401  1.00  0.00     0.014 C 
ATOM      4  C   UNL     1     -12.194  11.771 -25.851  1.00  0.00     0.030 C 
ATOM      5  C   UNL     1     -11.390  10.603 -28.495  1.00  0.00     0.004 C 
ATOM      6  C   UNL     1     -10.359  13.305 -24.412  1.00  0.00     0.013 C 
ATOM      7  C   UNL     1     -12.389  13.313 -25.899  1.00  0.00    -0.063 C 
ATOM      8  C   UNL     1     -13.198  10.923 -26.718  1.00  0.00    -0.003 C 
ATOM      9  C   UNL     1     -12.845  11.023 -28.228  1.00  0.00    -0.011 C 
ATOM     10  C   UNL     1     -11.425  14.220 -25.112  1.00  0.00    -0.006 C 
ATOM     11  C   UNL     1     -13.485  13.894 -26.437  1.00  0.00    -0.027 C 
ATOM     12  C   UNL     1     -13.346   9.465 -26.224  1.00  0.00     0.008 C 
ATOM     13  C   UNL     1     -13.815  10.233 -29.119  1.00  0.00     0.008 C 
ATOM     14  C   UNL     1     -10.638  15.111 -26.123  1.00  0.00     0.017 C 
ATOM     15  C   UNL     1     -12.278  15.114 -24.069  1.00  0.00    -0.020 C 
ATOM     16  C   UNL     1     -13.797  15.342 -26.218  1.00  0.00     0.032 C 
ATOM     17  C   UNL     1     -13.596  15.764 -24.732  1.00  0.00     0.006 C 
ATOM     18  C   UNL     1     -11.379  16.197 -23.377  1.00  0.00     0.008 C 
ATOM     19  C   UNL     1     -12.778  14.187 -22.913  1.00  0.00     0.012 C 
ATOM     20  C   UNL     1     -13.814  17.326 -24.452  1.00  0.00    -0.025 C 
ATOM     21  C   UNL     1     -11.231  17.556 -24.084  1.00  0.00     0.005 C 
ATOM     22  C   UNL     1     -12.497  18.099 -24.809  1.00  0.00     0.003 C 
ATOM     23  C   UNL     1     -14.979  17.886 -25.343  1.00  0.00     0.010 C 
ATOM     24  C   UNL     1     -14.227  17.522 -22.952  1.00  0.00     0.012 C 
ATOM     25  C   UNL     1     -12.600  19.684 -24.829  1.00  0.00    -0.006 C 
ATOM     26  C   UNL     1     -15.124  19.412 -25.318  1.00  0.00     0.033 C 
ATOM     27  C   UNL     1     -13.809  20.097 -25.731  1.00  0.00     0.120 C 
ATOM     28  C   UNL     1     -11.314  20.260 -25.477  1.00  0.00     0.014 C 
ATOM     29  C   UNL     1     -12.734  20.330 -23.418  1.00  0.00     0.014 C 
ENDROOT
BRANCH   1  30
ATOM     30  C   UNL     1     -10.392   9.986 -25.574  1.00  0.00     0.048 C 
ATOM     31  O   UNL     1      -9.846   9.105 -26.291  1.00  0.00    -0.550 OA
ATOM     32  O   UNL     1     -10.620   9.709 -24.231  1.00  0.00    -0.550 OA
ENDBRANCH   1  30
BRANCH  27  33
ATOM     33  O   UNL     1     -13.967  21.495 -25.796  1.00  0.00    -0.393 OA
ATOM     34  H   UNL     1     -13.385  21.908 -25.107  1.00  0.00     0.210 HD
ENDBRANCH  27  33
TORSDOF 2
ENDMDL
MODEL 4
REMARK VINA RESULT:    -6.983      4.179      8.020
REMARK INTER + INTRA:          -7.601
REMARK INTER:                  -7.645
REMARK INTRA:                   0.045
REMARK UNBOUND:                -0.005
REMARK SMILES C[C@@H]1[C@H](C)CC[C@@]2(C(=O)[O-])CC[C@@]3(C)C(=CC[C@@H]4[C@]5(C)CC[C@@H](O)C(C)(C)[C@H]5CC[C@@]43C)[C@@H]12
REMARK SMILES IDX 7 1 6 2 11 3 33 4 5 5 12 6 15 7 2 8 3 9 13 10 16 11 1 12
REMARK SMILES IDX 4 13 14 14 31 15 17 16 18 17 30 18 32 19 19 20 29 21 28 22
REMARK SMILES IDX 21 23 20 24 25 25 22 26 23 27 26 28 27 29 8 30 9 31 10 32
REMARK SMILES IDX 24 33
REMARK H PARENT 24 34
REMARK Flexibility Score: inf
ROOT
ATOM      1  C   UNL     1      -6.824  20.835 -25.925  1.00  0.00     0.017 C 
ATOM      2  C   UNL     1      -5.710  19.745 -26.012  1.00  0.00     0.014 C 
ATOM      3  C   UNL     1      -7.831  20.616 -27.109  1.00  0.00     0.014 C 
ATOM      4  C   UNL     1      -7.530  20.739 -24.513  1.00  0.00     0.030 C 
ATOM      5  C   UNL     1      -4.704  19.793 -24.856  1.00  0.00     0.004 C 
ATOM      6  C   UNL     1      -9.300  20.589 -26.665  1.00  0.00     0.013 C 
ATOM      7  C   UNL     1      -8.564  19.577 -24.482  1.00  0.00    -0.063 C 
ATOM      8  C   UNL     1      -6.499  20.774 -23.324  1.00  0.00    -0.003 C 
ATOM      9  C   UNL     1      -5.417  19.672 -23.499  1.00  0.00    -0.011 C 
ATOM     10  C   UNL     1      -9.583  19.445 -25.627  1.00  0.00    -0.006 C 
ATOM     11  C   UNL     1      -8.744  18.789 -23.399  1.00  0.00    -0.027 C 
ATOM     12  C   UNL     1      -5.900  22.178 -23.079  1.00  0.00     0.008 C 
ATOM     13  C   UNL     1      -4.400  19.647 -22.347  1.00  0.00     0.008 C 
ATOM     14  C   UNL     1      -9.323  18.102 -26.379  1.00  0.00     0.017 C 
ATOM     15  C   UNL     1     -11.077  19.502 -25.011  1.00  0.00    -0.020 C 
ATOM     16  C   UNL     1      -9.926  17.877 -23.275  1.00  0.00     0.032 C 
ATOM     17  C   UNL     1     -11.250  18.578 -23.701  1.00  0.00     0.006 C 
ATOM     18  C   UNL     1     -12.157  19.177 -26.100  1.00  0.00     0.008 C 
ATOM     19  C   UNL     1     -11.372  20.970 -24.557  1.00  0.00     0.012 C 
ATOM     20  C   UNL     1     -12.538  17.625 -23.690  1.00  0.00    -0.025 C 
ATOM     21  C   UNL     1     -12.535  17.700 -26.308  1.00  0.00     0.005 C 
ATOM     22  C   UNL     1     -12.583  16.812 -25.030  1.00  0.00     0.003 C 
ATOM     23  C   UNL     1     -12.460  16.612 -22.493  1.00  0.00     0.010 C 
ATOM     24  C   UNL     1     -13.820  18.504 -23.487  1.00  0.00     0.012 C 
ATOM     25  C   UNL     1     -13.650  15.638 -25.099  1.00  0.00    -0.006 C 
ATOM     26  C   UNL     1     -13.527  15.511 -22.519  1.00  0.00     0.033 C 
ATOM     27  C   UNL     1     -13.473  14.724 -23.842  1.00  0.00     0.120 C 
ATOM     28  C   UNL     1     -13.358  14.770 -26.352  1.00  0.00     0.014 C 
ATOM     29  C   UNL     1     -15.125  16.125 -25.209  1.00  0.00     0.014 C 
ENDROOT
BRANCH   1  30
ATOM     30  C   UNL     1      -6.237  22.230 -26.129  1.00  0.00     0.048 C 
ATOM     31  O   UNL     1      -5.139  22.393 -26.725  1.00  0.00    -0.550 OA
ATOM     32  O   UNL     1      -6.971  23.352 -25.760  1.00  0.00    -0.550 OA
ENDBRANCH   1  30
BRANCH  27  33
ATOM     33  O   UNL     1     -14.391  13.656 -23.830  1.00  0.00    -0.393 OA
ATOM     34  H   UNL     1     -14.444  13.298 -22.907  1.00  0.00     0.210 HD
ENDBRANCH  27  33
TORSDOF 2
ENDMDL
MODEL 5
REMARK VINA RESULT:    -6.978      2.244      3.171
REMARK INTER + INTRA:          -7.595
REMARK INTER:                  -7.578
REMARK INTRA:                  -0.017
REMARK UNBOUND:                -0.005
REMARK SMILES C[C@@H]1[C@H](C)CC[C@@]2(C(=O)[O-])CC[C@@]3(C)C(=CC[C@@H]4[C@]5(C)CC[C@@H](O)C(C)(C)[C@H]5CC[C@@]43C)[C@@H]12
REMARK SMILES IDX 7 1 6 2 11 3 33 4 5 5 12 6 15 7 2 8 3 9 13 10 16 11 1 12
REMARK SMILES IDX 4 13 14 14 31 15 17 16 18 17 30 18 32 19 19 20 29 21 28 22
REMARK SMILES IDX 21 23 20 24 25 25 22 26 23 27 26 28 27 29 8 30 9 31 10 32
REMARK SMILES IDX 24 33
REMARK H PARENT 24 34
REMARK Flexibility Score: inf
ROOT
ATOM      1  C   UNL     1     -13.532  17.574 -25.069  1.00  0.00     0.017 C 
ATOM      2  C   UNL     1     -12.970  18.070 -26.438  1.00  0.00     0.014 C 
ATOM      3  C   UNL     1     -14.249  16.195 -25.295  1.00  0.00     0.014 C 
ATOM      4  C   UNL     1     -12.343  17.467 -24.031  1.00  0.00     0.030 C 
ATOM      5  C   UNL     1     -12.165  19.373 -26.342  1.00  0.00     0.004 C 
ATOM      6  C   UNL     1     -13.808  15.107 -24.306  1.00  0.00     0.013 C 
ATOM      7  C   UNL     1     -11.524  16.164 -24.250  1.00  0.00    -0.063 C 
ATOM      8  C   UNL     1     -11.507  18.799 -23.941  1.00  0.00    -0.003 C 
ATOM      9  C   UNL     1     -11.003  19.230 -25.346  1.00  0.00    -0.011 C 
ATOM     10  C   UNL     1     -12.266  14.822 -24.390  1.00  0.00    -0.006 C 
ATOM     11  C   UNL     1     -10.179  16.117 -24.126  1.00  0.00    -0.027 C 
ATOM     12  C   UNL     1     -12.244  19.930 -23.186  1.00  0.00     0.008 C 
ATOM     13  C   UNL     1     -10.157  20.512 -25.307  1.00  0.00     0.008 C 
ATOM     14  C   UNL     1     -12.007  14.252 -25.820  1.00  0.00     0.017 C 
ATOM     15  C   UNL     1     -11.743  13.810 -23.242  1.00  0.00    -0.020 C 
ATOM     16  C   UNL     1      -9.439  14.817 -24.050  1.00  0.00     0.032 C 
ATOM     17  C   UNL     1     -10.137  13.803 -23.097  1.00  0.00     0.006 C 
ATOM     18  C   UNL     1     -12.316  12.365 -23.451  1.00  0.00     0.008 C 
ATOM     19  C   UNL     1     -12.309  14.287 -21.864  1.00  0.00     0.012 C 
ATOM     20  C   UNL     1      -9.452  12.356 -23.051  1.00  0.00    -0.025 C 
ATOM     21  C   UNL     1     -11.517  11.408 -24.353  1.00  0.00     0.005 C 
ATOM     22  C   UNL     1      -9.966  11.508 -24.266  1.00  0.00     0.003 C 
ATOM     23  C   UNL     1      -7.891  12.486 -23.156  1.00  0.00     0.010 C 
ATOM     24  C   UNL     1      -9.781  11.680 -21.675  1.00  0.00     0.012 C 
ATOM     25  C   UNL     1      -9.214  10.134 -24.527  1.00  0.00    -0.006 C 
ATOM     26  C   UNL     1      -7.152  11.155 -23.346  1.00  0.00     0.033 C 
ATOM     27  C   UNL     1      -7.675  10.407 -24.586  1.00  0.00     0.120 C 
ATOM     28  C   UNL     1      -9.645   9.583 -25.912  1.00  0.00     0.014 C 
ATOM     29  C   UNL     1      -9.525   9.029 -23.474  1.00  0.00     0.014 C 
ENDROOT
BRANCH   1  30
ATOM     30  C   UNL     1     -14.608  18.523 -24.547  1.00  0.00     0.048 C 
ATOM     31  O   UNL     1     -15.116  19.404 -25.291  1.00  0.00    -0.550 OA
ATOM     32  O   UNL     1     -15.125  18.348 -23.268  1.00  0.00    -0.550 OA
ENDBRANCH   1  30
BRANCH  27  33
ATOM     33  O   UNL     1      -6.937   9.229 -24.813  1.00  0.00    -0.393 OA
ATOM     34  H   UNL     1      -7.569   8.508 -25.067  1.00  0.00     0.210 HD
ENDBRANCH  27  33
TORSDOF 2
ENDMDL
MODEL 6
REMARK VINA RESULT:    -6.845     11.177     15.326
REMARK INTER + INTRA:          -7.450
REMARK INTER:                  -7.440
REMARK INTRA:                  -0.010
REMARK UNBOUND:                -0.005
REMARK SMILES C[C@@H]1[C@H](C)CC[C@@]2(C(=O)[O-])CC[C@@]3(C)C(=CC[C@@H]4[C@]5(C)CC[C@@H](O)C(C)(C)[C@H]5CC[C@@]43C)[C@@H]12
REMARK SMILES IDX 7 1 6 2 11 3 33 4 5 5 12 6 15 7 2 8 3 9 13 10 16 11 1 12
REMARK SMILES IDX 4 13 14 14 31 15 17 16 18 17 30 18 32 19 19 20 29 21 28 22
REMARK SMILES IDX 21 23 20 24 25 25 22 26 23 27 26 28 27 29 8 30 9 31 10 32
REMARK SMILES IDX 24 33
REMARK H PARENT 24 34
REMARK Flexibility Score: inf
ROOT
ATOM      1  C   UNL     1      -7.972  10.736 -36.863  1.00  0.00     0.017 C 
ATOM      2  C   UNL     1      -8.202  10.562 -35.329  1.00  0.00     0.014 C 
ATOM      3  C   UNL     1      -6.581  11.430 -37.083  1.00  0.00     0.014 C 
ATOM      4  C   UNL     1      -8.050   9.318 -37.561  1.00  0.00     0.030 C 
ATOM      5  C   UNL     1      -9.493   9.812 -34.978  1.00  0.00     0.004 C 
ATOM      6  C   UNL     1      -5.691  10.708 -38.105  1.00  0.00     0.013 C 
ATOM      7  C   UNL     1      -6.721   8.531 -37.377  1.00  0.00    -0.063 C 
ATOM      8  C   UNL     1      -9.368   8.541 -37.190  1.00  0.00    -0.003 C 
ATOM      9  C   UNL     1      -9.528   8.430 -35.648  1.00  0.00    -0.011 C 
ATOM     10  C   UNL     1      -5.383   9.229 -37.678  1.00  0.00    -0.006 C 
ATOM     11  C   UNL     1      -6.688   7.197 -37.156  1.00  0.00    -0.027 C 
ATOM     12  C   UNL     1     -10.625   9.105 -37.892  1.00  0.00     0.008 C 
ATOM     13  C   UNL     1     -10.789   7.654 -35.236  1.00  0.00     0.008 C 
ATOM     14  C   UNL     1      -4.557   9.320 -36.357  1.00  0.00     0.017 C 
ATOM     15  C   UNL     1      -4.597   8.390 -38.815  1.00  0.00    -0.020 C 
ATOM     16  C   UNL     1      -5.419   6.411 -37.272  1.00  0.00     0.032 C 
ATOM     17  C   UNL     1      -4.604   6.802 -38.540  1.00  0.00     0.006 C 
ATOM     18  C   UNL     1      -3.142   8.939 -39.026  1.00  0.00     0.008 C 
ATOM     19  C   UNL     1      -5.324   8.604 -40.183  1.00  0.00     0.012 C 
ATOM     20  C   UNL     1      -3.185   6.070 -38.668  1.00  0.00    -0.025 C 
ATOM     21  C   UNL     1      -2.028   8.359 -38.137  1.00  0.00     0.005 C 
ATOM     22  C   UNL     1      -2.131   6.842 -37.801  1.00  0.00     0.003 C 
ATOM     23  C   UNL     1      -3.280   4.594 -38.142  1.00  0.00     0.010 C 
ATOM     24  C   UNL     1      -2.777   6.010 -40.181  1.00  0.00     0.012 C 
ATOM     25  C   UNL     1      -0.726   6.127 -37.607  1.00  0.00    -0.006 C 
ATOM     26  C   UNL     1      -1.932   3.875 -38.012  1.00  0.00     0.033 C 
ATOM     27  C   UNL     1      -0.972   4.666 -37.105  1.00  0.00     0.120 C 
ATOM     28  C   UNL     1       0.068   6.875 -36.504  1.00  0.00     0.014 C 
ATOM     29  C   UNL     1       0.162   6.115 -38.886  1.00  0.00     0.014 C 
ENDROOT
BRANCH   1  30
ATOM     30  C   UNL     1      -9.010  11.680 -37.465  1.00  0.00     0.048 C 
ATOM     31  O   UNL     1      -9.720  12.419 -36.733  1.00  0.00    -0.550 OA
ATOM     32  O   UNL     1      -9.102  11.820 -38.846  1.00  0.00    -0.550 OA
ENDBRANCH   1  30
BRANCH  27  33
ATOM     33  O   UNL     1       0.234   3.964 -36.911  1.00  0.00    -0.393 OA
ATOM     34  H   UNL     1       0.982   4.533 -37.227  1.00  0.00     0.210 HD
ENDBRANCH  27  33
TORSDOF 2
ENDMDL
MODEL 7
REMARK VINA RESULT:    -6.800      2.785      8.298
REMARK INTER + INTRA:          -7.401
REMARK INTER:                  -7.384
REMARK INTRA:                  -0.017
REMARK UNBOUND:                -0.005
REMARK SMILES C[C@@H]1[C@H](C)CC[C@@]2(C(=O)[O-])CC[C@@]3(C)C(=CC[C@@H]4[C@]5(C)CC[C@@H](O)C(C)(C)[C@H]5CC[C@@]43C)[C@@H]12
REMARK SMILES IDX 7 1 6 2 11 3 33 4 5 5 12 6 15 7 2 8 3 9 13 10 16 11 1 12
REMARK SMILES IDX 4 13 14 14 31 15 17 16 18 17 30 18 32 19 19 20 29 21 28 22
REMARK SMILES IDX 21 23 20 24 25 25 22 26 23 27 26 28 27 29 8 30 9 31 10 32
REMARK SMILES IDX 24 33
REMARK H PARENT 24 34
REMARK Flexibility Score: inf
ROOT
ATOM      1  C   UNL     1      -9.112  12.304 -23.817  1.00  0.00     0.017 C 
ATOM      2  C   UNL     1      -8.274  12.356 -25.132  1.00  0.00     0.014 C 
ATOM      3  C   UNL     1      -8.689  13.513 -22.908  1.00  0.00     0.014 C 
ATOM      4  C   UNL     1     -10.651  12.341 -24.183  1.00  0.00     0.030 C 
ATOM      5  C   UNL     1      -8.654  11.275 -26.152  1.00  0.00     0.004 C 
ATOM      6  C   UNL     1      -9.878  14.329 -22.382  1.00  0.00     0.013 C 
ATOM      7  C   UNL     1     -11.114  13.790 -24.507  1.00  0.00    -0.063 C 
ATOM      8  C   UNL     1     -11.041  11.241 -25.240  1.00  0.00    -0.003 C 
ATOM      9  C   UNL     1     -10.148  11.352 -26.507  1.00  0.00    -0.011 C 
ATOM     10  C   UNL     1     -10.741  14.933 -23.547  1.00  0.00    -0.006 C 
ATOM     11  C   UNL     1     -12.001  14.070 -25.489  1.00  0.00    -0.027 C 
ATOM     12  C   UNL     1     -11.077   9.813 -24.646  1.00  0.00     0.008 C 
ATOM     13  C   UNL     1     -10.508  10.315 -27.582  1.00  0.00     0.008 C 
ATOM     14  C   UNL     1      -9.813  15.938 -24.300  1.00  0.00     0.017 C 
ATOM     15  C   UNL     1     -12.096  15.648 -23.029  1.00  0.00    -0.020 C 
ATOM     16  C   UNL     1     -12.655  15.412 -25.600  1.00  0.00     0.032 C 
ATOM     17  C   UNL     1     -13.146  15.938 -24.218  1.00  0.00     0.006 C 
ATOM     18  C   UNL     1     -11.778  16.943 -22.203  1.00  0.00     0.008 C 
ATOM     19  C   UNL     1     -12.816  14.684 -22.030  1.00  0.00     0.012 C 
ATOM     20  C   UNL     1     -13.763  17.416 -24.252  1.00  0.00    -0.025 C 
ATOM     21  C   UNL     1     -11.637  18.264 -22.979  1.00  0.00     0.005 C 
ATOM     22  C   UNL     1     -12.594  18.460 -24.191  1.00  0.00     0.003 C 
ATOM     23  C   UNL     1     -14.567  17.643 -25.581  1.00  0.00     0.010 C 
ATOM     24  C   UNL     1     -14.764  17.578 -23.057  1.00  0.00     0.012 C 
ATOM     25  C   UNL     1     -12.994  19.973 -24.461  1.00  0.00    -0.006 C 
ATOM     26  C   UNL     1     -15.011  19.092 -25.818  1.00  0.00     0.033 C 
ATOM     27  C   UNL     1     -13.805  20.048 -25.797  1.00  0.00     0.120 C 
ATOM     28  C   UNL     1     -11.699  20.806 -24.652  1.00  0.00     0.014 C 
ATOM     29  C   UNL     1     -13.800  20.633 -23.303  1.00  0.00     0.014 C 
ENDROOT
BRANCH   1  30
ATOM     30  C   UNL     1      -8.789  11.046 -23.015  1.00  0.00     0.048 C 
ATOM     31  O   UNL     1      -7.810  10.313 -23.321  1.00  0.00    -0.550 OA
ATOM     32  O   UNL     1      -9.506  10.756 -21.860  1.00  0.00    -0.550 OA
ENDBRANCH   1  30
BRANCH  27  33
ATOM     33  O   UNL     1     -14.199  21.365 -26.103  1.00  0.00    -0.393 OA
ATOM     34  H   UNL     1     -15.157  21.353 -26.361  1.00  0.00     0.210 HD
ENDBRANCH  27  33
TORSDOF 2
ENDMDL
MODEL 8
REMARK VINA RESULT:    -6.785      3.441      8.373
REMARK INTER + INTRA:          -7.385
REMARK INTER:                  -7.387
REMARK INTRA:                   0.002
REMARK UNBOUND:                -0.005
REMARK SMILES C[C@@H]1[C@H](C)CC[C@@]2(C(=O)[O-])CC[C@@]3(C)C(=CC[C@@H]4[C@]5(C)CC[C@@H](O)C(C)(C)[C@H]5CC[C@@]43C)[C@@H]12
REMARK SMILES IDX 7 1 6 2 11 3 33 4 5 5 12 6 15 7 2 8 3 9 13 10 16 11 1 12
REMARK SMILES IDX 4 13 14 14 31 15 17 16 18 17 30 18 32 19 19 20 29 21 28 22
REMARK SMILES IDX 21 23 20 24 25 25 22 26 23 27 26 28 27 29 8 30 9 31 10 32
REMARK SMILES IDX 24 33
REMARK H PARENT 24 34
REMARK Flexibility Score: inf
ROOT
ATOM      1  C   UNL     1     -12.328  14.789 -22.551  1.00  0.00     0.017 C 
ATOM      2  C   UNL     1     -11.652  13.485 -23.078  1.00  0.00     0.014 C 
ATOM      3  C   UNL     1     -11.295  15.558 -21.653  1.00  0.00     0.014 C 
ATOM      4  C   UNL     1     -12.811  15.656 -23.783  1.00  0.00     0.030 C 
ATOM      5  C   UNL     1     -12.530  12.680 -24.045  1.00  0.00     0.004 C 
ATOM      6  C   UNL     1     -11.152  17.042 -22.018  1.00  0.00     0.013 C 
ATOM      7  C   UNL     1     -11.625  16.439 -24.415  1.00  0.00    -0.063 C 
ATOM      8  C   UNL     1     -13.700  14.828 -24.785  1.00  0.00    -0.003 C 
ATOM      9  C   UNL     1     -12.961  13.540 -25.244  1.00  0.00    -0.011 C 
ATOM     10  C   UNL     1     -10.681  17.243 -23.503  1.00  0.00    -0.006 C 
ATOM     11  C   UNL     1     -11.495  16.614 -25.749  1.00  0.00    -0.027 C 
ATOM     12  C   UNL     1     -15.124  14.552 -24.248  1.00  0.00     0.008 C 
ATOM     13  C   UNL     1     -13.779  12.710 -26.246  1.00  0.00     0.008 C 
ATOM     14  C   UNL     1      -9.250  16.624 -23.592  1.00  0.00     0.017 C 
ATOM     15  C   UNL     1     -10.691  18.791 -23.969  1.00  0.00    -0.020 C 
ATOM     16  C   UNL     1     -10.527  17.604 -26.323  1.00  0.00     0.032 C 
ATOM     17  C   UNL     1     -10.568  18.965 -25.567  1.00  0.00     0.006 C 
ATOM     18  C   UNL     1      -9.603  19.623 -23.206  1.00  0.00     0.008 C 
ATOM     19  C   UNL     1     -12.062  19.424 -23.561  1.00  0.00     0.012 C 
ATOM     20  C   UNL     1      -9.483  20.033 -26.066  1.00  0.00    -0.025 C 
ATOM     21  C   UNL     1      -8.191  19.676 -23.816  1.00  0.00     0.005 C 
ATOM     22  C   UNL     1      -8.111  19.731 -25.370  1.00  0.00     0.003 C 
ATOM     23  C   UNL     1      -9.288  19.930 -27.621  1.00  0.00     0.010 C 
ATOM     24  C   UNL     1     -10.005  21.476 -25.747  1.00  0.00     0.012 C 
ATOM     25  C   UNL     1      -6.855  20.531 -25.924  1.00  0.00    -0.006 C 
ATOM     26  C   UNL     1      -8.115  20.750 -28.171  1.00  0.00     0.033 C 
ATOM     27  C   UNL     1      -6.797  20.360 -27.477  1.00  0.00     0.120 C 
ATOM     28  C   UNL     1      -5.564  19.904 -25.335  1.00  0.00     0.014 C 
ATOM     29  C   UNL     1      -6.847  22.042 -25.546  1.00  0.00     0.014 C 
ENDROOT
BRANCH   1  30
ATOM     30  C   UNL     1     -13.509  14.460 -21.641  1.00  0.00     0.048 C 
ATOM     31  O   UNL     1     -13.646  13.310 -21.143  1.00  0.00    -0.550 OA
ATOM     32  O   UNL     1     -14.388  15.465 -21.254  1.00  0.00    -0.550 OA
ENDBRANCH   1  30
BRANCH  27  33
ATOM     33  O   UNL     1      -5.706  21.047 -28.044  1.00  0.00    -0.393 OA
ATOM     34  H   UNL     1      -4.909  20.895 -27.473  1.00  0.00     0.210 HD
ENDBRANCH  27  33
TORSDOF 2
ENDMDL
MODEL 9
REMARK VINA RESULT:    -6.748     13.568     15.551
REMARK INTER + INTRA:          -7.345
REMARK INTER:                  -7.337
REMARK INTRA:                  -0.008
REMARK UNBOUND:                -0.005
REMARK SMILES C[C@@H]1[C@H](C)CC[C@@]2(C(=O)[O-])CC[C@@]3(C)C(=CC[C@@H]4[C@]5(C)CC[C@@H](O)C(C)(C)[C@H]5CC[C@@]43C)[C@@H]12
REMARK SMILES IDX 7 1 6 2 11 3 33 4 5 5 12 6 15 7 2 8 3 9 13 10 16 11 1 12
REMARK SMILES IDX 4 13 14 14 31 15 17 16 18 17 30 18 32 19 19 20 29 21 28 22
REMARK SMILES IDX 21 23 20 24 25 25 22 26 23 27 26 28 27 29 8 30 9 31 10 32
REMARK SMILES IDX 24 33
REMARK H PARENT 24 34
REMARK Flexibility Score: inf
ROOT
ATOM      1  C   UNL     1      -6.093  18.194 -36.108  1.00  0.00     0.017 C 
ATOM      2  C   UNL     1      -6.093  19.666 -36.626  1.00  0.00     0.014 C 
ATOM      3  C   UNL     1      -5.967  17.231 -37.342  1.00  0.00     0.014 C 
ATOM      4  C   UNL     1      -4.905  18.008 -35.080  1.00  0.00     0.030 C 
ATOM      5  C   UNL     1      -6.124  20.716 -35.508  1.00  0.00     0.004 C 
ATOM      6  C   UNL     1      -4.869  16.170 -37.180  1.00  0.00     0.013 C 
ATOM      7  C   UNL     1      -3.549  17.825 -35.820  1.00  0.00    -0.063 C 
ATOM      8  C   UNL     1      -4.926  19.093 -33.939  1.00  0.00    -0.003 C 
ATOM      9  C   UNL     1      -4.944  20.526 -34.541  1.00  0.00    -0.011 C 
ATOM     10  C   UNL     1      -3.451  16.813 -36.975  1.00  0.00    -0.006 C 
ATOM     11  C   UNL     1      -2.394  18.366 -35.371  1.00  0.00    -0.027 C 
ATOM     12  C   UNL     1      -6.044  18.858 -32.897  1.00  0.00     0.008 C 
ATOM     13  C   UNL     1      -4.937  21.623 -33.465  1.00  0.00     0.008 C 
ATOM     14  C   UNL     1      -3.130  17.587 -38.293  1.00  0.00     0.017 C 
ATOM     15  C   UNL     1      -2.305  15.727 -36.628  1.00  0.00    -0.020 C 
ATOM     16  C   UNL     1      -1.064  17.948 -35.917  1.00  0.00     0.032 C 
ATOM     17  C   UNL     1      -0.953  16.401 -36.063  1.00  0.00     0.006 C 
ATOM     18  C   UNL     1      -2.021  14.786 -37.850  1.00  0.00     0.008 C 
ATOM     19  C   UNL     1      -2.836  14.789 -35.495  1.00  0.00     0.012 C 
ATOM     20  C   UNL     1       0.408  15.895 -36.740  1.00  0.00    -0.025 C 
ATOM     21  C   UNL     1      -0.968  15.247 -38.872  1.00  0.00     0.005 C 
ATOM     22  C   UNL     1       0.272  15.994 -38.299  1.00  0.00     0.003 C 
ATOM     23  C   UNL     1       1.613  16.792 -36.284  1.00  0.00     0.010 C 
ATOM     24  C   UNL     1       0.700  14.430 -36.263  1.00  0.00     0.012 C 
ATOM     25  C   UNL     1       1.605  15.768 -39.132  1.00  0.00    -0.006 C 
ATOM     26  C   UNL     1       2.921  16.536 -37.042  1.00  0.00     0.033 C 
ATOM     27  C   UNL     1       2.720  16.704 -38.559  1.00  0.00     0.120 C 
ATOM     28  C   UNL     1       1.352  16.187 -40.604  1.00  0.00     0.014 C 
ATOM     29  C   UNL     1       2.099  14.291 -39.152  1.00  0.00     0.014 C 
ENDROOT
BRANCH   1  30
ATOM     30  C   UNL     1      -7.425  17.850 -35.445  1.00  0.00     0.048 C 
ATOM     31  O   UNL     1      -8.392  18.657 -35.471  1.00  0.00    -0.550 OA
ATOM     32  O   UNL     1      -7.623  16.585 -34.902  1.00  0.00    -0.550 OA
ENDBRANCH   1  30
BRANCH  27  33
ATOM     33  O   UNL     1       3.939  16.558 -39.249  1.00  0.00    -0.393 OA
ATOM     34  H   UNL     1       3.868  15.769 -39.847  1.00  0.00     0.210 HD
ENDBRANCH  27  33
TORSDOF 2
ENDMDL
