MODEL 1
REMARK VINA RESULT:    -7.420      0.000      0.000
REMARK INTER + INTRA:          -9.234
REMARK INTER:                  -8.938
REMARK INTRA:                  -0.295
REMARK UNBOUND:                -0.295
REMARK SMILES O=c1c(O)c(-c2ccc(O)c(O)c2)oc2cc(O)cc(O)c12
REMARK SMILES IDX 5 1 3 2 2 3 1 4 22 5 20 6 19 7 17 8 16 9 15 10 14 11 6 12
REMARK SMILES IDX 7 13 8 14 9 15 13 16 11 17 10 18 12 20 4 22 21 24 18 26
REMARK H PARENT 10 19 12 21 4 23 21 25 18 27
REMARK Flexibility Score: inf
ROOT
ATOM      1  C   UNL     1      17.538  -4.429  -6.362  1.00  0.00     0.180 A 
ATOM      2  C   UNL     1      17.010  -5.719  -6.545  1.00  0.00     0.208 A 
ATOM      3  C   UNL     1      16.818  -6.197  -7.851  1.00  0.00     0.238 A 
ATOM      4  O   UNL     1      16.416  -7.380  -8.007  1.00  0.00    -0.285 OA
ATOM      5  C   UNL     1      17.103  -5.360  -8.958  1.00  0.00     0.111 A 
ATOM      6  C   UNL     1      16.905  -5.725 -10.324  1.00  0.00     0.134 A 
ATOM      7  C   UNL     1      17.323  -4.854 -11.338  1.00  0.00     0.093 A 
ATOM      8  C   UNL     1      17.873  -3.608 -11.038  1.00  0.00     0.123 A 
ATOM      9  C   UNL     1      18.021  -3.219  -9.707  1.00  0.00     0.094 A 
ATOM     10  C   UNL     1      17.648  -4.081  -8.672  1.00  0.00     0.146 A 
ATOM     11  O   UNL     1      17.827  -3.680  -7.419  1.00  0.00    -0.452 OA
ENDROOT
BRANCH   1  12
ATOM     12  C   UNL     1      17.781  -3.861  -5.016  1.00  0.00     0.025 A 
ATOM     13  C   UNL     1      18.902  -4.236  -4.255  1.00  0.00     0.016 A 
ATOM     14  C   UNL     1      19.124  -3.667  -2.998  1.00  0.00     0.051 A 
ATOM     15  C   UNL     1      18.243  -2.709  -2.489  1.00  0.00     0.157 A 
ATOM     16  C   UNL     1      16.910  -2.882  -4.513  1.00  0.00     0.062 A 
ATOM     17  C   UNL     1      17.131  -2.310  -3.250  1.00  0.00     0.158 A 
BRANCH  15  18
ATOM     18  O   UNL     1      18.489  -2.160  -1.231  1.00  0.00    -0.504 OA
ATOM     19  H   UNL     1      18.693  -1.176  -1.103  1.00  0.00     0.293 HD
ENDBRANCH  15  18
BRANCH  17  20
ATOM     20  O   UNL     1      16.252  -1.350  -2.754  1.00  0.00    -0.504 OA
ATOM     21  H   UNL     1      16.541  -0.675  -2.055  1.00  0.00     0.293 HD
ENDBRANCH  17  20
ENDBRANCH   1  12
BRANCH   2  22
ATOM     22  O   UNL     1      16.663  -6.501  -5.440  1.00  0.00    -0.502 OA
ATOM     23  H   UNL     1      16.570  -7.508  -5.493  1.00  0.00     0.293 HD
ENDBRANCH   2  22
BRANCH   6  24
ATOM     24  O   UNL     1      16.284  -6.907 -10.738  1.00  0.00    -0.507 OA
ATOM     25  H   UNL     1      16.745  -7.799 -10.830  1.00  0.00     0.293 HD
ENDBRANCH   6  24
BRANCH   8  26
ATOM     26  O   UNL     1      18.262  -2.762 -12.073  1.00  0.00    -0.508 OA
ATOM     27  H   UNL     1      18.290  -3.079 -13.035  1.00  0.00     0.293 HD
ENDBRANCH   8  26
TORSDOF 6
ENDMDL
MODEL 2
REMARK VINA RESULT:    -6.907      2.647      4.882
REMARK INTER + INTRA:          -8.616
REMARK INTER:                  -8.300
REMARK INTRA:                  -0.316
REMARK UNBOUND:                -0.295
REMARK SMILES O=c1c(O)c(-c2ccc(O)c(O)c2)oc2cc(O)cc(O)c12
REMARK SMILES IDX 5 1 3 2 2 3 1 4 22 5 20 6 19 7 17 8 16 9 15 10 14 11 6 12
REMARK SMILES IDX 7 13 8 14 9 15 13 16 11 17 10 18 12 20 4 22 21 24 18 26
REMARK H PARENT 10 19 12 21 4 23 21 25 18 27
REMARK Flexibility Score: inf
ROOT
ATOM      1  C   UNL     1      17.085  -5.734  -6.055  1.00  0.00     0.180 A 
ATOM      2  C   UNL     1      17.026  -6.097  -7.411  1.00  0.00     0.208 A 
ATOM      3  C   UNL     1      16.878  -7.452  -7.748  1.00  0.00     0.238 A 
ATOM      4  O   UNL     1      16.750  -7.762  -8.961  1.00  0.00    -0.285 OA
ATOM      5  C   UNL     1      16.849  -8.433  -6.727  1.00  0.00     0.111 A 
ATOM      6  C   UNL     1      16.748  -9.840  -6.954  1.00  0.00     0.134 A 
ATOM      7  C   UNL     1      16.620 -10.708  -5.863  1.00  0.00     0.093 A 
ATOM      8  C   UNL     1      16.653 -10.230  -4.553  1.00  0.00     0.123 A 
ATOM      9  C   UNL     1      16.807  -8.863  -4.318  1.00  0.00     0.094 A 
ATOM     10  C   UNL     1      16.899  -7.968  -5.387  1.00  0.00     0.146 A 
ATOM     11  O   UNL     1      17.022  -6.673  -5.119  1.00  0.00    -0.452 OA
ENDROOT
BRANCH   1  12
ATOM     12  C   UNL     1      17.226  -4.325  -5.621  1.00  0.00     0.025 A 
ATOM     13  C   UNL     1      18.489  -3.758  -5.374  1.00  0.00     0.016 A 
ATOM     14  C   UNL     1      18.599  -2.419  -4.991  1.00  0.00     0.051 A 
ATOM     15  C   UNL     1      17.456  -1.624  -4.860  1.00  0.00     0.157 A 
ATOM     16  C   UNL     1      16.083  -3.519  -5.511  1.00  0.00     0.062 A 
ATOM     17  C   UNL     1      16.191  -2.174  -5.125  1.00  0.00     0.158 A 
BRANCH  15  18
ATOM     18  O   UNL     1      17.597  -0.292  -4.473  1.00  0.00    -0.504 OA
ATOM     19  H   UNL     1      17.740  -0.025  -3.506  1.00  0.00     0.293 HD
ENDBRANCH  15  18
BRANCH  17  20
ATOM     20  O   UNL     1      15.047  -1.386  -5.005  1.00  0.00    -0.504 OA
ATOM     21  H   UNL     1      14.728  -1.046  -4.106  1.00  0.00     0.293 HD
ENDBRANCH  17  20
ENDBRANCH   1  12
BRANCH   2  22
ATOM     22  O   UNL     1      17.134  -5.122  -8.406  1.00  0.00    -0.502 OA
ATOM     23  H   UNL     1      17.618  -4.245  -8.259  1.00  0.00     0.293 HD
ENDBRANCH   2  22
BRANCH   6  24
ATOM     24  O   UNL     1      16.793 -10.434  -8.219  1.00  0.00    -0.507 OA
ATOM     25  H   UNL     1      16.034 -10.944  -8.644  1.00  0.00     0.293 HD
ENDBRANCH   6  24
BRANCH   8  26
ATOM     26  O   UNL     1      16.541 -11.125  -3.492  1.00  0.00    -0.508 OA
ATOM     27  H   UNL     1      16.178 -12.062  -3.626  1.00  0.00     0.293 HD
ENDBRANCH   8  26
TORSDOF 6
ENDMDL
MODEL 3
REMARK VINA RESULT:    -6.790      2.018      3.964
REMARK INTER + INTRA:          -8.475
REMARK INTER:                  -8.799
REMARK INTRA:                   0.325
REMARK UNBOUND:                -0.295
REMARK SMILES O=c1c(O)c(-c2ccc(O)c(O)c2)oc2cc(O)cc(O)c12
REMARK SMILES IDX 5 1 3 2 2 3 1 4 22 5 20 6 19 7 17 8 16 9 15 10 14 11 6 12
REMARK SMILES IDX 7 13 8 14 9 15 13 16 11 17 10 18 12 20 4 22 21 24 18 26
REMARK H PARENT 10 19 12 21 4 23 21 25 18 27
REMARK Flexibility Score: inf
ROOT
ATOM      1  C   UNL     1      17.354  -4.081  -5.723  1.00  0.00     0.180 A 
ATOM      2  C   UNL     1      17.094  -3.985  -7.101  1.00  0.00     0.208 A 
ATOM      3  C   UNL     1      16.911  -5.164  -7.842  1.00  0.00     0.238 A 
ATOM      4  O   UNL     1      16.604  -5.068  -9.059  1.00  0.00    -0.285 OA
ATOM      5  C   UNL     1      17.046  -6.424  -7.210  1.00  0.00     0.111 A 
ATOM      6  C   UNL     1      16.925  -7.683  -7.873  1.00  0.00     0.134 A 
ATOM      7  C   UNL     1      16.972  -8.865  -7.124  1.00  0.00     0.093 A 
ATOM      8  C   UNL     1      17.198  -8.839  -5.748  1.00  0.00     0.123 A 
ATOM      9  C   UNL     1      17.373  -7.616  -5.098  1.00  0.00     0.094 A 
ATOM     10  C   UNL     1      17.293  -6.418  -5.812  1.00  0.00     0.146 A 
ATOM     11  O   UNL     1      17.443  -5.276  -5.151  1.00  0.00    -0.452 OA
ENDROOT
BRANCH   1  12
ATOM     12  C   UNL     1      17.546  -2.885  -4.872  1.00  0.00     0.025 A 
ATOM     13  C   UNL     1      17.998  -1.668  -5.411  1.00  0.00     0.016 A 
ATOM     14  C   UNL     1      18.147  -0.545  -4.593  1.00  0.00     0.051 A 
ATOM     15  C   UNL     1      17.835  -0.615  -3.232  1.00  0.00     0.157 A 
ATOM     16  C   UNL     1      17.213  -2.946  -3.510  1.00  0.00     0.062 A 
ATOM     17  C   UNL     1      17.363  -1.820  -2.686  1.00  0.00     0.158 A 
BRANCH  15  18
ATOM     18  O   UNL     1      17.997   0.522  -2.440  1.00  0.00    -0.504 OA
ATOM     19  H   UNL     1      17.211   0.989  -2.003  1.00  0.00     0.293 HD
ENDBRANCH  15  18
BRANCH  17  20
ATOM     20  O   UNL     1      17.042  -1.896  -1.331  1.00  0.00    -0.504 OA
ATOM     21  H   UNL     1      16.557  -2.696  -0.944  1.00  0.00     0.293 HD
ENDBRANCH  17  20
ENDBRANCH   1  12
BRANCH   2  22
ATOM     22  O   UNL     1      17.041  -2.735  -7.722  1.00  0.00    -0.502 OA
ATOM     23  H   UNL     1      16.177  -2.335  -8.066  1.00  0.00     0.293 HD
ENDBRANCH   2  22
BRANCH   6  24
ATOM     24  O   UNL     1      16.784  -7.829  -9.256  1.00  0.00    -0.507 OA
ATOM     25  H   UNL     1      16.487  -7.101  -9.887  1.00  0.00     0.293 HD
ENDBRANCH   6  24
BRANCH   8  26
ATOM     26  O   UNL     1      17.257 -10.035  -5.038  1.00  0.00    -0.508 OA
ATOM     27  H   UNL     1      16.464 -10.374  -4.505  1.00  0.00     0.293 HD
ENDBRANCH   8  26
TORSDOF 6
ENDMDL
MODEL 4
REMARK VINA RESULT:    -6.594      2.871      6.592
REMARK INTER + INTRA:          -8.239
REMARK INTER:                  -8.159
REMARK INTRA:                  -0.080
REMARK UNBOUND:                -0.295
REMARK SMILES O=c1c(O)c(-c2ccc(O)c(O)c2)oc2cc(O)cc(O)c12
REMARK SMILES IDX 5 1 3 2 2 3 1 4 22 5 20 6 19 7 17 8 16 9 15 10 14 11 6 12
REMARK SMILES IDX 7 13 8 14 9 15 13 16 11 17 10 18 12 20 4 22 21 24 18 26
REMARK H PARENT 10 19 12 21 4 23 21 25 18 27
REMARK Flexibility Score: inf
ROOT
ATOM      1  C   UNL     1      17.606  -4.973  -5.109  1.00  0.00     0.180 A 
ATOM      2  C   UNL     1      17.580  -4.132  -6.234  1.00  0.00     0.208 A 
ATOM      3  C   UNL     1      17.667  -2.743  -6.048  1.00  0.00     0.238 A 
ATOM      4  O   UNL     1      17.719  -2.001  -7.064  1.00  0.00    -0.285 OA
ATOM      5  C   UNL     1      17.722  -2.209  -4.738  1.00  0.00     0.111 A 
ATOM      6  C   UNL     1      17.767  -0.815  -4.430  1.00  0.00     0.134 A 
ATOM      7  C   UNL     1      17.928  -0.407  -3.100  1.00  0.00     0.093 A 
ATOM      8  C   UNL     1      17.981  -1.336  -2.061  1.00  0.00     0.123 A 
ATOM      9  C   UNL     1      17.882  -2.699  -2.345  1.00  0.00     0.094 A 
ATOM     10  C   UNL     1      17.760  -3.139  -3.666  1.00  0.00     0.146 A 
ATOM     11  O   UNL     1      17.691  -4.445  -3.894  1.00  0.00    -0.452 OA
ENDROOT
BRANCH   1  12
ATOM     12  C   UNL     1      17.533  -6.448  -5.225  1.00  0.00     0.025 A 
ATOM     13  C   UNL     1      18.530  -7.275  -4.681  1.00  0.00     0.016 A 
ATOM     14  C   UNL     1      18.426  -8.665  -4.781  1.00  0.00     0.051 A 
ATOM     15  C   UNL     1      17.323  -9.249  -5.410  1.00  0.00     0.157 A 
ATOM     16  C   UNL     1      16.415  -7.037  -5.836  1.00  0.00     0.062 A 
ATOM     17  C   UNL     1      16.309  -8.433  -5.939  1.00  0.00     0.158 A 
BRANCH  15  18
ATOM     18  O   UNL     1      17.248 -10.639  -5.496  1.00  0.00    -0.504 OA
ATOM     19  H   UNL     1      16.384 -11.119  -5.720  1.00  0.00     0.293 HD
ENDBRANCH  15  18
BRANCH  17  20
ATOM     20  O   UNL     1      15.202  -9.007  -6.560  1.00  0.00    -0.504 OA
ATOM     21  H   UNL     1      14.841  -8.652  -7.438  1.00  0.00     0.293 HD
ENDBRANCH  17  20
ENDBRANCH   1  12
BRANCH   2  22
ATOM     22  O   UNL     1      17.448  -4.674  -7.515  1.00  0.00    -0.502 OA
ATOM     23  H   UNL     1      18.207  -5.154  -7.984  1.00  0.00     0.293 HD
ENDBRANCH   2  22
BRANCH   6  24
ATOM     24  O   UNL     1      17.635   0.202  -5.380  1.00  0.00    -0.507 OA
ATOM     25  H   UNL     1      17.624   1.189  -5.171  1.00  0.00     0.293 HD
ENDBRANCH   6  24
BRANCH   8  26
ATOM     26  O   UNL     1      18.123  -0.893  -0.749  1.00  0.00    -0.508 OA
ATOM     27  H   UNL     1      18.440  -1.512  -0.012  1.00  0.00     0.293 HD
ENDBRANCH   8  26
TORSDOF 6
ENDMDL
MODEL 5
REMARK VINA RESULT:    -6.584      1.639      2.313
REMARK INTER + INTRA:          -8.227
REMARK INTER:                  -7.912
REMARK INTRA:                  -0.314
REMARK UNBOUND:                -0.295
REMARK SMILES O=c1c(O)c(-c2ccc(O)c(O)c2)oc2cc(O)cc(O)c12
REMARK SMILES IDX 5 1 3 2 2 3 1 4 22 5 20 6 19 7 17 8 16 9 15 10 14 11 6 12
REMARK SMILES IDX 7 13 8 14 9 15 13 16 11 17 10 18 12 20 4 22 21 24 18 26
REMARK H PARENT 10 19 12 21 4 23 21 25 18 27
REMARK Flexibility Score: inf
ROOT
ATOM      1  C   UNL     1      17.565  -3.551  -8.380  1.00  0.00     0.180 A 
ATOM      2  C   UNL     1      17.173  -4.846  -8.760  1.00  0.00     0.208 A 
ATOM      3  C   UNL     1      17.213  -5.198 -10.119  1.00  0.00     0.238 A 
ATOM      4  O   UNL     1      16.933  -6.382 -10.443  1.00  0.00    -0.285 OA
ATOM      5  C   UNL     1      17.589  -4.235 -11.086  1.00  0.00     0.111 A 
ATOM      6  C   UNL     1      17.621  -4.468 -12.495  1.00  0.00     0.134 A 
ATOM      7  C   UNL     1      18.112  -3.473 -13.348  1.00  0.00     0.093 A 
ATOM      8  C   UNL     1      18.512  -2.231 -12.854  1.00  0.00     0.123 A 
ATOM      9  C   UNL     1      18.432  -1.973 -11.485  1.00  0.00     0.094 A 
ATOM     10  C   UNL     1      17.983  -2.959 -10.604  1.00  0.00     0.146 A 
ATOM     11  O   UNL     1      17.945  -2.679  -9.307  1.00  0.00    -0.452 OA
ENDROOT
BRANCH   1  12
ATOM     12  C   UNL     1      17.564  -3.110  -6.966  1.00  0.00     0.025 A 
ATOM     13  C   UNL     1      18.741  -3.114  -6.197  1.00  0.00     0.016 A 
ATOM     14  C   UNL     1      18.720  -2.669  -4.873  1.00  0.00     0.051 A 
ATOM     15  C   UNL     1      17.533  -2.203  -4.301  1.00  0.00     0.157 A 
ATOM     16  C   UNL     1      16.378  -2.621  -6.397  1.00  0.00     0.062 A 
ATOM     17  C   UNL     1      16.355  -2.175  -5.066  1.00  0.00     0.158 A 
BRANCH  15  18
ATOM     18  O   UNL     1      17.542  -1.768  -2.976  1.00  0.00    -0.504 OA
ATOM     19  H   UNL     1      17.383  -0.799  -2.726  1.00  0.00     0.293 HD
ENDBRANCH  15  18
BRANCH  17  20
ATOM     20  O   UNL     1      15.168  -1.705  -4.506  1.00  0.00    -0.504 OA
ATOM     21  H   UNL     1      15.005  -0.715  -4.360  1.00  0.00     0.293 HD
ENDBRANCH  17  20
ENDBRANCH   1  12
BRANCH   2  22
ATOM     22  O   UNL     1      16.732  -5.759  -7.798  1.00  0.00    -0.502 OA
ATOM     23  H   UNL     1      17.044  -5.729  -6.835  1.00  0.00     0.293 HD
ENDBRANCH   2  22
BRANCH   6  24
ATOM     24  O   UNL     1      17.163  -5.639 -13.106  1.00  0.00    -0.507 OA
ATOM     25  H   UNL     1      16.758  -6.424 -12.619  1.00  0.00     0.293 HD
ENDBRANCH   6  24
BRANCH   8  26
ATOM     26  O   UNL     1      18.978  -1.259 -13.735  1.00  0.00    -0.508 OA
ATOM     27  H   UNL     1      18.493  -1.050 -14.599  1.00  0.00     0.293 HD
ENDBRANCH   8  26
TORSDOF 6
ENDMDL
MODEL 6
REMARK VINA RESULT:    -6.506      1.437      6.736
REMARK INTER + INTRA:          -8.133
REMARK INTER:                  -8.004
REMARK INTRA:                  -0.129
REMARK UNBOUND:                -0.295
REMARK SMILES O=c1c(O)c(-c2ccc(O)c(O)c2)oc2cc(O)cc(O)c12
REMARK SMILES IDX 5 1 3 2 2 3 1 4 22 5 20 6 19 7 17 8 16 9 15 10 14 11 6 12
REMARK SMILES IDX 7 13 8 14 9 15 13 16 11 17 10 18 12 20 4 22 21 24 18 26
REMARK H PARENT 10 19 12 21 4 23 21 25 18 27
REMARK Flexibility Score: inf
ROOT
ATOM      1  C   UNL     1      17.745  -3.838  -7.023  1.00  0.00     0.180 A 
ATOM      2  C   UNL     1      17.846  -4.996  -6.233  1.00  0.00     0.208 A 
ATOM      3  C   UNL     1      17.947  -4.863  -4.839  1.00  0.00     0.238 A 
ATOM      4  O   UNL     1      17.961  -5.906  -4.133  1.00  0.00    -0.285 OA
ATOM      5  C   UNL     1      18.005  -3.574  -4.255  1.00  0.00     0.111 A 
ATOM      6  C   UNL     1      18.152  -3.322  -2.857  1.00  0.00     0.134 A 
ATOM      7  C   UNL     1      18.089  -2.005  -2.384  1.00  0.00     0.093 A 
ATOM      8  C   UNL     1      17.947  -0.929  -3.260  1.00  0.00     0.123 A 
ATOM      9  C   UNL     1      17.858  -1.161  -4.633  1.00  0.00     0.094 A 
ATOM     10  C   UNL     1      17.879  -2.466  -5.133  1.00  0.00     0.146 A 
ATOM     11  O   UNL     1      17.768  -2.643  -6.444  1.00  0.00    -0.452 OA
ENDROOT
BRANCH   1  12
ATOM     12  C   UNL     1      17.621  -3.897  -8.497  1.00  0.00     0.025 A 
ATOM     13  C   UNL     1      18.625  -3.384  -9.337  1.00  0.00     0.016 A 
ATOM     14  C   UNL     1      18.497  -3.474 -10.725  1.00  0.00     0.051 A 
ATOM     15  C   UNL     1      17.377  -4.086 -11.295  1.00  0.00     0.157 A 
ATOM     16  C   UNL     1      16.508  -4.530  -9.071  1.00  0.00     0.062 A 
ATOM     17  C   UNL     1      16.377  -4.620 -10.465  1.00  0.00     0.158 A 
BRANCH  15  18
ATOM     18  O   UNL     1      17.276  -4.158 -12.685  1.00  0.00    -0.504 OA
ATOM     19  H   UNL     1      17.930  -4.693 -13.244  1.00  0.00     0.293 HD
ENDBRANCH  15  18
BRANCH  17  20
ATOM     20  O   UNL     1      15.261  -5.239 -11.026  1.00  0.00    -0.504 OA
ATOM     21  H   UNL     1      15.295  -6.193 -11.363  1.00  0.00     0.293 HD
ENDBRANCH  17  20
ENDBRANCH   1  12
BRANCH   2  22
ATOM     22  O   UNL     1      17.865  -6.258  -6.834  1.00  0.00    -0.502 OA
ATOM     23  H   UNL     1      17.239  -6.511  -7.589  1.00  0.00     0.293 HD
ENDBRANCH   2  22
BRANCH   6  24
ATOM     24  O   UNL     1      18.387  -4.314  -1.902  1.00  0.00    -0.507 OA
ATOM     25  H   UNL     1      18.242  -4.207  -0.910  1.00  0.00     0.293 HD
ENDBRANCH   6  24
BRANCH   8  26
ATOM     26  O   UNL     1      17.906   0.368  -2.755  1.00  0.00    -0.508 OA
ATOM     27  H   UNL     1      17.939   0.549  -1.758  1.00  0.00     0.293 HD
ENDBRANCH   8  26
TORSDOF 6
ENDMDL
MODEL 7
REMARK VINA RESULT:    -6.443      1.584      7.260
REMARK INTER + INTRA:          -8.056
REMARK INTER:                  -8.021
REMARK INTRA:                  -0.036
REMARK UNBOUND:                -0.295
REMARK SMILES O=c1c(O)c(-c2ccc(O)c(O)c2)oc2cc(O)cc(O)c12
REMARK SMILES IDX 5 1 3 2 2 3 1 4 22 5 20 6 19 7 17 8 16 9 15 10 14 11 6 12
REMARK SMILES IDX 7 13 8 14 9 15 13 16 11 17 10 18 12 20 4 22 21 24 18 26
REMARK H PARENT 10 19 12 21 4 23 21 25 18 27
REMARK Flexibility Score: inf
ROOT
ATOM      1  C   UNL     1      17.832  -3.261  -7.033  1.00  0.00     0.180 A 
ATOM      2  C   UNL     1      17.594  -1.895  -6.802  1.00  0.00     0.208 A 
ATOM      3  C   UNL     1      17.707  -1.396  -5.494  1.00  0.00     0.238 A 
ATOM      4  O   UNL     1      17.567  -0.159  -5.307  1.00  0.00    -0.285 OA
ATOM      5  C   UNL     1      18.000  -2.277  -4.426  1.00  0.00     0.111 A 
ATOM      6  C   UNL     1      18.095  -1.888  -3.055  1.00  0.00     0.134 A 
ATOM      7  C   UNL     1      18.496  -2.828  -2.097  1.00  0.00     0.093 A 
ATOM      8  C   UNL     1      18.744  -4.154  -2.447  1.00  0.00     0.123 A 
ATOM      9  C   UNL     1      18.601  -4.558  -3.775  1.00  0.00     0.094 A 
ATOM     10  C   UNL     1      18.240  -3.636  -4.761  1.00  0.00     0.146 A 
ATOM     11  O   UNL     1      18.137  -4.057  -6.015  1.00  0.00    -0.452 OA
ENDROOT
BRANCH   1  12
ATOM     12  C   UNL     1      17.745  -3.859  -8.385  1.00  0.00     0.025 A 
ATOM     13  C   UNL     1      18.439  -3.306  -9.475  1.00  0.00     0.016 A 
ATOM     14  C   UNL     1      18.363  -3.903 -10.736  1.00  0.00     0.051 A 
ATOM     15  C   UNL     1      17.606  -5.063 -10.926  1.00  0.00     0.157 A 
ATOM     16  C   UNL     1      17.004  -5.036  -8.573  1.00  0.00     0.062 A 
ATOM     17  C   UNL     1      16.925  -5.636  -9.839  1.00  0.00     0.158 A 
BRANCH  15  18
ATOM     18  O   UNL     1      17.547  -5.634 -12.197  1.00  0.00    -0.504 OA
ATOM     19  H   UNL     1      18.364  -6.023 -12.651  1.00  0.00     0.293 HD
ENDBRANCH  15  18
BRANCH  17  20
ATOM     20  O   UNL     1      16.175  -6.797 -10.018  1.00  0.00    -0.504 OA
ATOM     21  H   UNL     1      16.377  -7.450 -10.766  1.00  0.00     0.293 HD
ENDBRANCH  17  20
ENDBRANCH   1  12
BRANCH   2  22
ATOM     22  O   UNL     1      17.231  -1.055  -7.858  1.00  0.00    -0.502 OA
ATOM     23  H   UNL     1      16.655  -1.369  -8.630  1.00  0.00     0.293 HD
ENDBRANCH   2  22
BRANCH   6  24
ATOM     24  O   UNL     1      17.784  -0.611  -2.579  1.00  0.00    -0.507 OA
ATOM     25  H   UNL     1      18.425   0.167  -2.554  1.00  0.00     0.293 HD
ENDBRANCH   6  24
BRANCH   8  26
ATOM     26  O   UNL     1      19.124  -5.065  -1.465  1.00  0.00    -0.508 OA
ATOM     27  H   UNL     1      19.837  -5.765  -1.639  1.00  0.00     0.293 HD
ENDBRANCH   8  26
TORSDOF 6
ENDMDL
MODEL 8
REMARK VINA RESULT:    -6.407      2.645      6.024
REMARK INTER + INTRA:          -8.014
REMARK INTER:                  -7.737
REMARK INTRA:                  -0.277
REMARK UNBOUND:                -0.295
REMARK SMILES O=c1c(O)c(-c2ccc(O)c(O)c2)oc2cc(O)cc(O)c12
REMARK SMILES IDX 5 1 3 2 2 3 1 4 22 5 20 6 19 7 17 8 16 9 15 10 14 11 6 12
REMARK SMILES IDX 7 13 8 14 9 15 13 16 11 17 10 18 12 20 4 22 21 24 18 26
REMARK H PARENT 10 19 12 21 4 23 21 25 18 27
REMARK Flexibility Score: inf
ROOT
ATOM      1  C   UNL     1      17.209  -5.615  -5.427  1.00  0.00     0.180 A 
ATOM      2  C   UNL     1      17.314  -5.181  -6.760  1.00  0.00     0.208 A 
ATOM      3  C   UNL     1      17.488  -3.812  -7.018  1.00  0.00     0.238 A 
ATOM      4  O   UNL     1      17.657  -3.441  -8.209  1.00  0.00    -0.285 OA
ATOM      5  C   UNL     1      17.498  -2.887  -5.946  1.00  0.00     0.111 A 
ATOM      6  C   UNL     1      17.623  -1.472  -6.096  1.00  0.00     0.134 A 
ATOM      7  C   UNL     1      17.727  -0.665  -4.956  1.00  0.00     0.093 A 
ATOM      8  C   UNL     1      17.648  -1.210  -3.675  1.00  0.00     0.123 A 
ATOM      9  C   UNL     1      17.470  -2.585  -3.518  1.00  0.00     0.094 A 
ATOM     10  C   UNL     1      17.401  -3.422  -4.635  1.00  0.00     0.146 A 
ATOM     11  O   UNL     1      17.255  -4.727  -4.440  1.00  0.00    -0.452 OA
ENDROOT
BRANCH   1  12
ATOM     12  C   UNL     1      17.038  -7.042  -5.073  1.00  0.00     0.025 A 
ATOM     13  C   UNL     1      15.798  -7.689  -5.217  1.00  0.00     0.016 A 
ATOM     14  C   UNL     1      15.667  -9.043  -4.901  1.00  0.00     0.051 A 
ATOM     15  C   UNL     1      16.769  -9.775  -4.450  1.00  0.00     0.157 A 
ATOM     16  C   UNL     1      18.148  -7.784  -4.641  1.00  0.00     0.062 A 
ATOM     17  C   UNL     1      18.019  -9.145  -4.322  1.00  0.00     0.158 A 
BRANCH  15  18
ATOM     18  O   UNL     1      16.607 -11.125  -4.140  1.00  0.00    -0.504 OA
ATOM     19  H   UNL     1      15.793 -11.651  -4.434  1.00  0.00     0.293 HD
ENDBRANCH  15  18
BRANCH  17  20
ATOM     20  O   UNL     1      19.125  -9.869  -3.880  1.00  0.00    -0.504 OA
ATOM     21  H   UNL     1      20.001  -9.414  -3.651  1.00  0.00     0.293 HD
ENDBRANCH  17  20
ENDBRANCH   1  12
BRANCH   2  22
ATOM     22  O   UNL     1      17.226  -6.101  -7.808  1.00  0.00    -0.502 OA
ATOM     23  H   UNL     1      16.705  -5.912  -8.655  1.00  0.00     0.293 HD
ENDBRANCH   2  22
BRANCH   6  24
ATOM     24  O   UNL     1      17.623  -0.811  -7.327  1.00  0.00    -0.507 OA
ATOM     25  H   UNL     1      18.129   0.039  -7.526  1.00  0.00     0.293 HD
ENDBRANCH   6  24
BRANCH   8  26
ATOM     26  O   UNL     1      17.738  -0.374  -2.565  1.00  0.00    -0.508 OA
ATOM     27  H   UNL     1      18.107   0.567  -2.640  1.00  0.00     0.293 HD
ENDBRANCH   8  26
TORSDOF 6
ENDMDL
MODEL 9
REMARK VINA RESULT:    -6.308      1.706      7.018
REMARK INTER + INTRA:          -7.894
REMARK INTER:                  -8.117
REMARK INTRA:                   0.224
REMARK UNBOUND:                -0.295
REMARK SMILES O=c1c(O)c(-c2ccc(O)c(O)c2)oc2cc(O)cc(O)c12
REMARK SMILES IDX 5 1 3 2 2 3 1 4 22 5 20 6 19 7 17 8 16 9 15 10 14 11 6 12
REMARK SMILES IDX 7 13 8 14 9 15 13 16 11 17 10 18 12 20 4 22 21 24 18 26
REMARK H PARENT 10 19 12 21 4 23 21 25 18 27
REMARK Flexibility Score: inf
ROOT
ATOM      1  C   UNL     1      17.532  -3.801  -9.648  1.00  0.00     0.180 A 
ATOM      2  C   UNL     1      17.270  -5.142  -9.316  1.00  0.00     0.208 A 
ATOM      3  C   UNL     1      17.039  -5.477  -7.972  1.00  0.00     0.238 A 
ATOM      4  O   UNL     1      16.730  -6.665  -7.692  1.00  0.00    -0.285 OA
ATOM      5  C   UNL     1      17.129  -4.481  -6.970  1.00  0.00     0.111 A 
ATOM      6  C   UNL     1      16.959  -4.717  -5.572  1.00  0.00     0.134 A 
ATOM      7  C   UNL     1      16.965  -3.635  -4.684  1.00  0.00     0.093 A 
ATOM      8  C   UNL     1      17.198  -2.335  -5.132  1.00  0.00     0.123 A 
ATOM      9  C   UNL     1      17.421  -2.099  -6.489  1.00  0.00     0.094 A 
ATOM     10  C   UNL     1      17.383  -3.154  -7.405  1.00  0.00     0.146 A 
ATOM     11  O   UNL     1      17.578  -2.883  -8.690  1.00  0.00    -0.452 OA
ENDROOT
BRANCH   1  12
ATOM     12  C   UNL     1      17.772  -3.367 -11.043  1.00  0.00     0.025 A 
ATOM     13  C   UNL     1      18.748  -2.404 -11.352  1.00  0.00     0.016 A 
ATOM     14  C   UNL     1      18.974  -2.029 -12.679  1.00  0.00     0.051 A 
ATOM     15  C   UNL     1      18.241  -2.615 -13.715  1.00  0.00     0.157 A 
ATOM     16  C   UNL     1      17.053  -3.970 -12.087  1.00  0.00     0.062 A 
ATOM     17  C   UNL     1      17.277  -3.593 -13.420  1.00  0.00     0.158 A 
BRANCH  15  18
ATOM     18  O   UNL     1      18.487  -2.218 -15.029  1.00  0.00    -0.504 OA
ATOM     19  H   UNL     1      18.754  -2.878 -15.750  1.00  0.00     0.293 HD
ENDBRANCH  15  18
BRANCH  17  20
ATOM     20  O   UNL     1      16.548  -4.188 -14.448  1.00  0.00    -0.504 OA
ATOM     21  H   UNL     1      16.331  -5.178 -14.442  1.00  0.00     0.293 HD
ENDBRANCH  17  20
ENDBRANCH   1  12
BRANCH   2  22
ATOM     22  O   UNL     1      17.260  -6.124 -10.310  1.00  0.00    -0.502 OA
ATOM     23  H   UNL     1      16.429  -6.651 -10.546  1.00  0.00     0.293 HD
ENDBRANCH   2  22
BRANCH   6  24
ATOM     24  O   UNL     1      16.807  -5.985  -5.004  1.00  0.00    -0.507 OA
ATOM     25  H   UNL     1      16.544  -6.161  -4.046  1.00  0.00     0.293 HD
ENDBRANCH   6  24
BRANCH   8  26
ATOM     26  O   UNL     1      17.215  -1.285  -4.217  1.00  0.00    -0.508 OA
ATOM     27  H   UNL     1      18.076  -0.811  -3.970  1.00  0.00     0.293 HD
ENDBRANCH   8  26
TORSDOF 6
ENDMDL
