MODEL 1
REMARK VINA RESULT:    -4.665      0.000      0.000
REMARK INTER + INTRA:         -13.152
REMARK INTER:                 -10.664
REMARK INTRA:                  -2.488
REMARK UNBOUND:                -2.488
REMARK SMILES CCCCCCCCCCCCCCCCCCCCCCCC(=O)[O-]
REMARK SMILES IDX 13 1 14 2 15 3 16 4 17 5 18 6 19 7 20 8 21 9 22 10 23 11
REMARK SMILES IDX 24 12 25 13 26 14 12 15 11 16 10 17 9 18 8 19 7 20 6 21 5 22
REMARK SMILES IDX 4 23 3 24 2 25 1 26
REMARK H PARENT
REMARK Flexibility Score: inf
ROOT
ATOM      1  C   UNL     1      -9.901  -3.034  -8.050  1.00  0.00     0.000 C 
ENDROOT
BRANCH   1   2
ATOM      2  C   UNL     1     -10.268  -2.435  -9.418  1.00  0.00     0.000 C 
BRANCH   2   3
ATOM      3  C   UNL     1     -11.314  -1.313  -9.313  1.00  0.00     0.000 C 
BRANCH   3   4
ATOM      4  C   UNL     1     -12.338  -1.270 -10.464  1.00  0.00     0.000 C 
BRANCH   4   5
ATOM      5  C   UNL     1     -13.544  -2.209 -10.257  1.00  0.00     0.000 C 
BRANCH   5   6
ATOM      6  C   UNL     1     -14.854  -1.435 -10.022  1.00  0.00     0.000 C 
BRANCH   6   7
ATOM      7  C   UNL     1     -14.859  -0.060 -10.709  1.00  0.00     0.000 C 
BRANCH   7   8
ATOM      8  C   UNL     1     -14.851   1.103  -9.705  1.00  0.00     0.000 C 
BRANCH   8   9
ATOM      9  C   UNL     1     -13.727   2.100 -10.026  1.00  0.00     0.000 C 
BRANCH   9  10
ATOM     10  C   UNL     1     -12.603   2.084  -8.977  1.00  0.00     0.006 C 
BRANCH  10  11
ATOM     11  C   UNL     1     -12.089   3.489  -8.634  1.00  0.00     0.053 C 
BRANCH  11  12
ATOM     12  C   UNL     1     -13.040   4.199  -7.718  1.00  0.00     0.041 C 
ATOM     13  O   UNL     1     -14.095   4.714  -8.176  1.00  0.00    -0.550 OA
ATOM     14  O   UNL     1     -12.783   4.257  -6.353  1.00  0.00    -0.550 OA
ENDBRANCH  11  12
ENDBRANCH  10  11
ENDBRANCH   9  10
ENDBRANCH   8   9
ENDBRANCH   7   8
ENDBRANCH   6   7
ENDBRANCH   5   6
ENDBRANCH   4   5
ENDBRANCH   3   4
ENDBRANCH   2   3
ENDBRANCH   1   2
BRANCH   1  15
ATOM     15  C   UNL     1      -9.769  -4.564  -8.089  1.00  0.00     0.000 C 
BRANCH  15  16
ATOM     16  C   UNL     1     -10.887  -5.240  -8.902  1.00  0.00     0.000 C 
BRANCH  16  17
ATOM     17  C   UNL     1     -10.805  -6.777  -8.872  1.00  0.00     0.000 C 
BRANCH  17  18
ATOM     18  C   UNL     1     -12.124  -7.487  -8.516  1.00  0.00    -0.000 C 
BRANCH  18  19
ATOM     19  C   UNL     1     -13.336  -6.909  -9.260  1.00  0.00    -0.000 C 
BRANCH  19  20
ATOM     20  C   UNL     1     -14.307  -6.237  -8.282  1.00  0.00    -0.000 C 
BRANCH  20  21
ATOM     21  C   UNL     1     -14.973  -7.273  -7.364  1.00  0.00    -0.000 C 
BRANCH  21  22
ATOM     22  C   UNL     1     -14.659  -7.036  -5.877  1.00  0.00    -0.000 C 
BRANCH  22  23
ATOM     23  C   UNL     1     -13.754  -8.125  -5.281  1.00  0.00    -0.000 C 
BRANCH  23  24
ATOM     24  C   UNL     1     -12.379  -7.552  -4.910  1.00  0.00    -0.000 C 
BRANCH  24  25
ATOM     25  C   UNL     1     -12.283  -6.038  -5.159  1.00  0.00    -0.003 C 
ATOM     26  C   UNL     1     -10.848  -5.517  -5.085  1.00  0.00     0.004 C 
ENDBRANCH  24  25
ENDBRANCH  23  24
ENDBRANCH  22  23
ENDBRANCH  21  22
ENDBRANCH  20  21
ENDBRANCH  19  20
ENDBRANCH  18  19
ENDBRANCH  17  18
ENDBRANCH  16  17
ENDBRANCH  15  16
ENDBRANCH   1  15
TORSDOF 22
ENDMDL
MODEL 2
REMARK VINA RESULT:    -4.610     15.377     18.375
REMARK INTER + INTRA:         -13.027
REMARK INTER:                  -9.750
REMARK INTRA:                  -3.276
REMARK UNBOUND:                -2.488
REMARK SMILES CCCCCCCCCCCCCCCCCCCCCCCC(=O)[O-]
REMARK SMILES IDX 13 1 14 2 15 3 16 4 17 5 18 6 19 7 20 8 21 9 22 10 23 11
REMARK SMILES IDX 24 12 25 13 26 14 12 15 11 16 10 17 9 18 8 19 7 20 6 21 5 22
REMARK SMILES IDX 4 23 3 24 2 25 1 26
REMARK H PARENT
REMARK Flexibility Score: inf
ROOT
ATOM      1  C   UNL     1     -12.318   4.755   4.828  1.00  0.00     0.000 C 
ENDROOT
BRANCH   1   2
ATOM      2  C   UNL     1     -13.539   5.364   4.120  1.00  0.00     0.000 C 
BRANCH   2   3
ATOM      3  C   UNL     1     -14.303   6.362   5.008  1.00  0.00     0.000 C 
BRANCH   3   4
ATOM      4  C   UNL     1     -14.067   7.846   4.668  1.00  0.00     0.000 C 
BRANCH   4   5
ATOM      5  C   UNL     1     -14.099   8.777   5.898  1.00  0.00     0.000 C 
BRANCH   5   6
ATOM      6  C   UNL     1     -12.864   8.598   6.799  1.00  0.00     0.000 C 
BRANCH   6   7
ATOM      7  C   UNL     1     -11.771   9.641   6.518  1.00  0.00     0.000 C 
BRANCH   7   8
ATOM      8  C   UNL     1     -12.277  10.814   5.665  1.00  0.00     0.000 C 
BRANCH   8   9
ATOM      9  C   UNL     1     -11.259  11.182   4.574  1.00  0.00     0.000 C 
BRANCH   9  10
ATOM     10  C   UNL     1     -11.851  12.108   3.499  1.00  0.00     0.006 C 
BRANCH  10  11
ATOM     11  C   UNL     1     -13.152  11.563   2.894  1.00  0.00     0.053 C 
BRANCH  11  12
ATOM     12  C   UNL     1     -12.868  10.684   1.715  1.00  0.00     0.041 C 
ATOM     13  O   UNL     1     -13.611   9.698   1.465  1.00  0.00    -0.550 OA
ATOM     14  O   UNL     1     -11.806  10.975   0.866  1.00  0.00    -0.550 OA
ENDBRANCH  11  12
ENDBRANCH  10  11
ENDBRANCH   9  10
ENDBRANCH   8   9
ENDBRANCH   7   8
ENDBRANCH   6   7
ENDBRANCH   5   6
ENDBRANCH   4   5
ENDBRANCH   3   4
ENDBRANCH   2   3
ENDBRANCH   1   2
BRANCH   1  15
ATOM     15  C   UNL     1     -12.525   4.605   6.343  1.00  0.00     0.000 C 
BRANCH  15  16
ATOM     16  C   UNL     1     -11.472   3.696   7.003  1.00  0.00     0.000 C 
BRANCH  16  17
ATOM     17  C   UNL     1     -10.449   4.478   7.846  1.00  0.00     0.000 C 
BRANCH  17  18
ATOM     18  C   UNL     1     -10.395   5.989   7.556  1.00  0.00    -0.000 C 
BRANCH  18  19
ATOM     19  C   UNL     1      -9.065   6.433   6.930  1.00  0.00    -0.000 C 
BRANCH  19  20
ATOM     20  C   UNL     1      -9.266   6.878   5.477  1.00  0.00    -0.000 C 
BRANCH  20  21
ATOM     21  C   UNL     1      -8.654   8.267   5.234  1.00  0.00    -0.000 C 
BRANCH  21  22
ATOM     22  C   UNL     1      -8.025   8.867   6.503  1.00  0.00    -0.000 C 
BRANCH  22  23
ATOM     23  C   UNL     1      -8.172  10.394   6.573  1.00  0.00    -0.000 C 
BRANCH  23  24
ATOM     24  C   UNL     1      -6.852  11.089   6.208  1.00  0.00    -0.000 C 
BRANCH  24  25
ATOM     25  C   UNL     1      -5.635  10.164   6.365  1.00  0.00    -0.003 C 
ATOM     26  C   UNL     1      -4.403  10.675   5.619  1.00  0.00     0.004 C 
ENDBRANCH  24  25
ENDBRANCH  23  24
ENDBRANCH  22  23
ENDBRANCH  21  22
ENDBRANCH  20  21
ENDBRANCH  19  20
ENDBRANCH  18  19
ENDBRANCH  17  18
ENDBRANCH  16  17
ENDBRANCH  15  16
ENDBRANCH   1  15
TORSDOF 22
ENDMDL
MODEL 3
REMARK VINA RESULT:    -4.606     16.124     19.107
REMARK INTER + INTRA:         -13.018
REMARK INTER:                  -9.487
REMARK INTRA:                  -3.531
REMARK UNBOUND:                -2.488
REMARK SMILES CCCCCCCCCCCCCCCCCCCCCCCC(=O)[O-]
REMARK SMILES IDX 13 1 14 2 15 3 16 4 17 5 18 6 19 7 20 8 21 9 22 10 23 11
REMARK SMILES IDX 24 12 25 13 26 14 12 15 11 16 10 17 9 18 8 19 7 20 6 21 5 22
REMARK SMILES IDX 4 23 3 24 2 25 1 26
REMARK H PARENT
REMARK Flexibility Score: inf
ROOT
ATOM      1  C   UNL     1     -11.364   3.382   7.149  1.00  0.00     0.000 C 
ENDROOT
BRANCH   1   2
ATOM      2  C   UNL     1     -11.719   3.877   5.737  1.00  0.00     0.000 C 
BRANCH   2   3
ATOM      3  C   UNL     1     -11.030   5.206   5.384  1.00  0.00     0.000 C 
BRANCH   3   4
ATOM      4  C   UNL     1      -9.615   5.379   5.967  1.00  0.00     0.000 C 
BRANCH   4   5
ATOM      5  C   UNL     1      -9.414   6.707   6.727  1.00  0.00     0.000 C 
BRANCH   5   6
ATOM      6  C   UNL     1      -9.099   7.879   5.780  1.00  0.00     0.000 C 
BRANCH   6   7
ATOM      7  C   UNL     1     -10.126   9.018   5.887  1.00  0.00     0.000 C 
BRANCH   7   8
ATOM      8  C   UNL     1      -9.575  10.361   5.386  1.00  0.00     0.000 C 
BRANCH   8   9
ATOM      9  C   UNL     1      -9.099  11.233   6.559  1.00  0.00     0.000 C 
BRANCH   9  10
ATOM     10  C   UNL     1      -7.632  11.667   6.417  1.00  0.00     0.006 C 
BRANCH  10  11
ATOM     11  C   UNL     1      -6.855  10.819   5.401  1.00  0.00     0.053 C 
BRANCH  11  12
ATOM     12  C   UNL     1      -5.488  10.483   5.917  1.00  0.00     0.041 C 
ATOM     13  O   UNL     1      -5.352   9.658   6.860  1.00  0.00    -0.550 OA
ATOM     14  O   UNL     1      -4.362  11.049   5.332  1.00  0.00    -0.550 OA
ENDBRANCH  11  12
ENDBRANCH  10  11
ENDBRANCH   9  10
ENDBRANCH   8   9
ENDBRANCH   7   8
ENDBRANCH   6   7
ENDBRANCH   5   6
ENDBRANCH   4   5
ENDBRANCH   3   4
ENDBRANCH   2   3
ENDBRANCH   1   2
BRANCH   1  15
ATOM     15  C   UNL     1     -12.331   3.904   8.221  1.00  0.00     0.000 C 
BRANCH  15  16
ATOM     16  C   UNL     1     -11.719   5.022   9.085  1.00  0.00     0.000 C 
BRANCH  16  17
ATOM     17  C   UNL     1     -12.473   6.357   8.959  1.00  0.00     0.000 C 
BRANCH  17  18
ATOM     18  C   UNL     1     -13.444   6.441   7.767  1.00  0.00    -0.000 C 
BRANCH  18  19
ATOM     19  C   UNL     1     -13.307   7.747   6.971  1.00  0.00    -0.000 C 
BRANCH  19  20
ATOM     20  C   UNL     1     -13.808   7.567   5.533  1.00  0.00    -0.000 C 
BRANCH  20  21
ATOM     21  C   UNL     1     -14.005   8.925   4.842  1.00  0.00    -0.000 C 
BRANCH  21  22
ATOM     22  C   UNL     1     -13.611  10.109   5.741  1.00  0.00    -0.000 C 
BRANCH  22  23
ATOM     23  C   UNL     1     -13.258  11.371   4.939  1.00  0.00    -0.000 C 
BRANCH  23  24
ATOM     24  C   UNL     1     -13.348  11.104   3.429  1.00  0.00    -0.000 C 
BRANCH  24  25
ATOM     25  C   UNL     1     -12.041  11.436   2.692  1.00  0.00    -0.003 C 
ATOM     26  C   UNL     1     -12.067  11.011   1.223  1.00  0.00     0.004 C 
ENDBRANCH  24  25
ENDBRANCH  23  24
ENDBRANCH  22  23
ENDBRANCH  21  22
ENDBRANCH  20  21
ENDBRANCH  19  20
ENDBRANCH  18  19
ENDBRANCH  17  18
ENDBRANCH  16  17
ENDBRANCH  15  16
ENDBRANCH   1  15
TORSDOF 22
ENDMDL
MODEL 4
REMARK VINA RESULT:    -4.279     15.923     18.759
REMARK INTER + INTRA:         -12.269
REMARK INTER:                  -9.673
REMARK INTRA:                  -2.596
REMARK UNBOUND:                -2.488
REMARK SMILES CCCCCCCCCCCCCCCCCCCCCCCC(=O)[O-]
REMARK SMILES IDX 13 1 14 2 15 3 16 4 17 5 18 6 19 7 20 8 21 9 22 10 23 11
REMARK SMILES IDX 24 12 25 13 26 14 12 15 11 16 10 17 9 18 8 19 7 20 6 21 5 22
REMARK SMILES IDX 4 23 3 24 2 25 1 26
REMARK H PARENT
REMARK Flexibility Score: inf
ROOT
ATOM      1  C   UNL     1     -11.072   3.558   7.643  1.00  0.00     0.000 C 
ENDROOT
BRANCH   1   2
ATOM      2  C   UNL     1     -12.061   4.003   8.734  1.00  0.00     0.000 C 
BRANCH   2   3
ATOM      3  C   UNL     1     -12.133   5.532   8.882  1.00  0.00     0.000 C 
BRANCH   3   4
ATOM      4  C   UNL     1     -13.527   6.143   8.640  1.00  0.00     0.000 C 
BRANCH   4   5
ATOM      5  C   UNL     1     -13.505   7.413   7.765  1.00  0.00     0.000 C 
BRANCH   5   6
ATOM      6  C   UNL     1     -13.309   7.092   6.273  1.00  0.00     0.000 C 
BRANCH   6   7
ATOM      7  C   UNL     1     -14.253   7.897   5.365  1.00  0.00     0.000 C 
BRANCH   7   8
ATOM      8  C   UNL     1     -14.372   9.368   5.792  1.00  0.00     0.000 C 
BRANCH   8   9
ATOM      9  C   UNL     1     -14.816  10.249   4.613  1.00  0.00     0.000 C 
BRANCH   9  10
ATOM     10  C   UNL     1     -13.643  10.994   3.955  1.00  0.00     0.006 C 
BRANCH  10  11
ATOM     11  C   UNL     1     -13.479  10.653   2.468  1.00  0.00     0.053 C 
BRANCH  11  12
ATOM     12  C   UNL     1     -12.251  11.299   1.903  1.00  0.00     0.041 C 
ATOM     13  O   UNL     1     -11.542  12.052   2.622  1.00  0.00    -0.550 OA
ATOM     14  O   UNL     1     -11.864  11.038   0.593  1.00  0.00    -0.550 OA
ENDBRANCH  11  12
ENDBRANCH  10  11
ENDBRANCH   9  10
ENDBRANCH   8   9
ENDBRANCH   7   8
ENDBRANCH   6   7
ENDBRANCH   5   6
ENDBRANCH   4   5
ENDBRANCH   3   4
ENDBRANCH   2   3
ENDBRANCH   1   2
BRANCH   1  15
ATOM     15  C   UNL     1     -11.679   3.618   6.233  1.00  0.00     0.000 C 
BRANCH  15  16
ATOM     16  C   UNL     1     -11.046   4.713   5.357  1.00  0.00     0.000 C 
BRANCH  16  17
ATOM     17  C   UNL     1      -9.917   5.475   6.072  1.00  0.00     0.000 C 
BRANCH  17  18
ATOM     18  C   UNL     1      -9.172   6.499   5.195  1.00  0.00    -0.000 C 
BRANCH  18  19
ATOM     19  C   UNL     1      -8.917   7.831   5.913  1.00  0.00    -0.000 C 
BRANCH  19  20
ATOM     20  C   UNL     1     -10.183   8.696   5.926  1.00  0.00    -0.000 C 
BRANCH  20  21
ATOM     21  C   UNL     1      -9.857  10.158   5.583  1.00  0.00    -0.000 C 
BRANCH  21  22
ATOM     22  C   UNL     1      -8.347  10.447   5.595  1.00  0.00    -0.000 C 
BRANCH  22  23
ATOM     23  C   UNL     1      -7.966  11.576   6.565  1.00  0.00    -0.000 C 
BRANCH  23  24
ATOM     24  C   UNL     1      -6.707  11.210   7.364  1.00  0.00    -0.000 C 
BRANCH  24  25
ATOM     25  C   UNL     1      -5.965   9.999   6.776  1.00  0.00    -0.003 C 
ATOM     26  C   UNL     1      -4.821  10.402   5.845  1.00  0.00     0.004 C 
ENDBRANCH  24  25
ENDBRANCH  23  24
ENDBRANCH  22  23
ENDBRANCH  21  22
ENDBRANCH  20  21
ENDBRANCH  19  20
ENDBRANCH  18  19
ENDBRANCH  17  18
ENDBRANCH  16  17
ENDBRANCH  15  16
ENDBRANCH   1  15
TORSDOF 22
ENDMDL
MODEL 5
REMARK VINA RESULT:    -4.191     16.099     19.113
REMARK INTER + INTRA:         -12.070
REMARK INTER:                  -9.490
REMARK INTRA:                  -2.580
REMARK UNBOUND:                -2.488
REMARK SMILES CCCCCCCCCCCCCCCCCCCCCCCC(=O)[O-]
REMARK SMILES IDX 13 1 14 2 15 3 16 4 17 5 18 6 19 7 20 8 21 9 22 10 23 11
REMARK SMILES IDX 24 12 25 13 26 14 12 15 11 16 10 17 9 18 8 19 7 20 6 21 5 22
REMARK SMILES IDX 4 23 3 24 2 25 1 26
REMARK H PARENT
REMARK Flexibility Score: inf
ROOT
ATOM      1  C   UNL     1     -13.237   4.921   8.395  1.00  0.00     0.000 C 
ENDROOT
BRANCH   1   2
ATOM      2  C   UNL     1     -12.936   6.372   8.807  1.00  0.00     0.000 C 
BRANCH   2   3
ATOM      3  C   UNL     1     -13.952   7.374   8.232  1.00  0.00     0.000 C 
BRANCH   3   4
ATOM      4  C   UNL     1     -13.534   8.854   8.338  1.00  0.00     0.000 C 
BRANCH   4   5
ATOM      5  C   UNL     1     -14.136   9.749   7.234  1.00  0.00     0.000 C 
BRANCH   5   6
ATOM      6  C   UNL     1     -13.296   9.731   5.945  1.00  0.00     0.000 C 
BRANCH   6   7
ATOM      7  C   UNL     1     -11.787   9.641   6.222  1.00  0.00     0.000 C 
BRANCH   7   8
ATOM      8  C   UNL     1     -11.067  10.981   6.015  1.00  0.00     0.000 C 
BRANCH   8   9
ATOM      9  C   UNL     1     -11.901  11.925   5.134  1.00  0.00     0.000 C 
BRANCH   9  10
ATOM     10  C   UNL     1     -11.465  11.900   3.660  1.00  0.00     0.006 C 
BRANCH  10  11
ATOM     11  C   UNL     1     -12.635  12.110   2.689  1.00  0.00     0.053 C 
BRANCH  11  12
ATOM     12  C   UNL     1     -12.672  11.027   1.654  1.00  0.00     0.041 C 
ATOM     13  O   UNL     1     -13.565  10.139   1.696  1.00  0.00    -0.550 OA
ATOM     14  O   UNL     1     -11.745  11.020   0.618  1.00  0.00    -0.550 OA
ENDBRANCH  11  12
ENDBRANCH  10  11
ENDBRANCH   9  10
ENDBRANCH   8   9
ENDBRANCH   7   8
ENDBRANCH   6   7
ENDBRANCH   5   6
ENDBRANCH   4   5
ENDBRANCH   3   4
ENDBRANCH   2   3
ENDBRANCH   1   2
BRANCH   1  15
ATOM     15  C   UNL     1     -12.140   3.941   8.836  1.00  0.00     0.000 C 
BRANCH  15  16
ATOM     16  C   UNL     1     -10.915   3.956   7.904  1.00  0.00     0.000 C 
BRANCH  16  17
ATOM     17  C   UNL     1     -11.295   3.929   6.413  1.00  0.00     0.000 C 
BRANCH  17  18
ATOM     18  C   UNL     1     -10.600   4.998   5.550  1.00  0.00    -0.000 C 
BRANCH  18  19
ATOM     19  C   UNL     1     -10.596   6.387   6.203  1.00  0.00    -0.000 C 
BRANCH  19  20
ATOM     20  C   UNL     1      -9.167   6.830   6.538  1.00  0.00    -0.000 C 
BRANCH  20  21
ATOM     21  C   UNL     1      -8.693   7.935   5.581  1.00  0.00    -0.000 C 
BRANCH  21  22
ATOM     22  C   UNL     1      -7.876   9.026   6.294  1.00  0.00    -0.000 C 
BRANCH  22  23
ATOM     23  C   UNL     1      -7.453  10.162   5.351  1.00  0.00    -0.000 C 
BRANCH  23  24
ATOM     24  C   UNL     1      -6.872  11.343   6.143  1.00  0.00    -0.000 C 
BRANCH  24  25
ATOM     25  C   UNL     1      -6.242  10.908   7.476  1.00  0.00    -0.003 C 
ATOM     26  C   UNL     1      -5.653  12.080   8.261  1.00  0.00     0.004 C 
ENDBRANCH  24  25
ENDBRANCH  23  24
ENDBRANCH  22  23
ENDBRANCH  21  22
ENDBRANCH  20  21
ENDBRANCH  19  20
ENDBRANCH  18  19
ENDBRANCH  17  18
ENDBRANCH  16  17
ENDBRANCH  15  16
ENDBRANCH   1  15
TORSDOF 22
ENDMDL
MODEL 6
REMARK VINA RESULT:    -4.126     17.082     19.503
REMARK INTER + INTRA:         -11.919
REMARK INTER:                  -8.829
REMARK INTRA:                  -3.090
REMARK UNBOUND:                -2.488
REMARK SMILES CCCCCCCCCCCCCCCCCCCCCCCC(=O)[O-]
REMARK SMILES IDX 13 1 14 2 15 3 16 4 17 5 18 6 19 7 20 8 21 9 22 10 23 11
REMARK SMILES IDX 24 12 25 13 26 14 12 15 11 16 10 17 9 18 8 19 7 20 6 21 5 22
REMARK SMILES IDX 4 23 3 24 2 25 1 26
REMARK H PARENT
REMARK Flexibility Score: inf
ROOT
ATOM      1  C   UNL     1      -9.547   5.125   6.577  1.00  0.00     0.000 C 
ENDROOT
BRANCH   1   2
ATOM      2  C   UNL     1      -9.633   6.236   5.517  1.00  0.00     0.000 C 
BRANCH   2   3
ATOM      3  C   UNL     1      -9.815   7.633   6.136  1.00  0.00     0.000 C 
BRANCH   3   4
ATOM      4  C   UNL     1      -8.546   8.506   6.153  1.00  0.00     0.000 C 
BRANCH   4   5
ATOM      5  C   UNL     1      -8.623   9.732   5.219  1.00  0.00     0.000 C 
BRANCH   5   6
ATOM      6  C   UNL     1      -9.924  10.531   5.411  1.00  0.00     0.000 C 
BRANCH   6   7
ATOM      7  C   UNL     1      -9.933  11.343   6.716  1.00  0.00     0.000 C 
BRANCH   7   8
ATOM      8  C   UNL     1      -8.629  12.125   6.935  1.00  0.00     0.000 C 
BRANCH   8   9
ATOM      9  C   UNL     1      -7.995  11.769   8.289  1.00  0.00     0.000 C 
BRANCH   9  10
ATOM     10  C   UNL     1      -6.458  11.782   8.246  1.00  0.00     0.006 C 
BRANCH  10  11
ATOM     11  C   UNL     1      -5.904  12.049   6.839  1.00  0.00     0.053 C 
BRANCH  11  12
ATOM     12  C   UNL     1      -5.158  10.856   6.323  1.00  0.00     0.041 C 
ATOM     13  O   UNL     1      -5.388   9.711   6.796  1.00  0.00    -0.550 OA
ATOM     14  O   UNL     1      -4.238  11.001   5.291  1.00  0.00    -0.550 OA
ENDBRANCH  11  12
ENDBRANCH  10  11
ENDBRANCH   9  10
ENDBRANCH   8   9
ENDBRANCH   7   8
ENDBRANCH   6   7
ENDBRANCH   5   6
ENDBRANCH   4   5
ENDBRANCH   3   4
ENDBRANCH   2   3
ENDBRANCH   1   2
BRANCH   1  15
ATOM     15  C   UNL     1      -9.876   5.627   7.991  1.00  0.00     0.000 C 
BRANCH  15  16
ATOM     16  C   UNL     1     -10.712   4.622   8.803  1.00  0.00     0.000 C 
BRANCH  16  17
ATOM     17  C   UNL     1     -12.021   4.225   8.098  1.00  0.00     0.000 C 
BRANCH  17  18
ATOM     18  C   UNL     1     -13.235   5.105   8.448  1.00  0.00    -0.000 C 
BRANCH  18  19
ATOM     19  C   UNL     1     -13.255   6.434   7.679  1.00  0.00    -0.000 C 
BRANCH  19  20
ATOM     20  C   UNL     1     -13.272   6.189   6.166  1.00  0.00    -0.000 C 
BRANCH  20  21
ATOM     21  C   UNL     1     -13.969   7.343   5.427  1.00  0.00    -0.000 C 
BRANCH  21  22
ATOM     22  C   UNL     1     -13.271   8.695   5.648  1.00  0.00    -0.000 C 
BRANCH  22  23
ATOM     23  C   UNL     1     -14.261   9.836   5.928  1.00  0.00    -0.000 C 
BRANCH  23  24
ATOM     24  C   UNL     1     -14.844  10.389   4.619  1.00  0.00    -0.000 C 
BRANCH  24  25
ATOM     25  C   UNL     1     -13.769  10.995   3.704  1.00  0.00    -0.003 C 
ATOM     26  C   UNL     1     -13.705  10.314   2.336  1.00  0.00     0.004 C 
ENDBRANCH  24  25
ENDBRANCH  23  24
ENDBRANCH  22  23
ENDBRANCH  21  22
ENDBRANCH  20  21
ENDBRANCH  19  20
ENDBRANCH  18  19
ENDBRANCH  17  18
ENDBRANCH  16  17
ENDBRANCH  15  16
ENDBRANCH   1  15
TORSDOF 22
ENDMDL
MODEL 7
REMARK VINA RESULT:    -4.109     16.423     19.029
REMARK INTER + INTRA:         -11.881
REMARK INTER:                  -8.402
REMARK INTRA:                  -3.478
REMARK UNBOUND:                -2.488
REMARK SMILES CCCCCCCCCCCCCCCCCCCCCCCC(=O)[O-]
REMARK SMILES IDX 13 1 14 2 15 3 16 4 17 5 18 6 19 7 20 8 21 9 22 10 23 11
REMARK SMILES IDX 24 12 25 13 26 14 12 15 11 16 10 17 9 18 8 19 7 20 6 21 5 22
REMARK SMILES IDX 4 23 3 24 2 25 1 26
REMARK H PARENT
REMARK Flexibility Score: inf
ROOT
ATOM      1  C   UNL     1     -14.199   8.503   4.979  1.00  0.00     0.000 C 
ENDROOT
BRANCH   1   2
ATOM      2  C   UNL     1     -14.613   9.942   4.628  1.00  0.00     0.000 C 
BRANCH   2   3
ATOM      3  C   UNL     1     -13.898  10.476   3.374  1.00  0.00     0.000 C 
BRANCH   3   4
ATOM      4  C   UNL     1     -13.156  11.812   3.570  1.00  0.00     0.000 C 
BRANCH   4   5
ATOM      5  C   UNL     1     -11.776  11.663   4.245  1.00  0.00     0.000 C 
BRANCH   5   6
ATOM      6  C   UNL     1     -11.838  11.917   5.762  1.00  0.00     0.000 C 
BRANCH   6   7
ATOM      7  C   UNL     1     -10.640  11.313   6.512  1.00  0.00     0.000 C 
BRANCH   7   8
ATOM      8  C   UNL     1      -9.878  10.277   5.673  1.00  0.00     0.000 C 
BRANCH   8   9
ATOM      9  C   UNL     1      -8.434  10.733   5.413  1.00  0.00     0.000 C 
BRANCH   9  10
ATOM     10  C   UNL     1      -7.419   9.584   5.528  1.00  0.00     0.006 C 
BRANCH  10  11
ATOM     11  C   UNL     1      -6.616   9.627   6.835  1.00  0.00     0.053 C 
BRANCH  11  12
ATOM     12  C   UNL     1      -5.540  10.668   6.769  1.00  0.00     0.041 C 
ATOM     13  O   UNL     1      -5.422  11.518   7.691  1.00  0.00    -0.550 OA
ATOM     14  O   UNL     1      -4.641  10.676   5.708  1.00  0.00    -0.550 OA
ENDBRANCH  11  12
ENDBRANCH  10  11
ENDBRANCH   9  10
ENDBRANCH   8   9
ENDBRANCH   7   8
ENDBRANCH   6   7
ENDBRANCH   5   6
ENDBRANCH   4   5
ENDBRANCH   3   4
ENDBRANCH   2   3
ENDBRANCH   1   2
BRANCH   1  15
ATOM     15  C   UNL     1     -13.167   8.444   6.115  1.00  0.00     0.000 C 
BRANCH  15  16
ATOM     16  C   UNL     1     -13.689   9.054   7.428  1.00  0.00     0.000 C 
BRANCH  16  17
ATOM     17  C   UNL     1     -13.313   8.220   8.667  1.00  0.00     0.000 C 
BRANCH  17  18
ATOM     18  C   UNL     1     -14.126   6.925   8.844  1.00  0.00    -0.000 C 
BRANCH  18  19
ATOM     19  C   UNL     1     -13.247   5.668   8.908  1.00  0.00    -0.000 C 
BRANCH  19  20
ATOM     20  C   UNL     1     -13.074   5.051   7.516  1.00  0.00    -0.000 C 
BRANCH  20  21
ATOM     21  C   UNL     1     -12.158   3.818   7.567  1.00  0.00    -0.000 C 
BRANCH  21  22
ATOM     22  C   UNL     1     -11.475   3.531   6.220  1.00  0.00    -0.000 C 
BRANCH  22  23
ATOM     23  C   UNL     1     -11.389   4.773   5.321  1.00  0.00    -0.000 C 
BRANCH  23  24
ATOM     24  C   UNL     1      -9.931   5.214   5.133  1.00  0.00    -0.000 C 
BRANCH  24  25
ATOM     25  C   UNL     1      -9.629   6.562   5.807  1.00  0.00    -0.003 C 
ATOM     26  C   UNL     1      -9.561   6.459   7.331  1.00  0.00     0.004 C 
ENDBRANCH  24  25
ENDBRANCH  23  24
ENDBRANCH  22  23
ENDBRANCH  21  22
ENDBRANCH  20  21
ENDBRANCH  19  20
ENDBRANCH  18  19
ENDBRANCH  17  18
ENDBRANCH  16  17
ENDBRANCH  15  16
ENDBRANCH   1  15
TORSDOF 22
ENDMDL
MODEL 8
REMARK VINA RESULT:    -4.103     15.470     18.817
REMARK INTER + INTRA:         -11.867
REMARK INTER:                  -8.041
REMARK INTRA:                  -3.826
REMARK UNBOUND:                -2.488
REMARK SMILES CCCCCCCCCCCCCCCCCCCCCCCC(=O)[O-]
REMARK SMILES IDX 13 1 14 2 15 3 16 4 17 5 18 6 19 7 20 8 21 9 22 10 23 11
REMARK SMILES IDX 24 12 25 13 26 14 12 15 11 16 10 17 9 18 8 19 7 20 6 21 5 22
REMARK SMILES IDX 4 23 3 24 2 25 1 26
REMARK H PARENT
REMARK Flexibility Score: inf
ROOT
ATOM      1  C   UNL     1     -11.074   3.824   7.726  1.00  0.00     0.000 C 
ENDROOT
BRANCH   1   2
ATOM      2  C   UNL     1     -10.262   5.013   7.184  1.00  0.00     0.000 C 
BRANCH   2   3
ATOM      3  C   UNL     1     -10.664   5.401   5.751  1.00  0.00     0.000 C 
BRANCH   3   4
ATOM      4  C   UNL     1     -11.587   4.392   5.040  1.00  0.00     0.000 C 
BRANCH   4   5
ATOM      5  C   UNL     1     -12.898   5.013   4.516  1.00  0.00     0.000 C 
BRANCH   5   6
ATOM      6  C   UNL     1     -13.511   6.013   5.513  1.00  0.00     0.000 C 
BRANCH   6   7
ATOM      7  C   UNL     1     -14.371   7.085   4.824  1.00  0.00     0.000 C 
BRANCH   7   8
ATOM      8  C   UNL     1     -13.680   8.456   4.775  1.00  0.00     0.000 C 
BRANCH   8   9
ATOM      9  C   UNL     1     -14.707   9.583   4.587  1.00  0.00     0.000 C 
BRANCH   9  10
ATOM     10  C   UNL     1     -14.153  10.759   3.766  1.00  0.00     0.006 C 
BRANCH  10  11
ATOM     11  C   UNL     1     -13.724  10.347   2.351  1.00  0.00     0.053 C 
BRANCH  11  12
ATOM     12  C   UNL     1     -12.478  11.071   1.939  1.00  0.00     0.041 C 
ATOM     13  O   UNL     1     -11.908  10.783   0.853  1.00  0.00    -0.550 OA
ATOM     14  O   UNL     1     -11.968  12.092   2.733  1.00  0.00    -0.550 OA
ENDBRANCH  11  12
ENDBRANCH  10  11
ENDBRANCH   9  10
ENDBRANCH   8   9
ENDBRANCH   7   8
ENDBRANCH   6   7
ENDBRANCH   5   6
ENDBRANCH   4   5
ENDBRANCH   3   4
ENDBRANCH   2   3
ENDBRANCH   1   2
BRANCH   1  15
ATOM     15  C   UNL     1     -12.121   4.246   8.767  1.00  0.00     0.000 C 
BRANCH  15  16
ATOM     16  C   UNL     1     -12.038   5.741   9.125  1.00  0.00     0.000 C 
BRANCH  16  17
ATOM     17  C   UNL     1     -13.373   6.481   8.922  1.00  0.00     0.000 C 
BRANCH  17  18
ATOM     18  C   UNL     1     -13.237   7.943   8.460  1.00  0.00    -0.000 C 
BRANCH  18  19
ATOM     19  C   UNL     1     -14.591   8.644   8.281  1.00  0.00    -0.000 C 
BRANCH  19  20
ATOM     20  C   UNL     1     -14.577  10.034   8.928  1.00  0.00    -0.000 C 
BRANCH  20  21
ATOM     21  C   UNL     1     -13.299  10.803   8.558  1.00  0.00    -0.000 C 
BRANCH  21  22
ATOM     22  C   UNL     1     -13.501  11.746   7.361  1.00  0.00    -0.000 C 
BRANCH  22  23
ATOM     23  C   UNL     1     -12.239  11.886   6.496  1.00  0.00    -0.000 C 
BRANCH  23  24
ATOM     24  C   UNL     1     -11.351  10.639   6.616  1.00  0.00    -0.000 C 
BRANCH  24  25
ATOM     25  C   UNL     1     -10.463  10.425   5.380  1.00  0.00    -0.003 C 
ATOM     26  C   UNL     1      -9.060   9.935   5.739  1.00  0.00     0.004 C 
ENDBRANCH  24  25
ENDBRANCH  23  24
ENDBRANCH  22  23
ENDBRANCH  21  22
ENDBRANCH  20  21
ENDBRANCH  19  20
ENDBRANCH  18  19
ENDBRANCH  17  18
ENDBRANCH  16  17
ENDBRANCH  15  16
ENDBRANCH   1  15
TORSDOF 22
ENDMDL
MODEL 9
REMARK VINA RESULT:    -3.568      3.287      8.526
REMARK INTER + INTRA:         -10.645
REMARK INTER:                  -8.689
REMARK INTRA:                  -1.956
REMARK UNBOUND:                -2.488
REMARK SMILES CCCCCCCCCCCCCCCCCCCCCCCC(=O)[O-]
REMARK SMILES IDX 13 1 14 2 15 3 16 4 17 5 18 6 19 7 20 8 21 9 22 10 23 11
REMARK SMILES IDX 24 12 25 13 26 14 12 15 11 16 10 17 9 18 8 19 7 20 6 21 5 22
REMARK SMILES IDX 4 23 3 24 2 25 1 26
REMARK H PARENT
REMARK Flexibility Score: inf
ROOT
ATOM      1  C   UNL     1     -10.674  -2.235  -8.682  1.00  0.00     0.000 C 
ENDROOT
BRANCH   1   2
ATOM      2  C   UNL     1      -9.606  -3.342  -8.713  1.00  0.00     0.000 C 
BRANCH   2   3
ATOM      3  C   UNL     1     -10.021  -4.541  -9.582  1.00  0.00     0.000 C 
BRANCH   3   4
ATOM      4  C   UNL     1     -10.321  -5.835  -8.801  1.00  0.00     0.000 C 
BRANCH   4   5
ATOM      5  C   UNL     1     -11.712  -6.433  -9.100  1.00  0.00     0.000 C 
BRANCH   5   6
ATOM      6  C   UNL     1     -12.855  -5.486  -8.690  1.00  0.00     0.000 C 
BRANCH   6   7
ATOM      7  C   UNL     1     -14.242  -6.128  -8.855  1.00  0.00     0.000 C 
BRANCH   7   8
ATOM      8  C   UNL     1     -14.502  -7.244  -7.832  1.00  0.00     0.000 C 
BRANCH   8   9
ATOM      9  C   UNL     1     -14.791  -6.660  -6.440  1.00  0.00     0.000 C 
BRANCH   9  10
ATOM     10  C   UNL     1     -14.111  -7.451  -5.312  1.00  0.00     0.006 C 
BRANCH  10  11
ATOM     11  C   UNL     1     -12.807  -8.125  -5.759  1.00  0.00     0.053 C 
BRANCH  11  12
ATOM     12  C   UNL     1     -11.634  -7.217  -5.544  1.00  0.00     0.041 C 
ATOM     13  O   UNL     1     -11.797  -6.087  -5.011  1.00  0.00    -0.550 OA
ATOM     14  O   UNL     1     -10.355  -7.633  -5.894  1.00  0.00    -0.550 OA
ENDBRANCH  11  12
ENDBRANCH  10  11
ENDBRANCH   9  10
ENDBRANCH   8   9
ENDBRANCH   7   8
ENDBRANCH   6   7
ENDBRANCH   5   6
ENDBRANCH   4   5
ENDBRANCH   3   4
ENDBRANCH   2   3
ENDBRANCH   1   2
BRANCH   1  15
ATOM     15  C   UNL     1     -10.615  -1.319  -9.912  1.00  0.00     0.000 C 
BRANCH  15  16
ATOM     16  C   UNL     1     -12.007  -0.861 -10.384  1.00  0.00     0.000 C 
BRANCH  16  17
ATOM     17  C   UNL     1     -13.134  -1.807  -9.932  1.00  0.00     0.000 C 
BRANCH  17  18
ATOM     18  C   UNL     1     -14.542  -1.409 -10.410  1.00  0.00    -0.000 C 
BRANCH  18  19
ATOM     19  C   UNL     1     -15.125  -0.218  -9.636  1.00  0.00    -0.000 C 
BRANCH  19  20
ATOM     20  C   UNL     1     -15.108   1.053 -10.494  1.00  0.00    -0.000 C 
BRANCH  20  21
ATOM     21  C   UNL     1     -14.321   2.176  -9.801  1.00  0.00    -0.000 C 
BRANCH  21  22
ATOM     22  C   UNL     1     -14.755   2.390  -8.341  1.00  0.00    -0.000 C 
BRANCH  22  23
ATOM     23  C   UNL     1     -14.078   3.607  -7.693  1.00  0.00    -0.000 C 
BRANCH  23  24
ATOM     24  C   UNL     1     -13.535   4.566  -8.762  1.00  0.00    -0.000 C 
BRANCH  24  25
ATOM     25  C   UNL     1     -12.080   4.258  -9.148  1.00  0.00    -0.003 C 
ATOM     26  C   UNL     1     -11.333   3.480  -8.065  1.00  0.00     0.004 C 
ENDBRANCH  24  25
ENDBRANCH  23  24
ENDBRANCH  22  23
ENDBRANCH  21  22
ENDBRANCH  20  21
ENDBRANCH  19  20
ENDBRANCH  18  19
ENDBRANCH  17  18
ENDBRANCH  16  17
ENDBRANCH  15  16
ENDBRANCH   1  15
TORSDOF 22
ENDMDL
