MODEL 1
REMARK VINA RESULT:    -4.188      0.000      0.000
REMARK INTER + INTRA:         -12.362
REMARK INTER:                  -9.084
REMARK INTRA:                  -3.278
REMARK UNBOUND:                -3.278
REMARK SMILES CCCCCCCCCCCCCCCCCCCCCC(=O)[O-]
REMARK SMILES IDX 12 1 11 2 10 3 9 4 8 5 7 6 6 7 5 8 4 9 3 10 2 11 1 12 13 13
REMARK SMILES IDX 14 14 15 15 16 16 17 17 18 18 19 19 20 20 21 21 22 22 23 23
REMARK SMILES IDX 24 24
REMARK H PARENT
REMARK Flexibility Score: inf
ROOT
ATOM      1  C   UNL     1     -24.093  -7.946  -3.577  1.00  0.00     0.000 C 
ENDROOT
BRANCH   1   2
ATOM      2  C   UNL     1     -24.522  -8.942  -4.673  1.00  0.00     0.000 C 
BRANCH   2   3
ATOM      3  C   UNL     1     -24.656  -8.308  -6.076  1.00  0.00     0.000 C 
BRANCH   3   4
ATOM      4  C   UNL     1     -23.661  -7.157  -6.303  1.00  0.00    -0.000 C 
BRANCH   4   5
ATOM      5  C   UNL     1     -22.324  -7.631  -6.896  1.00  0.00    -0.000 C 
BRANCH   5   6
ATOM      6  C   UNL     1     -22.473  -8.192  -8.321  1.00  0.00    -0.000 C 
BRANCH   6   7
ATOM      7  C   UNL     1     -22.285  -9.719  -8.386  1.00  0.00    -0.000 C 
BRANCH   7   8
ATOM      8  C   UNL     1     -21.269 -10.295  -7.383  1.00  0.00    -0.000 C 
BRANCH   8   9
ATOM      9  C   UNL     1     -21.899 -11.291  -6.393  1.00  0.00    -0.000 C 
BRANCH   9  10
ATOM     10  C   UNL     1     -21.523 -10.988  -4.934  1.00  0.00    -0.000 C 
BRANCH  10  11
ATOM     11  C   UNL     1     -20.272 -10.104  -4.823  1.00  0.00    -0.003 C 
ATOM     12  C   UNL     1     -20.515  -8.920  -3.893  1.00  0.00     0.004 C 
ENDBRANCH  10  11
ENDBRANCH   9  10
ENDBRANCH   8   9
ENDBRANCH   7   8
ENDBRANCH   6   7
ENDBRANCH   5   6
ENDBRANCH   4   5
ENDBRANCH   3   4
ENDBRANCH   2   3
ENDBRANCH   1   2
BRANCH   1  13
ATOM     13  C   UNL     1     -25.250  -7.219  -2.867  1.00  0.00     0.000 C 
BRANCH  13  14
ATOM     14  C   UNL     1     -25.576  -5.813  -3.413  1.00  0.00     0.000 C 
BRANCH  14  15
ATOM     15  C   UNL     1     -26.901  -5.698  -4.188  1.00  0.00     0.000 C 
BRANCH  15  16
ATOM     16  C   UNL     1     -26.710  -5.178  -5.623  1.00  0.00     0.000 C 
BRANCH  16  17
ATOM     17  C   UNL     1     -25.665  -4.053  -5.710  1.00  0.00     0.000 C 
BRANCH  17  18
ATOM     18  C   UNL     1     -26.270  -2.656  -5.485  1.00  0.00     0.000 C 
BRANCH  18  19
ATOM     19  C   UNL     1     -25.211  -1.601  -5.125  1.00  0.00     0.000 C 
BRANCH  19  20
ATOM     20  C   UNL     1     -24.670  -1.767  -3.697  1.00  0.00     0.006 C 
BRANCH  20  21
ATOM     21  C   UNL     1     -25.813  -1.977  -2.698  1.00  0.00     0.053 C 
BRANCH  21  22
ATOM     22  C   UNL     1     -25.283  -2.171  -1.310  1.00  0.00     0.041 C 
ATOM     23  O   UNL     1     -25.996  -2.729  -0.433  1.00  0.00    -0.550 OA
ATOM     24  O   UNL     1     -24.008  -1.726  -0.978  1.00  0.00    -0.550 OA
ENDBRANCH  21  22
ENDBRANCH  20  21
ENDBRANCH  19  20
ENDBRANCH  18  19
ENDBRANCH  17  18
ENDBRANCH  16  17
ENDBRANCH  15  16
ENDBRANCH  14  15
ENDBRANCH  13  14
ENDBRANCH   1  13
TORSDOF 20
ENDMDL
MODEL 2
REMARK VINA RESULT:    -4.183      2.765      5.361
REMARK INTER + INTRA:         -12.353
REMARK INTER:                  -8.600
REMARK INTRA:                  -3.753
REMARK UNBOUND:                -3.278
REMARK SMILES CCCCCCCCCCCCCCCCCCCCCC(=O)[O-]
REMARK SMILES IDX 12 1 11 2 10 3 9 4 8 5 7 6 6 7 5 8 4 9 3 10 2 11 1 12 13 13
REMARK SMILES IDX 14 14 15 15 16 16 17 17 18 18 19 19 20 20 21 21 22 22 23 23
REMARK SMILES IDX 24 24
REMARK H PARENT
REMARK Flexibility Score: inf
ROOT
ATOM      1  C   UNL     1     -21.406 -10.064  -7.552  1.00  0.00     0.000 C 
ENDROOT
BRANCH   1   2
ATOM      2  C   UNL     1     -21.500 -11.375  -6.746  1.00  0.00     0.000 C 
BRANCH   2   3
ATOM      3  C   UNL     1     -21.005 -11.251  -5.288  1.00  0.00     0.000 C 
BRANCH   3   4
ATOM      4  C   UNL     1     -19.896 -10.196  -5.127  1.00  0.00    -0.000 C 
BRANCH   4   5
ATOM      5  C   UNL     1     -18.508 -10.819  -4.908  1.00  0.00    -0.000 C 
BRANCH   5   6
ATOM      6  C   UNL     1     -17.438 -10.227  -5.841  1.00  0.00    -0.000 C 
BRANCH   6   7
ATOM      7  C   UNL     1     -17.955  -9.995  -7.274  1.00  0.00    -0.000 C 
BRANCH   7   8
ATOM      8  C   UNL     1     -17.929  -8.530  -7.748  1.00  0.00    -0.000 C 
BRANCH   8   9
ATOM      9  C   UNL     1     -17.545  -7.544  -6.630  1.00  0.00    -0.000 C 
BRANCH   9  10
ATOM     10  C   UNL     1     -18.510  -6.351  -6.542  1.00  0.00    -0.000 C 
BRANCH  10  11
ATOM     11  C   UNL     1     -19.978  -6.792  -6.432  1.00  0.00    -0.003 C 
ATOM     12  C   UNL     1     -20.860  -6.017  -7.405  1.00  0.00     0.004 C 
ENDBRANCH  10  11
ENDBRANCH   9  10
ENDBRANCH   8   9
ENDBRANCH   7   8
ENDBRANCH   6   7
ENDBRANCH   5   6
ENDBRANCH   4   5
ENDBRANCH   3   4
ENDBRANCH   2   3
ENDBRANCH   1   2
BRANCH   1  13
ATOM     13  C   UNL     1     -22.759  -9.444  -7.949  1.00  0.00     0.000 C 
BRANCH  13  14
ATOM     14  C   UNL     1     -23.438  -8.593  -6.855  1.00  0.00     0.000 C 
BRANCH  14  15
ATOM     15  C   UNL     1     -24.534  -9.312  -6.046  1.00  0.00     0.000 C 
BRANCH  15  16
ATOM     16  C   UNL     1     -24.156  -9.503  -4.567  1.00  0.00     0.000 C 
BRANCH  16  17
ATOM     17  C   UNL     1     -23.210  -8.404  -4.052  1.00  0.00     0.000 C 
BRANCH  17  18
ATOM     18  C   UNL     1     -23.586  -7.901  -2.647  1.00  0.00     0.000 C 
BRANCH  18  19
ATOM     19  C   UNL     1     -25.064  -7.491  -2.539  1.00  0.00     0.000 C 
BRANCH  19  20
ATOM     20  C   UNL     1     -25.367  -6.172  -3.264  1.00  0.00     0.006 C 
BRANCH  20  21
ATOM     21  C   UNL     1     -26.419  -6.377  -4.360  1.00  0.00     0.053 C 
BRANCH  21  22
ATOM     22  C   UNL     1     -25.894  -5.946  -5.695  1.00  0.00     0.041 C 
ATOM     23  O   UNL     1     -24.762  -5.399  -5.783  1.00  0.00    -0.550 OA
ATOM     24  O   UNL     1     -26.657  -6.134  -6.843  1.00  0.00    -0.550 OA
ENDBRANCH  21  22
ENDBRANCH  20  21
ENDBRANCH  19  20
ENDBRANCH  18  19
ENDBRANCH  17  18
ENDBRANCH  16  17
ENDBRANCH  15  16
ENDBRANCH  14  15
ENDBRANCH  13  14
ENDBRANCH   1  13
TORSDOF 20
ENDMDL
MODEL 3
REMARK VINA RESULT:    -4.178      2.027      3.724
REMARK INTER + INTRA:         -12.341
REMARK INTER:                  -8.691
REMARK INTRA:                  -3.650
REMARK UNBOUND:                -3.278
REMARK SMILES CCCCCCCCCCCCCCCCCCCCCC(=O)[O-]
REMARK SMILES IDX 12 1 11 2 10 3 9 4 8 5 7 6 6 7 5 8 4 9 3 10 2 11 1 12 13 13
REMARK SMILES IDX 14 14 15 15 16 16 17 17 18 18 19 19 20 20 21 21 22 22 23 23
REMARK SMILES IDX 24 24
REMARK H PARENT
REMARK Flexibility Score: inf
ROOT
ATOM      1  C   UNL     1     -22.618  -6.543  -6.014  1.00  0.00     0.000 C 
ENDROOT
BRANCH   1   2
ATOM      2  C   UNL     1     -22.906  -7.579  -7.119  1.00  0.00     0.000 C 
BRANCH   2   3
ATOM      3  C   UNL     1     -24.066  -8.544  -6.785  1.00  0.00     0.000 C 
BRANCH   3   4
ATOM      4  C   UNL     1     -23.571  -9.919  -6.305  1.00  0.00    -0.000 C 
BRANCH   4   5
ATOM      5  C   UNL     1     -22.365 -10.434  -7.108  1.00  0.00    -0.000 C 
BRANCH   5   6
ATOM      6  C   UNL     1     -21.467 -11.377  -6.290  1.00  0.00    -0.000 C 
BRANCH   6   7
ATOM      7  C   UNL     1     -21.292 -10.920  -4.829  1.00  0.00    -0.000 C 
BRANCH   7   8
ATOM      8  C   UNL     1     -19.955 -10.222  -4.519  1.00  0.00    -0.000 C 
BRANCH   8   9
ATOM      9  C   UNL     1     -18.753 -10.891  -5.211  1.00  0.00    -0.000 C 
BRANCH   9  10
ATOM     10  C   UNL     1     -17.908  -9.892  -6.017  1.00  0.00    -0.000 C 
BRANCH  10  11
ATOM     11  C   UNL     1     -18.345  -9.805  -7.486  1.00  0.00    -0.003 C 
ATOM     12  C   UNL     1     -19.184  -8.557  -7.739  1.00  0.00     0.004 C 
ENDBRANCH  10  11
ENDBRANCH   9  10
ENDBRANCH   8   9
ENDBRANCH   7   8
ENDBRANCH   6   7
ENDBRANCH   5   6
ENDBRANCH   4   5
ENDBRANCH   3   4
ENDBRANCH   2   3
ENDBRANCH   1   2
BRANCH   1  13
ATOM     13  C   UNL     1     -21.808  -7.074  -4.817  1.00  0.00     0.000 C 
BRANCH  13  14
ATOM     14  C   UNL     1     -22.648  -7.531  -3.606  1.00  0.00     0.000 C 
BRANCH  14  15
ATOM     15  C   UNL     1     -23.716  -6.530  -3.129  1.00  0.00     0.000 C 
BRANCH  15  16
ATOM     16  C   UNL     1     -25.045  -7.208  -2.755  1.00  0.00     0.000 C 
BRANCH  16  17
ATOM     17  C   UNL     1     -25.961  -7.426  -3.971  1.00  0.00     0.000 C 
BRANCH  17  18
ATOM     18  C   UNL     1     -26.590  -6.120  -4.488  1.00  0.00     0.000 C 
BRANCH  18  19
ATOM     19  C   UNL     1     -26.349  -5.898  -5.990  1.00  0.00     0.000 C 
BRANCH  19  20
ATOM     20  C   UNL     1     -25.752  -4.517  -6.297  1.00  0.00     0.006 C 
BRANCH  20  21
ATOM     21  C   UNL     1     -25.823  -3.603  -5.068  1.00  0.00     0.053 C 
BRANCH  21  22
ATOM     22  C   UNL     1     -25.579  -2.174  -5.447  1.00  0.00     0.041 C 
ATOM     23  O   UNL     1     -24.651  -1.882  -6.247  1.00  0.00    -0.550 OA
ATOM     24  O   UNL     1     -26.366  -1.161  -4.907  1.00  0.00    -0.550 OA
ENDBRANCH  21  22
ENDBRANCH  20  21
ENDBRANCH  19  20
ENDBRANCH  18  19
ENDBRANCH  17  18
ENDBRANCH  16  17
ENDBRANCH  15  16
ENDBRANCH  14  15
ENDBRANCH  13  14
ENDBRANCH   1  13
TORSDOF 20
ENDMDL
MODEL 4
REMARK VINA RESULT:    -4.135      3.212      7.830
REMARK INTER + INTRA:         -12.249
REMARK INTER:                  -9.152
REMARK INTRA:                  -3.097
REMARK UNBOUND:                -3.278
REMARK SMILES CCCCCCCCCCCCCCCCCCCCCC(=O)[O-]
REMARK SMILES IDX 12 1 11 2 10 3 9 4 8 5 7 6 6 7 5 8 4 9 3 10 2 11 1 12 13 13
REMARK SMILES IDX 14 14 15 15 16 16 17 17 18 18 19 19 20 20 21 21 22 22 23 23
REMARK SMILES IDX 24 24
REMARK H PARENT
REMARK Flexibility Score: inf
ROOT
ATOM      1  C   UNL     1     -23.980  -8.371  -3.810  1.00  0.00     0.000 C 
ENDROOT
BRANCH   1   2
ATOM      2  C   UNL     1     -25.002  -7.494  -3.059  1.00  0.00     0.000 C 
BRANCH   2   3
ATOM      3  C   UNL     1     -25.326  -6.162  -3.771  1.00  0.00     0.000 C 
BRANCH   3   4
ATOM      4  C   UNL     1     -26.729  -6.156  -4.404  1.00  0.00    -0.000 C 
BRANCH   4   5
ATOM      5  C   UNL     1     -26.958  -4.955  -5.335  1.00  0.00    -0.000 C 
BRANCH   5   6
ATOM      6  C   UNL     1     -25.676  -4.141  -5.581  1.00  0.00    -0.000 C 
BRANCH   6   7
ATOM      7  C   UNL     1     -25.917  -2.620  -5.559  1.00  0.00    -0.000 C 
BRANCH   7   8
ATOM      8  C   UNL     1     -25.096  -1.844  -4.513  1.00  0.00    -0.000 C 
BRANCH   8   9
ATOM      9  C   UNL     1     -25.894  -1.531  -3.235  1.00  0.00    -0.000 C 
BRANCH   9  10
ATOM     10  C   UNL     1     -25.650  -2.563  -2.122  1.00  0.00    -0.000 C 
BRANCH  10  11
ATOM     11  C   UNL     1     -24.211  -3.102  -2.127  1.00  0.00    -0.003 C 
ATOM     12  C   UNL     1     -23.933  -3.941  -0.884  1.00  0.00     0.004 C 
ENDBRANCH  10  11
ENDBRANCH   9  10
ENDBRANCH   8   9
ENDBRANCH   7   8
ENDBRANCH   6   7
ENDBRANCH   5   6
ENDBRANCH   4   5
ENDBRANCH   3   4
ENDBRANCH   2   3
ENDBRANCH   1   2
BRANCH   1  13
ATOM     13  C   UNL     1     -24.577  -9.276  -4.904  1.00  0.00     0.000 C 
BRANCH  13  14
ATOM     14  C   UNL     1     -24.495  -8.713  -6.339  1.00  0.00     0.000 C 
BRANCH  14  15
ATOM     15  C   UNL     1     -23.408  -7.647  -6.567  1.00  0.00     0.000 C 
BRANCH  15  16
ATOM     16  C   UNL     1     -22.507  -7.961  -7.774  1.00  0.00     0.000 C 
BRANCH  16  17
ATOM     17  C   UNL     1     -22.535  -9.449  -8.161  1.00  0.00     0.000 C 
BRANCH  17  18
ATOM     18  C   UNL     1     -21.347 -10.239  -7.586  1.00  0.00     0.000 C 
BRANCH  18  19
ATOM     19  C   UNL     1     -21.765 -11.213  -6.472  1.00  0.00     0.000 C 
BRANCH  19  20
ATOM     20  C   UNL     1     -20.938 -11.038  -5.190  1.00  0.00     0.006 C 
BRANCH  20  21
ATOM     21  C   UNL     1     -20.308  -9.641  -5.130  1.00  0.00     0.053 C 
BRANCH  21  22
ATOM     22  C   UNL     1     -18.824  -9.730  -4.946  1.00  0.00     0.041 C 
ATOM     23  O   UNL     1     -18.132  -8.680  -4.871  1.00  0.00    -0.550 OA
ATOM     24  O   UNL     1     -18.200 -10.972  -4.869  1.00  0.00    -0.550 OA
ENDBRANCH  21  22
ENDBRANCH  20  21
ENDBRANCH  19  20
ENDBRANCH  18  19
ENDBRANCH  17  18
ENDBRANCH  16  17
ENDBRANCH  15  16
ENDBRANCH  14  15
ENDBRANCH  13  14
ENDBRANCH   1  13
TORSDOF 20
ENDMDL
MODEL 5
REMARK VINA RESULT:    -4.129      3.954      7.372
REMARK INTER + INTRA:         -12.235
REMARK INTER:                  -8.638
REMARK INTRA:                  -3.597
REMARK UNBOUND:                -3.278
REMARK SMILES CCCCCCCCCCCCCCCCCCCCCC(=O)[O-]
REMARK SMILES IDX 12 1 11 2 10 3 9 4 8 5 7 6 6 7 5 8 4 9 3 10 2 11 1 12 13 13
REMARK SMILES IDX 14 14 15 15 16 16 17 17 18 18 19 19 20 20 21 21 22 22 23 23
REMARK SMILES IDX 24 24
REMARK H PARENT
REMARK Flexibility Score: inf
ROOT
ATOM      1  C   UNL     1     -23.580 -10.217  -4.400  1.00  0.00     0.000 C 
ENDROOT
BRANCH   1   2
ATOM      2  C   UNL     1     -24.248  -9.010  -5.087  1.00  0.00     0.000 C 
BRANCH   2   3
ATOM      3  C   UNL     1     -23.272  -7.860  -5.421  1.00  0.00     0.000 C 
BRANCH   3   4
ATOM      4  C   UNL     1     -23.899  -6.801  -6.344  1.00  0.00    -0.000 C 
BRANCH   4   5
ATOM      5  C   UNL     1     -25.393  -7.049  -6.609  1.00  0.00    -0.000 C 
BRANCH   5   6
ATOM      6  C   UNL     1     -26.289  -5.931  -6.048  1.00  0.00    -0.000 C 
BRANCH   6   7
ATOM      7  C   UNL     1     -26.631  -6.128  -4.559  1.00  0.00    -0.000 C 
BRANCH   7   8
ATOM      8  C   UNL     1     -26.014  -5.089  -3.605  1.00  0.00    -0.000 C 
BRANCH   8   9
ATOM      9  C   UNL     1     -24.796  -5.628  -2.834  1.00  0.00    -0.000 C 
BRANCH   9  10
ATOM     10  C   UNL     1     -25.023  -7.051  -2.298  1.00  0.00    -0.000 C 
BRANCH  10  11
ATOM     11  C   UNL     1     -23.773  -7.626  -1.616  1.00  0.00    -0.003 C 
ATOM     12  C   UNL     1     -23.925  -7.629  -0.098  1.00  0.00     0.004 C 
ENDBRANCH  10  11
ENDBRANCH   9  10
ENDBRANCH   8   9
ENDBRANCH   7   8
ENDBRANCH   6   7
ENDBRANCH   5   6
ENDBRANCH   4   5
ENDBRANCH   3   4
ENDBRANCH   2   3
ENDBRANCH   1   2
BRANCH   1  13
ATOM     13  C   UNL     1     -22.075 -10.378  -4.685  1.00  0.00     0.000 C 
BRANCH  13  14
ATOM     14  C   UNL     1     -21.712 -11.501  -5.679  1.00  0.00     0.000 C 
BRANCH  14  15
ATOM     15  C   UNL     1     -21.129 -11.027  -7.024  1.00  0.00     0.000 C 
BRANCH  15  16
ATOM     16  C   UNL     1     -22.162 -10.293  -7.897  1.00  0.00     0.000 C 
BRANCH  16  17
ATOM     17  C   UNL     1     -21.621  -8.973  -8.470  1.00  0.00     0.000 C 
BRANCH  17  18
ATOM     18  C   UNL     1     -20.113  -8.789  -8.227  1.00  0.00     0.000 C 
BRANCH  18  19
ATOM     19  C   UNL     1     -19.800  -7.589  -7.318  1.00  0.00     0.000 C 
BRANCH  19  20
ATOM     20  C   UNL     1     -18.569  -7.824  -6.430  1.00  0.00     0.006 C 
BRANCH  20  21
ATOM     21  C   UNL     1     -18.897  -8.784  -5.281  1.00  0.00     0.053 C 
BRANCH  21  22
ATOM     22  C   UNL     1     -17.848  -9.846  -5.154  1.00  0.00     0.041 C 
ATOM     23  O   UNL     1     -16.628  -9.542  -5.230  1.00  0.00    -0.550 OA
ATOM     24  O   UNL     1     -18.214 -11.175  -4.965  1.00  0.00    -0.550 OA
ENDBRANCH  21  22
ENDBRANCH  20  21
ENDBRANCH  19  20
ENDBRANCH  18  19
ENDBRANCH  17  18
ENDBRANCH  16  17
ENDBRANCH  15  16
ENDBRANCH  14  15
ENDBRANCH  13  14
ENDBRANCH   1  13
TORSDOF 20
ENDMDL
MODEL 6
REMARK VINA RESULT:    -4.089      3.536      7.329
REMARK INTER + INTRA:         -12.148
REMARK INTER:                  -8.270
REMARK INTRA:                  -3.878
REMARK UNBOUND:                -3.278
REMARK SMILES CCCCCCCCCCCCCCCCCCCCCC(=O)[O-]
REMARK SMILES IDX 12 1 11 2 10 3 9 4 8 5 7 6 6 7 5 8 4 9 3 10 2 11 1 12 13 13
REMARK SMILES IDX 14 14 15 15 16 16 17 17 18 18 19 19 20 20 21 21 22 22 23 23
REMARK SMILES IDX 24 24
REMARK H PARENT
REMARK Flexibility Score: inf
ROOT
ATOM      1  C   UNL     1     -25.416  -3.425  -5.813  1.00  0.00     0.000 C 
ENDROOT
BRANCH   1   2
ATOM      2  C   UNL     1     -26.453  -2.304  -5.608  1.00  0.00     0.000 C 
BRANCH   2   3
ATOM      3  C   UNL     1     -26.063  -1.283  -4.516  1.00  0.00     0.000 C 
BRANCH   3   4
ATOM      4  C   UNL     1     -24.952  -1.803  -3.589  1.00  0.00    -0.000 C 
BRANCH   4   5
ATOM      5  C   UNL     1     -25.496  -2.388  -2.275  1.00  0.00    -0.000 C 
BRANCH   5   6
ATOM      6  C   UNL     1     -24.729  -3.641  -1.821  1.00  0.00    -0.000 C 
BRANCH   6   7
ATOM      7  C   UNL     1     -23.441  -3.882  -2.631  1.00  0.00    -0.000 C 
BRANCH   7   8
ATOM      8  C   UNL     1     -22.800  -5.269  -2.439  1.00  0.00    -0.000 C 
BRANCH   8   9
ATOM      9  C   UNL     1     -21.842  -5.652  -3.581  1.00  0.00    -0.000 C 
BRANCH   9  10
ATOM     10  C   UNL     1     -22.456  -5.407  -4.969  1.00  0.00    -0.000 C 
BRANCH  10  11
ATOM     11  C   UNL     1     -22.081  -6.503  -5.978  1.00  0.00    -0.003 C 
ATOM     12  C   UNL     1     -23.001  -6.472  -7.194  1.00  0.00     0.004 C 
ENDBRANCH  10  11
ENDBRANCH   9  10
ENDBRANCH   8   9
ENDBRANCH   7   8
ENDBRANCH   6   7
ENDBRANCH   5   6
ENDBRANCH   4   5
ENDBRANCH   3   4
ENDBRANCH   2   3
ENDBRANCH   1   2
BRANCH   1  13
ATOM     13  C   UNL     1     -26.009  -4.822  -6.079  1.00  0.00     0.000 C 
BRANCH  13  14
ATOM     14  C   UNL     1     -26.778  -5.445  -4.895  1.00  0.00     0.000 C 
BRANCH  14  15
ATOM     15  C   UNL     1     -25.938  -6.334  -3.958  1.00  0.00     0.000 C 
BRANCH  15  16
ATOM     16  C   UNL     1     -25.632  -7.716  -4.563  1.00  0.00     0.000 C 
BRANCH  16  17
ATOM     17  C   UNL     1     -24.433  -8.404  -3.889  1.00  0.00     0.000 C 
BRANCH  17  18
ATOM     18  C   UNL     1     -23.796  -9.492  -4.769  1.00  0.00     0.000 C 
BRANCH  18  19
ATOM     19  C   UNL     1     -22.336  -9.786  -4.387  1.00  0.00     0.000 C 
BRANCH  19  20
ATOM     20  C   UNL     1     -21.746 -10.971  -5.165  1.00  0.00     0.006 C 
BRANCH  20  21
ATOM     21  C   UNL     1     -22.256 -10.986  -6.611  1.00  0.00     0.053 C 
BRANCH  21  22
ATOM     22  C   UNL     1     -21.355 -10.191  -7.505  1.00  0.00     0.041 C 
ATOM     23  O   UNL     1     -21.843  -9.482  -8.425  1.00  0.00    -0.550 OA
ATOM     24  O   UNL     1     -19.975 -10.241  -7.334  1.00  0.00    -0.550 OA
ENDBRANCH  21  22
ENDBRANCH  20  21
ENDBRANCH  19  20
ENDBRANCH  18  19
ENDBRANCH  17  18
ENDBRANCH  16  17
ENDBRANCH  15  16
ENDBRANCH  14  15
ENDBRANCH  13  14
ENDBRANCH   1  13
TORSDOF 20
ENDMDL
MODEL 7
REMARK VINA RESULT:    -4.080      1.997      3.691
REMARK INTER + INTRA:         -12.129
REMARK INTER:                  -8.187
REMARK INTRA:                  -3.942
REMARK UNBOUND:                -3.278
REMARK SMILES CCCCCCCCCCCCCCCCCCCCCC(=O)[O-]
REMARK SMILES IDX 12 1 11 2 10 3 9 4 8 5 7 6 6 7 5 8 4 9 3 10 2 11 1 12 13 13
REMARK SMILES IDX 14 14 15 15 16 16 17 17 18 18 19 19 20 20 21 21 22 22 23 23
REMARK SMILES IDX 24 24
REMARK H PARENT
REMARK Flexibility Score: inf
ROOT
ATOM      1  C   UNL     1     -22.148  -6.008  -5.685  1.00  0.00     0.000 C 
ENDROOT
BRANCH   1   2
ATOM      2  C   UNL     1     -22.033  -7.456  -5.169  1.00  0.00     0.000 C 
BRANCH   2   3
ATOM      3  C   UNL     1     -22.591  -7.658  -3.742  1.00  0.00     0.000 C 
BRANCH   3   4
ATOM      4  C   UNL     1     -23.651  -8.771  -3.673  1.00  0.00    -0.000 C 
BRANCH   4   5
ATOM      5  C   UNL     1     -23.454  -9.850  -4.751  1.00  0.00    -0.000 C 
BRANCH   5   6
ATOM      6  C   UNL     1     -22.462 -10.944  -4.320  1.00  0.00    -0.000 C 
BRANCH   6   7
ATOM      7  C   UNL     1     -21.479 -11.335  -5.439  1.00  0.00    -0.000 C 
BRANCH   7   8
ATOM      8  C   UNL     1     -21.938 -10.979  -6.865  1.00  0.00    -0.000 C 
BRANCH   8   9
ATOM      9  C   UNL     1     -20.979 -10.013  -7.582  1.00  0.00    -0.000 C 
BRANCH   9  10
ATOM     10  C   UNL     1     -21.708  -9.078  -8.560  1.00  0.00    -0.000 C 
BRANCH  10  11
ATOM     11  C   UNL     1     -20.739  -8.208  -9.374  1.00  0.00    -0.003 C 
ATOM     12  C   UNL     1     -21.032  -6.724  -9.179  1.00  0.00     0.004 C 
ENDBRANCH  10  11
ENDBRANCH   9  10
ENDBRANCH   8   9
ENDBRANCH   7   8
ENDBRANCH   6   7
ENDBRANCH   5   6
ENDBRANCH   4   5
ENDBRANCH   3   4
ENDBRANCH   2   3
ENDBRANCH   1   2
BRANCH   1  13
ATOM     13  C   UNL     1     -23.440  -5.693  -6.461  1.00  0.00     0.000 C 
BRANCH  13  14
ATOM     14  C   UNL     1     -24.187  -6.922  -7.020  1.00  0.00     0.000 C 
BRANCH  14  15
ATOM     15  C   UNL     1     -25.634  -7.096  -6.524  1.00  0.00     0.000 C 
BRANCH  15  16
ATOM     16  C   UNL     1     -26.411  -5.769  -6.471  1.00  0.00     0.000 C 
BRANCH  16  17
ATOM     17  C   UNL     1     -27.037  -5.505  -5.091  1.00  0.00     0.000 C 
BRANCH  17  18
ATOM     18  C   UNL     1     -26.272  -6.190  -3.946  1.00  0.00     0.000 C 
BRANCH  18  19
ATOM     19  C   UNL     1     -25.249  -5.259  -3.275  1.00  0.00     0.000 C 
BRANCH  19  20
ATOM     20  C   UNL     1     -25.585  -3.773  -3.466  1.00  0.00     0.006 C 
BRANCH  20  21
ATOM     21  C   UNL     1     -24.500  -3.066  -4.286  1.00  0.00     0.053 C 
BRANCH  21  22
ATOM     22  C   UNL     1     -25.109  -2.192  -5.340  1.00  0.00     0.041 C 
ATOM     23  O   UNL     1     -26.357  -2.027  -5.381  1.00  0.00    -0.550 OA
ATOM     24  O   UNL     1     -24.301  -1.568  -6.286  1.00  0.00    -0.550 OA
ENDBRANCH  21  22
ENDBRANCH  20  21
ENDBRANCH  19  20
ENDBRANCH  18  19
ENDBRANCH  17  18
ENDBRANCH  16  17
ENDBRANCH  15  16
ENDBRANCH  14  15
ENDBRANCH  13  14
ENDBRANCH   1  13
TORSDOF 20
ENDMDL
MODEL 8
REMARK VINA RESULT:    -4.070      3.772      7.819
REMARK INTER + INTRA:         -12.108
REMARK INTER:                  -8.163
REMARK INTRA:                  -3.945
REMARK UNBOUND:                -3.278
REMARK SMILES CCCCCCCCCCCCCCCCCCCCCC(=O)[O-]
REMARK SMILES IDX 12 1 11 2 10 3 9 4 8 5 7 6 6 7 5 8 4 9 3 10 2 11 1 12 13 13
REMARK SMILES IDX 14 14 15 15 16 16 17 17 18 18 19 19 20 20 21 21 22 22 23 23
REMARK SMILES IDX 24 24
REMARK H PARENT
REMARK Flexibility Score: inf
ROOT
ATOM      1  C   UNL     1     -23.282 -10.219  -6.858  1.00  0.00     0.000 C 
ENDROOT
BRANCH   1   2
ATOM      2  C   UNL     1     -23.466  -8.693  -6.746  1.00  0.00     0.000 C 
BRANCH   2   3
ATOM      3  C   UNL     1     -24.708  -8.270  -5.931  1.00  0.00     0.000 C 
BRANCH   3   4
ATOM      4  C   UNL     1     -24.653  -8.756  -4.472  1.00  0.00    -0.000 C 
BRANCH   4   5
ATOM      5  C   UNL     1     -25.323  -7.779  -3.492  1.00  0.00    -0.000 C 
BRANCH   5   6
ATOM      6  C   UNL     1     -24.472  -7.522  -2.237  1.00  0.00    -0.000 C 
BRANCH   6   7
ATOM      7  C   UNL     1     -23.649  -6.223  -2.327  1.00  0.00    -0.000 C 
BRANCH   7   8
ATOM      8  C   UNL     1     -24.353  -5.053  -3.039  1.00  0.00    -0.000 C 
BRANCH   8   9
ATOM      9  C   UNL     1     -23.725  -4.714  -4.402  1.00  0.00    -0.000 C 
BRANCH   9  10
ATOM     10  C   UNL     1     -24.774  -4.606  -5.521  1.00  0.00    -0.000 C 
BRANCH  10  11
ATOM     11  C   UNL     1     -26.188  -4.355  -4.977  1.00  0.00    -0.003 C 
ATOM     12  C   UNL     1     -27.170  -5.404  -5.490  1.00  0.00     0.004 C 
ENDBRANCH  10  11
ENDBRANCH   9  10
ENDBRANCH   8   9
ENDBRANCH   7   8
ENDBRANCH   6   7
ENDBRANCH   5   6
ENDBRANCH   4   5
ENDBRANCH   3   4
ENDBRANCH   2   3
ENDBRANCH   1   2
BRANCH   1  13
ATOM     13  C   UNL     1     -21.831 -10.688  -7.073  1.00  0.00     0.000 C 
BRANCH  13  14
ATOM     14  C   UNL     1     -21.186 -11.401  -5.866  1.00  0.00     0.000 C 
BRANCH  14  15
ATOM     15  C   UNL     1     -21.668 -10.924  -4.483  1.00  0.00     0.000 C 
BRANCH  15  16
ATOM     16  C   UNL     1     -20.682  -9.955  -3.809  1.00  0.00     0.000 C 
BRANCH  16  17
ATOM     17  C   UNL     1     -21.156  -8.493  -3.868  1.00  0.00     0.000 C 
BRANCH  17  18
ATOM     18  C   UNL     1     -20.126  -7.557  -4.523  1.00  0.00     0.000 C 
BRANCH  18  19
ATOM     19  C   UNL     1     -19.998  -7.782  -6.039  1.00  0.00     0.000 C 
BRANCH  19  20
ATOM     20  C   UNL     1     -18.542  -7.971  -6.489  1.00  0.00     0.006 C 
BRANCH  20  21
ATOM     21  C   UNL     1     -18.218  -9.455  -6.691  1.00  0.00     0.053 C 
BRANCH  21  22
ATOM     22  C   UNL     1     -17.476 -10.007  -5.511  1.00  0.00     0.041 C 
ATOM     23  O   UNL     1     -16.699  -9.267  -4.851  1.00  0.00    -0.550 OA
ATOM     24  O   UNL     1     -17.631 -11.341  -5.147  1.00  0.00    -0.550 OA
ENDBRANCH  21  22
ENDBRANCH  20  21
ENDBRANCH  19  20
ENDBRANCH  18  19
ENDBRANCH  17  18
ENDBRANCH  16  17
ENDBRANCH  15  16
ENDBRANCH  14  15
ENDBRANCH  13  14
ENDBRANCH   1  13
TORSDOF 20
ENDMDL
MODEL 9
REMARK VINA RESULT:    -4.027      1.858      3.447
REMARK INTER + INTRA:         -12.013
REMARK INTER:                  -8.745
REMARK INTRA:                  -3.269
REMARK UNBOUND:                -3.278
REMARK SMILES CCCCCCCCCCCCCCCCCCCCCC(=O)[O-]
REMARK SMILES IDX 12 1 11 2 10 3 9 4 8 5 7 6 6 7 5 8 4 9 3 10 2 11 1 12 13 13
REMARK SMILES IDX 14 14 15 15 16 16 17 17 18 18 19 19 20 20 21 21 22 22 23 23
REMARK SMILES IDX 24 24
REMARK H PARENT
REMARK Flexibility Score: inf
ROOT
ATOM      1  C   UNL     1     -21.356  -9.656  -4.120  1.00  0.00     0.000 C 
ENDROOT
BRANCH   1   2
ATOM      2  C   UNL     1     -21.731 -11.027  -4.717  1.00  0.00     0.000 C 
BRANCH   2   3
ATOM      3  C   UNL     1     -21.475 -11.140  -6.236  1.00  0.00     0.000 C 
BRANCH   3   4
ATOM      4  C   UNL     1     -22.676 -10.673  -7.075  1.00  0.00    -0.000 C 
BRANCH   4   5
ATOM      5  C   UNL     1     -22.271  -9.745  -8.232  1.00  0.00    -0.000 C 
BRANCH   5   6
ATOM      6  C   UNL     1     -20.853  -9.173  -8.065  1.00  0.00    -0.000 C 
BRANCH   6   7
ATOM      7  C   UNL     1     -20.839  -7.797  -7.372  1.00  0.00    -0.000 C 
BRANCH   7   8
ATOM      8  C   UNL     1     -19.597  -7.516  -6.506  1.00  0.00    -0.000 C 
BRANCH   8   9
ATOM      9  C   UNL     1     -18.413  -8.443  -6.834  1.00  0.00    -0.000 C 
BRANCH   9  10
ATOM     10  C   UNL     1     -17.376  -8.496  -5.700  1.00  0.00    -0.000 C 
BRANCH  10  11
ATOM     11  C   UNL     1     -17.700  -9.577  -4.658  1.00  0.00    -0.003 C 
ATOM     12  C   UNL     1     -17.784 -10.956  -5.304  1.00  0.00     0.004 C 
ENDBRANCH  10  11
ENDBRANCH   9  10
ENDBRANCH   8   9
ENDBRANCH   7   8
ENDBRANCH   6   7
ENDBRANCH   5   6
ENDBRANCH   4   5
ENDBRANCH   3   4
ENDBRANCH   2   3
ENDBRANCH   1   2
BRANCH   1  13
ATOM     13  C   UNL     1     -22.530  -8.863  -3.517  1.00  0.00     0.000 C 
BRANCH  13  14
ATOM     14  C   UNL     1     -23.191  -7.842  -4.468  1.00  0.00     0.000 C 
BRANCH  14  15
ATOM     15  C   UNL     1     -24.583  -8.237  -4.994  1.00  0.00     0.000 C 
BRANCH  15  16
ATOM     16  C   UNL     1     -24.770  -7.917  -6.487  1.00  0.00     0.000 C 
BRANCH  16  17
ATOM     17  C   UNL     1     -25.073  -6.431  -6.740  1.00  0.00     0.000 C 
BRANCH  17  18
ATOM     18  C   UNL     1     -26.580  -6.134  -6.823  1.00  0.00     0.000 C 
BRANCH  18  19
ATOM     19  C   UNL     1     -27.115  -5.421  -5.570  1.00  0.00     0.000 C 
BRANCH  19  20
ATOM     20  C   UNL     1     -26.009  -4.718  -4.770  1.00  0.00     0.006 C 
BRANCH  20  21
ATOM     21  C   UNL     1     -26.012  -3.209  -5.039  1.00  0.00     0.053 C 
BRANCH  21  22
ATOM     22  C   UNL     1     -25.153  -2.487  -4.046  1.00  0.00     0.041 C 
ATOM     23  O   UNL     1     -23.904  -2.436  -4.209  1.00  0.00    -0.550 OA
ATOM     24  O   UNL     1     -25.727  -1.879  -2.934  1.00  0.00    -0.550 OA
ENDBRANCH  21  22
ENDBRANCH  20  21
ENDBRANCH  19  20
ENDBRANCH  18  19
ENDBRANCH  17  18
ENDBRANCH  16  17
ENDBRANCH  15  16
ENDBRANCH  14  15
ENDBRANCH  13  14
ENDBRANCH   1  13
TORSDOF 20
ENDMDL
