MODEL 1
REMARK VINA RESULT:    -5.130      0.000      0.000
REMARK INTER + INTRA:         -15.531
REMARK INTER:                 -11.729
REMARK INTRA:                  -3.802
REMARK UNBOUND:                -3.802
REMARK SMILES CCCCCCCCCCCCCCCCCCCCCCCC(=O)[O-]
REMARK SMILES IDX 13 1 14 2 15 3 16 4 17 5 18 6 19 7 20 8 21 9 22 10 23 11
REMARK SMILES IDX 24 12 25 13 26 14 12 15 11 16 10 17 9 18 8 19 7 20 6 21 5 22
REMARK SMILES IDX 4 23 3 24 2 25 1 26
REMARK H PARENT
REMARK Flexibility Score: inf
ROOT
ATOM      1  C   UNL     1       0.864  44.591   8.721  1.00  0.00     0.000 C 
ENDROOT
BRANCH   1   2
ATOM      2  C   UNL     1       0.718  45.532   9.933  1.00  0.00     0.000 C 
BRANCH   2   3
ATOM      3  C   UNL     1       1.397  46.907   9.775  1.00  0.00     0.000 C 
BRANCH   3   4
ATOM      4  C   UNL     1       2.199  47.093   8.471  1.00  0.00     0.000 C 
BRANCH   4   5
ATOM      5  C   UNL     1       1.570  48.064   7.455  1.00  0.00     0.000 C 
BRANCH   5   6
ATOM      6  C   UNL     1       1.236  49.432   8.067  1.00  0.00     0.000 C 
BRANCH   6   7
ATOM      7  C   UNL     1       2.108  50.538   7.451  1.00  0.00     0.000 C 
BRANCH   7   8
ATOM      8  C   UNL     1       3.224  51.006   8.399  1.00  0.00     0.000 C 
BRANCH   8   9
ATOM      9  C   UNL     1       3.069  50.441   9.819  1.00  0.00     0.000 C 
BRANCH   9  10
ATOM     10  C   UNL     1       4.442  50.179  10.457  1.00  0.00     0.006 C 
BRANCH  10  11
ATOM     11  C   UNL     1       4.863  48.708  10.346  1.00  0.00     0.053 C 
BRANCH  11  12
ATOM     12  C   UNL     1       6.046  48.531   9.445  1.00  0.00     0.041 C 
ATOM     13  O   UNL     1       6.267  49.357   8.520  1.00  0.00    -0.550 OA
ATOM     14  O   UNL     1       6.893  47.442   9.612  1.00  0.00    -0.550 OA
ENDBRANCH  11  12
ENDBRANCH  10  11
ENDBRANCH   9  10
ENDBRANCH   8   9
ENDBRANCH   7   8
ENDBRANCH   6   7
ENDBRANCH   5   6
ENDBRANCH   4   5
ENDBRANCH   3   4
ENDBRANCH   2   3
ENDBRANCH   1   2
BRANCH   1  15
ATOM     15  C   UNL     1       1.662  43.302   8.990  1.00  0.00     0.000 C 
BRANCH  15  16
ATOM     16  C   UNL     1       3.068  43.329   8.373  1.00  0.00     0.000 C 
BRANCH  16  17
ATOM     17  C   UNL     1       4.144  43.384   9.469  1.00  0.00     0.000 C 
BRANCH  17  18
ATOM     18  C   UNL     1       4.443  44.820   9.931  1.00  0.00    -0.000 C 
BRANCH  18  19
ATOM     19  C   UNL     1       4.114  45.043  11.416  1.00  0.00    -0.000 C 
BRANCH  19  20
ATOM     20  C   UNL     1       3.730  43.743  12.147  1.00  0.00    -0.000 C 
BRANCH  20  21
ATOM     21  C   UNL     1       2.243  43.622  12.526  1.00  0.00    -0.000 C 
BRANCH  21  22
ATOM     22  C   UNL     1       1.673  42.213  12.282  1.00  0.00    -0.000 C 
BRANCH  22  23
ATOM     23  C   UNL     1       2.779  41.190  11.944  1.00  0.00    -0.000 C 
BRANCH  23  24
ATOM     24  C   UNL     1       2.624  39.849  12.681  1.00  0.00    -0.000 C 
BRANCH  24  25
ATOM     25  C   UNL     1       3.917  39.022  12.698  1.00  0.00    -0.003 C 
ATOM     26  C   UNL     1       5.043  39.775  13.402  1.00  0.00     0.004 C 
ENDBRANCH  24  25
ENDBRANCH  23  24
ENDBRANCH  22  23
ENDBRANCH  21  22
ENDBRANCH  20  21
ENDBRANCH  19  20
ENDBRANCH  18  19
ENDBRANCH  17  18
ENDBRANCH  16  17
ENDBRANCH  15  16
ENDBRANCH   1  15
TORSDOF 22
ENDMDL
MODEL 2
REMARK VINA RESULT:    -5.114      2.827      7.541
REMARK INTER + INTRA:         -15.494
REMARK INTER:                 -12.443
REMARK INTRA:                  -3.051
REMARK UNBOUND:                -3.802
REMARK SMILES CCCCCCCCCCCCCCCCCCCCCCCC(=O)[O-]
REMARK SMILES IDX 13 1 14 2 15 3 16 4 17 5 18 6 19 7 20 8 21 9 22 10 23 11
REMARK SMILES IDX 24 12 25 13 26 14 12 15 11 16 10 17 9 18 8 19 7 20 6 21 5 22
REMARK SMILES IDX 4 23 3 24 2 25 1 26
REMARK H PARENT
REMARK Flexibility Score: inf
ROOT
ATOM      1  C   UNL     1       0.343  44.199   7.600  1.00  0.00     0.000 C 
ENDROOT
BRANCH   1   2
ATOM      2  C   UNL     1       1.078  43.871   8.914  1.00  0.00     0.000 C 
BRANCH   2   3
ATOM      3  C   UNL     1       2.351  43.017   8.754  1.00  0.00     0.000 C 
BRANCH   3   4
ATOM      4  C   UNL     1       3.671  43.748   9.078  1.00  0.00     0.000 C 
BRANCH   4   5
ATOM      5  C   UNL     1       3.517  45.011   9.943  1.00  0.00     0.000 C 
BRANCH   5   6
ATOM      6  C   UNL     1       4.423  44.998  11.184  1.00  0.00     0.000 C 
BRANCH   6   7
ATOM      7  C   UNL     1       3.866  44.055  12.262  1.00  0.00     0.000 C 
BRANCH   7   8
ATOM      8  C   UNL     1       2.334  43.949  12.218  1.00  0.00     0.000 C 
BRANCH   8   9
ATOM      9  C   UNL     1       1.836  42.500  12.333  1.00  0.00     0.000 C 
BRANCH   9  10
ATOM     10  C   UNL     1       2.953  41.508  11.979  1.00  0.00     0.006 C 
BRANCH  10  11
ATOM     11  C   UNL     1       2.672  40.099  12.519  1.00  0.00     0.053 C 
BRANCH  11  12
ATOM     12  C   UNL     1       3.936  39.341  12.787  1.00  0.00     0.041 C 
ATOM     13  O   UNL     1       4.020  38.121  12.484  1.00  0.00    -0.550 OA
ATOM     14  O   UNL     1       5.015  39.975  13.391  1.00  0.00    -0.550 OA
ENDBRANCH  11  12
ENDBRANCH  10  11
ENDBRANCH   9  10
ENDBRANCH   8   9
ENDBRANCH   7   8
ENDBRANCH   6   7
ENDBRANCH   5   6
ENDBRANCH   4   5
ENDBRANCH   3   4
ENDBRANCH   2   3
ENDBRANCH   1   2
BRANCH   1  15
ATOM     15  C   UNL     1      -0.430  45.532   7.600  1.00  0.00     0.000 C 
BRANCH  15  16
ATOM     16  C   UNL     1       0.491  46.757   7.501  1.00  0.00     0.000 C 
BRANCH  16  17
ATOM     17  C   UNL     1       0.604  47.465   8.860  1.00  0.00     0.000 C 
BRANCH  17  18
ATOM     18  C   UNL     1       1.747  48.494   8.897  1.00  0.00    -0.000 C 
BRANCH  18  19
ATOM     19  C   UNL     1       1.965  49.185   7.541  1.00  0.00    -0.000 C 
BRANCH  19  20
ATOM     20  C   UNL     1       3.155  50.161   7.550  1.00  0.00    -0.000 C 
BRANCH  20  21
ATOM     21  C   UNL     1       3.488  50.772   8.924  1.00  0.00    -0.000 C 
BRANCH  21  22
ATOM     22  C   UNL     1       5.001  50.875   9.186  1.00  0.00    -0.000 C 
BRANCH  22  23
ATOM     23  C   UNL     1       5.437  50.035  10.406  1.00  0.00    -0.000 C 
BRANCH  23  24
ATOM     24  C   UNL     1       5.072  48.546  10.293  1.00  0.00    -0.000 C 
BRANCH  24  25
ATOM     25  C   UNL     1       5.793  47.838   9.137  1.00  0.00    -0.003 C 
ATOM     26  C   UNL     1       7.282  47.679   9.432  1.00  0.00     0.004 C 
ENDBRANCH  24  25
ENDBRANCH  23  24
ENDBRANCH  22  23
ENDBRANCH  21  22
ENDBRANCH  20  21
ENDBRANCH  19  20
ENDBRANCH  18  19
ENDBRANCH  17  18
ENDBRANCH  16  17
ENDBRANCH  15  16
ENDBRANCH   1  15
TORSDOF 22
ENDMDL
MODEL 3
REMARK VINA RESULT:    -5.094      2.972      7.742
REMARK INTER + INTRA:         -15.448
REMARK INTER:                 -12.323
REMARK INTRA:                  -3.125
REMARK UNBOUND:                -3.802
REMARK SMILES CCCCCCCCCCCCCCCCCCCCCCCC(=O)[O-]
REMARK SMILES IDX 13 1 14 2 15 3 16 4 17 5 18 6 19 7 20 8 21 9 22 10 23 11
REMARK SMILES IDX 24 12 25 13 26 14 12 15 11 16 10 17 9 18 8 19 7 20 6 21 5 22
REMARK SMILES IDX 4 23 3 24 2 25 1 26
REMARK H PARENT
REMARK Flexibility Score: inf
ROOT
ATOM      1  C   UNL     1       5.131  47.187   9.115  1.00  0.00     0.000 C 
ENDROOT
BRANCH   1   2
ATOM      2  C   UNL     1       4.494  46.650  10.411  1.00  0.00     0.000 C 
BRANCH   2   3
ATOM      3  C   UNL     1       4.552  45.119  10.580  1.00  0.00     0.000 C 
BRANCH   3   4
ATOM      4  C   UNL     1       4.102  44.309   9.346  1.00  0.00     0.000 C 
BRANCH   4   5
ATOM      5  C   UNL     1       3.139  43.148   9.648  1.00  0.00     0.000 C 
BRANCH   5   6
ATOM      6  C   UNL     1       1.666  43.582   9.656  1.00  0.00     0.000 C 
BRANCH   6   7
ATOM      7  C   UNL     1       1.215  43.970  11.073  1.00  0.00     0.000 C 
BRANCH   7   8
ATOM      8  C   UNL     1       1.876  43.107  12.159  1.00  0.00     0.000 C 
BRANCH   8   9
ATOM      9  C   UNL     1       0.914  42.070  12.759  1.00  0.00     0.000 C 
BRANCH   9  10
ATOM     10  C   UNL     1       1.650  40.762  13.082  1.00  0.00     0.006 C 
BRANCH  10  11
ATOM     11  C   UNL     1       2.980  40.642  12.326  1.00  0.00     0.053 C 
BRANCH  11  12
ATOM     12  C   UNL     1       3.782  39.463  12.788  1.00  0.00     0.041 C 
ATOM     13  O   UNL     1       3.353  38.293  12.604  1.00  0.00    -0.550 OA
ATOM     14  O   UNL     1       4.991  39.658  13.444  1.00  0.00    -0.550 OA
ENDBRANCH  11  12
ENDBRANCH  10  11
ENDBRANCH   9  10
ENDBRANCH   8   9
ENDBRANCH   7   8
ENDBRANCH   6   7
ENDBRANCH   5   6
ENDBRANCH   4   5
ENDBRANCH   3   4
ENDBRANCH   2   3
ENDBRANCH   1   2
BRANCH   1  15
ATOM     15  C   UNL     1       6.527  47.814   9.287  1.00  0.00     0.000 C 
BRANCH  15  16
ATOM     16  C   UNL     1       6.514  49.345   9.171  1.00  0.00     0.000 C 
BRANCH  16  17
ATOM     17  C   UNL     1       5.668  49.970  10.291  1.00  0.00     0.000 C 
BRANCH  17  18
ATOM     18  C   UNL     1       4.472  50.772   9.752  1.00  0.00    -0.000 C 
BRANCH  18  19
ATOM     19  C   UNL     1       4.427  50.805   8.215  1.00  0.00    -0.000 C 
BRANCH  19  20
ATOM     20  C   UNL     1       3.033  50.481   7.649  1.00  0.00    -0.000 C 
BRANCH  20  21
ATOM     21  C   UNL     1       2.188  49.517   8.503  1.00  0.00    -0.000 C 
BRANCH  21  22
ATOM     22  C   UNL     1       1.855  48.203   7.776  1.00  0.00    -0.000 C 
BRANCH  22  23
ATOM     23  C   UNL     1       1.342  47.116   8.746  1.00  0.00    -0.000 C 
BRANCH  23  24
ATOM     24  C   UNL     1      -0.178  47.157   8.971  1.00  0.00    -0.000 C 
BRANCH  24  25
ATOM     25  C   UNL     1      -0.901  45.928   8.404  1.00  0.00    -0.003 C 
ATOM     26  C   UNL     1      -0.263  45.467   7.096  1.00  0.00     0.004 C 
ENDBRANCH  24  25
ENDBRANCH  23  24
ENDBRANCH  22  23
ENDBRANCH  21  22
ENDBRANCH  20  21
ENDBRANCH  19  20
ENDBRANCH  18  19
ENDBRANCH  17  18
ENDBRANCH  16  17
ENDBRANCH  15  16
ENDBRANCH   1  15
TORSDOF 22
ENDMDL
MODEL 4
REMARK VINA RESULT:    -5.066      3.056      7.703
REMARK INTER + INTRA:         -15.383
REMARK INTER:                 -11.404
REMARK INTRA:                  -3.979
REMARK UNBOUND:                -3.802
REMARK SMILES CCCCCCCCCCCCCCCCCCCCCCCC(=O)[O-]
REMARK SMILES IDX 13 1 14 2 15 3 16 4 17 5 18 6 19 7 20 8 21 9 22 10 23 11
REMARK SMILES IDX 24 12 25 13 26 14 12 15 11 16 10 17 9 18 8 19 7 20 6 21 5 22
REMARK SMILES IDX 4 23 3 24 2 25 1 26
REMARK H PARENT
REMARK Flexibility Score: inf
ROOT
ATOM      1  C   UNL     1       3.760  43.571   9.100  1.00  0.00     0.000 C 
ENDROOT
BRANCH   1   2
ATOM      2  C   UNL     1       2.319  43.210   8.690  1.00  0.00     0.000 C 
BRANCH   2   3
ATOM      3  C   UNL     1       1.444  44.406   8.262  1.00  0.00     0.000 C 
BRANCH   3   4
ATOM      4  C   UNL     1       0.296  44.753   9.231  1.00  0.00     0.000 C 
BRANCH   4   5
ATOM      5  C   UNL     1       0.745  45.243  10.619  1.00  0.00     0.000 C 
BRANCH   5   6
ATOM      6  C   UNL     1       0.169  44.398  11.765  1.00  0.00     0.000 C 
BRANCH   6   7
ATOM      7  C   UNL     1       1.080  43.202  12.078  1.00  0.00     0.000 C 
BRANCH   7   8
ATOM      8  C   UNL     1       2.526  43.625  12.382  1.00  0.00     0.000 C 
BRANCH   8   9
ATOM      9  C   UNL     1       3.494  42.434  12.434  1.00  0.00     0.000 C 
BRANCH   9  10
ATOM     10  C   UNL     1       2.880  41.199  11.759  1.00  0.00     0.006 C 
BRANCH  10  11
ATOM     11  C   UNL     1       2.519  40.102  12.771  1.00  0.00     0.053 C 
BRANCH  11  12
ATOM     12  C   UNL     1       3.480  38.954  12.716  1.00  0.00     0.041 C 
ATOM     13  O   UNL     1       4.673  39.106  13.088  1.00  0.00    -0.550 OA
ATOM     14  O   UNL     1       3.062  37.720  12.232  1.00  0.00    -0.550 OA
ENDBRANCH  11  12
ENDBRANCH  10  11
ENDBRANCH   9  10
ENDBRANCH   8   9
ENDBRANCH   7   8
ENDBRANCH   6   7
ENDBRANCH   5   6
ENDBRANCH   4   5
ENDBRANCH   3   4
ENDBRANCH   2   3
ENDBRANCH   1   2
BRANCH   1  15
ATOM     15  C   UNL     1       4.104  45.070   9.022  1.00  0.00     0.000 C 
BRANCH  15  16
ATOM     16  C   UNL     1       4.581  45.644  10.364  1.00  0.00     0.000 C 
BRANCH  16  17
ATOM     17  C   UNL     1       4.822  47.157  10.255  1.00  0.00     0.000 C 
BRANCH  17  18
ATOM     18  C   UNL     1       5.960  47.506   9.281  1.00  0.00    -0.000 C 
BRANCH  18  19
ATOM     19  C   UNL     1       6.469  48.946   9.459  1.00  0.00    -0.000 C 
BRANCH  19  20
ATOM     20  C   UNL     1       5.610  49.770  10.435  1.00  0.00    -0.000 C 
BRANCH  20  21
ATOM     21  C   UNL     1       4.710  50.832   9.777  1.00  0.00    -0.000 C 
BRANCH  21  22
ATOM     22  C   UNL     1       4.698  50.742   8.241  1.00  0.00    -0.000 C 
BRANCH  22  23
ATOM     23  C   UNL     1       3.323  50.298   7.696  1.00  0.00    -0.000 C 
BRANCH  23  24
ATOM     24  C   UNL     1       3.287  48.833   7.231  1.00  0.00    -0.000 C 
BRANCH  24  25
ATOM     25  C   UNL     1       2.117  48.042   7.832  1.00  0.00    -0.003 C 
ATOM     26  C   UNL     1       1.705  48.612   9.186  1.00  0.00     0.004 C 
ENDBRANCH  24  25
ENDBRANCH  23  24
ENDBRANCH  22  23
ENDBRANCH  21  22
ENDBRANCH  20  21
ENDBRANCH  19  20
ENDBRANCH  18  19
ENDBRANCH  17  18
ENDBRANCH  16  17
ENDBRANCH  15  16
ENDBRANCH   1  15
TORSDOF 22
ENDMDL
MODEL 5
REMARK VINA RESULT:    -5.013      3.163      7.319
REMARK INTER + INTRA:         -15.263
REMARK INTER:                 -11.997
REMARK INTRA:                  -3.267
REMARK UNBOUND:                -3.802
REMARK SMILES CCCCCCCCCCCCCCCCCCCCCCCC(=O)[O-]
REMARK SMILES IDX 13 1 14 2 15 3 16 4 17 5 18 6 19 7 20 8 21 9 22 10 23 11
REMARK SMILES IDX 24 12 25 13 26 14 12 15 11 16 10 17 9 18 8 19 7 20 6 21 5 22
REMARK SMILES IDX 4 23 3 24 2 25 1 26
REMARK H PARENT
REMARK Flexibility Score: inf
ROOT
ATOM      1  C   UNL     1       1.387  48.020   8.378  1.00  0.00     0.000 C 
ENDROOT
BRANCH   1   2
ATOM      2  C   UNL     1       0.312  47.373   7.482  1.00  0.00     0.000 C 
BRANCH   2   3
ATOM      3  C   UNL     1      -0.368  46.125   8.078  1.00  0.00     0.000 C 
BRANCH   3   4
ATOM      4  C   UNL     1       0.303  44.783   7.719  1.00  0.00     0.000 C 
BRANCH   4   5
ATOM      5  C   UNL     1       0.981  44.061   8.897  1.00  0.00     0.000 C 
BRANCH   5   6
ATOM      6  C   UNL     1       0.790  44.793  10.234  1.00  0.00     0.000 C 
BRANCH   6   7
ATOM      7  C   UNL     1       1.160  43.883  11.416  1.00  0.00     0.000 C 
BRANCH   7   8
ATOM      8  C   UNL     1       2.195  42.813  11.035  1.00  0.00     0.000 C 
BRANCH   8   9
ATOM      9  C   UNL     1       3.488  42.921  11.858  1.00  0.00     0.000 C 
BRANCH   9  10
ATOM     10  C   UNL     1       4.044  41.528  12.189  1.00  0.00     0.006 C 
BRANCH  10  11
ATOM     11  C   UNL     1       2.940  40.465  12.268  1.00  0.00     0.053 C 
BRANCH  11  12
ATOM     12  C   UNL     1       3.482  39.125  12.663  1.00  0.00     0.041 C 
ATOM     13  O   UNL     1       4.620  39.033  13.195  1.00  0.00    -0.550 OA
ATOM     14  O   UNL     1       2.739  37.976  12.422  1.00  0.00    -0.550 OA
ENDBRANCH  11  12
ENDBRANCH  10  11
ENDBRANCH   9  10
ENDBRANCH   8   9
ENDBRANCH   7   8
ENDBRANCH   6   7
ENDBRANCH   5   6
ENDBRANCH   4   5
ENDBRANCH   3   4
ENDBRANCH   2   3
ENDBRANCH   1   2
BRANCH   1  15
ATOM     15  C   UNL     1       1.640  49.516   8.115  1.00  0.00     0.000 C 
BRANCH  15  16
ATOM     16  C   UNL     1       2.825  49.765   7.171  1.00  0.00     0.000 C 
BRANCH  16  17
ATOM     17  C   UNL     1       3.848  50.712   7.818  1.00  0.00     0.000 C 
BRANCH  17  18
ATOM     18  C   UNL     1       3.576  50.943   9.314  1.00  0.00    -0.000 C 
BRANCH  18  19
ATOM     19  C   UNL     1       4.761  50.529  10.201  1.00  0.00    -0.000 C 
BRANCH  19  20
ATOM     20  C   UNL     1       5.991  50.083   9.390  1.00  0.00    -0.000 C 
BRANCH  20  21
ATOM     21  C   UNL     1       6.691  48.814   9.909  1.00  0.00    -0.000 C 
BRANCH  21  22
ATOM     22  C   UNL     1       6.580  47.625   8.939  1.00  0.00    -0.000 C 
BRANCH  22  23
ATOM     23  C   UNL     1       5.111  47.258   8.637  1.00  0.00    -0.000 C 
BRANCH  23  24
ATOM     24  C   UNL     1       4.654  45.946   9.297  1.00  0.00    -0.000 C 
BRANCH  24  25
ATOM     25  C   UNL     1       4.186  46.137  10.746  1.00  0.00    -0.003 C 
ATOM     26  C   UNL     1       3.379  47.424  10.900  1.00  0.00     0.004 C 
ENDBRANCH  24  25
ENDBRANCH  23  24
ENDBRANCH  22  23
ENDBRANCH  21  22
ENDBRANCH  20  21
ENDBRANCH  19  20
ENDBRANCH  18  19
ENDBRANCH  17  18
ENDBRANCH  16  17
ENDBRANCH  15  16
ENDBRANCH   1  15
TORSDOF 22
ENDMDL
MODEL 6
REMARK VINA RESULT:    -4.988      2.819      7.807
REMARK INTER + INTRA:         -15.205
REMARK INTER:                 -11.938
REMARK INTRA:                  -3.267
REMARK UNBOUND:                -3.802
REMARK SMILES CCCCCCCCCCCCCCCCCCCCCCCC(=O)[O-]
REMARK SMILES IDX 13 1 14 2 15 3 16 4 17 5 18 6 19 7 20 8 21 9 22 10 23 11
REMARK SMILES IDX 24 12 25 13 26 14 12 15 11 16 10 17 9 18 8 19 7 20 6 21 5 22
REMARK SMILES IDX 4 23 3 24 2 25 1 26
REMARK H PARENT
REMARK Flexibility Score: inf
ROOT
ATOM      1  C   UNL     1       4.429  45.071  11.195  1.00  0.00     0.000 C 
ENDROOT
BRANCH   1   2
ATOM      2  C   UNL     1       4.301  43.650  10.612  1.00  0.00     0.000 C 
BRANCH   2   3
ATOM      3  C   UNL     1       3.666  43.576   9.209  1.00  0.00     0.000 C 
BRANCH   3   4
ATOM      4  C   UNL     1       2.231  43.012   9.172  1.00  0.00     0.000 C 
BRANCH   4   5
ATOM      5  C   UNL     1       1.116  44.072   9.202  1.00  0.00     0.000 C 
BRANCH   5   6
ATOM      6  C   UNL     1       0.946  44.721  10.584  1.00  0.00     0.000 C 
BRANCH   6   7
ATOM      7  C   UNL     1       0.317  43.735  11.581  1.00  0.00     0.000 C 
BRANCH   7   8
ATOM      8  C   UNL     1       1.371  42.935  12.362  1.00  0.00     0.000 C 
BRANCH   8   9
ATOM      9  C   UNL     1       0.751  41.835  13.238  1.00  0.00     0.000 C 
BRANCH   9  10
ATOM     10  C   UNL     1       1.527  40.518  13.095  1.00  0.00     0.006 C 
BRANCH  10  11
ATOM     11  C   UNL     1       2.807  40.685  12.264  1.00  0.00     0.053 C 
BRANCH  11  12
ATOM     12  C   UNL     1       3.903  39.781  12.739  1.00  0.00     0.041 C 
ATOM     13  O   UNL     1       4.985  40.265  13.166  1.00  0.00    -0.550 OA
ATOM     14  O   UNL     1       3.739  38.402  12.689  1.00  0.00    -0.550 OA
ENDBRANCH  11  12
ENDBRANCH  10  11
ENDBRANCH   9  10
ENDBRANCH   8   9
ENDBRANCH   7   8
ENDBRANCH   6   7
ENDBRANCH   5   6
ENDBRANCH   4   5
ENDBRANCH   3   4
ENDBRANCH   2   3
ENDBRANCH   1   2
BRANCH   1  15
ATOM     15  C   UNL     1       4.296  46.211  10.169  1.00  0.00     0.000 C 
BRANCH  15  16
ATOM     16  C   UNL     1       3.416  47.366  10.668  1.00  0.00     0.000 C 
BRANCH  16  17
ATOM     17  C   UNL     1       2.444  47.824   9.569  1.00  0.00     0.000 C 
BRANCH  17  18
ATOM     18  C   UNL     1       3.056  47.734   8.162  1.00  0.00    -0.000 C 
BRANCH  18  19
ATOM     19  C   UNL     1       3.061  49.086   7.431  1.00  0.00    -0.000 C 
BRANCH  19  20
ATOM     20  C   UNL     1       2.809  50.278   8.374  1.00  0.00    -0.000 C 
BRANCH  20  21
ATOM     21  C   UNL     1       4.064  51.077   8.767  1.00  0.00    -0.000 C 
BRANCH  21  22
ATOM     22  C   UNL     1       4.656  50.641  10.118  1.00  0.00    -0.000 C 
BRANCH  22  23
ATOM     23  C   UNL     1       6.187  50.450  10.047  1.00  0.00    -0.000 C 
BRANCH  23  24
ATOM     24  C   UNL     1       6.668  49.799   8.740  1.00  0.00    -0.000 C 
BRANCH  24  25
ATOM     25  C   UNL     1       6.490  48.274   8.729  1.00  0.00    -0.003 C 
ATOM     26  C   UNL     1       7.572  47.587   9.559  1.00  0.00     0.004 C 
ENDBRANCH  24  25
ENDBRANCH  23  24
ENDBRANCH  22  23
ENDBRANCH  21  22
ENDBRANCH  20  21
ENDBRANCH  19  20
ENDBRANCH  18  19
ENDBRANCH  17  18
ENDBRANCH  16  17
ENDBRANCH  15  16
ENDBRANCH   1  15
TORSDOF 22
ENDMDL
MODEL 7
REMARK VINA RESULT:    -4.957      3.102      7.788
REMARK INTER + INTRA:         -15.134
REMARK INTER:                 -12.107
REMARK INTRA:                  -3.027
REMARK UNBOUND:                -3.802
REMARK SMILES CCCCCCCCCCCCCCCCCCCCCCCC(=O)[O-]
REMARK SMILES IDX 13 1 14 2 15 3 16 4 17 5 18 6 19 7 20 8 21 9 22 10 23 11
REMARK SMILES IDX 24 12 25 13 26 14 12 15 11 16 10 17 9 18 8 19 7 20 6 21 5 22
REMARK SMILES IDX 4 23 3 24 2 25 1 26
REMARK H PARENT
REMARK Flexibility Score: inf
ROOT
ATOM      1  C   UNL     1       5.943  47.363   9.366  1.00  0.00     0.000 C 
ENDROOT
BRANCH   1   2
ATOM      2  C   UNL     1       4.611  47.565  10.115  1.00  0.00     0.000 C 
BRANCH   2   3
ATOM      3  C   UNL     1       3.990  46.280  10.698  1.00  0.00     0.000 C 
BRANCH   3   4
ATOM      4  C   UNL     1       4.494  44.967  10.065  1.00  0.00     0.000 C 
BRANCH   4   5
ATOM      5  C   UNL     1       3.397  43.935   9.751  1.00  0.00     0.000 C 
BRANCH   5   6
ATOM      6  C   UNL     1       2.014  44.575   9.559  1.00  0.00     0.000 C 
BRANCH   6   7
ATOM      7  C   UNL     1       1.052  44.153  10.681  1.00  0.00     0.000 C 
BRANCH   7   8
ATOM      8  C   UNL     1       1.789  43.632  11.924  1.00  0.00     0.000 C 
BRANCH   8   9
ATOM      9  C   UNL     1       1.360  42.209  12.314  1.00  0.00     0.000 C 
BRANCH   9  10
ATOM     10  C   UNL     1       2.536  41.229  12.194  1.00  0.00     0.006 C 
BRANCH  10  11
ATOM     11  C   UNL     1       2.287  39.925  12.963  1.00  0.00     0.053 C 
BRANCH  11  12
ATOM     12  C   UNL     1       3.330  38.891  12.664  1.00  0.00     0.041 C 
ATOM     13  O   UNL     1       4.546  39.135  12.886  1.00  0.00    -0.550 OA
ATOM     14  O   UNL     1       2.962  37.668  12.118  1.00  0.00    -0.550 OA
ENDBRANCH  11  12
ENDBRANCH  10  11
ENDBRANCH   9  10
ENDBRANCH   8   9
ENDBRANCH   7   8
ENDBRANCH   6   7
ENDBRANCH   5   6
ENDBRANCH   4   5
ENDBRANCH   3   4
ENDBRANCH   2   3
ENDBRANCH   1   2
BRANCH   1  15
ATOM     15  C   UNL     1       6.741  48.653   9.097  1.00  0.00     0.000 C 
BRANCH  15  16
ATOM     16  C   UNL     1       6.092  49.898   9.719  1.00  0.00     0.000 C 
BRANCH  16  17
ATOM     17  C   UNL     1       5.737  50.927   8.634  1.00  0.00     0.000 C 
BRANCH  17  18
ATOM     18  C   UNL     1       4.227  50.987   8.348  1.00  0.00    -0.000 C 
BRANCH  18  19
ATOM     19  C   UNL     1       3.762  49.874   7.394  1.00  0.00    -0.000 C 
BRANCH  19  20
ATOM     20  C   UNL     1       2.251  49.594   7.491  1.00  0.00    -0.000 C 
BRANCH  20  21
ATOM     21  C   UNL     1       1.878  48.167   7.931  1.00  0.00    -0.000 C 
BRANCH  21  22
ATOM     22  C   UNL     1       1.013  48.136   9.203  1.00  0.00    -0.000 C 
BRANCH  22  23
ATOM     23  C   UNL     1      -0.328  47.404   8.976  1.00  0.00    -0.000 C 
BRANCH  23  24
ATOM     24  C   UNL     1      -0.457  46.770   7.581  1.00  0.00    -0.000 C 
BRANCH  24  25
ATOM     25  C   UNL     1      -1.038  45.350   7.620  1.00  0.00    -0.003 C 
ATOM     26  C   UNL     1      -0.342  44.442   6.611  1.00  0.00     0.004 C 
ENDBRANCH  24  25
ENDBRANCH  23  24
ENDBRANCH  22  23
ENDBRANCH  21  22
ENDBRANCH  20  21
ENDBRANCH  19  20
ENDBRANCH  18  19
ENDBRANCH  17  18
ENDBRANCH  16  17
ENDBRANCH  15  16
ENDBRANCH   1  15
TORSDOF 22
ENDMDL
MODEL 8
REMARK VINA RESULT:    -4.929      3.230      7.370
REMARK INTER + INTRA:         -15.070
REMARK INTER:                 -11.770
REMARK INTRA:                  -3.301
REMARK UNBOUND:                -3.802
REMARK SMILES CCCCCCCCCCCCCCCCCCCCCCCC(=O)[O-]
REMARK SMILES IDX 13 1 14 2 15 3 16 4 17 5 18 6 19 7 20 8 21 9 22 10 23 11
REMARK SMILES IDX 24 12 25 13 26 14 12 15 11 16 10 17 9 18 8 19 7 20 6 21 5 22
REMARK SMILES IDX 4 23 3 24 2 25 1 26
REMARK H PARENT
REMARK Flexibility Score: inf
ROOT
ATOM      1  C   UNL     1       6.585  49.686   8.930  1.00  0.00     0.000 C 
ENDROOT
BRANCH   1   2
ATOM      2  C   UNL     1       7.118  48.267   9.210  1.00  0.00     0.000 C 
BRANCH   2   3
ATOM      3  C   UNL     1       6.057  47.254   9.683  1.00  0.00     0.000 C 
BRANCH   3   4
ATOM      4  C   UNL     1       4.852  47.082   8.735  1.00  0.00     0.000 C 
BRANCH   4   5
ATOM      5  C   UNL     1       3.866  45.970   9.135  1.00  0.00     0.000 C 
BRANCH   5   6
ATOM      6  C   UNL     1       3.756  45.789  10.656  1.00  0.00     0.000 C 
BRANCH   6   7
ATOM      7  C   UNL     1       4.494  44.520  11.113  1.00  0.00     0.000 C 
BRANCH   7   8
ATOM      8  C   UNL     1       3.944  43.963  12.435  1.00  0.00     0.000 C 
BRANCH   8   9
ATOM      9  C   UNL     1       2.543  43.351  12.284  1.00  0.00     0.000 C 
BRANCH   9  10
ATOM     10  C   UNL     1       2.620  41.956  11.648  1.00  0.00     0.006 C 
BRANCH  10  11
ATOM     11  C   UNL     1       3.739  41.100  12.258  1.00  0.00     0.053 C 
BRANCH  11  12
ATOM     12  C   UNL     1       3.236  39.763  12.710  1.00  0.00     0.041 C 
ATOM     13  O   UNL     1       4.012  38.771  12.737  1.00  0.00    -0.550 OA
ATOM     14  O   UNL     1       1.906  39.607  13.080  1.00  0.00    -0.550 OA
ENDBRANCH  11  12
ENDBRANCH  10  11
ENDBRANCH   9  10
ENDBRANCH   8   9
ENDBRANCH   7   8
ENDBRANCH   6   7
ENDBRANCH   5   6
ENDBRANCH   4   5
ENDBRANCH   3   4
ENDBRANCH   2   3
ENDBRANCH   1   2
BRANCH   1  15
ATOM     15  C   UNL     1       5.943  50.391  10.139  1.00  0.00     0.000 C 
BRANCH  15  16
ATOM     16  C   UNL     1       4.533  50.923   9.842  1.00  0.00     0.000 C 
BRANCH  16  17
ATOM     17  C   UNL     1       4.180  50.733   8.358  1.00  0.00     0.000 C 
BRANCH  17  18
ATOM     18  C   UNL     1       2.772  50.149   8.155  1.00  0.00    -0.000 C 
BRANCH  18  19
ATOM     19  C   UNL     1       2.241  49.437   9.410  1.00  0.00    -0.000 C 
BRANCH  19  20
ATOM     20  C   UNL     1       1.174  48.374   9.089  1.00  0.00    -0.000 C 
BRANCH  20  21
ATOM     21  C   UNL     1       1.102  47.946   7.611  1.00  0.00    -0.000 C 
BRANCH  21  22
ATOM     22  C   UNL     1      -0.224  47.256   7.249  1.00  0.00    -0.000 C 
BRANCH  22  23
ATOM     23  C   UNL     1      -0.614  46.170   8.276  1.00  0.00    -0.000 C 
BRANCH  23  24
ATOM     24  C   UNL     1       0.186  44.865   8.128  1.00  0.00    -0.000 C 
BRANCH  24  25
ATOM     25  C   UNL     1       0.738  44.347   9.462  1.00  0.00    -0.003 C 
ATOM     26  C   UNL     1       0.124  45.097  10.642  1.00  0.00     0.004 C 
ENDBRANCH  24  25
ENDBRANCH  23  24
ENDBRANCH  22  23
ENDBRANCH  21  22
ENDBRANCH  20  21
ENDBRANCH  19  20
ENDBRANCH  18  19
ENDBRANCH  17  18
ENDBRANCH  16  17
ENDBRANCH  15  16
ENDBRANCH   1  15
TORSDOF 22
ENDMDL
MODEL 9
REMARK VINA RESULT:    -4.843      3.832      8.531
REMARK INTER + INTRA:         -14.873
REMARK INTER:                 -11.992
REMARK INTRA:                  -2.881
REMARK UNBOUND:                -3.802
REMARK SMILES CCCCCCCCCCCCCCCCCCCCCCCC(=O)[O-]
REMARK SMILES IDX 13 1 14 2 15 3 16 4 17 5 18 6 19 7 20 8 21 9 22 10 23 11
REMARK SMILES IDX 24 12 25 13 26 14 12 15 11 16 10 17 9 18 8 19 7 20 6 21 5 22
REMARK SMILES IDX 4 23 3 24 2 25 1 26
REMARK H PARENT
REMARK Flexibility Score: inf
ROOT
ATOM      1  C   UNL     1       5.255  46.911   9.074  1.00  0.00     0.000 C 
ENDROOT
BRANCH   1   2
ATOM      2  C   UNL     1       4.815  46.414  10.465  1.00  0.00     0.000 C 
BRANCH   2   3
ATOM      3  C   UNL     1       3.580  45.491  10.467  1.00  0.00     0.000 C 
BRANCH   3   4
ATOM      4  C   UNL     1       3.679  44.268   9.533  1.00  0.00     0.000 C 
BRANCH   4   5
ATOM      5  C   UNL     1       2.860  43.043   9.979  1.00  0.00     0.000 C 
BRANCH   5   6
ATOM      6  C   UNL     1       2.859  42.849  11.502  1.00  0.00     0.000 C 
BRANCH   6   7
ATOM      7  C   UNL     1       2.799  41.357  11.866  1.00  0.00     0.000 C 
BRANCH   7   8
ATOM      8  C   UNL     1       4.142  40.824  12.389  1.00  0.00     0.000 C 
BRANCH   8   9
ATOM      9  C   UNL     1       4.020  39.428  13.019  1.00  0.00     0.000 C 
BRANCH   9  10
ATOM     10  C   UNL     1       2.607  38.860  12.823  1.00  0.00     0.006 C 
BRANCH  10  11
ATOM     11  C   UNL     1       2.614  37.547  12.029  1.00  0.00     0.053 C 
BRANCH  11  12
ATOM     12  C   UNL     1       1.268  36.887  12.028  1.00  0.00     0.041 C 
ATOM     13  O   UNL     1       1.107  35.777  11.456  1.00  0.00    -0.550 OA
ATOM     14  O   UNL     1       0.187  37.510  12.639  1.00  0.00    -0.550 OA
ENDBRANCH  11  12
ENDBRANCH  10  11
ENDBRANCH   9  10
ENDBRANCH   8   9
ENDBRANCH   7   8
ENDBRANCH   6   7
ENDBRANCH   5   6
ENDBRANCH   4   5
ENDBRANCH   3   4
ENDBRANCH   2   3
ENDBRANCH   1   2
BRANCH   1  15
ATOM     15  C   UNL     1       6.619  47.624   9.038  1.00  0.00     0.000 C 
BRANCH  15  16
ATOM     16  C   UNL     1       6.501  49.148   9.185  1.00  0.00     0.000 C 
BRANCH  16  17
ATOM     17  C   UNL     1       5.109  49.632   8.750  1.00  0.00     0.000 C 
BRANCH  17  18
ATOM     18  C   UNL     1       4.436  50.523   9.808  1.00  0.00    -0.000 C 
BRANCH  18  19
ATOM     19  C   UNL     1       2.913  50.617   9.618  1.00  0.00    -0.000 C 
BRANCH  19  20
ATOM     20  C   UNL     1       2.229  49.238   9.568  1.00  0.00    -0.000 C 
BRANCH  20  21
ATOM     21  C   UNL     1       1.679  48.831   8.189  1.00  0.00    -0.000 C 
BRANCH  21  22
ATOM     22  C   UNL     1       1.841  47.330   7.896  1.00  0.00    -0.000 C 
BRANCH  22  23
ATOM     23  C   UNL     1       0.500  46.663   7.520  1.00  0.00    -0.000 C 
BRANCH  23  24
ATOM     24  C   UNL     1       0.012  45.632   8.551  1.00  0.00    -0.000 C 
BRANCH  24  25
ATOM     25  C   UNL     1      -0.044  46.194   9.979  1.00  0.00    -0.003 C 
ATOM     26  C   UNL     1      -0.083  45.071  11.012  1.00  0.00     0.004 C 
ENDBRANCH  24  25
ENDBRANCH  23  24
ENDBRANCH  22  23
ENDBRANCH  21  22
ENDBRANCH  20  21
ENDBRANCH  19  20
ENDBRANCH  18  19
ENDBRANCH  17  18
ENDBRANCH  16  17
ENDBRANCH  15  16
ENDBRANCH   1  15
TORSDOF 22
ENDMDL
