MODEL 1
REMARK VINA RESULT:    -7.998      0.000      0.000
REMARK INTER + INTRA:         -13.506
REMARK INTER:                 -11.739
REMARK INTRA:                  -1.768
REMARK UNBOUND:                -1.768
REMARK SMILES O=c1c(O[C@@H]2O[C@@H](CO)[C@H](O)[C@H](O)[C@H]2O)c(-c2ccc(O)c(O)c2)oc2cc(O)cc(O)c12
REMARK SMILES IDX 4 1 3 2 16 3 25 4 2 5 26 6 1 7 33 8 27 9 31 10 28 11 30 12
REMARK SMILES IDX 17 13 18 14 19 15 20 16 24 17 22 18 21 19 23 21 32 23 29 25
REMARK SMILES IDX 5 27 14 28 6 29 12 30 7 31 10 32 15 33 13 35 8 37 9 38 11 40
REMARK H PARENT 21 20 23 22 32 24 29 26 15 34 13 36 9 39 11 41
REMARK Flexibility Score: inf
ROOT
ATOM      1  O   UNL     1       4.781  -9.434 -40.675  1.00  0.00    -0.454 OA
ENDROOT
BRANCH   1   2
ATOM      2  C   UNL     1       3.545 -10.082 -40.632  1.00  0.00     0.214 A 
ATOM      3  C   UNL     1       2.411  -9.347 -41.006  1.00  0.00     0.180 A 
ATOM      4  O   UNL     1       1.204  -9.875 -40.860  1.00  0.00    -0.452 OA
ATOM      5  C   UNL     1       3.390 -11.420 -40.246  1.00  0.00     0.239 A 
ATOM      6  C   UNL     1       0.999 -11.114 -40.413  1.00  0.00     0.146 A 
ATOM      7  O   UNL     1       4.412 -12.110 -40.008  1.00  0.00    -0.285 OA
ATOM      8  C   UNL     1       2.092 -11.977 -40.148  1.00  0.00     0.111 A 
ATOM      9  C   UNL     1      -0.317 -11.531 -40.177  1.00  0.00     0.094 A 
ATOM     10  C   UNL     1       1.807 -13.312 -39.740  1.00  0.00     0.134 A 
ATOM     11  C   UNL     1      -0.568 -12.803 -39.653  1.00  0.00     0.123 A 
ATOM     12  C   UNL     1       0.488 -13.690 -39.475  1.00  0.00     0.093 A 
BRANCH   3  13
ATOM     13  C   UNL     1       2.516  -7.988 -41.553  1.00  0.00     0.025 A 
ATOM     14  C   UNL     1       2.663  -7.771 -42.929  1.00  0.00     0.016 A 
ATOM     15  C   UNL     1       2.682  -6.465 -43.432  1.00  0.00     0.051 A 
ATOM     16  C   UNL     1       2.541  -5.362 -42.559  1.00  0.00     0.157 A 
ATOM     17  C   UNL     1       2.396  -6.894 -40.687  1.00  0.00     0.062 A 
ATOM     18  C   UNL     1       2.410  -5.586 -41.177  1.00  0.00     0.158 A 
BRANCH  16  19
ATOM     19  O   UNL     1       2.506  -4.059 -43.057  1.00  0.00    -0.504 OA
ATOM     20  H   UNL     1       3.287  -3.683 -43.588  1.00  0.00     0.293 HD
ENDBRANCH  16  19
BRANCH  18  21
ATOM     21  O   UNL     1       2.272  -4.526 -40.270  1.00  0.00    -0.504 OA
ATOM     22  H   UNL     1       2.933  -4.390 -39.514  1.00  0.00     0.293 HD
ENDBRANCH  18  21
ENDBRANCH   3  13
BRANCH  10  23
ATOM     23  O   UNL     1       2.782 -14.301 -39.561  1.00  0.00    -0.507 OA
ATOM     24  H   UNL     1       2.674 -15.120 -38.970  1.00  0.00     0.293 HD
ENDBRANCH  10  23
BRANCH  11  25
ATOM     25  O   UNL     1      -1.864 -13.182 -39.293  1.00  0.00    -0.508 OA
ATOM     26  H   UNL     1      -2.658 -12.940 -39.873  1.00  0.00     0.293 HD
ENDBRANCH  11  25
ENDBRANCH   1   2
BRANCH   1  27
ATOM     27  C   UNL     1       5.455  -8.799 -39.572  1.00  0.00     0.339 C 
ATOM     28  C   UNL     1       6.855  -9.408 -39.362  1.00  0.00     0.214 C 
ATOM     29  O   UNL     1       5.544  -7.397 -39.760  1.00  0.00    -0.332 OA
ATOM     30  C   UNL     1       7.790  -9.091 -40.543  1.00  0.00     0.180 C 
ATOM     31  C   UNL     1       6.191  -7.076 -40.984  1.00  0.00     0.179 C 
ATOM     32  C   UNL     1       7.667  -7.596 -40.977  1.00  0.00     0.177 C 
BRANCH  28  33
ATOM     33  O   UNL     1       7.406  -8.910 -38.168  1.00  0.00    -0.384 OA
ATOM     34  H   UNL     1       7.395  -9.654 -37.509  1.00  0.00     0.211 HD
ENDBRANCH  28  33
BRANCH  30  35
ATOM     35  O   UNL     1       7.585  -9.998 -41.600  1.00  0.00    -0.387 OA
ATOM     36  H   UNL     1       7.407 -10.884 -41.201  1.00  0.00     0.211 HD
ENDBRANCH  30  35
BRANCH  31  37
ATOM     37  C   UNL     1       6.154  -5.551 -41.147  1.00  0.00     0.191 C 
BRANCH  37  38
ATOM     38  O   UNL     1       6.050  -5.198 -42.506  1.00  0.00    -0.394 OA
ATOM     39  H   UNL     1       5.858  -4.222 -42.515  1.00  0.00     0.210 HD
ENDBRANCH  37  38
ENDBRANCH  31  37
BRANCH  32  40
ATOM     40  O   UNL     1       8.330  -7.398 -42.210  1.00  0.00    -0.387 OA
ATOM     41  H   UNL     1       9.283  -7.653 -42.097  1.00  0.00     0.211 HD
ENDBRANCH  32  40
ENDBRANCH   1  27
TORSDOF 12
ENDMDL
MODEL 2
REMARK VINA RESULT:    -7.925      3.099      4.037
REMARK INTER + INTRA:         -13.399
REMARK INTER:                 -11.851
REMARK INTRA:                  -1.548
REMARK UNBOUND:                -1.768
REMARK SMILES O=c1c(O[C@@H]2O[C@@H](CO)[C@H](O)[C@H](O)[C@H]2O)c(-c2ccc(O)c(O)c2)oc2cc(O)cc(O)c12
REMARK SMILES IDX 4 1 3 2 16 3 25 4 2 5 26 6 1 7 33 8 27 9 31 10 28 11 30 12
REMARK SMILES IDX 17 13 18 14 19 15 20 16 24 17 22 18 21 19 23 21 32 23 29 25
REMARK SMILES IDX 5 27 14 28 6 29 12 30 7 31 10 32 15 33 13 35 8 37 9 38 11 40
REMARK H PARENT 21 20 23 22 32 24 29 26 15 34 13 36 9 39 11 41
REMARK Flexibility Score: inf
ROOT
ATOM      1  O   UNL     1       2.696  -9.762 -42.721  1.00  0.00    -0.454 OA
ENDROOT
BRANCH   1   2
ATOM      2  C   UNL     1       2.007 -10.479 -41.741  1.00  0.00     0.214 A 
ATOM      3  C   UNL     1       0.805  -9.940 -41.263  1.00  0.00     0.180 A 
ATOM      4  O   UNL     1       0.182 -10.515 -40.244  1.00  0.00    -0.452 OA
ATOM      5  C   UNL     1       2.455 -11.704 -41.226  1.00  0.00     0.239 A 
ATOM      6  C   UNL     1       0.616 -11.634 -39.662  1.00  0.00     0.146 A 
ATOM      7  O   UNL     1       3.476 -12.238 -41.725  1.00  0.00    -0.285 OA
ATOM      8  C   UNL     1       1.742 -12.325 -40.173  1.00  0.00     0.111 A 
ATOM      9  C   UNL     1      -0.045 -12.090 -38.514  1.00  0.00     0.094 A 
ATOM     10  C   UNL     1       2.114 -13.552 -39.552  1.00  0.00     0.134 A 
ATOM     11  C   UNL     1       0.416 -13.226 -37.843  1.00  0.00     0.123 A 
ATOM     12  C   UNL     1       1.462 -13.964 -38.385  1.00  0.00     0.093 A 
BRANCH   3  13
ATOM     13  C   UNL     1       0.208  -8.735 -41.853  1.00  0.00     0.025 A 
ATOM     14  C   UNL     1      -0.746  -8.827 -42.875  1.00  0.00     0.016 A 
ATOM     15  C   UNL     1      -1.357  -7.667 -43.367  1.00  0.00     0.051 A 
ATOM     16  C   UNL     1      -1.024  -6.403 -42.829  1.00  0.00     0.157 A 
ATOM     17  C   UNL     1       0.552  -7.480 -41.335  1.00  0.00     0.062 A 
ATOM     18  C   UNL     1      -0.054  -6.316 -41.815  1.00  0.00     0.158 A 
BRANCH  16  19
ATOM     19  O   UNL     1      -1.665  -5.247 -43.276  1.00  0.00    -0.504 OA
ATOM     20  H   UNL     1      -1.580  -4.945 -44.243  1.00  0.00     0.293 HD
ENDBRANCH  16  19
BRANCH  18  21
ATOM     21  O   UNL     1       0.314  -5.085 -41.253  1.00  0.00    -0.504 OA
ATOM     22  H   UNL     1       0.558  -5.006 -40.272  1.00  0.00     0.293 HD
ENDBRANCH  18  21
ENDBRANCH   3  13
BRANCH  10  23
ATOM     23  O   UNL     1       3.126 -14.394 -40.025  1.00  0.00    -0.507 OA
ATOM     24  H   UNL     1       3.921 -14.710 -39.477  1.00  0.00     0.293 HD
ENDBRANCH  10  23
BRANCH  11  25
ATOM     25  O   UNL     1      -0.154 -13.617 -36.627  1.00  0.00    -0.508 OA
ATOM     26  H   UNL     1       0.384 -14.132 -35.941  1.00  0.00     0.293 HD
ENDBRANCH  11  25
ENDBRANCH   1   2
BRANCH   1  27
ATOM     27  C   UNL     1       2.664 -10.002 -44.140  1.00  0.00     0.339 C 
ATOM     28  C   UNL     1       2.371  -8.701 -44.910  1.00  0.00     0.214 C 
ATOM     29  O   UNL     1       3.875 -10.587 -44.592  1.00  0.00    -0.332 OA
ATOM     30  C   UNL     1       3.526  -7.693 -44.775  1.00  0.00     0.180 C 
ATOM     31  C   UNL     1       4.998  -9.784 -44.253  1.00  0.00     0.179 C 
ATOM     32  C   UNL     1       4.911  -8.392 -44.961  1.00  0.00     0.177 C 
BRANCH  28  33
ATOM     33  O   UNL     1       2.153  -9.000 -46.267  1.00  0.00    -0.384 OA
ATOM     34  H   UNL     1       1.825  -9.937 -46.310  1.00  0.00     0.211 HD
ENDBRANCH  28  33
BRANCH  30  35
ATOM     35  O   UNL     1       3.422  -6.972 -43.571  1.00  0.00    -0.387 OA
ATOM     36  H   UNL     1       3.388  -7.629 -42.833  1.00  0.00     0.211 HD
ENDBRANCH  30  35
BRANCH  31  37
ATOM     37  C   UNL     1       6.260 -10.538 -44.691  1.00  0.00     0.191 C 
BRANCH  37  38
ATOM     38  O   UNL     1       6.718 -10.060 -45.934  1.00  0.00    -0.394 OA
ATOM     39  H   UNL     1       6.958  -9.107 -45.782  1.00  0.00     0.210 HD
ENDBRANCH  37  38
ENDBRANCH  31  37
BRANCH  32  40
ATOM     40  O   UNL     1       5.949  -7.510 -44.579  1.00  0.00    -0.387 OA
ATOM     41  H   UNL     1       6.689  -7.595 -45.235  1.00  0.00     0.211 HD
ENDBRANCH  32  40
ENDBRANCH   1  27
TORSDOF 12
ENDMDL
MODEL 3
REMARK VINA RESULT:    -7.887      1.844      2.077
REMARK INTER + INTRA:         -13.343
REMARK INTER:                 -11.850
REMARK INTRA:                  -1.493
REMARK UNBOUND:                -1.768
REMARK SMILES O=c1c(O[C@@H]2O[C@@H](CO)[C@H](O)[C@H](O)[C@H]2O)c(-c2ccc(O)c(O)c2)oc2cc(O)cc(O)c12
REMARK SMILES IDX 4 1 3 2 16 3 25 4 2 5 26 6 1 7 33 8 27 9 31 10 28 11 30 12
REMARK SMILES IDX 17 13 18 14 19 15 20 16 24 17 22 18 21 19 23 21 32 23 29 25
REMARK SMILES IDX 5 27 14 28 6 29 12 30 7 31 10 32 15 33 13 35 8 37 9 38 11 40
REMARK H PARENT 21 20 23 22 32 24 29 26 15 34 13 36 9 39 11 41
REMARK Flexibility Score: inf
ROOT
ATOM      1  O   UNL     1       4.195 -10.124 -41.986  1.00  0.00    -0.454 OA
ENDROOT
BRANCH   1   2
ATOM      2  C   UNL     1       3.167 -10.412 -41.087  1.00  0.00     0.214 A 
ATOM      3  C   UNL     1       2.299  -9.370 -40.735  1.00  0.00     0.180 A 
ATOM      4  O   UNL     1       1.388  -9.559 -39.790  1.00  0.00    -0.452 OA
ATOM      5  C   UNL     1       2.960 -11.684 -40.535  1.00  0.00     0.239 A 
ATOM      6  C   UNL     1       1.211 -10.727 -39.172  1.00  0.00     0.146 A 
ATOM      7  O   UNL     1       3.672 -12.642 -40.927  1.00  0.00    -0.285 OA
ATOM      8  C   UNL     1       1.946 -11.872 -39.566  1.00  0.00     0.111 A 
ATOM      9  C   UNL     1       0.309 -10.787 -38.102  1.00  0.00     0.094 A 
ATOM     10  C   UNL     1       1.661 -13.108 -38.916  1.00  0.00     0.134 A 
ATOM     11  C   UNL     1       0.139 -11.979 -37.392  1.00  0.00     0.123 A 
ATOM     12  C   UNL     1       0.785 -13.132 -37.826  1.00  0.00     0.093 A 
BRANCH   3  13
ATOM     13  C   UNL     1       2.371  -8.051 -41.379  1.00  0.00     0.025 A 
ATOM     14  C   UNL     1       2.178  -7.909 -42.759  1.00  0.00     0.016 A 
ATOM     15  C   UNL     1       2.175  -6.634 -43.336  1.00  0.00     0.051 A 
ATOM     16  C   UNL     1       2.353  -5.485 -42.529  1.00  0.00     0.157 A 
ATOM     17  C   UNL     1       2.568  -6.915 -40.584  1.00  0.00     0.062 A 
ATOM     18  C   UNL     1       2.563  -5.636 -41.147  1.00  0.00     0.158 A 
BRANCH  16  19
ATOM     19  O   UNL     1       2.299  -4.208 -43.088  1.00  0.00    -0.504 OA
ATOM     20  H   UNL     1       1.676  -4.004 -43.865  1.00  0.00     0.293 HD
ENDBRANCH  16  19
BRANCH  18  21
ATOM     21  O   UNL     1       2.749  -4.530 -40.307  1.00  0.00    -0.504 OA
ATOM     22  H   UNL     1       3.123  -4.636 -39.371  1.00  0.00     0.293 HD
ENDBRANCH  18  21
ENDBRANCH   3  13
BRANCH  10  23
ATOM     23  O   UNL     1       2.223 -14.335 -39.285  1.00  0.00    -0.507 OA
ATOM     24  H   UNL     1       2.689 -14.516 -40.169  1.00  0.00     0.293 HD
ENDBRANCH  10  23
BRANCH  11  25
ATOM     25  O   UNL     1      -0.659 -12.019 -36.246  1.00  0.00    -0.508 OA
ATOM     26  H   UNL     1      -0.529 -11.350 -35.496  1.00  0.00     0.293 HD
ENDBRANCH  11  25
ENDBRANCH   1   2
BRANCH   1  27
ATOM     27  C   UNL     1       5.605 -10.094 -41.696  1.00  0.00     0.339 C 
ATOM     28  C   UNL     1       6.420 -10.662 -42.874  1.00  0.00     0.214 C 
ATOM     29  O   UNL     1       6.038  -8.782 -41.376  1.00  0.00    -0.332 OA
ATOM     30  C   UNL     1       6.323  -9.757 -44.114  1.00  0.00     0.180 C 
ATOM     31  C   UNL     1       5.730  -7.864 -42.417  1.00  0.00     0.179 C 
ATOM     32  C   UNL     1       6.486  -8.251 -43.731  1.00  0.00     0.177 C 
BRANCH  28  33
ATOM     33  O   UNL     1       7.765 -10.800 -42.487  1.00  0.00    -0.384 OA
ATOM     34  H   UNL     1       8.304 -10.850 -43.321  1.00  0.00     0.211 HD
ENDBRANCH  28  33
BRANCH  30  35
ATOM     35  O   UNL     1       5.144 -10.023 -44.837  1.00  0.00    -0.387 OA
ATOM     36  H   UNL     1       4.419 -10.165 -44.180  1.00  0.00     0.211 HD
ENDBRANCH  30  35
BRANCH  31  37
ATOM     37  C   UNL     1       6.144  -6.465 -41.944  1.00  0.00     0.191 C 
BRANCH  37  38
ATOM     38  O   UNL     1       5.755  -5.488 -42.881  1.00  0.00    -0.394 OA
ATOM     39  H   UNL     1       4.761  -5.463 -42.844  1.00  0.00     0.210 HD
ENDBRANCH  37  38
ENDBRANCH  31  37
BRANCH  32  40
ATOM     40  O   UNL     1       6.137  -7.435 -44.831  1.00  0.00    -0.387 OA
ATOM     41  H   UNL     1       5.753  -6.587 -44.483  1.00  0.00     0.211 HD
ENDBRANCH  32  40
ENDBRANCH   1  27
TORSDOF 12
ENDMDL
MODEL 4
REMARK VINA RESULT:    -7.753      0.978      2.449
REMARK INTER + INTRA:         -13.146
REMARK INTER:                 -11.821
REMARK INTRA:                  -1.325
REMARK UNBOUND:                -1.768
REMARK SMILES O=c1c(O[C@@H]2O[C@@H](CO)[C@H](O)[C@H](O)[C@H]2O)c(-c2ccc(O)c(O)c2)oc2cc(O)cc(O)c12
REMARK SMILES IDX 4 1 3 2 16 3 25 4 2 5 26 6 1 7 33 8 27 9 31 10 28 11 30 12
REMARK SMILES IDX 17 13 18 14 19 15 20 16 24 17 22 18 21 19 23 21 32 23 29 25
REMARK SMILES IDX 5 27 14 28 6 29 12 30 7 31 10 32 15 33 13 35 8 37 9 38 11 40
REMARK H PARENT 21 20 23 22 32 24 29 26 15 34 13 36 9 39 11 41
REMARK Flexibility Score: inf
ROOT
ATOM      1  O   UNL     1       4.784  -9.377 -40.595  1.00  0.00    -0.454 OA
ENDROOT
BRANCH   1   2
ATOM      2  C   UNL     1       3.555 -10.038 -40.600  1.00  0.00     0.214 A 
ATOM      3  C   UNL     1       2.428  -9.315 -41.015  1.00  0.00     0.180 A 
ATOM      4  O   UNL     1       1.222  -9.856 -40.914  1.00  0.00    -0.452 OA
ATOM      5  C   UNL     1       3.400 -11.379 -40.221  1.00  0.00     0.239 A 
ATOM      6  C   UNL     1       1.014 -11.098 -40.477  1.00  0.00     0.146 A 
ATOM      7  O   UNL     1       4.420 -12.058 -39.947  1.00  0.00    -0.285 OA
ATOM      8  C   UNL     1       2.105 -11.950 -40.173  1.00  0.00     0.111 A 
ATOM      9  C   UNL     1      -0.306 -11.530 -40.290  1.00  0.00     0.094 A 
ATOM     10  C   UNL     1       1.821 -13.289 -39.778  1.00  0.00     0.134 A 
ATOM     11  C   UNL     1      -0.562 -12.805 -39.778  1.00  0.00     0.123 A 
ATOM     12  C   UNL     1       0.496 -13.681 -39.562  1.00  0.00     0.093 A 
BRANCH   3  13
ATOM     13  C   UNL     1       2.538  -7.953 -41.555  1.00  0.00     0.025 A 
ATOM     14  C   UNL     1       2.682  -7.731 -42.930  1.00  0.00     0.016 A 
ATOM     15  C   UNL     1       2.706  -6.422 -43.427  1.00  0.00     0.051 A 
ATOM     16  C   UNL     1       2.573  -5.323 -42.548  1.00  0.00     0.157 A 
ATOM     17  C   UNL     1       2.426  -6.863 -40.683  1.00  0.00     0.062 A 
ATOM     18  C   UNL     1       2.445  -5.553 -41.167  1.00  0.00     0.158 A 
BRANCH  16  19
ATOM     19  O   UNL     1       2.544  -4.017 -43.040  1.00  0.00    -0.504 OA
ATOM     20  H   UNL     1       1.814  -3.718 -43.681  1.00  0.00     0.293 HD
ENDBRANCH  16  19
BRANCH  18  21
ATOM     21  O   UNL     1       2.315  -4.496 -40.254  1.00  0.00    -0.504 OA
ATOM     22  H   UNL     1       1.452  -4.344 -39.744  1.00  0.00     0.293 HD
ENDBRANCH  18  21
ENDBRANCH   3  13
BRANCH  10  23
ATOM     23  O   UNL     1       2.798 -14.267 -39.565  1.00  0.00    -0.507 OA
ATOM     24  H   UNL     1       3.765 -14.076 -39.318  1.00  0.00     0.293 HD
ENDBRANCH  10  23
BRANCH  11  25
ATOM     25  O   UNL     1      -1.867 -13.199 -39.467  1.00  0.00    -0.508 OA
ATOM     26  H   UNL     1      -2.169 -14.156 -39.606  1.00  0.00     0.293 HD
ENDBRANCH  11  25
ENDBRANCH   1   2
BRANCH   1  27
ATOM     27  C   UNL     1       5.742  -9.341 -41.670  1.00  0.00     0.339 C 
ATOM     28  C   UNL     1       6.369  -7.939 -41.798  1.00  0.00     0.214 C 
ATOM     29  O   UNL     1       6.750 -10.324 -41.497  1.00  0.00    -0.332 OA
ATOM     30  C   UNL     1       7.237  -7.596 -40.574  1.00  0.00     0.180 C 
ATOM     31  C   UNL     1       7.407 -10.180 -40.246  1.00  0.00     0.179 C 
ATOM     32  C   UNL     1       8.144  -8.801 -40.168  1.00  0.00     0.177 C 
BRANCH  28  33
ATOM     33  O   UNL     1       7.147  -7.880 -42.968  1.00  0.00    -0.384 OA
ATOM     34  H   UNL     1       7.196  -8.804 -43.332  1.00  0.00     0.211 HD
ENDBRANCH  28  33
BRANCH  30  35
ATOM     35  O   UNL     1       6.443  -7.115 -39.516  1.00  0.00    -0.387 OA
ATOM     36  H   UNL     1       6.696  -7.617 -38.703  1.00  0.00     0.211 HD
ENDBRANCH  30  35
BRANCH  31  37
ATOM     37  C   UNL     1       8.405 -11.337 -40.106  1.00  0.00     0.191 C 
BRANCH  37  38
ATOM     38  O   UNL     1       7.907 -12.321 -39.231  1.00  0.00    -0.394 OA
ATOM     39  H   UNL     1       6.928 -12.155 -39.171  1.00  0.00     0.210 HD
ENDBRANCH  37  38
ENDBRANCH  31  37
BRANCH  32  40
ATOM     40  O   UNL     1       8.730  -8.557 -38.905  1.00  0.00    -0.387 OA
ATOM     41  H   UNL     1       9.298  -7.745 -38.975  1.00  0.00     0.211 HD
ENDBRANCH  32  40
ENDBRANCH   1  27
TORSDOF 12
ENDMDL
MODEL 5
REMARK VINA RESULT:    -7.747      2.569      7.927
REMARK INTER + INTRA:         -13.138
REMARK INTER:                 -11.492
REMARK INTRA:                  -1.646
REMARK UNBOUND:                -1.768
REMARK SMILES O=c1c(O[C@@H]2O[C@@H](CO)[C@H](O)[C@H](O)[C@H]2O)c(-c2ccc(O)c(O)c2)oc2cc(O)cc(O)c12
REMARK SMILES IDX 4 1 3 2 16 3 25 4 2 5 26 6 1 7 33 8 27 9 31 10 28 11 30 12
REMARK SMILES IDX 17 13 18 14 19 15 20 16 24 17 22 18 21 19 23 21 32 23 29 25
REMARK SMILES IDX 5 27 14 28 6 29 12 30 7 31 10 32 15 33 13 35 8 37 9 38 11 40
REMARK H PARENT 21 20 23 22 32 24 29 26 15 34 13 36 9 39 11 41
REMARK Flexibility Score: inf
ROOT
ATOM      1  O   UNL     1       4.843  -8.091 -41.921  1.00  0.00    -0.454 OA
ENDROOT
BRANCH   1   2
ATOM      2  C   UNL     1       5.954  -7.597 -41.235  1.00  0.00     0.214 A 
ATOM      3  C   UNL     1       6.900  -8.524 -40.776  1.00  0.00     0.180 A 
ATOM      4  O   UNL     1       7.904  -8.118 -40.010  1.00  0.00    -0.452 OA
ATOM      5  C   UNL     1       6.168  -6.233 -40.996  1.00  0.00     0.239 A 
ATOM      6  C   UNL     1       8.100  -6.841 -39.681  1.00  0.00     0.146 A 
ATOM      7  O   UNL     1       5.376  -5.395 -41.494  1.00  0.00    -0.285 OA
ATOM      8  C   UNL     1       7.277  -5.821 -40.219  1.00  0.00     0.111 A 
ATOM      9  C   UNL     1       9.115  -6.535 -38.765  1.00  0.00     0.094 A 
ATOM     10  C   UNL     1       7.581  -4.470 -39.886  1.00  0.00     0.134 A 
ATOM     11  C   UNL     1       9.313  -5.214 -38.352  1.00  0.00     0.123 A 
ATOM     12  C   UNL     1       8.573  -4.195 -38.941  1.00  0.00     0.093 A 
BRANCH   3  13
ATOM     13  C   UNL     1       6.811  -9.951 -41.110  1.00  0.00     0.025 A 
ATOM     14  C   UNL     1       6.970 -10.396 -42.429  1.00  0.00     0.016 A 
ATOM     15  C   UNL     1       6.958 -11.768 -42.709  1.00  0.00     0.051 A 
ATOM     16  C   UNL     1       6.800 -12.708 -41.665  1.00  0.00     0.157 A 
ATOM     17  C   UNL     1       6.635 -10.883 -40.079  1.00  0.00     0.062 A 
ATOM     18  C   UNL     1       6.626 -12.254 -40.346  1.00  0.00     0.158 A 
BRANCH  16  19
ATOM     19  O   UNL     1       6.840 -14.078 -41.928  1.00  0.00    -0.504 OA
ATOM     20  H   UNL     1       7.026 -14.747 -41.185  1.00  0.00     0.293 HD
ENDBRANCH  16  19
BRANCH  18  21
ATOM     21  O   UNL     1       6.461 -13.146 -39.277  1.00  0.00    -0.504 OA
ATOM     22  H   UNL     1       5.802 -12.958 -38.530  1.00  0.00     0.293 HD
ENDBRANCH  18  21
ENDBRANCH   3  13
BRANCH  10  23
ATOM     23  O   UNL     1       6.928  -3.362 -40.438  1.00  0.00    -0.507 OA
ATOM     24  H   UNL     1       5.956  -3.349 -40.732  1.00  0.00     0.293 HD
ENDBRANCH  10  23
BRANCH  11  25
ATOM     25  O   UNL     1      10.235  -4.913 -37.345  1.00  0.00    -0.508 OA
ATOM     26  H   UNL     1      11.186  -5.258 -37.390  1.00  0.00     0.293 HD
ENDBRANCH  11  25
ENDBRANCH   1   2
BRANCH   1  27
ATOM     27  C   UNL     1       3.486  -8.130 -41.441  1.00  0.00     0.339 C 
ATOM     28  C   UNL     1       2.506  -7.656 -42.531  1.00  0.00     0.214 C 
ATOM     29  O   UNL     1       3.137  -9.427 -40.985  1.00  0.00    -0.332 OA
ATOM     30  C   UNL     1       2.461  -8.638 -43.715  1.00  0.00     0.180 C 
ATOM     31  C   UNL     1       3.329 -10.404 -41.999  1.00  0.00     0.179 C 
ATOM     32  C   UNL     1       2.393 -10.118 -43.220  1.00  0.00     0.177 C 
BRANCH  28  33
ATOM     33  O   UNL     1       1.221  -7.519 -41.975  1.00  0.00    -0.384 OA
ATOM     34  H   UNL     1       1.015  -6.546 -41.953  1.00  0.00     0.211 HD
ENDBRANCH  28  33
BRANCH  30  35
ATOM     35  O   UNL     1       3.525  -8.397 -44.605  1.00  0.00    -0.387 OA
ATOM     36  H   UNL     1       3.744  -7.434 -44.551  1.00  0.00     0.211 HD
ENDBRANCH  30  35
BRANCH  31  37
ATOM     37  C   UNL     1       3.021 -11.777 -41.389  1.00  0.00     0.191 C 
BRANCH  37  38
ATOM     38  O   UNL     1       3.359 -12.808 -42.287  1.00  0.00    -0.394 OA
ATOM     39  H   UNL     1       4.238 -13.155 -41.977  1.00  0.00     0.210 HD
ENDBRANCH  37  38
ENDBRANCH  31  37
BRANCH  32  40
ATOM     40  O   UNL     1       2.614 -10.998 -44.305  1.00  0.00    -0.387 OA
ATOM     41  H   UNL     1       3.591 -11.165 -44.379  1.00  0.00     0.211 HD
ENDBRANCH  32  40
ENDBRANCH   1  27
TORSDOF 12
ENDMDL
MODEL 6
REMARK VINA RESULT:    -7.717      3.925      6.848
REMARK INTER + INTRA:         -13.093
REMARK INTER:                 -11.453
REMARK INTRA:                  -1.640
REMARK UNBOUND:                -1.768
REMARK SMILES O=c1c(O[C@@H]2O[C@@H](CO)[C@H](O)[C@H](O)[C@H]2O)c(-c2ccc(O)c(O)c2)oc2cc(O)cc(O)c12
REMARK SMILES IDX 4 1 3 2 16 3 25 4 2 5 26 6 1 7 33 8 27 9 31 10 28 11 30 12
REMARK SMILES IDX 17 13 18 14 19 15 20 16 24 17 22 18 21 19 23 21 32 23 29 25
REMARK SMILES IDX 5 27 14 28 6 29 12 30 7 31 10 32 15 33 13 35 8 37 9 38 11 40
REMARK H PARENT 21 20 23 22 32 24 29 26 15 34 13 36 9 39 11 41
REMARK Flexibility Score: inf
ROOT
ATOM      1  O   UNL     1       5.813  -8.197 -42.807  1.00  0.00    -0.454 OA
ENDROOT
BRANCH   1   2
ATOM      2  C   UNL     1       6.633  -7.808 -41.746  1.00  0.00     0.214 A 
ATOM      3  C   UNL     1       6.106  -6.903 -40.815  1.00  0.00     0.180 A 
ATOM      4  O   UNL     1       6.885  -6.405 -39.864  1.00  0.00    -0.452 OA
ATOM      5  C   UNL     1       7.939  -8.283 -41.568  1.00  0.00     0.239 A 
ATOM      6  C   UNL     1       8.161  -6.759 -39.707  1.00  0.00     0.146 A 
ATOM      7  O   UNL     1       8.377  -9.170 -42.342  1.00  0.00    -0.285 OA
ATOM      8  C   UNL     1       8.734  -7.774 -40.513  1.00  0.00     0.111 A 
ATOM      9  C   UNL     1       8.931  -6.082 -38.752  1.00  0.00     0.094 A 
ATOM     10  C   UNL     1      10.081  -8.158 -40.250  1.00  0.00     0.134 A 
ATOM     11  C   UNL     1      10.286  -6.385 -38.599  1.00  0.00     0.123 A 
ATOM     12  C   UNL     1      10.837  -7.440 -39.319  1.00  0.00     0.093 A 
BRANCH   3  13
ATOM     13  C   UNL     1       4.703  -6.473 -40.862  1.00  0.00     0.025 A 
ATOM     14  C   UNL     1       3.722  -7.119 -40.097  1.00  0.00     0.016 A 
ATOM     15  C   UNL     1       2.407  -6.640 -40.100  1.00  0.00     0.051 A 
ATOM     16  C   UNL     1       2.064  -5.499 -40.862  1.00  0.00     0.157 A 
ATOM     17  C   UNL     1       4.358  -5.355 -41.632  1.00  0.00     0.062 A 
ATOM     18  C   UNL     1       3.049  -4.866 -41.640  1.00  0.00     0.158 A 
BRANCH  16  19
ATOM     19  O   UNL     1       0.768  -4.984 -40.830  1.00  0.00    -0.504 OA
ATOM     20  H   UNL     1       0.359  -4.549 -41.653  1.00  0.00     0.293 HD
ENDBRANCH  16  19
BRANCH  18  21
ATOM     21  O   UNL     1       2.759  -3.735 -42.416  1.00  0.00    -0.504 OA
ATOM     22  H   UNL     1       2.066  -3.766 -43.155  1.00  0.00     0.293 HD
ENDBRANCH  18  21
ENDBRANCH   3  13
BRANCH  10  23
ATOM     23  O   UNL     1      10.730  -9.222 -40.885  1.00  0.00    -0.507 OA
ATOM     24  H   UNL     1      11.524  -9.728 -40.503  1.00  0.00     0.293 HD
ENDBRANCH  10  23
BRANCH  11  25
ATOM     25  O   UNL     1      11.093  -5.630 -37.743  1.00  0.00    -0.508 OA
ATOM     26  H   UNL     1      11.979  -5.990 -37.410  1.00  0.00     0.293 HD
ENDBRANCH  11  25
ENDBRANCH   1   2
BRANCH   1  27
ATOM     27  C   UNL     1       5.625  -7.493 -44.048  1.00  0.00     0.339 C 
ATOM     28  C   UNL     1       6.600  -8.007 -45.124  1.00  0.00     0.214 C 
ATOM     29  O   UNL     1       4.284  -7.593 -44.500  1.00  0.00    -0.332 OA
ATOM     30  C   UNL     1       6.284  -9.460 -45.523  1.00  0.00     0.180 C 
ATOM     31  C   UNL     1       3.882  -8.949 -44.638  1.00  0.00     0.179 C 
ATOM     32  C   UNL     1       4.749  -9.671 -45.722  1.00  0.00     0.177 C 
BRANCH  28  33
ATOM     33  O   UNL     1       6.528  -7.174 -46.256  1.00  0.00    -0.384 OA
ATOM     34  H   UNL     1       7.213  -6.463 -46.139  1.00  0.00     0.211 HD
ENDBRANCH  28  33
BRANCH  30  35
ATOM     35  O   UNL     1       6.857 -10.365 -44.610  1.00  0.00    -0.387 OA
ATOM     36  H   UNL     1       6.303 -10.352 -43.792  1.00  0.00     0.211 HD
ENDBRANCH  30  35
BRANCH  31  37
ATOM     37  C   UNL     1       2.400  -8.959 -45.034  1.00  0.00     0.191 C 
BRANCH  37  38
ATOM     38  O   UNL     1       2.245  -9.371 -46.371  1.00  0.00    -0.394 OA
ATOM     39  H   UNL     1       1.401  -9.897 -46.393  1.00  0.00     0.210 HD
ENDBRANCH  37  38
ENDBRANCH  31  37
BRANCH  32  40
ATOM     40  O   UNL     1       4.464 -11.052 -45.829  1.00  0.00    -0.387 OA
ATOM     41  H   UNL     1       4.274 -11.404 -44.920  1.00  0.00     0.211 HD
ENDBRANCH  32  40
ENDBRANCH   1  27
TORSDOF 12
ENDMDL
MODEL 7
REMARK VINA RESULT:    -7.626      2.593      3.708
REMARK INTER + INTRA:         -12.961
REMARK INTER:                 -11.631
REMARK INTRA:                  -1.329
REMARK UNBOUND:                -1.768
REMARK SMILES O=c1c(O[C@@H]2O[C@@H](CO)[C@H](O)[C@H](O)[C@H]2O)c(-c2ccc(O)c(O)c2)oc2cc(O)cc(O)c12
REMARK SMILES IDX 4 1 3 2 16 3 25 4 2 5 26 6 1 7 33 8 27 9 31 10 28 11 30 12
REMARK SMILES IDX 17 13 18 14 19 15 20 16 24 17 22 18 21 19 23 21 32 23 29 25
REMARK SMILES IDX 5 27 14 28 6 29 12 30 7 31 10 32 15 33 13 35 8 37 9 38 11 40
REMARK H PARENT 21 20 23 22 32 24 29 26 15 34 13 36 9 39 11 41
REMARK Flexibility Score: inf
ROOT
ATOM      1  O   UNL     1       7.374  -7.377 -40.127  1.00  0.00    -0.454 OA
ENDROOT
BRANCH   1   2
ATOM      2  C   UNL     1       6.713  -8.590 -40.333  1.00  0.00     0.214 A 
ATOM      3  C   UNL     1       5.415  -8.543 -40.859  1.00  0.00     0.180 A 
ATOM      4  O   UNL     1       4.699  -9.655 -40.952  1.00  0.00    -0.452 OA
ATOM      5  C   UNL     1       7.286  -9.837 -40.051  1.00  0.00     0.239 A 
ATOM      6  C   UNL     1       5.169 -10.855 -40.613  1.00  0.00     0.146 A 
ATOM      7  O   UNL     1       8.484  -9.888 -39.677  1.00  0.00    -0.285 OA
ATOM      8  C   UNL     1       6.518 -11.015 -40.210  1.00  0.00     0.111 A 
ATOM      9  C   UNL     1       4.292 -11.947 -40.631  1.00  0.00     0.094 A 
ATOM     10  C   UNL     1       6.981 -12.333 -39.929  1.00  0.00     0.134 A 
ATOM     11  C   UNL     1       4.734 -13.210 -40.227  1.00  0.00     0.123 A 
ATOM     12  C   UNL     1       6.076 -13.398 -39.916  1.00  0.00     0.093 A 
BRANCH   3  13
ATOM     13  C   UNL     1       4.806  -7.283 -41.306  1.00  0.00     0.025 A 
ATOM     14  C   UNL     1       5.050  -6.778 -42.590  1.00  0.00     0.016 A 
ATOM     15  C   UNL     1       4.396  -5.616 -43.019  1.00  0.00     0.051 A 
ATOM     16  C   UNL     1       3.481  -4.956 -42.167  1.00  0.00     0.157 A 
ATOM     17  C   UNL     1       3.914  -6.617 -40.456  1.00  0.00     0.062 A 
ATOM     18  C   UNL     1       3.253  -5.460 -40.874  1.00  0.00     0.158 A 
BRANCH  16  19
ATOM     19  O   UNL     1       2.786  -3.828 -42.605  1.00  0.00    -0.504 OA
ATOM     20  H   UNL     1       1.947  -3.921 -43.172  1.00  0.00     0.293 HD
ENDBRANCH  16  19
BRANCH  18  21
ATOM     21  O   UNL     1       2.358  -4.839 -39.991  1.00  0.00    -0.504 OA
ATOM     22  H   UNL     1       2.066  -3.877 -40.126  1.00  0.00     0.293 HD
ENDBRANCH  18  21
ENDBRANCH   3  13
BRANCH  10  23
ATOM     23  O   UNL     1       8.313 -12.649 -39.637  1.00  0.00    -0.507 OA
ATOM     24  H   UNL     1       8.688 -13.592 -39.592  1.00  0.00     0.293 HD
ENDBRANCH  10  23
BRANCH  11  25
ATOM     25  O   UNL     1       3.838 -14.278 -40.118  1.00  0.00    -0.508 OA
ATOM     26  H   UNL     1       4.113 -15.146 -39.676  1.00  0.00     0.293 HD
ENDBRANCH  11  25
ENDBRANCH   1   2
BRANCH   1  27
ATOM     27  C   UNL     1       7.545  -6.697 -38.870  1.00  0.00     0.339 C 
ATOM     28  C   UNL     1       8.822  -7.179 -38.156  1.00  0.00     0.214 C 
ATOM     29  O   UNL     1       7.570  -5.290 -39.043  1.00  0.00    -0.332 OA
ATOM     30  C   UNL     1      10.089  -6.764 -38.926  1.00  0.00     0.180 C 
ATOM     31  C   UNL     1       8.584  -4.897 -39.957  1.00  0.00     0.179 C 
ATOM     32  C   UNL     1       9.998  -5.281 -39.407  1.00  0.00     0.177 C 
BRANCH  28  33
ATOM     33  O   UNL     1       8.859  -6.647 -36.854  1.00  0.00    -0.384 OA
ATOM     34  H   UNL     1       9.398  -7.271 -36.299  1.00  0.00     0.211 HD
ENDBRANCH  28  33
BRANCH  30  35
ATOM     35  O   UNL     1      10.361  -7.672 -39.967  1.00  0.00    -0.387 OA
ATOM     36  H   UNL     1      10.362  -8.580 -39.576  1.00  0.00     0.211 HD
ENDBRANCH  30  35
BRANCH  31  37
ATOM     37  C   UNL     1       8.472  -3.380 -40.155  1.00  0.00     0.191 C 
BRANCH  37  38
ATOM     38  O   UNL     1       7.155  -2.943 -39.916  1.00  0.00    -0.394 OA
ATOM     39  H   UNL     1       6.571  -3.556 -40.438  1.00  0.00     0.210 HD
ENDBRANCH  37  38
ENDBRANCH  31  37
BRANCH  32  40
ATOM     40  O   UNL     1      11.041  -5.008 -40.322  1.00  0.00    -0.387 OA
ATOM     41  H   UNL     1      10.687  -5.124 -41.243  1.00  0.00     0.211 HD
ENDBRANCH  32  40
ENDBRANCH   1  27
TORSDOF 12
ENDMDL
MODEL 8
REMARK VINA RESULT:    -7.612      3.226      7.183
REMARK INTER + INTRA:         -12.940
REMARK INTER:                 -11.259
REMARK INTRA:                  -1.680
REMARK UNBOUND:                -1.768
REMARK SMILES O=c1c(O[C@@H]2O[C@@H](CO)[C@H](O)[C@H](O)[C@H]2O)c(-c2ccc(O)c(O)c2)oc2cc(O)cc(O)c12
REMARK SMILES IDX 4 1 3 2 16 3 25 4 2 5 26 6 1 7 33 8 27 9 31 10 28 11 30 12
REMARK SMILES IDX 17 13 18 14 19 15 20 16 24 17 22 18 21 19 23 21 32 23 29 25
REMARK SMILES IDX 5 27 14 28 6 29 12 30 7 31 10 32 15 33 13 35 8 37 9 38 11 40
REMARK H PARENT 21 20 23 22 32 24 29 26 15 34 13 36 9 39 11 41
REMARK Flexibility Score: inf
ROOT
ATOM      1  O   UNL     1       1.712 -10.834 -41.814  1.00  0.00    -0.454 OA
ENDROOT
BRANCH   1   2
ATOM      2  C   UNL     1       2.983 -11.292 -41.460  1.00  0.00     0.214 A 
ATOM      3  C   UNL     1       3.166 -11.762 -40.153  1.00  0.00     0.180 A 
ATOM      4  O   UNL     1       4.380 -12.087 -39.731  1.00  0.00    -0.452 OA
ATOM      5  C   UNL     1       4.069 -11.311 -42.347  1.00  0.00     0.239 A 
ATOM      6  C   UNL     1       5.460 -12.037 -40.511  1.00  0.00     0.146 A 
ATOM      7  O   UNL     1       3.883 -10.986 -43.546  1.00  0.00    -0.285 OA
ATOM      8  C   UNL     1       5.345 -11.712 -41.886  1.00  0.00     0.111 A 
ATOM      9  C   UNL     1       6.714 -12.279 -39.934  1.00  0.00     0.094 A 
ATOM     10  C   UNL     1       6.526 -11.745 -42.683  1.00  0.00     0.134 A 
ATOM     11  C   UNL     1       7.874 -12.180 -40.707  1.00  0.00     0.123 A 
ATOM     12  C   UNL     1       7.767 -11.951 -42.075  1.00  0.00     0.093 A 
BRANCH   3  13
ATOM     13  C   UNL     1       2.043 -11.901 -39.216  1.00  0.00     0.025 A 
ATOM     14  C   UNL     1       1.318 -13.097 -39.128  1.00  0.00     0.016 A 
ATOM     15  C   UNL     1       0.303 -13.229 -38.173  1.00  0.00     0.051 A 
ATOM     16  C   UNL     1       0.014 -12.165 -37.287  1.00  0.00     0.157 A 
ATOM     17  C   UNL     1       1.742 -10.841 -38.352  1.00  0.00     0.062 A 
ATOM     18  C   UNL     1       0.734 -10.962 -37.392  1.00  0.00     0.158 A 
BRANCH  16  19
ATOM     19  O   UNL     1      -0.960 -12.307 -36.298  1.00  0.00    -0.504 OA
ATOM     20  H   UNL     1      -1.374 -11.492 -35.853  1.00  0.00     0.293 HD
ENDBRANCH  16  19
BRANCH  18  21
ATOM     21  O   UNL     1       0.481  -9.877 -36.541  1.00  0.00    -0.504 OA
ATOM     22  H   UNL     1      -0.281  -9.233 -36.719  1.00  0.00     0.293 HD
ENDBRANCH  18  21
ENDBRANCH   3  13
BRANCH  10  23
ATOM     23  O   UNL     1       6.539 -11.563 -44.070  1.00  0.00    -0.507 OA
ATOM     24  H   UNL     1       6.944 -12.214 -44.736  1.00  0.00     0.293 HD
ENDBRANCH  10  23
BRANCH  11  25
ATOM     25  O   UNL     1       9.136 -12.292 -40.117  1.00  0.00    -0.508 OA
ATOM     26  H   UNL     1       9.678 -11.468 -39.885  1.00  0.00     0.293 HD
ENDBRANCH  11  25
ENDBRANCH   1   2
BRANCH   1  27
ATOM     27  C   UNL     1       1.259  -9.468 -41.799  1.00  0.00     0.339 C 
ATOM     28  C   UNL     1       1.464  -8.808 -43.176  1.00  0.00     0.214 C 
ATOM     29  O   UNL     1      -0.100  -9.379 -41.401  1.00  0.00    -0.332 OA
ATOM     30  C   UNL     1       0.557  -9.442 -44.246  1.00  0.00     0.180 C 
ATOM     31  C   UNL     1      -0.938 -10.168 -42.234  1.00  0.00     0.179 C 
ATOM     32  C   UNL     1      -0.895  -9.646 -43.708  1.00  0.00     0.177 C 
BRANCH  28  33
ATOM     33  O   UNL     1       1.197  -7.430 -43.078  1.00  0.00    -0.384 OA
ATOM     34  H   UNL     1       1.694  -7.093 -42.286  1.00  0.00     0.211 HD
ENDBRANCH  28  33
BRANCH  30  35
ATOM     35  O   UNL     1       1.134 -10.621 -44.755  1.00  0.00    -0.387 OA
ATOM     36  H   UNL     1       2.078 -10.421 -44.969  1.00  0.00     0.211 HD
ENDBRANCH  30  35
BRANCH  31  37
ATOM     37  C   UNL     1      -2.364 -10.088 -41.671  1.00  0.00     0.191 C 
BRANCH  37  38
ATOM     38  O   UNL     1      -3.134 -11.181 -42.112  1.00  0.00    -0.394 OA
ATOM     39  H   UNL     1      -3.103 -11.846 -41.372  1.00  0.00     0.210 HD
ENDBRANCH  37  38
ENDBRANCH  31  37
BRANCH  32  40
ATOM     40  O   UNL     1      -1.630 -10.456 -44.604  1.00  0.00    -0.387 OA
ATOM     41  H   UNL     1      -1.030 -11.171 -44.943  1.00  0.00     0.211 HD
ENDBRANCH  32  40
ENDBRANCH   1  27
TORSDOF 12
ENDMDL
MODEL 9
REMARK VINA RESULT:    -7.596      2.913      7.814
REMARK INTER + INTRA:         -12.917
REMARK INTER:                 -11.618
REMARK INTRA:                  -1.299
REMARK UNBOUND:                -1.768
REMARK SMILES O=c1c(O[C@@H]2O[C@@H](CO)[C@H](O)[C@H](O)[C@H]2O)c(-c2ccc(O)c(O)c2)oc2cc(O)cc(O)c12
REMARK SMILES IDX 4 1 3 2 16 3 25 4 2 5 26 6 1 7 33 8 27 9 31 10 28 11 30 12
REMARK SMILES IDX 17 13 18 14 19 15 20 16 24 17 22 18 21 19 23 21 32 23 29 25
REMARK SMILES IDX 5 27 14 28 6 29 12 30 7 31 10 32 15 33 13 35 8 37 9 38 11 40
REMARK H PARENT 21 20 23 22 32 24 29 26 15 34 13 36 9 39 11 41
REMARK Flexibility Score: inf
ROOT
ATOM      1  O   UNL     1       4.884  -7.761 -41.850  1.00  0.00    -0.454 OA
ENDROOT
BRANCH   1   2
ATOM      2  C   UNL     1       6.021  -7.346 -41.153  1.00  0.00     0.214 A 
ATOM      3  C   UNL     1       6.941  -8.328 -40.763  1.00  0.00     0.180 A 
ATOM      4  O   UNL     1       7.967  -8.003 -39.990  1.00  0.00    -0.452 OA
ATOM      5  C   UNL     1       6.284  -6.005 -40.839  1.00  0.00     0.239 A 
ATOM      6  C   UNL     1       8.212  -6.754 -39.591  1.00  0.00     0.146 A 
ATOM      7  O   UNL     1       5.515  -5.114 -41.275  1.00  0.00    -0.285 OA
ATOM      8  C   UNL     1       7.417  -5.677 -40.056  1.00  0.00     0.111 A 
ATOM      9  C   UNL     1       9.249  -6.536 -38.674  1.00  0.00     0.094 A 
ATOM     10  C   UNL     1       7.772  -4.359 -39.650  1.00  0.00     0.134 A 
ATOM     11  C   UNL     1       9.498  -5.250 -38.188  1.00  0.00     0.123 A 
ATOM     12  C   UNL     1       8.785  -4.173 -38.705  1.00  0.00     0.093 A 
BRANCH   3  13
ATOM     13  C   UNL     1       6.798  -9.730 -41.178  1.00  0.00     0.025 A 
ATOM     14  C   UNL     1       7.388 -10.198 -42.359  1.00  0.00     0.016 A 
ATOM     15  C   UNL     1       7.303 -11.555 -42.693  1.00  0.00     0.051 A 
ATOM     16  C   UNL     1       6.635 -12.460 -41.835  1.00  0.00     0.157 A 
ATOM     17  C   UNL     1       6.120 -10.624 -40.340  1.00  0.00     0.062 A 
ATOM     18  C   UNL     1       6.032 -11.981 -40.659  1.00  0.00     0.158 A 
BRANCH  16  19
ATOM     19  O   UNL     1       6.591 -13.822 -42.133  1.00  0.00    -0.504 OA
ATOM     20  H   UNL     1       6.634 -14.519 -41.394  1.00  0.00     0.293 HD
ENDBRANCH  16  19
BRANCH  18  21
ATOM     21  O   UNL     1       5.355 -12.837 -39.779  1.00  0.00    -0.504 OA
ATOM     22  H   UNL     1       4.573 -13.403 -40.091  1.00  0.00     0.293 HD
ENDBRANCH  18  21
ENDBRANCH   3  13
BRANCH  10  23
ATOM     23  O   UNL     1       7.151  -3.199 -40.127  1.00  0.00    -0.507 OA
ATOM     24  H   UNL     1       6.161  -2.990 -40.029  1.00  0.00     0.293 HD
ENDBRANCH  10  23
BRANCH  11  25
ATOM     25  O   UNL     1      10.443  -5.039 -37.180  1.00  0.00    -0.508 OA
ATOM     26  H   UNL     1      10.236  -4.442 -36.389  1.00  0.00     0.293 HD
ENDBRANCH  11  25
ENDBRANCH   1   2
BRANCH   1  27
ATOM     27  C   UNL     1       4.637  -7.603 -43.259  1.00  0.00     0.339 C 
ATOM     28  C   UNL     1       4.053  -8.895 -43.861  1.00  0.00     0.214 C 
ATOM     29  O   UNL     1       3.779  -6.502 -43.513  1.00  0.00    -0.332 OA
ATOM     30  C   UNL     1       2.644  -9.185 -43.313  1.00  0.00     0.180 C 
ATOM     31  C   UNL     1       2.552  -6.626 -42.808  1.00  0.00     0.179 C 
ATOM     32  C   UNL     1       1.768  -7.892 -43.290  1.00  0.00     0.177 C 
BRANCH  28  33
ATOM     33  O   UNL     1       4.006  -8.778 -45.262  1.00  0.00    -0.384 OA
ATOM     34  H   UNL     1       3.961  -9.701 -45.630  1.00  0.00     0.211 HD
ENDBRANCH  28  33
BRANCH  30  35
ATOM     35  O   UNL     1       2.717  -9.832 -42.065  1.00  0.00    -0.387 OA
ATOM     36  H   UNL     1       2.111 -10.613 -42.099  1.00  0.00     0.211 HD
ENDBRANCH  30  35
BRANCH  31  37
ATOM     37  C   UNL     1       1.735  -5.353 -43.064  1.00  0.00     0.191 C 
BRANCH  37  38
ATOM     38  O   UNL     1       2.564  -4.215 -43.031  1.00  0.00    -0.394 OA
ATOM     39  H   UNL     1       2.567  -3.914 -42.083  1.00  0.00     0.210 HD
ENDBRANCH  37  38
ENDBRANCH  31  37
BRANCH  32  40
ATOM     40  O   UNL     1       0.586  -8.126 -42.550  1.00  0.00    -0.387 OA
ATOM     41  H   UNL     1       0.151  -7.251 -42.370  1.00  0.00     0.211 HD
ENDBRANCH  32  40
ENDBRANCH   1  27
TORSDOF 12
ENDMDL
