MODEL 1
REMARK VINA RESULT:    -5.054      0.000      0.000
REMARK INTER + INTRA:         -12.093
REMARK INTER:                  -9.781
REMARK INTRA:                  -2.311
REMARK UNBOUND:                -2.311
REMARK SMILES CCCCCCCCCCCCCCCCCC(=O)[O-]
REMARK SMILES IDX 10 1 11 2 12 3 13 4 14 5 15 6 16 7 17 8 18 9 19 10 20 11
REMARK SMILES IDX 9 12 8 13 7 14 6 15 5 16 4 17 3 18 2 19 1 20
REMARK H PARENT
REMARK Flexibility Score: inf
ROOT
ATOM      1  C   UNL     1      12.565  21.052  28.674  1.00  0.00     0.000 C 
ENDROOT
BRANCH   1   2
ATOM      2  C   UNL     1      13.175  19.642  28.801  1.00  0.00     0.000 C 
BRANCH   2   3
ATOM      3  C   UNL     1      14.565  19.612  29.470  1.00  0.00     0.000 C 
BRANCH   3   4
ATOM      4  C   UNL     1      14.838  20.865  30.320  1.00  0.00     0.000 C 
BRANCH   4   5
ATOM      5  C   UNL     1      15.960  21.714  29.707  1.00  0.00     0.000 C 
BRANCH   5   6
ATOM      6  C   UNL     1      16.791  20.891  28.710  1.00  0.00     0.000 C 
BRANCH   6   7
ATOM      7  C   UNL     1      17.001  21.612  27.370  1.00  0.00     0.006 C 
BRANCH   7   8
ATOM      8  C   UNL     1      15.687  22.116  26.757  1.00  0.00     0.053 C 
BRANCH   8   9
ATOM      9  C   UNL     1      15.957  22.960  25.552  1.00  0.00     0.041 C 
ATOM     10  O   UNL     1      15.994  24.215  25.655  1.00  0.00    -0.550 OA
ATOM     11  O   UNL     1      16.198  22.362  24.321  1.00  0.00    -0.550 OA
ENDBRANCH   8   9
ENDBRANCH   7   8
ENDBRANCH   6   7
ENDBRANCH   5   6
ENDBRANCH   4   5
ENDBRANCH   3   4
ENDBRANCH   2   3
ENDBRANCH   1   2
BRANCH   1  12
ATOM     12  C   UNL     1      11.027  21.119  28.742  1.00  0.00     0.000 C 
BRANCH  12  13
ATOM     13  C   UNL     1      10.423  20.602  30.061  1.00  0.00    -0.000 C 
BRANCH  13  14
ATOM     14  C   UNL     1       8.968  21.058  30.263  1.00  0.00    -0.000 C 
BRANCH  14  15
ATOM     15  C   UNL     1       8.850  22.557  30.591  1.00  0.00    -0.000 C 
BRANCH  15  16
ATOM     16  C   UNL     1       9.463  22.947  31.954  1.00  0.00    -0.000 C 
BRANCH  16  17
ATOM     17  C   UNL     1      10.300  24.232  31.860  1.00  0.00    -0.000 C 
BRANCH  17  18
ATOM     18  C   UNL     1      11.169  24.240  30.595  1.00  0.00    -0.000 C 
BRANCH  18  19
ATOM     19  C   UNL     1      12.672  24.142  30.909  1.00  0.00    -0.003 C 
ATOM     20  C   UNL     1      13.551  24.514  29.715  1.00  0.00     0.004 C 
ENDBRANCH  18  19
ENDBRANCH  17  18
ENDBRANCH  16  17
ENDBRANCH  15  16
ENDBRANCH  14  15
ENDBRANCH  13  14
ENDBRANCH  12  13
ENDBRANCH   1  12
TORSDOF 16
ENDMDL
MODEL 2
REMARK VINA RESULT:    -5.001      2.933      6.491
REMARK INTER + INTRA:         -11.990
REMARK INTER:                  -9.325
REMARK INTRA:                  -2.665
REMARK UNBOUND:                -2.311
REMARK SMILES CCCCCCCCCCCCCCCCCC(=O)[O-]
REMARK SMILES IDX 10 1 11 2 12 3 13 4 14 5 15 6 16 7 17 8 18 9 19 10 20 11
REMARK SMILES IDX 9 12 8 13 7 14 6 15 5 16 4 17 3 18 2 19 1 20
REMARK H PARENT
REMARK Flexibility Score: inf
ROOT
ATOM      1  C   UNL     1      13.278  21.524  28.633  1.00  0.00     0.000 C 
ENDROOT
BRANCH   1   2
ATOM      2  C   UNL     1      13.534  22.251  29.969  1.00  0.00     0.000 C 
BRANCH   2   3
ATOM      3  C   UNL     1      13.917  23.737  29.817  1.00  0.00     0.000 C 
BRANCH   3   4
ATOM      4  C   UNL     1      12.844  24.684  30.380  1.00  0.00     0.000 C 
BRANCH   4   5
ATOM      5  C   UNL     1      11.885  23.938  31.317  1.00  0.00     0.000 C 
BRANCH   5   6
ATOM      6  C   UNL     1      10.433  24.390  31.092  1.00  0.00     0.000 C 
BRANCH   6   7
ATOM      7  C   UNL     1       9.459  23.212  30.939  1.00  0.00     0.006 C 
BRANCH   7   8
ATOM      8  C   UNL     1       9.869  22.248  29.817  1.00  0.00     0.053 C 
BRANCH   8   9
ATOM      9  C   UNL     1      10.022  20.857  30.347  1.00  0.00     0.041 C 
ATOM     10  O   UNL     1       9.628  19.875  29.664  1.00  0.00    -0.550 OA
ATOM     11  O   UNL     1      10.627  20.641  31.578  1.00  0.00    -0.550 OA
ENDBRANCH   8   9
ENDBRANCH   7   8
ENDBRANCH   6   7
ENDBRANCH   5   6
ENDBRANCH   4   5
ENDBRANCH   3   4
ENDBRANCH   2   3
ENDBRANCH   1   2
BRANCH   1  12
ATOM     12  C   UNL     1      13.409  19.989  28.676  1.00  0.00     0.000 C 
BRANCH  12  13
ATOM     13  C   UNL     1      14.089  19.442  29.944  1.00  0.00    -0.000 C 
BRANCH  13  14
ATOM     14  C   UNL     1      15.591  19.176  29.741  1.00  0.00    -0.000 C 
BRANCH  14  15
ATOM     15  C   UNL     1      16.476  20.339  30.225  1.00  0.00    -0.000 C 
BRANCH  15  16
ATOM     16  C   UNL     1      17.475  20.844  29.161  1.00  0.00    -0.000 C 
BRANCH  16  17
ATOM     17  C   UNL     1      16.885  21.981  28.313  1.00  0.00    -0.000 C 
BRANCH  17  18
ATOM     18  C   UNL     1      16.778  21.577  26.836  1.00  0.00    -0.000 C 
BRANCH  18  19
ATOM     19  C   UNL     1      15.941  22.568  26.011  1.00  0.00    -0.003 C 
ATOM     20  C   UNL     1      15.840  23.946  26.665  1.00  0.00     0.004 C 
ENDBRANCH  18  19
ENDBRANCH  17  18
ENDBRANCH  16  17
ENDBRANCH  15  16
ENDBRANCH  14  15
ENDBRANCH  13  14
ENDBRANCH  12  13
ENDBRANCH   1  12
TORSDOF 16
ENDMDL
MODEL 3
REMARK VINA RESULT:    -4.985      1.028      3.274
REMARK INTER + INTRA:         -11.959
REMARK INTER:                  -9.608
REMARK INTRA:                  -2.351
REMARK UNBOUND:                -2.311
REMARK SMILES CCCCCCCCCCCCCCCCCC(=O)[O-]
REMARK SMILES IDX 10 1 11 2 12 3 13 4 14 5 15 6 16 7 17 8 18 9 19 10 20 11
REMARK SMILES IDX 9 12 8 13 7 14 6 15 5 16 4 17 3 18 2 19 1 20
REMARK H PARENT
REMARK Flexibility Score: inf
ROOT
ATOM      1  C   UNL     1      13.398  24.748  29.758  1.00  0.00     0.000 C 
ENDROOT
BRANCH   1   2
ATOM      2  C   UNL     1      14.499  23.721  29.425  1.00  0.00     0.000 C 
BRANCH   2   3
ATOM      3  C   UNL     1      14.544  22.510  30.379  1.00  0.00     0.000 C 
BRANCH   3   4
ATOM      4  C   UNL     1      15.980  22.088  30.732  1.00  0.00     0.000 C 
BRANCH   4   5
ATOM      5  C   UNL     1      16.932  22.328  29.553  1.00  0.00     0.000 C 
BRANCH   5   6
ATOM      6  C   UNL     1      16.856  21.173  28.541  1.00  0.00     0.000 C 
BRANCH   6   7
ATOM      7  C   UNL     1      17.048  21.639  27.090  1.00  0.00     0.006 C 
BRANCH   7   8
ATOM      8  C   UNL     1      15.718  21.926  26.380  1.00  0.00     0.053 C 
BRANCH   8   9
ATOM      9  C   UNL     1      15.933  22.813  25.194  1.00  0.00     0.041 C 
ATOM     10  O   UNL     1      15.947  22.323  24.034  1.00  0.00    -0.550 OA
ATOM     11  O   UNL     1      16.086  24.183  25.365  1.00  0.00    -0.550 OA
ENDBRANCH   8   9
ENDBRANCH   7   8
ENDBRANCH   6   7
ENDBRANCH   5   6
ENDBRANCH   4   5
ENDBRANCH   3   4
ENDBRANCH   2   3
ENDBRANCH   1   2
BRANCH   1  12
ATOM     12  C   UNL     1      12.868  24.708  31.204  1.00  0.00     0.000 C 
BRANCH  12  13
ATOM     13  C   UNL     1      11.355  24.448  31.322  1.00  0.00    -0.000 C 
BRANCH  13  14
ATOM     14  C   UNL     1      11.033  22.992  31.698  1.00  0.00    -0.000 C 
BRANCH  14  15
ATOM     15  C   UNL     1      10.210  22.263  30.622  1.00  0.00    -0.000 C 
BRANCH  15  16
ATOM     16  C   UNL     1      10.915  22.177  29.250  1.00  0.00    -0.000 C 
BRANCH  16  17
ATOM     17  C   UNL     1      10.959  20.737  28.717  1.00  0.00    -0.000 C 
BRANCH  17  18
ATOM     18  C   UNL     1      11.200  19.730  29.850  1.00  0.00    -0.000 C 
BRANCH  18  19
ATOM     19  C   UNL     1      12.689  19.386  30.028  1.00  0.00    -0.003 C 
ATOM     20  C   UNL     1      13.465  19.416  28.712  1.00  0.00     0.004 C 
ENDBRANCH  18  19
ENDBRANCH  17  18
ENDBRANCH  16  17
ENDBRANCH  15  16
ENDBRANCH  14  15
ENDBRANCH  13  14
ENDBRANCH  12  13
ENDBRANCH   1  12
TORSDOF 16
ENDMDL
MODEL 4
REMARK VINA RESULT:    -4.857      2.323      6.344
REMARK INTER + INTRA:         -11.711
REMARK INTER:                  -9.634
REMARK INTRA:                  -2.077
REMARK UNBOUND:                -2.311
REMARK SMILES CCCCCCCCCCCCCCCCCC(=O)[O-]
REMARK SMILES IDX 10 1 11 2 12 3 13 4 14 5 15 6 16 7 17 8 18 9 19 10 20 11
REMARK SMILES IDX 9 12 8 13 7 14 6 15 5 16 4 17 3 18 2 19 1 20
REMARK H PARENT
REMARK Flexibility Score: inf
ROOT
ATOM      1  C   UNL     1      13.022  21.019  28.497  1.00  0.00     0.000 C 
ENDROOT
BRANCH   1   2
ATOM      2  C   UNL     1      11.982  20.550  29.534  1.00  0.00     0.000 C 
BRANCH   2   3
ATOM      3  C   UNL     1      10.521  20.636  29.048  1.00  0.00     0.000 C 
BRANCH   3   4
ATOM      4  C   UNL     1       9.507  20.521  30.199  1.00  0.00     0.000 C 
BRANCH   4   5
ATOM      5  C   UNL     1       8.666  21.798  30.325  1.00  0.00     0.000 C 
BRANCH   5   6
ATOM      6  C   UNL     1       8.752  22.374  31.748  1.00  0.00     0.000 C 
BRANCH   6   7
ATOM      7  C   UNL     1       9.672  23.601  31.839  1.00  0.00     0.006 C 
BRANCH   7   8
ATOM      8  C   UNL     1      11.161  23.227  31.814  1.00  0.00     0.053 C 
BRANCH   8   9
ATOM      9  C   UNL     1      11.903  24.083  30.838  1.00  0.00     0.041 C 
ATOM     10  O   UNL     1      11.558  24.105  29.626  1.00  0.00    -0.550 OA
ATOM     11  O   UNL     1      12.955  24.882  31.268  1.00  0.00    -0.550 OA
ENDBRANCH   8   9
ENDBRANCH   7   8
ENDBRANCH   6   7
ENDBRANCH   5   6
ENDBRANCH   4   5
ENDBRANCH   3   4
ENDBRANCH   2   3
ENDBRANCH   1   2
BRANCH   1  12
ATOM     12  C   UNL     1      14.338  20.218  28.467  1.00  0.00     0.000 C 
BRANCH  12  13
ATOM     13  C   UNL     1      15.167  20.303  29.762  1.00  0.00    -0.000 C 
BRANCH  13  14
ATOM     14  C   UNL     1      16.252  21.391  29.699  1.00  0.00    -0.000 C 
BRANCH  14  15
ATOM     15  C   UNL     1      15.749  22.766  30.173  1.00  0.00    -0.000 C 
BRANCH  15  16
ATOM     16  C   UNL     1      15.463  23.756  29.022  1.00  0.00    -0.000 C 
BRANCH  16  17
ATOM     17  C   UNL     1      16.531  23.680  27.921  1.00  0.00    -0.000 C 
BRANCH  17  18
ATOM     18  C   UNL     1      15.891  23.578  26.529  1.00  0.00    -0.000 C 
BRANCH  18  19
ATOM     19  C   UNL     1      16.030  22.175  25.915  1.00  0.00    -0.003 C 
ATOM     20  C   UNL     1      16.039  22.196  24.387  1.00  0.00     0.004 C 
ENDBRANCH  18  19
ENDBRANCH  17  18
ENDBRANCH  16  17
ENDBRANCH  15  16
ENDBRANCH  14  15
ENDBRANCH  13  14
ENDBRANCH  12  13
ENDBRANCH   1  12
TORSDOF 16
ENDMDL
MODEL 5
REMARK VINA RESULT:    -4.848      1.205      2.747
REMARK INTER + INTRA:         -11.693
REMARK INTER:                  -9.009
REMARK INTRA:                  -2.684
REMARK UNBOUND:                -2.311
REMARK SMILES CCCCCCCCCCCCCCCCCC(=O)[O-]
REMARK SMILES IDX 10 1 11 2 12 3 13 4 14 5 15 6 16 7 17 8 18 9 19 10 20 11
REMARK SMILES IDX 9 12 8 13 7 14 6 15 5 16 4 17 3 18 2 19 1 20
REMARK H PARENT
REMARK Flexibility Score: inf
ROOT
ATOM      1  C   UNL     1      13.451  21.434  28.834  1.00  0.00     0.000 C 
ENDROOT
BRANCH   1   2
ATOM      2  C   UNL     1      14.006  19.996  28.763  1.00  0.00     0.000 C 
BRANCH   2   3
ATOM      3  C   UNL     1      15.007  19.648  29.883  1.00  0.00     0.000 C 
BRANCH   3   4
ATOM      4  C   UNL     1      16.437  20.119  29.565  1.00  0.00     0.000 C 
BRANCH   4   5
ATOM      5  C   UNL     1      16.938  21.115  30.619  1.00  0.00     0.000 C 
BRANCH   5   6
ATOM      6  C   UNL     1      17.182  22.498  29.995  1.00  0.00     0.000 C 
BRANCH   6   7
ATOM      7  C   UNL     1      17.002  22.505  28.470  1.00  0.00     0.006 C 
BRANCH   7   8
ATOM      8  C   UNL     1      16.348  23.795  27.957  1.00  0.00     0.053 C 
BRANCH   8   9
ATOM      9  C   UNL     1      15.922  23.640  26.531  1.00  0.00     0.041 C 
ATOM     10  O   UNL     1      16.089  24.586  25.716  1.00  0.00    -0.550 OA
ATOM     11  O   UNL     1      15.371  22.443  26.093  1.00  0.00    -0.550 OA
ENDBRANCH   8   9
ENDBRANCH   7   8
ENDBRANCH   6   7
ENDBRANCH   5   6
ENDBRANCH   4   5
ENDBRANCH   3   4
ENDBRANCH   2   3
ENDBRANCH   1   2
BRANCH   1  12
ATOM     12  C   UNL     1      13.145  21.958  30.250  1.00  0.00     0.000 C 
BRANCH  12  13
ATOM     13  C   UNL     1      13.810  23.304  30.590  1.00  0.00    -0.000 C 
BRANCH  13  14
ATOM     14  C   UNL     1      13.017  24.508  30.054  1.00  0.00    -0.000 C 
BRANCH  14  15
ATOM     15  C   UNL     1      11.493  24.317  30.163  1.00  0.00    -0.000 C 
BRANCH  15  16
ATOM     16  C   UNL     1      10.945  24.487  31.597  1.00  0.00    -0.000 C 
BRANCH  16  17
ATOM     17  C   UNL     1       9.860  23.450  31.923  1.00  0.00    -0.000 C 
BRANCH  17  18
ATOM     18  C   UNL     1       9.500  22.612  30.688  1.00  0.00    -0.000 C 
BRANCH  18  19
ATOM     19  C   UNL     1       9.519  21.101  30.972  1.00  0.00    -0.003 C 
ATOM     20  C   UNL     1       9.917  20.274  29.749  1.00  0.00     0.004 C 
ENDBRANCH  18  19
ENDBRANCH  17  18
ENDBRANCH  16  17
ENDBRANCH  15  16
ENDBRANCH  14  15
ENDBRANCH  13  14
ENDBRANCH  12  13
ENDBRANCH   1  12
TORSDOF 16
ENDMDL
MODEL 6
REMARK VINA RESULT:    -4.780      2.372      6.344
REMARK INTER + INTRA:         -11.562
REMARK INTER:                  -9.800
REMARK INTRA:                  -1.762
REMARK UNBOUND:                -2.311
REMARK SMILES CCCCCCCCCCCCCCCCCC(=O)[O-]
REMARK SMILES IDX 10 1 11 2 12 3 13 4 14 5 15 6 16 7 17 8 18 9 19 10 20 11
REMARK SMILES IDX 9 12 8 13 7 14 6 15 5 16 4 17 3 18 2 19 1 20
REMARK H PARENT
REMARK Flexibility Score: inf
ROOT
ATOM      1  C   UNL     1      12.129  23.446  31.086  1.00  0.00     0.000 C 
ENDROOT
BRANCH   1   2
ATOM      2  C   UNL     1      10.825  24.257  31.226  1.00  0.00     0.000 C 
BRANCH   2   3
ATOM      3  C   UNL     1       9.544  23.450  30.934  1.00  0.00     0.000 C 
BRANCH   3   4
ATOM      4  C   UNL     1       9.667  21.974  31.350  1.00  0.00     0.000 C 
BRANCH   4   5
ATOM      5  C   UNL     1       9.353  21.040  30.174  1.00  0.00     0.000 C 
BRANCH   5   6
ATOM      6  C   UNL     1      10.457  19.984  30.001  1.00  0.00     0.000 C 
BRANCH   6   7
ATOM      7  C   UNL     1      11.621  20.476  29.128  1.00  0.00     0.006 C 
BRANCH   7   8
ATOM      8  C   UNL     1      12.708  19.409  28.934  1.00  0.00     0.053 C 
BRANCH   8   9
ATOM      9  C   UNL     1      13.890  19.696  29.805  1.00  0.00     0.041 C 
ATOM     10  O   UNL     1      15.057  19.545  29.355  1.00  0.00    -0.550 OA
ATOM     11  O   UNL     1      13.706  20.161  31.101  1.00  0.00    -0.550 OA
ENDBRANCH   8   9
ENDBRANCH   7   8
ENDBRANCH   6   7
ENDBRANCH   5   6
ENDBRANCH   4   5
ENDBRANCH   3   4
ENDBRANCH   2   3
ENDBRANCH   1   2
BRANCH   1  12
ATOM     12  C   UNL     1      13.322  24.206  30.475  1.00  0.00     0.000 C 
BRANCH  12  13
ATOM     13  C   UNL     1      14.217  23.355  29.555  1.00  0.00    -0.000 C 
BRANCH  13  14
ATOM     14  C   UNL     1      15.560  22.991  30.210  1.00  0.00    -0.000 C 
BRANCH  14  15
ATOM     15  C   UNL     1      16.682  22.752  29.184  1.00  0.00    -0.000 C 
BRANCH  15  16
ATOM     16  C   UNL     1      16.962  23.967  28.273  1.00  0.00    -0.000 C 
BRANCH  16  17
ATOM     17  C   UNL     1      16.671  23.658  26.797  1.00  0.00    -0.000 C 
BRANCH  17  18
ATOM     18  C   UNL     1      16.513  22.149  26.564  1.00  0.00    -0.000 C 
BRANCH  18  19
ATOM     19  C   UNL     1      15.434  21.821  25.519  1.00  0.00    -0.003 C 
ATOM     20  C   UNL     1      15.876  22.145  24.092  1.00  0.00     0.004 C 
ENDBRANCH  18  19
ENDBRANCH  17  18
ENDBRANCH  16  17
ENDBRANCH  15  16
ENDBRANCH  14  15
ENDBRANCH  13  14
ENDBRANCH  12  13
ENDBRANCH   1  12
TORSDOF 16
ENDMDL
MODEL 7
REMARK VINA RESULT:    -4.541      2.281      4.481
REMARK INTER + INTRA:         -11.099
REMARK INTER:                  -8.466
REMARK INTRA:                  -2.633
REMARK UNBOUND:                -2.311
REMARK SMILES CCCCCCCCCCCCCCCCCC(=O)[O-]
REMARK SMILES IDX 10 1 11 2 12 3 13 4 14 5 15 6 16 7 17 8 18 9 19 10 20 11
REMARK SMILES IDX 9 12 8 13 7 14 6 15 5 16 4 17 3 18 2 19 1 20
REMARK H PARENT
REMARK Flexibility Score: inf
ROOT
ATOM      1  C   UNL     1      16.386  22.930  27.271  1.00  0.00     0.000 C 
ENDROOT
BRANCH   1   2
ATOM      2  C   UNL     1      15.753  21.524  27.278  1.00  0.00     0.000 C 
BRANCH   2   3
ATOM      3  C   UNL     1      14.292  21.485  26.783  1.00  0.00     0.000 C 
BRANCH   3   4
ATOM      4  C   UNL     1      13.303  21.091  27.894  1.00  0.00     0.000 C 
BRANCH   4   5
ATOM      5  C   UNL     1      13.886  19.990  28.788  1.00  0.00     0.000 C 
BRANCH   5   6
ATOM      6  C   UNL     1      13.731  20.349  30.275  1.00  0.00     0.000 C 
BRANCH   6   7
ATOM      7  C   UNL     1      14.909  19.861  31.132  1.00  0.00     0.006 C 
BRANCH   7   8
ATOM      8  C   UNL     1      16.008  20.921  31.285  1.00  0.00     0.053 C 
BRANCH   8   9
ATOM      9  C   UNL     1      17.190  20.583  30.432  1.00  0.00     0.041 C 
ATOM     10  O   UNL     1      18.043  21.467  30.155  1.00  0.00    -0.550 OA
ATOM     11  O   UNL     1      17.369  19.285  29.969  1.00  0.00    -0.550 OA
ENDBRANCH   8   9
ENDBRANCH   7   8
ENDBRANCH   6   7
ENDBRANCH   5   6
ENDBRANCH   4   5
ENDBRANCH   3   4
ENDBRANCH   2   3
ENDBRANCH   1   2
BRANCH   1  12
ATOM     12  C   UNL     1      15.532  24.047  27.902  1.00  0.00     0.000 C 
BRANCH  12  13
ATOM     13  C   UNL     1      15.077  23.763  29.345  1.00  0.00    -0.000 C 
BRANCH  13  14
ATOM     14  C   UNL     1      13.793  24.522  29.720  1.00  0.00    -0.000 C 
BRANCH  14  15
ATOM     15  C   UNL     1      12.980  23.818  30.821  1.00  0.00    -0.000 C 
BRANCH  15  16
ATOM     16  C   UNL     1      11.626  24.496  31.127  1.00  0.00    -0.000 C 
BRANCH  16  17
ATOM     17  C   UNL     1      10.469  23.486  31.149  1.00  0.00    -0.000 C 
BRANCH  17  18
ATOM     18  C   UNL     1      10.611  22.452  30.024  1.00  0.00    -0.000 C 
BRANCH  18  19
ATOM     19  C   UNL     1       9.482  21.408  30.034  1.00  0.00    -0.003 C 
ATOM     20  C   UNL     1      10.003  19.973  29.948  1.00  0.00     0.004 C 
ENDBRANCH  18  19
ENDBRANCH  17  18
ENDBRANCH  16  17
ENDBRANCH  15  16
ENDBRANCH  14  15
ENDBRANCH  13  14
ENDBRANCH  12  13
ENDBRANCH   1  12
TORSDOF 16
ENDMDL
MODEL 8
REMARK VINA RESULT:    -4.509      1.318      2.318
REMARK INTER + INTRA:         -11.039
REMARK INTER:                  -8.860
REMARK INTRA:                  -2.179
REMARK UNBOUND:                -2.311
REMARK SMILES CCCCCCCCCCCCCCCCCC(=O)[O-]
REMARK SMILES IDX 10 1 11 2 12 3 13 4 14 5 15 6 16 7 17 8 18 9 19 10 20 11
REMARK SMILES IDX 9 12 8 13 7 14 6 15 5 16 4 17 3 18 2 19 1 20
REMARK H PARENT
REMARK Flexibility Score: inf
ROOT
ATOM      1  C   UNL     1      14.206  20.537  30.266  1.00  0.00     0.000 C 
ENDROOT
BRANCH   1   2
ATOM      2  C   UNL     1      14.049  21.950  30.862  1.00  0.00     0.000 C 
BRANCH   2   3
ATOM      3  C   UNL     1      15.215  22.907  30.538  1.00  0.00     0.000 C 
BRANCH   3   4
ATOM      4  C   UNL     1      15.061  23.580  29.163  1.00  0.00     0.000 C 
BRANCH   4   5
ATOM      5  C   UNL     1      16.403  23.630  28.420  1.00  0.00     0.000 C 
BRANCH   5   6
ATOM      6  C   UNL     1      17.069  22.245  28.395  1.00  0.00     0.000 C 
BRANCH   6   7
ATOM      7  C   UNL     1      16.985  21.568  27.018  1.00  0.00     0.006 C 
BRANCH   7   8
ATOM      8  C   UNL     1      16.594  22.545  25.901  1.00  0.00     0.053 C 
BRANCH   8   9
ATOM      9  C   UNL     1      15.450  22.004  25.103  1.00  0.00     0.041 C 
ATOM     10  O   UNL     1      14.414  21.587  25.686  1.00  0.00    -0.550 OA
ATOM     11  O   UNL     1      15.512  21.989  23.715  1.00  0.00    -0.550 OA
ENDBRANCH   8   9
ENDBRANCH   7   8
ENDBRANCH   6   7
ENDBRANCH   5   6
ENDBRANCH   4   5
ENDBRANCH   3   4
ENDBRANCH   2   3
ENDBRANCH   1   2
BRANCH   1  12
ATOM     12  C   UNL     1      13.622  20.343  28.853  1.00  0.00     0.000 C 
BRANCH  12  13
ATOM     13  C   UNL     1      12.256  19.634  28.819  1.00  0.00    -0.000 C 
BRANCH  13  14
ATOM     14  C   UNL     1      11.105  20.548  29.272  1.00  0.00    -0.000 C 
BRANCH  14  15
ATOM     15  C   UNL     1      10.184  19.882  30.311  1.00  0.00    -0.000 C 
BRANCH  15  16
ATOM     16  C   UNL     1       9.546  20.876  31.306  1.00  0.00    -0.000 C 
BRANCH  16  17
ATOM     17  C   UNL     1      10.551  21.935  31.784  1.00  0.00    -0.000 C 
BRANCH  17  18
ATOM     18  C   UNL     1       9.934  23.340  31.761  1.00  0.00    -0.000 C 
BRANCH  18  19
ATOM     19  C   UNL     1      10.958  24.430  31.404  1.00  0.00    -0.003 C 
ATOM     20  C   UNL     1      11.523  24.272  29.992  1.00  0.00     0.004 C 
ENDBRANCH  18  19
ENDBRANCH  17  18
ENDBRANCH  16  17
ENDBRANCH  15  16
ENDBRANCH  14  15
ENDBRANCH  13  14
ENDBRANCH  12  13
ENDBRANCH   1  12
TORSDOF 16
ENDMDL
MODEL 9
REMARK VINA RESULT:    -4.497      3.179      5.858
REMARK INTER + INTRA:         -11.015
REMARK INTER:                  -8.700
REMARK INTRA:                  -2.315
REMARK UNBOUND:                -2.311
REMARK SMILES CCCCCCCCCCCCCCCCCC(=O)[O-]
REMARK SMILES IDX 10 1 11 2 12 3 13 4 14 5 15 6 16 7 17 8 18 9 19 10 20 11
REMARK SMILES IDX 9 12 8 13 7 14 6 15 5 16 4 17 3 18 2 19 1 20
REMARK H PARENT
REMARK Flexibility Score: inf
ROOT
ATOM      1  C   UNL     1      14.337  21.159  26.880  1.00  0.00     0.000 C 
ENDROOT
BRANCH   1   2
ATOM      2  C   UNL     1      15.679  21.829  27.239  1.00  0.00     0.000 C 
BRANCH   2   3
ATOM      3  C   UNL     1      15.583  23.349  27.479  1.00  0.00     0.000 C 
BRANCH   3   4
ATOM      4  C   UNL     1      15.916  23.741  28.929  1.00  0.00     0.000 C 
BRANCH   4   5
ATOM      5  C   UNL     1      14.767  23.377  29.877  1.00  0.00     0.000 C 
BRANCH   5   6
ATOM      6  C   UNL     1      13.646  24.428  29.811  1.00  0.00     0.000 C 
BRANCH   6   7
ATOM      7  C   UNL     1      12.696  24.361  31.016  1.00  0.00     0.006 C 
BRANCH   7   8
ATOM      8  C   UNL     1      11.217  24.411  30.607  1.00  0.00     0.053 C 
BRANCH   8   9
ATOM      9  C   UNL     1      10.470  23.252  31.187  1.00  0.00     0.041 C 
ATOM     10  O   UNL     1      11.009  22.531  32.068  1.00  0.00    -0.550 OA
ATOM     11  O   UNL     1       9.168  22.985  30.780  1.00  0.00    -0.550 OA
ENDBRANCH   8   9
ENDBRANCH   7   8
ENDBRANCH   6   7
ENDBRANCH   5   6
ENDBRANCH   4   5
ENDBRANCH   3   4
ENDBRANCH   2   3
ENDBRANCH   1   2
BRANCH   1  12
ATOM     12  C   UNL     1      13.276  21.154  27.997  1.00  0.00     0.000 C 
BRANCH  12  13
ATOM     13  C   UNL     1      13.153  19.819  28.754  1.00  0.00    -0.000 C 
BRANCH  13  14
ATOM     14  C   UNL     1      13.104  20.008  30.280  1.00  0.00    -0.000 C 
BRANCH  14  15
ATOM     15  C   UNL     1      14.208  19.229  31.016  1.00  0.00    -0.000 C 
BRANCH  15  16
ATOM     16  C   UNL     1      15.535  20.009  31.153  1.00  0.00    -0.000 C 
BRANCH  16  17
ATOM     17  C   UNL     1      16.484  19.740  29.976  1.00  0.00    -0.000 C 
BRANCH  17  18
ATOM     18  C   UNL     1      17.724  20.642  30.042  1.00  0.00    -0.000 C 
BRANCH  18  19
ATOM     19  C   UNL     1      18.124  20.993  31.484  1.00  0.00    -0.003 C 
ATOM     20  C   UNL     1      18.080  22.496  31.761  1.00  0.00     0.004 C 
ENDBRANCH  18  19
ENDBRANCH  17  18
ENDBRANCH  16  17
ENDBRANCH  15  16
ENDBRANCH  14  15
ENDBRANCH  13  14
ENDBRANCH  12  13
ENDBRANCH   1  12
TORSDOF 16
ENDMDL
