MODEL 1
REMARK VINA RESULT:    -7.169      0.000      0.000
REMARK INTER + INTRA:          -8.950
REMARK INTER:                  -8.636
REMARK INTRA:                  -0.314
REMARK UNBOUND:                -0.314
REMARK SMILES Oc1cc(O)c2cc(O)c(-c3ccc(O)c(O)c3)[o+]c2c1.[Cl-]
REMARK SMILES IDX 10 1 19 2 20 3 21 4 2 5 3 6 4 7 6 8 7 9 8 10 11 11 12 12
REMARK SMILES IDX 13 13 14 14 18 15 16 16 15 17 17 19 9 21 1 23 5 25
REMARK H PARENT 15 18 17 20 9 22 1 24 5 26
REMARK Flexibility Score: inf
ROOT
ATOM      1  C   UNL     1      10.482  15.847  71.815  1.00  0.00     0.402 A 
ATOM      2  O   UNL     1      10.027  15.170  70.764  1.00  0.00    -0.202 OA
ATOM      3  C   UNL     1      10.799  14.406  69.997  1.00  0.00     0.368 A 
ATOM      4  C   UNL     1      10.229  13.736  68.912  1.00  0.00     0.162 A 
ATOM      5  C   UNL     1      11.016  12.931  68.088  1.00  0.00     0.128 A 
ATOM      6  C   UNL     1      12.383  12.793  68.350  1.00  0.00     0.093 A 
ATOM      7  C   UNL     1      12.979  13.455  69.430  1.00  0.00     0.136 A 
ATOM      8  C   UNL     1      12.181  14.272  70.272  1.00  0.00     0.125 A 
ATOM      9  C   UNL     1      12.689  14.962  71.386  1.00  0.00     0.078 A 
ATOM     10  C   UNL     1      11.840  15.746  72.172  1.00  0.00     0.223 A 
ENDROOT
BRANCH   1  11
ATOM     11  C   UNL     1       9.523  16.671  72.586  1.00  0.00     0.087 A 
ATOM     12  C   UNL     1       9.196  17.958  72.129  1.00  0.00     0.022 A 
ATOM     13  C   UNL     1       8.310  18.761  72.851  1.00  0.00     0.051 A 
ATOM     14  C   UNL     1       7.750  18.300  74.046  1.00  0.00     0.157 A 
ATOM     15  C   UNL     1       8.976  16.217  73.800  1.00  0.00     0.068 A 
ATOM     16  C   UNL     1       8.087  17.022  74.527  1.00  0.00     0.158 A 
BRANCH  14  17
ATOM     17  O   UNL     1       6.867  19.123  74.745  1.00  0.00    -0.504 OA
ATOM     18  H   UNL     1       7.188  19.897  75.312  1.00  0.00     0.293 HD
ENDBRANCH  14  17
BRANCH  16  19
ATOM     19  O   UNL     1       7.545  16.562  75.725  1.00  0.00    -0.504 OA
ATOM     20  H   UNL     1       6.681  16.032  75.748  1.00  0.00     0.293 HD
ENDBRANCH  16  19
ENDBRANCH   1  11
BRANCH  10  21
ATOM     21  O   UNL     1      12.333  16.390  73.307  1.00  0.00    -0.500 OA
ATOM     22  H   UNL     1      12.191  17.381  73.460  1.00  0.00     0.294 HD
ENDBRANCH  10  21
BRANCH   5  23
ATOM     23  O   UNL     1      10.428  12.271  67.011  1.00  0.00    -0.507 OA
ATOM     24  H   UNL     1      10.944  11.594  66.460  1.00  0.00     0.293 HD
ENDBRANCH   5  23
BRANCH   7  25
ATOM     25  O   UNL     1      14.351  13.269  69.623  1.00  0.00    -0.507 OA
ATOM     26  H   UNL     1      14.786  13.126  70.522  1.00  0.00     0.293 HD
ENDBRANCH   7  25
TORSDOF 6
ENDMDL
MODEL 2
REMARK VINA RESULT:    -6.496      1.931      1.980
REMARK INTER + INTRA:          -8.138
REMARK INTER:                  -8.530
REMARK INTRA:                   0.392
REMARK UNBOUND:                -0.314
REMARK SMILES Oc1cc(O)c2cc(O)c(-c3ccc(O)c(O)c3)[o+]c2c1.[Cl-]
REMARK SMILES IDX 10 1 19 2 20 3 21 4 2 5 3 6 4 7 6 8 7 9 8 10 11 11 12 12
REMARK SMILES IDX 13 13 14 14 18 15 16 16 15 17 17 19 9 21 1 23 5 25
REMARK H PARENT 15 18 17 20 9 22 1 24 5 26
REMARK Flexibility Score: inf
ROOT
ATOM      1  C   UNL     1      10.286  16.481  71.527  1.00  0.00     0.402 A 
ATOM      2  O   UNL     1      10.449  16.920  70.282  1.00  0.00    -0.202 OA
ATOM      3  C   UNL     1      11.340  16.410  69.437  1.00  0.00     0.368 A 
ATOM      4  C   UNL     1      11.439  16.941  68.149  1.00  0.00     0.162 A 
ATOM      5  C   UNL     1      12.368  16.428  67.244  1.00  0.00     0.128 A 
ATOM      6  C   UNL     1      13.205  15.375  67.628  1.00  0.00     0.093 A 
ATOM      7  C   UNL     1      13.127  14.825  68.913  1.00  0.00     0.136 A 
ATOM      8  C   UNL     1      12.181  15.343  69.835  1.00  0.00     0.125 A 
ATOM      9  C   UNL     1      12.022  14.846  71.140  1.00  0.00     0.078 A 
ATOM     10  C   UNL     1      11.065  15.405  71.991  1.00  0.00     0.223 A 
ENDROOT
BRANCH   1  11
ATOM     11  C   UNL     1       9.265  17.138  72.374  1.00  0.00     0.087 A 
ATOM     12  C   UNL     1       8.741  18.382  71.985  1.00  0.00     0.022 A 
ATOM     13  C   UNL     1       7.792  19.030  72.779  1.00  0.00     0.051 A 
ATOM     14  C   UNL     1       7.363  18.455  73.978  1.00  0.00     0.157 A 
ATOM     15  C   UNL     1       8.848  16.573  73.592  1.00  0.00     0.068 A 
ATOM     16  C   UNL     1       7.896  17.222  74.392  1.00  0.00     0.158 A 
BRANCH  14  17
ATOM     17  O   UNL     1       6.413  19.125  74.750  1.00  0.00    -0.504 OA
ATOM     18  H   UNL     1       5.419  19.022  74.587  1.00  0.00     0.293 HD
ENDBRANCH  14  17
BRANCH  16  19
ATOM     19  O   UNL     1       7.484  16.651  75.594  1.00  0.00    -0.504 OA
ATOM     20  H   UNL     1       6.540  16.304  75.721  1.00  0.00     0.293 HD
ENDBRANCH  16  19
ENDBRANCH   1  11
BRANCH  10  21
ATOM     21  O   UNL     1      10.873  14.879  73.269  1.00  0.00    -0.500 OA
ATOM     22  H   UNL     1      11.501  15.094  74.034  1.00  0.00     0.294 HD
ENDBRANCH  10  21
BRANCH   5  23
ATOM     23  O   UNL     1      12.451  16.971  65.964  1.00  0.00    -0.507 OA
ATOM     24  H   UNL     1      11.782  16.728  65.242  1.00  0.00     0.293 HD
ENDBRANCH   5  23
BRANCH   7  25
ATOM     25  O   UNL     1      14.001  13.778  69.220  1.00  0.00    -0.507 OA
ATOM     26  H   UNL     1      13.723  12.812  69.312  1.00  0.00     0.293 HD
ENDBRANCH   7  25
TORSDOF 6
ENDMDL
MODEL 3
REMARK VINA RESULT:    -6.383      1.837      2.899
REMARK INTER + INTRA:          -8.002
REMARK INTER:                  -8.087
REMARK INTRA:                   0.085
REMARK UNBOUND:                -0.314
REMARK SMILES Oc1cc(O)c2cc(O)c(-c3ccc(O)c(O)c3)[o+]c2c1.[Cl-]
REMARK SMILES IDX 10 1 19 2 20 3 21 4 2 5 3 6 4 7 6 8 7 9 8 10 11 11 12 12
REMARK SMILES IDX 13 13 14 14 18 15 16 16 15 17 17 19 9 21 1 23 5 25
REMARK H PARENT 15 18 17 20 9 22 1 24 5 26
REMARK Flexibility Score: inf
ROOT
ATOM      1  C   UNL     1      10.519  16.707  71.093  1.00  0.00     0.402 A 
ATOM      2  O   UNL     1      11.618  16.139  71.581  1.00  0.00    -0.202 OA
ATOM      3  C   UNL     1      12.567  15.607  70.816  1.00  0.00     0.368 A 
ATOM      4  C   UNL     1      13.685  15.029  71.422  1.00  0.00     0.162 A 
ATOM      5  C   UNL     1      14.694  14.460  70.644  1.00  0.00     0.128 A 
ATOM      6  C   UNL     1      14.586  14.468  69.250  1.00  0.00     0.093 A 
ATOM      7  C   UNL     1      13.475  15.040  68.618  1.00  0.00     0.136 A 
ATOM      8  C   UNL     1      12.448  15.622  69.405  1.00  0.00     0.125 A 
ATOM      9  C   UNL     1      11.306  16.230  68.859  1.00  0.00     0.078 A 
ATOM     10  C   UNL     1      10.338  16.787  69.699  1.00  0.00     0.223 A 
ENDROOT
BRANCH   1  11
ATOM     11  C   UNL     1       9.531  17.256  72.049  1.00  0.00     0.087 A 
ATOM     12  C   UNL     1       8.986  18.531  71.823  1.00  0.00     0.022 A 
ATOM     13  C   UNL     1       8.067  19.077  72.722  1.00  0.00     0.051 A 
ATOM     14  C   UNL     1       7.691  18.369  73.867  1.00  0.00     0.157 A 
ATOM     15  C   UNL     1       9.167  16.554  73.212  1.00  0.00     0.068 A 
ATOM     16  C   UNL     1       8.246  17.102  74.117  1.00  0.00     0.158 A 
BRANCH  14  17
ATOM     17  O   UNL     1       6.770  18.939  74.746  1.00  0.00    -0.504 OA
ATOM     18  H   UNL     1       5.874  18.510  74.939  1.00  0.00     0.293 HD
ENDBRANCH  14  17
BRANCH  16  19
ATOM     19  O   UNL     1       7.887  16.396  75.264  1.00  0.00    -0.504 OA
ATOM     20  H   UNL     1       6.918  16.302  75.548  1.00  0.00     0.293 HD
ENDBRANCH  16  19
ENDBRANCH   1  11
BRANCH  10  21
ATOM     21  O   UNL     1       9.228  17.435  69.156  1.00  0.00    -0.500 OA
ATOM     22  H   UNL     1       9.198  18.441  69.051  1.00  0.00     0.294 HD
ENDBRANCH  10  21
BRANCH   5  23
ATOM     23  O   UNL     1      15.801  13.890  71.268  1.00  0.00    -0.507 OA
ATOM     24  H   UNL     1      15.822  13.733  72.269  1.00  0.00     0.293 HD
ENDBRANCH   5  23
BRANCH   7  25
ATOM     25  O   UNL     1      13.440  15.005  67.220  1.00  0.00    -0.507 OA
ATOM     26  H   UNL     1      14.238  14.804  66.635  1.00  0.00     0.293 HD
ENDBRANCH   7  25
TORSDOF 6
ENDMDL
MODEL 4
REMARK VINA RESULT:    -6.224      1.884      7.016
REMARK INTER + INTRA:          -7.811
REMARK INTER:                  -7.593
REMARK INTRA:                  -0.218
REMARK UNBOUND:                -0.314
REMARK SMILES Oc1cc(O)c2cc(O)c(-c3ccc(O)c(O)c3)[o+]c2c1.[Cl-]
REMARK SMILES IDX 10 1 19 2 20 3 21 4 2 5 3 6 4 7 6 8 7 9 8 10 11 11 12 12
REMARK SMILES IDX 13 13 14 14 18 15 16 16 15 17 17 19 9 21 1 23 5 25
REMARK H PARENT 15 18 17 20 9 22 1 24 5 26
REMARK Flexibility Score: inf
ROOT
ATOM      1  C   UNL     1      10.594  16.758  71.638  1.00  0.00     0.402 A 
ATOM      2  O   UNL     1      10.107  16.312  72.793  1.00  0.00    -0.202 OA
ATOM      3  C   UNL     1       8.962  16.740  73.317  1.00  0.00     0.368 A 
ATOM      4  C   UNL     1       8.534  16.213  74.538  1.00  0.00     0.162 A 
ATOM      5  C   UNL     1       7.339  16.647  75.114  1.00  0.00     0.128 A 
ATOM      6  C   UNL     1       6.566  17.615  74.464  1.00  0.00     0.093 A 
ATOM      7  C   UNL     1       6.973  18.160  73.240  1.00  0.00     0.136 A 
ATOM      8  C   UNL     1       8.186  17.719  72.651  1.00  0.00     0.125 A 
ATOM      9  C   UNL     1       8.666  18.198  71.421  1.00  0.00     0.078 A 
ATOM     10  C   UNL     1       9.869  17.712  70.900  1.00  0.00     0.223 A 
ENDROOT
BRANCH   1  11
ATOM     11  C   UNL     1      11.885  16.209  71.164  1.00  0.00     0.087 A 
ATOM     12  C   UNL     1      13.001  17.056  71.065  1.00  0.00     0.022 A 
ATOM     13  C   UNL     1      14.223  16.564  70.600  1.00  0.00     0.051 A 
ATOM     14  C   UNL     1      14.346  15.227  70.213  1.00  0.00     0.157 A 
ATOM     15  C   UNL     1      12.005  14.869  70.753  1.00  0.00     0.068 A 
ATOM     16  C   UNL     1      13.231  14.374  70.286  1.00  0.00     0.158 A 
BRANCH  14  17
ATOM     17  O   UNL     1      15.580  14.763  69.755  1.00  0.00    -0.504 OA
ATOM     18  H   UNL     1      16.154  14.134  70.301  1.00  0.00     0.293 HD
ENDBRANCH  14  17
BRANCH  16  19
ATOM     19  O   UNL     1      13.343  13.043  69.887  1.00  0.00    -0.504 OA
ATOM     20  H   UNL     1      13.977  12.402  70.350  1.00  0.00     0.293 HD
ENDBRANCH  16  19
ENDBRANCH   1  11
BRANCH  10  21
ATOM     21  O   UNL     1      10.321  18.151  69.655  1.00  0.00    -0.500 OA
ATOM     22  H   UNL     1       9.827  18.863  69.131  1.00  0.00     0.294 HD
ENDBRANCH  10  21
BRANCH   5  23
ATOM     23  O   UNL     1       6.930  16.109  76.331  1.00  0.00    -0.507 OA
ATOM     24  H   UNL     1       7.397  16.346  77.199  1.00  0.00     0.293 HD
ENDBRANCH   5  23
BRANCH   7  25
ATOM     25  O   UNL     1       6.146  19.125  72.658  1.00  0.00    -0.507 OA
ATOM     26  H   UNL     1       5.960  19.193  71.667  1.00  0.00     0.293 HD
ENDBRANCH   7  25
TORSDOF 6
ENDMDL
MODEL 5
REMARK VINA RESULT:    -6.043      2.810      6.904
REMARK INTER + INTRA:          -7.593
REMARK INTER:                  -7.368
REMARK INTRA:                  -0.225
REMARK UNBOUND:                -0.314
REMARK SMILES Oc1cc(O)c2cc(O)c(-c3ccc(O)c(O)c3)[o+]c2c1.[Cl-]
REMARK SMILES IDX 10 1 19 2 20 3 21 4 2 5 3 6 4 7 6 8 7 9 8 10 11 11 12 12
REMARK SMILES IDX 13 13 14 14 18 15 16 16 15 17 17 19 9 21 1 23 5 25
REMARK H PARENT 15 18 17 20 9 22 1 24 5 26
REMARK Flexibility Score: inf
ROOT
ATOM      1  C   UNL     1       9.743  17.316  70.963  1.00  0.00     0.402 A 
ATOM      2  O   UNL     1       8.596  17.924  71.256  1.00  0.00    -0.202 OA
ATOM      3  C   UNL     1       7.963  17.769  72.415  1.00  0.00     0.368 A 
ATOM      4  C   UNL     1       6.760  18.447  72.629  1.00  0.00     0.162 A 
ATOM      5  C   UNL     1       6.072  18.301  73.834  1.00  0.00     0.128 A 
ATOM      6  C   UNL     1       6.589  17.470  74.834  1.00  0.00     0.093 A 
ATOM      7  C   UNL     1       7.791  16.778  74.644  1.00  0.00     0.136 A 
ATOM      8  C   UNL     1       8.495  16.928  73.421  1.00  0.00     0.125 A 
ATOM      9  C   UNL     1       9.714  16.284  73.148  1.00  0.00     0.078 A 
ATOM     10  C   UNL     1      10.352  16.483  71.921  1.00  0.00     0.223 A 
ENDROOT
BRANCH   1  11
ATOM     11  C   UNL     1      10.346  17.563  69.634  1.00  0.00     0.087 A 
ATOM     12  C   UNL     1      10.732  18.866  69.282  1.00  0.00     0.022 A 
ATOM     13  C   UNL     1      11.285  19.125  68.025  1.00  0.00     0.051 A 
ATOM     14  C   UNL     1      11.446  18.092  67.097  1.00  0.00     0.157 A 
ATOM     15  C   UNL     1      10.489  16.529  68.691  1.00  0.00     0.068 A 
ATOM     16  C   UNL     1      11.043  16.787  67.428  1.00  0.00     0.158 A 
BRANCH  14  17
ATOM     17  O   UNL     1      12.003  18.380  65.851  1.00  0.00    -0.504 OA
ATOM     18  H   UNL     1      11.435  18.661  65.061  1.00  0.00     0.293 HD
ENDBRANCH  14  17
BRANCH  16  19
ATOM     19  O   UNL     1      11.187  15.756  66.502  1.00  0.00    -0.504 OA
ATOM     20  H   UNL     1      10.415  15.456  65.917  1.00  0.00     0.293 HD
ENDBRANCH  16  19
ENDBRANCH   1  11
BRANCH  10  21
ATOM     21  O   UNL     1      11.587  15.885  71.668  1.00  0.00    -0.500 OA
ATOM     22  H   UNL     1      12.359  15.963  72.319  1.00  0.00     0.294 HD
ENDBRANCH  10  21
BRANCH   5  23
ATOM     23  O   UNL     1       4.875  18.986  74.027  1.00  0.00    -0.507 OA
ATOM     24  H   UNL     1       4.641  19.808  73.482  1.00  0.00     0.293 HD
ENDBRANCH   5  23
BRANCH   7  25
ATOM     25  O   UNL     1       8.238  15.965  75.690  1.00  0.00    -0.507 OA
ATOM     26  H   UNL     1       8.844  15.166  75.572  1.00  0.00     0.293 HD
ENDBRANCH   7  25
TORSDOF 6
ENDMDL
MODEL 6
REMARK VINA RESULT:    -5.914      2.698      6.909
REMARK INTER + INTRA:          -7.438
REMARK INTER:                  -7.924
REMARK INTRA:                   0.486
REMARK UNBOUND:                -0.314
REMARK SMILES Oc1cc(O)c2cc(O)c(-c3ccc(O)c(O)c3)[o+]c2c1.[Cl-]
REMARK SMILES IDX 10 1 19 2 20 3 21 4 2 5 3 6 4 7 6 8 7 9 8 10 11 11 12 12
REMARK SMILES IDX 13 13 14 14 18 15 16 16 15 17 17 19 9 21 1 23 5 25
REMARK H PARENT 15 18 17 20 9 22 1 24 5 26
REMARK Flexibility Score: inf
ROOT
ATOM      1  C   UNL     1      11.145  16.101  70.293  1.00  0.00     0.402 A 
ATOM      2  O   UNL     1      10.217  17.011  70.581  1.00  0.00    -0.202 OA
ATOM      3  C   UNL     1       9.582  17.062  71.748  1.00  0.00     0.368 A 
ATOM      4  C   UNL     1       8.620  18.053  71.956  1.00  0.00     0.162 A 
ATOM      5  C   UNL     1       7.935  18.128  73.169  1.00  0.00     0.128 A 
ATOM      6  C   UNL     1       8.213  17.206  74.183  1.00  0.00     0.093 A 
ATOM      7  C   UNL     1       9.172  16.203  74.000  1.00  0.00     0.136 A 
ATOM      8  C   UNL     1       9.872  16.125  72.768  1.00  0.00     0.125 A 
ATOM      9  C   UNL     1      10.859  15.162  72.501  1.00  0.00     0.078 A 
ATOM     10  C   UNL     1      11.511  15.150  71.264  1.00  0.00     0.223 A 
ENDROOT
BRANCH   1  11
ATOM     11  C   UNL     1      11.774  16.143  68.954  1.00  0.00     0.087 A 
ATOM     12  C   UNL     1      12.811  15.246  68.650  1.00  0.00     0.022 A 
ATOM     13  C   UNL     1      13.433  15.281  67.400  1.00  0.00     0.051 A 
ATOM     14  C   UNL     1      13.042  16.219  66.441  1.00  0.00     0.157 A 
ATOM     15  C   UNL     1      11.397  17.101  67.995  1.00  0.00     0.068 A 
ATOM     16  C   UNL     1      12.021  17.139  66.740  1.00  0.00     0.158 A 
BRANCH  14  17
ATOM     17  O   UNL     1      13.680  16.230  65.200  1.00  0.00    -0.504 OA
ATOM     18  H   UNL     1      13.175  16.090  64.335  1.00  0.00     0.293 HD
ENDBRANCH  14  17
BRANCH  16  19
ATOM     19  O   UNL     1      11.637  18.087  65.794  1.00  0.00    -0.504 OA
ATOM     20  H   UNL     1      10.787  17.982  65.252  1.00  0.00     0.293 HD
ENDBRANCH  16  19
ENDBRANCH   1  11
BRANCH  10  21
ATOM     21  O   UNL     1      12.526  14.226  71.016  1.00  0.00    -0.500 OA
ATOM     22  H   UNL     1      12.603  13.747  70.127  1.00  0.00     0.294 HD
ENDBRANCH  10  21
BRANCH   5  23
ATOM     23  O   UNL     1       6.980  19.125  73.357  1.00  0.00    -0.507 OA
ATOM     24  H   UNL     1       6.096  18.932  73.813  1.00  0.00     0.293 HD
ENDBRANCH   5  23
BRANCH   7  25
ATOM     25  O   UNL     1       9.389  15.318  75.061  1.00  0.00    -0.507 OA
ATOM     26  H   UNL     1      10.149  14.654  75.103  1.00  0.00     0.293 HD
ENDBRANCH   7  25
TORSDOF 6
ENDMDL
MODEL 7
REMARK VINA RESULT:    -5.771      2.406      6.879
REMARK INTER + INTRA:          -7.265
REMARK INTER:                  -7.346
REMARK INTRA:                   0.081
REMARK UNBOUND:                -0.314
REMARK SMILES Oc1cc(O)c2cc(O)c(-c3ccc(O)c(O)c3)[o+]c2c1.[Cl-]
REMARK SMILES IDX 10 1 19 2 20 3 21 4 2 5 3 6 4 7 6 8 7 9 8 10 11 11 12 12
REMARK SMILES IDX 13 13 14 14 18 15 16 16 15 17 17 19 9 21 1 23 5 25
REMARK H PARENT 15 18 17 20 9 22 1 24 5 26
REMARK Flexibility Score: inf
ROOT
ATOM      1  C   UNL     1       9.925  16.808  71.117  1.00  0.00     0.402 A 
ATOM      2  O   UNL     1       8.786  17.491  71.195  1.00  0.00    -0.202 OA
ATOM      3  C   UNL     1       8.048  17.557  72.300  1.00  0.00     0.368 A 
ATOM      4  C   UNL     1       6.863  18.297  72.283  1.00  0.00     0.162 A 
ATOM      5  C   UNL     1       6.067  18.380  73.426  1.00  0.00     0.128 A 
ATOM      6  C   UNL     1       6.457  17.719  74.595  1.00  0.00     0.093 A 
ATOM      7  C   UNL     1       7.639  16.970  74.638  1.00  0.00     0.136 A 
ATOM      8  C   UNL     1       8.452  16.885  73.478  1.00  0.00     0.125 A 
ATOM      9  C   UNL     1       9.660  16.168  73.432  1.00  0.00     0.078 A 
ATOM     10  C   UNL     1      10.410  16.134  72.253  1.00  0.00     0.223 A 
ENDROOT
BRANCH   1  11
ATOM     11  C   UNL     1      10.651  16.803  69.827  1.00  0.00     0.087 A 
ATOM     12  C   UNL     1      10.650  17.959  69.030  1.00  0.00     0.022 A 
ATOM     13  C   UNL     1      11.312  17.972  67.800  1.00  0.00     0.051 A 
ATOM     14  C   UNL     1      11.971  16.828  67.340  1.00  0.00     0.157 A 
ATOM     15  C   UNL     1      11.296  15.647  69.353  1.00  0.00     0.068 A 
ATOM     16  C   UNL     1      11.961  15.657  68.118  1.00  0.00     0.158 A 
BRANCH  14  17
ATOM     17  O   UNL     1      12.625  16.870  66.109  1.00  0.00    -0.504 OA
ATOM     18  H   UNL     1      12.837  16.031  65.584  1.00  0.00     0.293 HD
ENDBRANCH  14  17
BRANCH  16  19
ATOM     19  O   UNL     1      12.602  14.508  67.658  1.00  0.00    -0.504 OA
ATOM     20  H   UNL     1      12.277  14.010  66.837  1.00  0.00     0.293 HD
ENDBRANCH  16  19
ENDBRANCH   1  11
BRANCH  10  21
ATOM     21  O   UNL     1      11.634  15.464  72.222  1.00  0.00    -0.500 OA
ATOM     22  H   UNL     1      12.317  15.569  72.962  1.00  0.00     0.294 HD
ENDBRANCH  10  21
BRANCH   5  23
ATOM     23  O   UNL     1       4.891  19.125  73.389  1.00  0.00    -0.507 OA
ATOM     24  H   UNL     1       4.856  20.078  73.731  1.00  0.00     0.293 HD
ENDBRANCH   5  23
BRANCH   7  25
ATOM     25  O   UNL     1       7.957  16.335  75.843  1.00  0.00    -0.507 OA
ATOM     26  H   UNL     1       8.130  15.345  75.938  1.00  0.00     0.293 HD
ENDBRANCH   7  25
TORSDOF 6
ENDMDL
MODEL 8
REMARK VINA RESULT:    -5.259      2.304      6.983
REMARK INTER + INTRA:          -6.649
REMARK INTER:                  -7.026
REMARK INTRA:                   0.378
REMARK UNBOUND:                -0.314
REMARK SMILES Oc1cc(O)c2cc(O)c(-c3ccc(O)c(O)c3)[o+]c2c1.[Cl-]
REMARK SMILES IDX 10 1 19 2 20 3 21 4 2 5 3 6 4 7 6 8 7 9 8 10 11 11 12 12
REMARK SMILES IDX 13 13 14 14 18 15 16 16 15 17 17 19 9 21 1 23 5 25
REMARK H PARENT 15 18 17 20 9 22 1 24 5 26
REMARK Flexibility Score: inf
ROOT
ATOM      1  C   UNL     1      11.409  16.485  71.022  1.00  0.00     0.402 A 
ATOM      2  O   UNL     1      10.918  16.055  72.182  1.00  0.00    -0.202 OA
ATOM      3  C   UNL     1       9.806  16.537  72.728  1.00  0.00     0.368 A 
ATOM      4  C   UNL     1       9.372  16.024  73.952  1.00  0.00     0.162 A 
ATOM      5  C   UNL     1       8.210  16.514  74.551  1.00  0.00     0.128 A 
ATOM      6  C   UNL     1       7.477  17.525  73.921  1.00  0.00     0.093 A 
ATOM      7  C   UNL     1       7.891  18.057  72.694  1.00  0.00     0.136 A 
ATOM      8  C   UNL     1       9.070  17.559  72.081  1.00  0.00     0.125 A 
ATOM      9  C   UNL     1       9.554  18.023  70.846  1.00  0.00     0.078 A 
ATOM     10  C   UNL     1      10.722  17.480  70.303  1.00  0.00     0.223 A 
ENDROOT
BRANCH   1  11
ATOM     11  C   UNL     1      12.662  15.874  70.522  1.00  0.00     0.087 A 
ATOM     12  C   UNL     1      12.952  15.920  69.149  1.00  0.00     0.022 A 
ATOM     13  C   UNL     1      14.118  15.333  68.653  1.00  0.00     0.051 A 
ATOM     14  C   UNL     1      15.003  14.678  69.515  1.00  0.00     0.157 A 
ATOM     15  C   UNL     1      13.542  15.196  71.385  1.00  0.00     0.068 A 
ATOM     16  C   UNL     1      14.713  14.605  70.888  1.00  0.00     0.158 A 
BRANCH  14  17
ATOM     17  O   UNL     1      16.161  14.102  68.991  1.00  0.00    -0.504 OA
ATOM     18  H   UNL     1      16.214  13.777  68.033  1.00  0.00     0.293 HD
ENDBRANCH  14  17
BRANCH  16  19
ATOM     19  O   UNL     1      15.583  13.941  71.751  1.00  0.00    -0.504 OA
ATOM     20  H   UNL     1      15.262  13.195  72.358  1.00  0.00     0.293 HD
ENDBRANCH  16  19
ENDBRANCH   1  11
BRANCH  10  21
ATOM     21  O   UNL     1      11.175  17.905  69.053  1.00  0.00    -0.500 OA
ATOM     22  H   UNL     1      10.565  17.922  68.244  1.00  0.00     0.294 HD
ENDBRANCH  10  21
BRANCH   5  23
ATOM     23  O   UNL     1       7.794  15.989  75.771  1.00  0.00    -0.507 OA
ATOM     24  H   UNL     1       8.453  15.582  76.425  1.00  0.00     0.293 HD
ENDBRANCH   5  23
BRANCH   7  25
ATOM     25  O   UNL     1       7.105  19.067  72.132  1.00  0.00    -0.507 OA
ATOM     26  H   UNL     1       6.784  19.074  71.174  1.00  0.00     0.293 HD
ENDBRANCH   7  25
TORSDOF 6
ENDMDL
MODEL 9
REMARK VINA RESULT:    -4.566      2.021      2.537
REMARK INTER + INTRA:          -5.814
REMARK INTER:                  -5.757
REMARK INTRA:                  -0.057
REMARK UNBOUND:                -0.314
REMARK SMILES Oc1cc(O)c2cc(O)c(-c3ccc(O)c(O)c3)[o+]c2c1.[Cl-]
REMARK SMILES IDX 10 1 19 2 20 3 21 4 2 5 3 6 4 7 6 8 7 9 8 10 11 11 12 12
REMARK SMILES IDX 13 13 14 14 18 15 16 16 15 17 17 19 9 21 1 23 5 25
REMARK H PARENT 15 18 17 20 9 22 1 24 5 26
REMARK Flexibility Score: inf
ROOT
ATOM      1  C   UNL     1       9.748  16.783  70.963  1.00  0.00     0.402 A 
ATOM      2  O   UNL     1      10.028  15.502  70.740  1.00  0.00    -0.202 OA
ATOM      3  C   UNL     1      10.781  15.084  69.726  1.00  0.00     0.368 A 
ATOM      4  C   UNL     1      11.016  13.716  69.572  1.00  0.00     0.162 A 
ATOM      5  C   UNL     1      11.798  13.249  68.514  1.00  0.00     0.128 A 
ATOM      6  C   UNL     1      12.349  14.156  67.603  1.00  0.00     0.093 A 
ATOM      7  C   UNL     1      12.127  15.533  67.735  1.00  0.00     0.136 A 
ATOM      8  C   UNL     1      11.335  16.011  68.810  1.00  0.00     0.125 A 
ATOM      9  C   UNL     1      11.071  17.373  69.029  1.00  0.00     0.078 A 
ATOM     10  C   UNL     1      10.284  17.770  70.114  1.00  0.00     0.223 A 
ENDROOT
BRANCH   1  11
ATOM     11  C   UNL     1       8.891  17.121  72.122  1.00  0.00     0.087 A 
ATOM     12  C   UNL     1       9.150  16.529  73.369  1.00  0.00     0.022 A 
ATOM     13  C   UNL     1       8.342  16.817  74.471  1.00  0.00     0.051 A 
ATOM     14  C   UNL     1       7.256  17.687  74.343  1.00  0.00     0.157 A 
ATOM     15  C   UNL     1       7.784  17.979  71.990  1.00  0.00     0.068 A 
ATOM     16  C   UNL     1       6.971  18.269  73.095  1.00  0.00     0.158 A 
BRANCH  14  17
ATOM     17  O   UNL     1       6.467  17.958  75.461  1.00  0.00    -0.504 OA
ATOM     18  H   UNL     1       6.100  18.882  75.649  1.00  0.00     0.293 HD
ENDBRANCH  14  17
BRANCH  16  19
ATOM     19  O   UNL     1       5.880  19.125  72.957  1.00  0.00    -0.504 OA
ATOM     20  H   UNL     1       5.694  19.861  73.629  1.00  0.00     0.293 HD
ENDBRANCH  16  19
ENDBRANCH   1  11
BRANCH  10  21
ATOM     21  O   UNL     1      10.063  19.125  70.360  1.00  0.00    -0.500 OA
ATOM     22  H   UNL     1      10.791  19.816  70.226  1.00  0.00     0.294 HD
ENDBRANCH  10  21
BRANCH   5  23
ATOM     23  O   UNL     1      12.021  11.881  68.379  1.00  0.00    -0.507 OA
ATOM     24  H   UNL     1      12.736  11.521  67.757  1.00  0.00     0.293 HD
ENDBRANCH   5  23
BRANCH   7  25
ATOM     25  O   UNL     1      12.710  16.373  66.781  1.00  0.00    -0.507 OA
ATOM     26  H   UNL     1      13.697  16.399  66.571  1.00  0.00     0.293 HD
ENDBRANCH   7  25
TORSDOF 6
ENDMDL
