MODEL 1
REMARK VINA RESULT:    -4.945      0.000      0.000
REMARK INTER + INTRA:          -6.287
REMARK INTER:                  -5.957
REMARK INTRA:                  -0.330
REMARK UNBOUND:                -0.330
REMARK SMILES O=c1c(O)c(-c2ccc(O)c(O)c2)oc2cc(O)cc(O)c12
REMARK SMILES IDX 5 1 3 2 2 3 1 4 22 5 20 6 19 7 17 8 16 9 15 10 14 11 6 12
REMARK SMILES IDX 7 13 8 14 9 15 13 16 11 17 10 18 12 20 4 22 21 24 18 26
REMARK H PARENT 10 19 12 21 4 23 21 25 18 27
REMARK Flexibility Score: inf
ROOT
ATOM      1  C   UNL     1     102.800 101.961  92.943  1.00  0.00     0.180 A 
ATOM      2  C   UNL     1     104.120 101.970  92.453  1.00  0.00     0.208 A 
ATOM      3  C   UNL     1     104.820 100.756  92.370  1.00  0.00     0.238 A 
ATOM      4  O   UNL     1     105.999 100.749  91.921  1.00  0.00    -0.285 OA
ATOM      5  C   UNL     1     104.200  99.563  92.794  1.00  0.00     0.111 A 
ATOM      6  C   UNL     1     104.838  98.300  92.747  1.00  0.00     0.134 A 
ATOM      7  C   UNL     1     104.156  97.159  93.197  1.00  0.00     0.093 A 
ATOM      8  C   UNL     1     102.853  97.257  93.693  1.00  0.00     0.123 A 
ATOM      9  C   UNL     1     102.219  98.502  93.742  1.00  0.00     0.094 A 
ATOM     10  C   UNL     1     102.880  99.650  93.296  1.00  0.00     0.146 A 
ATOM     11  O   UNL     1     102.253 100.819  93.348  1.00  0.00    -0.452 OA
ENDROOT
BRANCH   1  12
ATOM     12  C   UNL     1     101.990 103.197  93.043  1.00  0.00     0.025 A 
ATOM     13  C   UNL     1     101.144 103.604  91.999  1.00  0.00     0.016 A 
ATOM     14  C   UNL     1     100.373 104.760  92.128  1.00  0.00     0.051 A 
ATOM     15  C   UNL     1     100.417 105.524  93.299  1.00  0.00     0.157 A 
ATOM     16  C   UNL     1     102.021 103.949  94.228  1.00  0.00     0.062 A 
ATOM     17  C   UNL     1     101.250 105.110  94.366  1.00  0.00     0.158 A 
BRANCH  15  18
ATOM     18  O   UNL     1      99.624 106.671  93.361  1.00  0.00    -0.504 OA
ATOM     19  H   UNL     1      98.654 106.703  93.084  1.00  0.00     0.293 HD
ENDBRANCH  15  18
BRANCH  17  20
ATOM     20  O   UNL     1     101.341 105.814  95.568  1.00  0.00    -0.504 OA
ATOM     21  H   UNL     1     102.044 105.638  96.273  1.00  0.00     0.293 HD
ENDBRANCH  17  20
ENDBRANCH   1  12
BRANCH   2  22
ATOM     22  O   UNL     1     104.728 103.172  92.084  1.00  0.00    -0.502 OA
ATOM     23  H   UNL     1     105.349 103.244  91.287  1.00  0.00     0.293 HD
ENDBRANCH   2  22
BRANCH   6  24
ATOM     24  O   UNL     1     106.138  98.169  92.258  1.00  0.00    -0.507 OA
ATOM     25  H   UNL     1     106.947  98.274  92.859  1.00  0.00     0.293 HD
ENDBRANCH   6  24
BRANCH   8  26
ATOM     26  O   UNL     1     102.199  96.108  94.135  1.00  0.00    -0.508 OA
ATOM     27  H   UNL     1     102.608  95.505  94.840  1.00  0.00     0.293 HD
ENDBRANCH   8  26
TORSDOF 6
ENDMDL
MODEL 2
REMARK VINA RESULT:    -4.836      1.219      2.979
REMARK INTER + INTRA:          -6.156
REMARK INTER:                  -5.856
REMARK INTRA:                  -0.300
REMARK UNBOUND:                -0.330
REMARK SMILES O=c1c(O)c(-c2ccc(O)c(O)c2)oc2cc(O)cc(O)c12
REMARK SMILES IDX 5 1 3 2 2 3 1 4 22 5 20 6 19 7 17 8 16 9 15 10 14 11 6 12
REMARK SMILES IDX 7 13 8 14 9 15 13 16 11 17 10 18 12 20 4 22 21 24 18 26
REMARK H PARENT 10 19 12 21 4 23 21 25 18 27
REMARK Flexibility Score: inf
ROOT
ATOM      1  C   UNL     1     101.504 101.473  93.340  1.00  0.00     0.180 A 
ATOM      2  C   UNL     1     100.546 100.494  93.669  1.00  0.00     0.208 A 
ATOM      3  C   UNL     1     100.939  99.147  93.710  1.00  0.00     0.238 A 
ATOM      4  O   UNL     1     100.092  98.263  94.015  1.00  0.00    -0.285 OA
ATOM      5  C   UNL     1     102.271  98.801  93.403  1.00  0.00     0.111 A 
ATOM      6  C   UNL     1     102.746  97.467  93.418  1.00  0.00     0.134 A 
ATOM      7  C   UNL     1     104.085  97.202  93.092  1.00  0.00     0.093 A 
ATOM      8  C   UNL     1     104.954  98.241  92.752  1.00  0.00     0.123 A 
ATOM      9  C   UNL     1     104.490  99.560  92.736  1.00  0.00     0.094 A 
ATOM     10  C   UNL     1     103.160  99.845  93.059  1.00  0.00     0.146 A 
ATOM     11  O   UNL     1     102.746 101.107  93.042  1.00  0.00    -0.452 OA
ENDROOT
BRANCH   1  12
ATOM     12  C   UNL     1     101.171 102.915  93.294  1.00  0.00     0.025 A 
ATOM     13  C   UNL     1     100.534 103.483  92.179  1.00  0.00     0.016 A 
ATOM     14  C   UNL     1     100.208 104.840  92.170  1.00  0.00     0.051 A 
ATOM     15  C   UNL     1     100.497 105.653  93.271  1.00  0.00     0.157 A 
ATOM     16  C   UNL     1     101.443 103.723  94.409  1.00  0.00     0.062 A 
ATOM     17  C   UNL     1     101.119 105.086  94.408  1.00  0.00     0.158 A 
BRANCH  15  18
ATOM     18  O   UNL     1     100.150 107.003  93.195  1.00  0.00    -0.504 OA
ATOM     19  H   UNL     1      99.784 107.537  93.970  1.00  0.00     0.293 HD
ENDBRANCH  15  18
BRANCH  17  20
ATOM     20  O   UNL     1     101.432 105.830  95.548  1.00  0.00    -0.504 OA
ATOM     21  H   UNL     1     101.201 105.545  96.488  1.00  0.00     0.293 HD
ENDBRANCH  17  20
ENDBRANCH   1  12
BRANCH   2  22
ATOM     22  O   UNL     1      99.221 100.860  93.921  1.00  0.00    -0.502 OA
ATOM     23  H   UNL     1      98.491 100.176  94.084  1.00  0.00     0.293 HD
ENDBRANCH   2  22
BRANCH   6  24
ATOM     24  O   UNL     1     101.903  96.406  93.753  1.00  0.00    -0.507 OA
ATOM     25  H   UNL     1     102.120  95.772  94.513  1.00  0.00     0.293 HD
ENDBRANCH   6  24
BRANCH   8  26
ATOM     26  O   UNL     1     106.279  97.950  92.430  1.00  0.00    -0.508 OA
ATOM     27  H   UNL     1     106.513  97.279  91.708  1.00  0.00     0.293 HD
ENDBRANCH   8  26
TORSDOF 6
ENDMDL
MODEL 3
REMARK VINA RESULT:    -4.585      4.875      6.682
REMARK INTER + INTRA:          -5.853
REMARK INTER:                  -5.527
REMARK INTRA:                  -0.326
REMARK UNBOUND:                -0.330
REMARK SMILES O=c1c(O)c(-c2ccc(O)c(O)c2)oc2cc(O)cc(O)c12
REMARK SMILES IDX 5 1 3 2 2 3 1 4 22 5 20 6 19 7 17 8 16 9 15 10 14 11 6 12
REMARK SMILES IDX 7 13 8 14 9 15 13 16 11 17 10 18 12 20 4 22 21 24 18 26
REMARK H PARENT 10 19 12 21 4 23 21 25 18 27
REMARK Flexibility Score: inf
ROOT
ATOM      1  C   UNL     1     101.927 106.420  93.054  1.00  0.00     0.180 A 
ATOM      2  C   UNL     1     102.531 105.388  93.798  1.00  0.00     0.208 A 
ATOM      3  C   UNL     1     103.906 105.155  93.642  1.00  0.00     0.238 A 
ATOM      4  O   UNL     1     104.460 104.241  94.312  1.00  0.00    -0.285 OA
ATOM      5  C   UNL     1     104.647 105.939  92.735  1.00  0.00     0.111 A 
ATOM      6  C   UNL     1     106.036 105.766  92.517  1.00  0.00     0.134 A 
ATOM      7  C   UNL     1     106.701 106.582  91.589  1.00  0.00     0.093 A 
ATOM      8  C   UNL     1     106.007 107.564  90.878  1.00  0.00     0.123 A 
ATOM      9  C   UNL     1     104.637 107.739  91.089  1.00  0.00     0.094 A 
ATOM     10  C   UNL     1     103.955 106.938  92.010  1.00  0.00     0.146 A 
ATOM     11  O   UNL     1     102.655 107.129  92.197  1.00  0.00    -0.452 OA
ENDROOT
BRANCH   1  12
ATOM     12  C   UNL     1     100.486 106.739  93.177  1.00  0.00     0.025 A 
ATOM     13  C   UNL     1     100.030 107.736  94.053  1.00  0.00     0.016 A 
ATOM     14  C   UNL     1      98.669 108.035  94.133  1.00  0.00     0.051 A 
ATOM     15  C   UNL     1      97.740 107.359  93.336  1.00  0.00     0.157 A 
ATOM     16  C   UNL     1      99.558 106.073  92.359  1.00  0.00     0.062 A 
ATOM     17  C   UNL     1      98.192 106.367  92.433  1.00  0.00     0.158 A 
BRANCH  15  18
ATOM     18  O   UNL     1      96.393 107.703  93.468  1.00  0.00    -0.504 OA
ATOM     19  H   UNL     1      96.051 108.416  94.096  1.00  0.00     0.293 HD
ENDBRANCH  15  18
BRANCH  17  20
ATOM     20  O   UNL     1      97.326 105.656  91.599  1.00  0.00    -0.504 OA
ATOM     21  H   UNL     1      96.346 105.873  91.487  1.00  0.00     0.293 HD
ENDBRANCH  17  20
ENDBRANCH   1  12
BRANCH   2  22
ATOM     22  O   UNL     1     101.764 104.593  94.654  1.00  0.00    -0.502 OA
ATOM     23  H   UNL     1     102.036 103.651  94.909  1.00  0.00     0.293 HD
ENDBRANCH   2  22
BRANCH   6  24
ATOM     24  O   UNL     1     106.757 104.794  93.211  1.00  0.00    -0.507 OA
ATOM     25  H   UNL     1     107.356 104.131  92.733  1.00  0.00     0.293 HD
ENDBRANCH   6  24
BRANCH   8  26
ATOM     26  O   UNL     1     106.692 108.359  89.961  1.00  0.00    -0.508 OA
ATOM     27  H   UNL     1     106.740 109.366  90.066  1.00  0.00     0.293 HD
ENDBRANCH   8  26
TORSDOF 6
ENDMDL
MODEL 4
REMARK VINA RESULT:    -4.580      3.431      8.114
REMARK INTER + INTRA:          -5.848
REMARK INTER:                  -5.648
REMARK INTRA:                  -0.200
REMARK UNBOUND:                -0.330
REMARK SMILES O=c1c(O)c(-c2ccc(O)c(O)c2)oc2cc(O)cc(O)c12
REMARK SMILES IDX 5 1 3 2 2 3 1 4 22 5 20 6 19 7 17 8 16 9 15 10 14 11 6 12
REMARK SMILES IDX 7 13 8 14 9 15 13 16 11 17 10 18 12 20 4 22 21 24 18 26
REMARK H PARENT 10 19 12 21 4 23 21 25 18 27
REMARK Flexibility Score: inf
ROOT
ATOM      1  C   UNL     1     103.843 104.903  92.693  1.00  0.00     0.180 A 
ATOM      2  C   UNL     1     102.989 104.627  93.778  1.00  0.00     0.208 A 
ATOM      3  C   UNL     1     101.965 105.538  94.083  1.00  0.00     0.238 A 
ATOM      4  O   UNL     1     101.186 105.296  95.045  1.00  0.00    -0.285 OA
ATOM      5  C   UNL     1     101.825 106.712  93.315  1.00  0.00     0.111 A 
ATOM      6  C   UNL     1     100.822 107.681  93.560  1.00  0.00     0.134 A 
ATOM      7  C   UNL     1     100.754 108.829  92.756  1.00  0.00     0.093 A 
ATOM      8  C   UNL     1     101.667 109.027  91.717  1.00  0.00     0.123 A 
ATOM      9  C   UNL     1     102.659 108.073  91.471  1.00  0.00     0.094 A 
ATOM     10  C   UNL     1     102.742 106.921  92.259  1.00  0.00     0.146 A 
ATOM     11  O   UNL     1     103.691 106.028  92.001  1.00  0.00    -0.452 OA
ENDROOT
BRANCH   1  12
ATOM     12  C   UNL     1     104.935 103.983  92.297  1.00  0.00     0.025 A 
ATOM     13  C   UNL     1     104.663 102.698  91.800  1.00  0.00     0.016 A 
ATOM     14  C   UNL     1     105.709 101.859  91.411  1.00  0.00     0.051 A 
ATOM     15  C   UNL     1     107.038 102.284  91.497  1.00  0.00     0.157 A 
ATOM     16  C   UNL     1     106.266 104.421  92.365  1.00  0.00     0.062 A 
ATOM     17  C   UNL     1     107.320 103.585  91.977  1.00  0.00     0.158 A 
BRANCH  15  18
ATOM     18  O   UNL     1     108.036 101.394  91.096  1.00  0.00    -0.504 OA
ATOM     19  H   UNL     1     108.014 100.872  90.232  1.00  0.00     0.293 HD
ENDBRANCH  15  18
BRANCH  17  20
ATOM     20  O   UNL     1     108.621 104.084  92.084  1.00  0.00    -0.504 OA
ATOM     21  H   UNL     1     109.410 103.538  92.396  1.00  0.00     0.293 HD
ENDBRANCH  17  20
ENDBRANCH   1  12
BRANCH   2  22
ATOM     22  O   UNL     1     103.180 103.480  94.553  1.00  0.00    -0.502 OA
ATOM     23  H   UNL     1     103.827 103.454  95.332  1.00  0.00     0.293 HD
ENDBRANCH   2  22
BRANCH   6  24
ATOM     24  O   UNL     1      99.896 107.514  94.590  1.00  0.00    -0.507 OA
ATOM     25  H   UNL     1      99.809 106.639  95.092  1.00  0.00     0.293 HD
ENDBRANCH   6  24
BRANCH   8  26
ATOM     26  O   UNL     1     101.578 110.177  90.934  1.00  0.00    -0.508 OA
ATOM     27  H   UNL     1     102.090 111.019  91.171  1.00  0.00     0.293 HD
ENDBRANCH   8  26
TORSDOF 6
ENDMDL
MODEL 5
REMARK VINA RESULT:    -4.468      4.118      7.083
REMARK INTER + INTRA:          -5.712
REMARK INTER:                  -5.387
REMARK INTRA:                  -0.325
REMARK UNBOUND:                -0.330
REMARK SMILES O=c1c(O)c(-c2ccc(O)c(O)c2)oc2cc(O)cc(O)c12
REMARK SMILES IDX 5 1 3 2 2 3 1 4 22 5 20 6 19 7 17 8 16 9 15 10 14 11 6 12
REMARK SMILES IDX 7 13 8 14 9 15 13 16 11 17 10 18 12 20 4 22 21 24 18 26
REMARK H PARENT 10 19 12 21 4 23 21 25 18 27
REMARK Flexibility Score: inf
ROOT
ATOM      1  C   UNL     1     101.533 108.238  93.236  1.00  0.00     0.180 A 
ATOM      2  C   UNL     1     100.810 107.322  94.025  1.00  0.00     0.208 A 
ATOM      3  C   UNL     1     101.292 106.011  94.155  1.00  0.00     0.238 A 
ATOM      4  O   UNL     1     100.659 105.185  94.868  1.00  0.00    -0.285 OA
ATOM      5  C   UNL     1     102.472 105.633  93.482  1.00  0.00     0.111 A 
ATOM      6  C   UNL     1     103.022 104.330  93.558  1.00  0.00     0.134 A 
ATOM      7  C   UNL     1     104.196 104.029  92.851  1.00  0.00     0.093 A 
ATOM      8  C   UNL     1     104.828 105.001  92.072  1.00  0.00     0.123 A 
ATOM      9  C   UNL     1     104.289 106.288  91.993  1.00  0.00     0.094 A 
ATOM     10  C   UNL     1     103.121 106.610  92.691  1.00  0.00     0.146 A 
ATOM     11  O   UNL     1     102.633 107.841  92.604  1.00  0.00    -0.452 OA
ENDROOT
BRANCH   1  12
ATOM     12  C   UNL     1     101.098 109.644  93.065  1.00  0.00     0.025 A 
ATOM     13  C   UNL     1     100.221 110.018  92.035  1.00  0.00     0.016 A 
ATOM     14  C   UNL     1      99.807 111.345  91.910  1.00  0.00     0.051 A 
ATOM     15  C   UNL     1     100.245 112.320  92.812  1.00  0.00     0.157 A 
ATOM     16  C   UNL     1     101.523 110.616  93.985  1.00  0.00     0.062 A 
ATOM     17  C   UNL     1     101.112 111.949  93.867  1.00  0.00     0.158 A 
BRANCH  15  18
ATOM     18  O   UNL     1      99.798 113.629  92.627  1.00  0.00    -0.504 OA
ATOM     19  H   UNL     1      99.548 114.253  93.382  1.00  0.00     0.293 HD
ENDBRANCH  15  18
BRANCH  17  20
ATOM     20  O   UNL     1     101.586 112.863  94.811  1.00  0.00    -0.504 OA
ATOM     21  H   UNL     1     101.215 112.951  95.746  1.00  0.00     0.293 HD
ENDBRANCH  17  20
ENDBRANCH   1  12
BRANCH   2  22
ATOM     22  O   UNL     1      99.617 107.710  94.641  1.00  0.00    -0.502 OA
ATOM     23  H   UNL     1      98.710 107.412  94.302  1.00  0.00     0.293 HD
ENDBRANCH   2  22
BRANCH   6  24
ATOM     24  O   UNL     1     102.416 103.336  94.327  1.00  0.00    -0.507 OA
ATOM     25  H   UNL     1     102.910 102.864  95.075  1.00  0.00     0.293 HD
ENDBRANCH   6  24
BRANCH   8  26
ATOM     26  O   UNL     1     105.992 104.675  91.378  1.00  0.00    -0.508 OA
ATOM     27  H   UNL     1     106.432 103.768  91.480  1.00  0.00     0.293 HD
ENDBRANCH   8  26
TORSDOF 6
ENDMDL
MODEL 6
REMARK VINA RESULT:    -4.451      7.392      9.604
REMARK INTER + INTRA:          -5.692
REMARK INTER:                  -5.360
REMARK INTRA:                  -0.332
REMARK UNBOUND:                -0.330
REMARK SMILES O=c1c(O)c(-c2ccc(O)c(O)c2)oc2cc(O)cc(O)c12
REMARK SMILES IDX 5 1 3 2 2 3 1 4 22 5 20 6 19 7 17 8 16 9 15 10 14 11 6 12
REMARK SMILES IDX 7 13 8 14 9 15 13 16 11 17 10 18 12 20 4 22 21 24 18 26
REMARK H PARENT 10 19 12 21 4 23 21 25 18 27
REMARK Flexibility Score: inf
ROOT
ATOM      1  C   UNL     1     102.264 109.145  92.760  1.00  0.00     0.180 A 
ATOM      2  C   UNL     1     103.194 108.285  92.143  1.00  0.00     0.208 A 
ATOM      3  C   UNL     1     104.510 108.735  91.954  1.00  0.00     0.238 A 
ATOM      4  O   UNL     1     105.355 107.969  91.413  1.00  0.00    -0.285 OA
ATOM      5  C   UNL     1     104.868 110.036  92.362  1.00  0.00     0.111 A 
ATOM      6  C   UNL     1     106.171 110.565  92.204  1.00  0.00     0.134 A 
ATOM      7  C   UNL     1     106.446 111.874  92.628  1.00  0.00     0.093 A 
ATOM      8  C   UNL     1     105.447 112.661  93.206  1.00  0.00     0.123 A 
ATOM      9  C   UNL     1     104.158 112.143  93.365  1.00  0.00     0.094 A 
ATOM     10  C   UNL     1     103.864 110.841  92.950  1.00  0.00     0.146 A 
ATOM     11  O   UNL     1     102.634 110.371  93.118  1.00  0.00    -0.452 OA
ENDROOT
BRANCH   1  12
ATOM     12  C   UNL     1     100.862 108.737  93.012  1.00  0.00     0.025 A 
ATOM     13  C   UNL     1     100.483 108.131  94.220  1.00  0.00     0.016 A 
ATOM     14  C   UNL     1      99.151 107.778  94.443  1.00  0.00     0.051 A 
ATOM     15  C   UNL     1      98.172 108.032  93.477  1.00  0.00     0.157 A 
ATOM     16  C   UNL     1      99.879 109.013  92.049  1.00  0.00     0.062 A 
ATOM     17  C   UNL     1      98.540 108.662  92.265  1.00  0.00     0.158 A 
BRANCH  15  18
ATOM     18  O   UNL     1      96.860 107.649  93.761  1.00  0.00    -0.504 OA
ATOM     19  H   UNL     1      96.113 107.644  93.080  1.00  0.00     0.293 HD
ENDBRANCH  15  18
BRANCH  17  20
ATOM     20  O   UNL     1      97.619 108.956  91.257  1.00  0.00    -0.504 OA
ATOM     21  H   UNL     1      96.627 109.059  91.412  1.00  0.00     0.293 HD
ENDBRANCH  17  20
ENDBRANCH   1  12
BRANCH   2  22
ATOM     22  O   UNL     1     102.800 107.019  91.704  1.00  0.00    -0.502 OA
ATOM     23  H   UNL     1     103.255 106.548  90.930  1.00  0.00     0.293 HD
ENDBRANCH   2  22
BRANCH   6  24
ATOM     24  O   UNL     1     107.192 109.806  91.630  1.00  0.00    -0.507 OA
ATOM     25  H   UNL     1     108.141 110.152  91.564  1.00  0.00     0.293 HD
ENDBRANCH   6  24
BRANCH   8  26
ATOM     26  O   UNL     1     105.747 113.959  93.617  1.00  0.00    -0.508 OA
ATOM     27  H   UNL     1     106.535 114.152  94.225  1.00  0.00     0.293 HD
ENDBRANCH   8  26
TORSDOF 6
ENDMDL
MODEL 7
REMARK VINA RESULT:    -4.433      1.718      6.427
REMARK INTER + INTRA:          -5.671
REMARK INTER:                  -6.001
REMARK INTRA:                   0.330
REMARK UNBOUND:                -0.330
REMARK SMILES O=c1c(O)c(-c2ccc(O)c(O)c2)oc2cc(O)cc(O)c12
REMARK SMILES IDX 5 1 3 2 2 3 1 4 22 5 20 6 19 7 17 8 16 9 15 10 14 11 6 12
REMARK SMILES IDX 7 13 8 14 9 15 13 16 11 17 10 18 12 20 4 22 21 24 18 26
REMARK H PARENT 10 19 12 21 4 23 21 25 18 27
REMARK Flexibility Score: inf
ROOT
ATOM      1  C   UNL     1     104.042 100.827  92.825  1.00  0.00     0.180 A 
ATOM      2  C   UNL     1     105.239 101.032  92.113  1.00  0.00     0.208 A 
ATOM      3  C   UNL     1     105.645 102.346  91.834  1.00  0.00     0.238 A 
ATOM      4  O   UNL     1     106.723 102.542  91.207  1.00  0.00    -0.285 OA
ATOM      5  C   UNL     1     104.842 103.427  92.250  1.00  0.00     0.111 A 
ATOM      6  C   UNL     1     105.179 104.780  92.005  1.00  0.00     0.134 A 
ATOM      7  C   UNL     1     104.322 105.800  92.445  1.00  0.00     0.093 A 
ATOM      8  C   UNL     1     103.138 105.495  93.121  1.00  0.00     0.123 A 
ATOM      9  C   UNL     1     102.802 104.160  93.366  1.00  0.00     0.094 A 
ATOM     10  C   UNL     1     103.643 103.129  92.938  1.00  0.00     0.146 A 
ATOM     11  O   UNL     1     103.302 101.870  93.188  1.00  0.00    -0.452 OA
ENDROOT
BRANCH   1  12
ATOM     12  C   UNL     1     103.556  99.471  93.174  1.00  0.00     0.025 A 
ATOM     13  C   UNL     1     104.430  98.375  93.235  1.00  0.00     0.016 A 
ATOM     14  C   UNL     1     103.952  97.112  93.590  1.00  0.00     0.051 A 
ATOM     15  C   UNL     1     102.603  96.920  93.902  1.00  0.00     0.157 A 
ATOM     16  C   UNL     1     102.205  99.286  93.508  1.00  0.00     0.062 A 
ATOM     17  C   UNL     1     101.718  98.023  93.865  1.00  0.00     0.158 A 
BRANCH  15  18
ATOM     18  O   UNL     1     102.189  95.631  94.244  1.00  0.00    -0.504 OA
ATOM     19  H   UNL     1     101.265  95.266  94.058  1.00  0.00     0.293 HD
ENDBRANCH  15  18
BRANCH  17  20
ATOM     20  O   UNL     1     100.359  97.912  94.171  1.00  0.00    -0.504 OA
ATOM     21  H   UNL     1      99.957  97.134  94.675  1.00  0.00     0.293 HD
ENDBRANCH  17  20
ENDBRANCH   1  12
BRANCH   2  22
ATOM     22  O   UNL     1     105.992  99.941  91.669  1.00  0.00    -0.502 OA
ATOM     23  H   UNL     1     106.219  99.158  92.270  1.00  0.00     0.293 HD
ENDBRANCH   2  22
BRANCH   6  24
ATOM     24  O   UNL     1     106.353 105.119  91.332  1.00  0.00    -0.507 OA
ATOM     25  H   UNL     1     107.005 105.799  91.705  1.00  0.00     0.293 HD
ENDBRANCH   6  24
BRANCH   8  26
ATOM     26  O   UNL     1     102.304 106.527  93.545  1.00  0.00    -0.508 OA
ATOM     27  H   UNL     1     102.072 107.304  92.937  1.00  0.00     0.293 HD
ENDBRANCH   8  26
TORSDOF 6
ENDMDL
MODEL 8
REMARK VINA RESULT:    -4.375      4.300      7.770
REMARK INTER + INTRA:          -5.601
REMARK INTER:                  -5.305
REMARK INTRA:                  -0.296
REMARK UNBOUND:                -0.330
REMARK SMILES O=c1c(O)c(-c2ccc(O)c(O)c2)oc2cc(O)cc(O)c12
REMARK SMILES IDX 5 1 3 2 2 3 1 4 22 5 20 6 19 7 17 8 16 9 15 10 14 11 6 12
REMARK SMILES IDX 7 13 8 14 9 15 13 16 11 17 10 18 12 20 4 22 21 24 18 26
REMARK H PARENT 10 19 12 21 4 23 21 25 18 27
REMARK Flexibility Score: inf
ROOT
ATOM      1  C   UNL     1     100.661 108.624  93.133  1.00  0.00     0.180 A 
ATOM      2  C   UNL     1      99.370 108.251  92.712  1.00  0.00     0.208 A 
ATOM      3  C   UNL     1      99.020 106.892  92.721  1.00  0.00     0.238 A 
ATOM      4  O   UNL     1      97.862 106.548  92.358  1.00  0.00    -0.285 OA
ATOM      5  C   UNL     1      99.967 105.931  93.129  1.00  0.00     0.111 A 
ATOM      6  C   UNL     1      99.694 104.542  93.164  1.00  0.00     0.134 A 
ATOM      7  C   UNL     1     100.695 103.647  93.573  1.00  0.00     0.093 A 
ATOM      8  C   UNL     1     101.958 104.113  93.947  1.00  0.00     0.123 A 
ATOM      9  C   UNL     1     102.232 105.483  93.915  1.00  0.00     0.094 A 
ATOM     10  C   UNL     1     101.249 106.392  93.512  1.00  0.00     0.146 A 
ATOM     11  O   UNL     1     101.533 107.689  93.496  1.00  0.00    -0.452 OA
ENDROOT
BRANCH   1  12
ATOM     12  C   UNL     1     101.099 110.039  93.169  1.00  0.00     0.025 A 
ATOM     13  C   UNL     1     101.145 110.759  94.373  1.00  0.00     0.016 A 
ATOM     14  C   UNL     1     101.585 112.084  94.384  1.00  0.00     0.051 A 
ATOM     15  C   UNL     1     101.999 112.711  93.204  1.00  0.00     0.157 A 
ATOM     16  C   UNL     1     101.534 110.658  91.986  1.00  0.00     0.062 A 
ATOM     17  C   UNL     1     101.977 111.986  91.989  1.00  0.00     0.158 A 
BRANCH  15  18
ATOM     18  O   UNL     1     102.422 114.039  93.284  1.00  0.00    -0.504 OA
ATOM     19  H   UNL     1     102.223 114.649  94.064  1.00  0.00     0.293 HD
ENDBRANCH  15  18
BRANCH  17  20
ATOM     20  O   UNL     1     102.382 112.540  90.773  1.00  0.00    -0.504 OA
ATOM     21  H   UNL     1     101.905 112.387  89.896  1.00  0.00     0.293 HD
ENDBRANCH  17  20
ENDBRANCH   1  12
BRANCH   2  22
ATOM     22  O   UNL     1      98.466 109.219  92.266  1.00  0.00    -0.502 OA
ATOM     23  H   UNL     1      98.506 110.183  92.577  1.00  0.00     0.293 HD
ENDBRANCH   2  22
BRANCH   6  24
ATOM     24  O   UNL     1      98.444 104.045  92.796  1.00  0.00    -0.507 OA
ATOM     25  H   UNL     1      97.970 104.360  91.958  1.00  0.00     0.293 HD
ENDBRANCH   6  24
BRANCH   8  26
ATOM     26  O   UNL     1     102.934 103.203  94.349  1.00  0.00    -0.508 OA
ATOM     27  H   UNL     1     102.821 102.639  95.184  1.00  0.00     0.293 HD
ENDBRANCH   8  26
TORSDOF 6
ENDMDL
MODEL 9
REMARK VINA RESULT:    -4.350      2.361      6.199
REMARK INTER + INTRA:          -5.571
REMARK INTER:                  -5.239
REMARK INTRA:                  -0.332
REMARK UNBOUND:                -0.330
REMARK SMILES O=c1c(O)c(-c2ccc(O)c(O)c2)oc2cc(O)cc(O)c12
REMARK SMILES IDX 5 1 3 2 2 3 1 4 22 5 20 6 19 7 17 8 16 9 15 10 14 11 6 12
REMARK SMILES IDX 7 13 8 14 9 15 13 16 11 17 10 18 12 20 4 22 21 24 18 26
REMARK H PARENT 10 19 12 21 4 23 21 25 18 27
REMARK Flexibility Score: inf
ROOT
ATOM      1  C   UNL     1     102.603 101.693  92.869  1.00  0.00     0.180 A 
ATOM      2  C   UNL     1     102.130 102.799  93.603  1.00  0.00     0.208 A 
ATOM      3  C   UNL     1     102.933 103.947  93.691  1.00  0.00     0.238 A 
ATOM      4  O   UNL     1     102.515 104.948  94.336  1.00  0.00    -0.285 OA
ATOM      5  C   UNL     1     104.196 103.964  93.066  1.00  0.00     0.111 A 
ATOM      6  C   UNL     1     105.067 105.080  93.111  1.00  0.00     0.134 A 
ATOM      7  C   UNL     1     106.313 105.015  92.470  1.00  0.00     0.093 A 
ATOM      8  C   UNL     1     106.705 103.860  91.788  1.00  0.00     0.123 A 
ATOM      9  C   UNL     1     105.849 102.756  91.741  1.00  0.00     0.094 A 
ATOM     10  C   UNL     1     104.602 102.801  92.371  1.00  0.00     0.146 A 
ATOM     11  O   UNL     1     103.806 101.740  92.306  1.00  0.00    -0.452 OA
ENDROOT
BRANCH   1  12
ATOM     12  C   UNL     1     101.807 100.454  92.714  1.00  0.00     0.025 A 
ATOM     13  C   UNL     1     100.924 100.281  91.636  1.00  0.00     0.016 A 
ATOM     14  C   UNL     1     100.204  99.094  91.499  1.00  0.00     0.051 A 
ATOM     15  C   UNL     1     100.357  98.053  92.421  1.00  0.00     0.157 A 
ATOM     16  C   UNL     1     101.979  99.403  93.630  1.00  0.00     0.062 A 
ATOM     17  C   UNL     1     101.261  98.209  93.499  1.00  0.00     0.158 A 
BRANCH  15  18
ATOM     18  O   UNL     1      99.603  96.894  92.229  1.00  0.00    -0.504 OA
ATOM     19  H   UNL     1      99.865  96.147  91.602  1.00  0.00     0.293 HD
ENDBRANCH  15  18
BRANCH  17  20
ATOM     20  O   UNL     1     101.474  97.212  94.454  1.00  0.00    -0.504 OA
ATOM     21  H   UNL     1     102.299  97.154  95.034  1.00  0.00     0.293 HD
ENDBRANCH  17  20
ENDBRANCH   1  12
BRANCH   2  22
ATOM     22  O   UNL     1     100.895 102.738  94.254  1.00  0.00    -0.502 OA
ATOM     23  H   UNL     1     100.795 102.374  95.194  1.00  0.00     0.293 HD
ENDBRANCH   2  22
BRANCH   6  24
ATOM     24  O   UNL     1     104.706 106.247  93.784  1.00  0.00    -0.507 OA
ATOM     25  H   UNL     1     105.395 106.931  94.073  1.00  0.00     0.293 HD
ENDBRANCH   6  24
BRANCH   8  26
ATOM     26  O   UNL     1     107.950 103.822  91.161  1.00  0.00    -0.508 OA
ATOM     27  H   UNL     1     108.418 104.670  90.863  1.00  0.00     0.293 HD
ENDBRANCH   8  26
TORSDOF 6
ENDMDL
