MODEL 1
REMARK VINA RESULT:    -6.681      0.000      0.000
REMARK INTER + INTRA:          -8.170
REMARK INTER:                  -7.853
REMARK INTRA:                  -0.317
REMARK UNBOUND:                -0.317
REMARK SMILES O=c1cc(-c2ccc(O)c(O)c2)oc2cc(O)cc(O)c12
REMARK SMILES IDX 4 1 3 2 2 3 1 4 21 5 19 6 18 7 16 8 15 9 14 10 13 11 5 12
REMARK SMILES IDX 6 13 7 14 8 15 12 16 10 17 9 18 11 20 20 22 17 24
REMARK H PARENT 9 19 11 21 20 23 17 25
REMARK Flexibility Score: inf
ROOT
ATOM      1  C   UNL     1       5.319 -60.341 190.785  1.00  0.00     0.138 A 
ATOM      2  C   UNL     1       3.984 -60.018 190.504  1.00  0.00     0.100 A 
ATOM      3  C   UNL     1       3.345 -59.022 191.242  1.00  0.00     0.197 A 
ATOM      4  O   UNL     1       2.167 -58.711 190.927  1.00  0.00    -0.289 OA
ATOM      5  C   UNL     1       4.037 -58.368 192.289  1.00  0.00     0.107 A 
ATOM      6  C   UNL     1       3.473 -57.367 193.135  1.00  0.00     0.134 A 
ATOM      7  C   UNL     1       4.290 -56.708 194.063  1.00  0.00     0.093 A 
ATOM      8  C   UNL     1       5.634 -57.056 194.215  1.00  0.00     0.123 A 
ATOM      9  C   UNL     1       6.180 -58.069 193.431  1.00  0.00     0.094 A 
ATOM     10  C   UNL     1       5.401 -58.722 192.474  1.00  0.00     0.146 A 
ATOM     11  O   UNL     1       5.963 -59.674 191.736  1.00  0.00    -0.456 OA
ENDROOT
BRANCH   1  12
ATOM     12  C   UNL     1       6.046 -61.392 190.030  1.00  0.00     0.021 A 
ATOM     13  C   UNL     1       5.457 -61.956 188.888  1.00  0.00     0.016 A 
ATOM     14  C   UNL     1       6.123 -62.940 188.158  1.00  0.00     0.051 A 
ATOM     15  C   UNL     1       7.395 -63.378 188.541  1.00  0.00     0.157 A 
ATOM     16  C   UNL     1       7.332 -61.821 190.410  1.00  0.00     0.062 A 
ATOM     17  C   UNL     1       8.010 -62.806 189.680  1.00  0.00     0.158 A 
BRANCH  15  18
ATOM     18  O   UNL     1       8.005 -64.369 187.771  1.00  0.00    -0.504 OA
ATOM     19  H   UNL     1       7.701 -64.633 186.845  1.00  0.00     0.293 HD
ENDBRANCH  15  18
BRANCH  17  20
ATOM     20  O   UNL     1       9.283 -63.180 190.115  1.00  0.00    -0.504 OA
ATOM     21  H   UNL     1       9.510 -63.401 191.074  1.00  0.00     0.293 HD
ENDBRANCH  17  20
ENDBRANCH   1  12
BRANCH   6  22
ATOM     22  O   UNL     1       2.123 -57.004 193.123  1.00  0.00    -0.507 OA
ATOM     23  H   UNL     1       1.358 -57.634 192.941  1.00  0.00     0.293 HD
ENDBRANCH   6  22
BRANCH   8  24
ATOM     24  O   UNL     1       6.436 -56.405 195.151  1.00  0.00    -0.508 OA
ATOM     25  H   UNL     1       6.202 -55.482 195.498  1.00  0.00     0.293 HD
ENDBRANCH   8  24
TORSDOF 5
ENDMDL
MODEL 2
REMARK VINA RESULT:    -6.670      2.207      6.780
REMARK INTER + INTRA:          -8.157
REMARK INTER:                  -7.881
REMARK INTRA:                  -0.277
REMARK UNBOUND:                -0.317
REMARK SMILES O=c1cc(-c2ccc(O)c(O)c2)oc2cc(O)cc(O)c12
REMARK SMILES IDX 4 1 3 2 2 3 1 4 21 5 19 6 18 7 16 8 15 9 14 10 13 11 5 12
REMARK SMILES IDX 6 13 7 14 8 15 12 16 10 17 9 18 11 20 20 22 17 24
REMARK H PARENT 9 19 11 21 20 23 17 25
REMARK Flexibility Score: inf
ROOT
ATOM      1  C   UNL     1       4.861 -60.235 189.954  1.00  0.00     0.138 A 
ATOM      2  C   UNL     1       3.519 -60.543 189.691  1.00  0.00     0.100 A 
ATOM      3  C   UNL     1       3.203 -61.698 188.976  1.00  0.00     0.197 A 
ATOM      4  O   UNL     1       1.989 -61.981 188.808  1.00  0.00    -0.289 OA
ATOM      5  C   UNL     1       4.240 -62.534 188.495  1.00  0.00     0.107 A 
ATOM      6  C   UNL     1       4.038 -63.715 187.719  1.00  0.00     0.134 A 
ATOM      7  C   UNL     1       5.135 -64.525 187.399  1.00  0.00     0.093 A 
ATOM      8  C   UNL     1       6.431 -64.165 187.774  1.00  0.00     0.123 A 
ATOM      9  C   UNL     1       6.644 -62.986 188.484  1.00  0.00     0.094 A 
ATOM     10  C   UNL     1       5.568 -62.174 188.849  1.00  0.00     0.146 A 
ATOM     11  O   UNL     1       5.812 -61.065 189.539  1.00  0.00    -0.456 OA
ENDROOT
BRANCH   1  12
ATOM     12  C   UNL     1       5.252 -59.019 190.709  1.00  0.00     0.021 A 
ATOM     13  C   UNL     1       4.915 -57.753 190.204  1.00  0.00     0.016 A 
ATOM     14  C   UNL     1       5.265 -56.595 190.900  1.00  0.00     0.051 A 
ATOM     15  C   UNL     1       5.949 -56.671 192.117  1.00  0.00     0.157 A 
ATOM     16  C   UNL     1       5.928 -59.098 191.941  1.00  0.00     0.062 A 
ATOM     17  C   UNL     1       6.280 -57.940 192.648  1.00  0.00     0.158 A 
BRANCH  15  18
ATOM     18  O   UNL     1       6.275 -55.475 192.759  1.00  0.00    -0.504 OA
ATOM     19  H   UNL     1       6.358 -54.586 192.289  1.00  0.00     0.293 HD
ENDBRANCH  15  18
BRANCH  17  20
ATOM     20  O   UNL     1       6.948 -58.096 193.864  1.00  0.00    -0.504 OA
ATOM     21  H   UNL     1       7.875 -58.485 193.954  1.00  0.00     0.293 HD
ENDBRANCH  17  20
ENDBRANCH   1  12
BRANCH   6  22
ATOM     22  O   UNL     1       2.796 -64.120 187.222  1.00  0.00    -0.507 OA
ATOM     23  H   UNL     1       2.543 -65.072 187.009  1.00  0.00     0.293 HD
ENDBRANCH   6  22
BRANCH   8  24
ATOM     24  O   UNL     1       7.518 -64.969 187.437  1.00  0.00    -0.508 OA
ATOM     25  H   UNL     1       7.934 -64.938 186.513  1.00  0.00     0.293 HD
ENDBRANCH   8  24
TORSDOF 5
ENDMDL
MODEL 3
REMARK VINA RESULT:    -6.607      2.275      6.875
REMARK INTER + INTRA:          -8.083
REMARK INTER:                  -7.816
REMARK INTRA:                  -0.267
REMARK UNBOUND:                -0.317
REMARK SMILES O=c1cc(-c2ccc(O)c(O)c2)oc2cc(O)cc(O)c12
REMARK SMILES IDX 4 1 3 2 2 3 1 4 21 5 19 6 18 7 16 8 15 9 14 10 13 11 5 12
REMARK SMILES IDX 6 13 7 14 8 15 12 16 10 17 9 18 11 20 20 22 17 24
REMARK H PARENT 9 19 11 21 20 23 17 25
REMARK Flexibility Score: inf
ROOT
ATOM      1  C   UNL     1       4.991 -60.281 190.064  1.00  0.00     0.138 A 
ATOM      2  C   UNL     1       3.639 -60.539 189.797  1.00  0.00     0.100 A 
ATOM      3  C   UNL     1       3.285 -61.658 189.043  1.00  0.00     0.197 A 
ATOM      4  O   UNL     1       2.062 -61.897 188.872  1.00  0.00    -0.289 OA
ATOM      5  C   UNL     1       4.294 -62.507 188.528  1.00  0.00     0.107 A 
ATOM      6  C   UNL     1       4.053 -63.653 187.712  1.00  0.00     0.134 A 
ATOM      7  C   UNL     1       5.124 -64.484 187.358  1.00  0.00     0.093 A 
ATOM      8  C   UNL     1       6.432 -64.177 187.739  1.00  0.00     0.123 A 
ATOM      9  C   UNL     1       6.684 -63.031 188.490  1.00  0.00     0.094 A 
ATOM     10  C   UNL     1       5.634 -62.200 188.888  1.00  0.00     0.146 A 
ATOM     11  O   UNL     1       5.915 -61.124 189.615  1.00  0.00    -0.456 OA
ENDROOT
BRANCH   1  12
ATOM     12  C   UNL     1       5.422 -59.105 190.860  1.00  0.00     0.021 A 
ATOM     13  C   UNL     1       5.721 -59.264 192.222  1.00  0.00     0.016 A 
ATOM     14  C   UNL     1       6.135 -58.175 192.990  1.00  0.00     0.051 A 
ATOM     15  C   UNL     1       6.271 -56.906 192.417  1.00  0.00     0.157 A 
ATOM     16  C   UNL     1       5.572 -57.832 190.278  1.00  0.00     0.062 A 
ATOM     17  C   UNL     1       5.991 -56.733 191.042  1.00  0.00     0.158 A 
BRANCH  15  18
ATOM     18  O   UNL     1       6.684 -55.858 193.241  1.00  0.00    -0.504 OA
ATOM     19  H   UNL     1       6.069 -55.136 193.588  1.00  0.00     0.293 HD
ENDBRANCH  15  18
BRANCH  17  20
ATOM     20  O   UNL     1       6.118 -55.502 190.396  1.00  0.00    -0.504 OA
ATOM     21  H   UNL     1       6.794 -55.311 189.670  1.00  0.00     0.293 HD
ENDBRANCH  17  20
ENDBRANCH   1  12
BRANCH   6  22
ATOM     22  O   UNL     1       2.798 -64.002 187.207  1.00  0.00    -0.507 OA
ATOM     23  H   UNL     1       2.373 -64.912 187.296  1.00  0.00     0.293 HD
ENDBRANCH   6  22
BRANCH   8  24
ATOM     24  O   UNL     1       7.493 -65.001 187.369  1.00  0.00    -0.508 OA
ATOM     25  H   UNL     1       7.527 -65.443 186.458  1.00  0.00     0.293 HD
ENDBRANCH   8  24
TORSDOF 5
ENDMDL
MODEL 4
REMARK VINA RESULT:    -6.606      2.115      7.631
REMARK INTER + INTRA:          -8.082
REMARK INTER:                  -7.780
REMARK INTRA:                  -0.303
REMARK UNBOUND:                -0.317
REMARK SMILES O=c1cc(-c2ccc(O)c(O)c2)oc2cc(O)cc(O)c12
REMARK SMILES IDX 4 1 3 2 2 3 1 4 21 5 19 6 18 7 16 8 15 9 14 10 13 11 5 12
REMARK SMILES IDX 6 13 7 14 8 15 12 16 10 17 9 18 11 20 20 22 17 24
REMARK H PARENT 9 19 11 21 20 23 17 25
REMARK Flexibility Score: inf
ROOT
ATOM      1  C   UNL     1       5.572 -61.066 189.907  1.00  0.00     0.138 A 
ATOM      2  C   UNL     1       6.863 -61.599 189.783  1.00  0.00     0.100 A 
ATOM      3  C   UNL     1       7.072 -62.724 188.985  1.00  0.00     0.197 A 
ATOM      4  O   UNL     1       8.250 -63.142 188.844  1.00  0.00    -0.289 OA
ATOM      5  C   UNL     1       5.976 -63.336 188.332  1.00  0.00     0.107 A 
ATOM      6  C   UNL     1       6.063 -64.511 187.526  1.00  0.00     0.134 A 
ATOM      7  C   UNL     1       4.930 -64.959 186.835  1.00  0.00     0.093 A 
ATOM      8  C   UNL     1       3.700 -64.310 186.969  1.00  0.00     0.123 A 
ATOM      9  C   UNL     1       3.592 -63.195 187.796  1.00  0.00     0.094 A 
ATOM     10  C   UNL     1       4.712 -62.703 188.471  1.00  0.00     0.146 A 
ATOM     11  O   UNL     1       4.570 -61.628 189.240  1.00  0.00    -0.456 OA
ENDROOT
BRANCH   1  12
ATOM     12  C   UNL     1       5.294 -59.872 190.744  1.00  0.00     0.021 A 
ATOM     13  C   UNL     1       6.026 -59.670 191.924  1.00  0.00     0.016 A 
ATOM     14  C   UNL     1       5.788 -58.551 192.724  1.00  0.00     0.051 A 
ATOM     15  C   UNL     1       4.826 -57.604 192.361  1.00  0.00     0.157 A 
ATOM     16  C   UNL     1       4.335 -58.912 190.369  1.00  0.00     0.062 A 
ATOM     17  C   UNL     1       4.093 -57.784 191.164  1.00  0.00     0.158 A 
BRANCH  15  18
ATOM     18  O   UNL     1       4.633 -56.510 193.207  1.00  0.00    -0.504 OA
ATOM     19  H   UNL     1       3.759 -56.299 193.666  1.00  0.00     0.293 HD
ENDBRANCH  15  18
BRANCH  17  20
ATOM     20  O   UNL     1       3.128 -56.874 190.728  1.00  0.00    -0.504 OA
ATOM     21  H   UNL     1       3.293 -56.167 190.026  1.00  0.00     0.293 HD
ENDBRANCH  17  20
ENDBRANCH   1  12
BRANCH   6  22
ATOM     22  O   UNL     1       7.221 -65.282 187.393  1.00  0.00    -0.507 OA
ATOM     23  H   UNL     1       7.743 -65.396 186.537  1.00  0.00     0.293 HD
ENDBRANCH   6  22
BRANCH   8  24
ATOM     24  O   UNL     1       2.575 -64.772 186.290  1.00  0.00    -0.508 OA
ATOM     25  H   UNL     1       2.320 -65.753 186.292  1.00  0.00     0.293 HD
ENDBRANCH   8  24
TORSDOF 5
ENDMDL
MODEL 5
REMARK VINA RESULT:    -6.239      1.356      6.744
REMARK INTER + INTRA:          -7.650
REMARK INTER:                  -7.341
REMARK INTRA:                  -0.309
REMARK UNBOUND:                -0.317
REMARK SMILES O=c1cc(-c2ccc(O)c(O)c2)oc2cc(O)cc(O)c12
REMARK SMILES IDX 4 1 3 2 2 3 1 4 21 5 19 6 18 7 16 8 15 9 14 10 13 11 5 12
REMARK SMILES IDX 6 13 7 14 8 15 12 16 10 17 9 18 11 20 20 22 17 24
REMARK H PARENT 9 19 11 21 20 23 17 25
REMARK Flexibility Score: inf
ROOT
ATOM      1  C   UNL     1       4.958 -59.451 191.501  1.00  0.00     0.138 A 
ATOM      2  C   UNL     1       3.980 -59.804 190.560  1.00  0.00     0.100 A 
ATOM      3  C   UNL     1       4.246 -60.812 189.633  1.00  0.00     0.197 A 
ATOM      4  O   UNL     1       3.329 -61.149 188.842  1.00  0.00    -0.289 OA
ATOM      5  C   UNL     1       5.511 -61.447 189.628  1.00  0.00     0.107 A 
ATOM      6  C   UNL     1       5.909 -62.458 188.703  1.00  0.00     0.134 A 
ATOM      7  C   UNL     1       7.145 -63.096 188.869  1.00  0.00     0.093 A 
ATOM      8  C   UNL     1       8.021 -62.718 189.889  1.00  0.00     0.123 A 
ATOM      9  C   UNL     1       7.664 -61.696 190.764  1.00  0.00     0.094 A 
ATOM     10  C   UNL     1       6.425 -61.063 190.647  1.00  0.00     0.146 A 
ATOM     11  O   UNL     1       6.117 -60.101 191.510  1.00  0.00    -0.456 OA
ENDROOT
BRANCH   1  12
ATOM     12  C   UNL     1       4.726 -58.386 192.510  1.00  0.00     0.021 A 
ATOM     13  C   UNL     1       3.415 -58.093 192.916  1.00  0.00     0.016 A 
ATOM     14  C   UNL     1       3.173 -57.101 193.867  1.00  0.00     0.051 A 
ATOM     15  C   UNL     1       4.229 -56.388 194.443  1.00  0.00     0.157 A 
ATOM     16  C   UNL     1       5.792 -57.680 193.098  1.00  0.00     0.062 A 
ATOM     17  C   UNL     1       5.557 -56.685 194.057  1.00  0.00     0.158 A 
BRANCH  15  18
ATOM     18  O   UNL     1       3.918 -55.406 195.385  1.00  0.00    -0.504 OA
ATOM     19  H   UNL     1       3.980 -54.414 195.208  1.00  0.00     0.293 HD
ENDBRANCH  15  18
BRANCH  17  20
ATOM     20  O   UNL     1       6.664 -56.028 194.599  1.00  0.00    -0.504 OA
ATOM     21  H   UNL     1       7.135 -55.253 194.154  1.00  0.00     0.293 HD
ENDBRANCH  17  20
ENDBRANCH   1  12
BRANCH   6  22
ATOM     22  O   UNL     1       5.147 -62.850 187.600  1.00  0.00    -0.507 OA
ATOM     23  H   UNL     1       4.213 -63.228 187.648  1.00  0.00     0.293 HD
ENDBRANCH   6  22
BRANCH   8  24
ATOM     24  O   UNL     1       9.255 -63.349 190.037  1.00  0.00    -0.508 OA
ATOM     25  H   UNL     1       9.588 -64.026 189.360  1.00  0.00     0.293 HD
ENDBRANCH   8  24
TORSDOF 5
ENDMDL
MODEL 6
REMARK VINA RESULT:    -5.945      8.204     10.659
REMARK INTER + INTRA:          -7.306
REMARK INTER:                  -7.008
REMARK INTRA:                  -0.297
REMARK UNBOUND:                -0.317
REMARK SMILES O=c1cc(-c2ccc(O)c(O)c2)oc2cc(O)cc(O)c12
REMARK SMILES IDX 4 1 3 2 2 3 1 4 21 5 19 6 18 7 16 8 15 9 14 10 13 11 5 12
REMARK SMILES IDX 6 13 7 14 8 15 12 16 10 17 9 18 11 20 20 22 17 24
REMARK H PARENT 9 19 11 21 20 23 17 25
REMARK Flexibility Score: inf
ROOT
ATOM      1  C   UNL     1      10.995 -56.450 197.370  1.00  0.00     0.138 A 
ATOM      2  C   UNL     1       9.980 -56.160 196.447  1.00  0.00     0.100 A 
ATOM      3  C   UNL     1      10.313 -55.648 195.193  1.00  0.00     0.197 A 
ATOM      4  O   UNL     1       9.386 -55.456 194.365  1.00  0.00    -0.289 OA
ATOM      5  C   UNL     1      11.668 -55.396 194.873  1.00  0.00     0.107 A 
ATOM      6  C   UNL     1      12.121 -54.836 193.641  1.00  0.00     0.134 A 
ATOM      7  C   UNL     1      13.496 -54.740 193.392  1.00  0.00     0.093 A 
ATOM      8  C   UNL     1      14.432 -55.128 194.353  1.00  0.00     0.123 A 
ATOM      9  C   UNL     1      13.999 -55.625 195.580  1.00  0.00     0.094 A 
ATOM     10  C   UNL     1      12.635 -55.765 195.846  1.00  0.00     0.146 A 
ATOM     11  O   UNL     1      12.263 -56.256 197.024  1.00  0.00    -0.456 OA
ENDROOT
BRANCH   1  12
ATOM     12  C   UNL     1      10.697 -56.996 198.717  1.00  0.00     0.021 A 
ATOM     13  C   UNL     1       9.595 -56.504 199.434  1.00  0.00     0.016 A 
ATOM     14  C   UNL     1       9.290 -57.006 200.700  1.00  0.00     0.051 A 
ATOM     15  C   UNL     1      10.067 -58.016 201.275  1.00  0.00     0.157 A 
ATOM     16  C   UNL     1      11.472 -58.023 199.289  1.00  0.00     0.062 A 
ATOM     17  C   UNL     1      11.170 -58.535 200.558  1.00  0.00     0.158 A 
BRANCH  15  18
ATOM     18  O   UNL     1       9.712 -58.470 202.547  1.00  0.00    -0.504 OA
ATOM     19  H   UNL     1       9.353 -59.395 202.736  1.00  0.00     0.293 HD
ENDBRANCH  15  18
BRANCH  17  20
ATOM     20  O   UNL     1      11.983 -59.554 201.059  1.00  0.00    -0.504 OA
ATOM     21  H   UNL     1      11.645 -60.467 201.326  1.00  0.00     0.293 HD
ENDBRANCH  17  20
ENDBRANCH   1  12
BRANCH   6  22
ATOM     22  O   UNL     1      11.271 -54.341 192.649  1.00  0.00    -0.507 OA
ATOM     23  H   UNL     1      11.429 -54.428 191.657  1.00  0.00     0.293 HD
ENDBRANCH   6  22
BRANCH   8  24
ATOM     24  O   UNL     1      15.798 -55.015 194.102  1.00  0.00    -0.508 OA
ATOM     25  H   UNL     1      16.147 -54.559 193.267  1.00  0.00     0.293 HD
ENDBRANCH   8  24
TORSDOF 5
ENDMDL
MODEL 7
REMARK VINA RESULT:    -5.931      1.745      7.204
REMARK INTER + INTRA:          -7.289
REMARK INTER:                  -6.992
REMARK INTRA:                  -0.297
REMARK UNBOUND:                -0.317
REMARK SMILES O=c1cc(-c2ccc(O)c(O)c2)oc2cc(O)cc(O)c12
REMARK SMILES IDX 4 1 3 2 2 3 1 4 21 5 19 6 18 7 16 8 15 9 14 10 13 11 5 12
REMARK SMILES IDX 6 13 7 14 8 15 12 16 10 17 9 18 11 20 20 22 17 24
REMARK H PARENT 9 19 11 21 20 23 17 25
REMARK Flexibility Score: inf
ROOT
ATOM      1  C   UNL     1       5.636 -60.415 190.829  1.00  0.00     0.138 A 
ATOM      2  C   UNL     1       6.914 -60.977 190.699  1.00  0.00     0.100 A 
ATOM      3  C   UNL     1       7.118 -62.027 189.804  1.00  0.00     0.197 A 
ATOM      4  O   UNL     1       8.287 -62.470 189.664  1.00  0.00    -0.289 OA
ATOM      5  C   UNL     1       6.029 -62.539 189.058  1.00  0.00     0.107 A 
ATOM      6  C   UNL     1       6.111 -63.635 188.148  1.00  0.00     0.134 A 
ATOM      7  C   UNL     1       4.991 -63.977 187.379  1.00  0.00     0.093 A 
ATOM      8  C   UNL     1       3.778 -63.303 187.532  1.00  0.00     0.123 A 
ATOM      9  C   UNL     1       3.673 -62.267 188.457  1.00  0.00     0.094 A 
ATOM     10  C   UNL     1       4.781 -61.879 189.215  1.00  0.00     0.146 A 
ATOM     11  O   UNL     1       4.642 -60.877 190.077  1.00  0.00    -0.456 OA
ENDROOT
BRANCH   1  12
ATOM     12  C   UNL     1       5.363 -59.296 191.765  1.00  0.00     0.021 A 
ATOM     13  C   UNL     1       4.079 -58.730 191.811  1.00  0.00     0.016 A 
ATOM     14  C   UNL     1       3.796 -57.683 192.688  1.00  0.00     0.051 A 
ATOM     15  C   UNL     1       4.781 -57.182 193.546  1.00  0.00     0.157 A 
ATOM     16  C   UNL     1       6.351 -58.804 192.638  1.00  0.00     0.062 A 
ATOM     17  C   UNL     1       6.075 -57.754 193.525  1.00  0.00     0.158 A 
BRANCH  15  18
ATOM     18  O   UNL     1       4.435 -56.129 194.395  1.00  0.00    -0.504 OA
ATOM     19  H   UNL     1       3.624 -56.132 194.996  1.00  0.00     0.293 HD
ENDBRANCH  15  18
BRANCH  17  20
ATOM     20  O   UNL     1       7.104 -57.319 194.361  1.00  0.00    -0.504 OA
ATOM     21  H   UNL     1       7.745 -56.574 194.129  1.00  0.00     0.293 HD
ENDBRANCH  17  20
ENDBRANCH   1  12
BRANCH   6  22
ATOM     22  O   UNL     1       7.250 -64.428 187.981  1.00  0.00    -0.507 OA
ATOM     23  H   UNL     1       7.243 -65.429 187.859  1.00  0.00     0.293 HD
ENDBRANCH   6  22
BRANCH   8  24
ATOM     24  O   UNL     1       2.665 -63.661 186.773  1.00  0.00    -0.508 OA
ATOM     25  H   UNL     1       1.947 -62.986 186.537  1.00  0.00     0.293 HD
ENDBRANCH   8  24
TORSDOF 5
ENDMDL
MODEL 8
REMARK VINA RESULT:    -5.729      1.508      2.032
REMARK INTER + INTRA:          -7.052
REMARK INTER:                  -6.781
REMARK INTRA:                  -0.271
REMARK UNBOUND:                -0.317
REMARK SMILES O=c1cc(-c2ccc(O)c(O)c2)oc2cc(O)cc(O)c12
REMARK SMILES IDX 4 1 3 2 2 3 1 4 21 5 19 6 18 7 16 8 15 9 14 10 13 11 5 12
REMARK SMILES IDX 6 13 7 14 8 15 12 16 10 17 9 18 11 20 20 22 17 24
REMARK H PARENT 9 19 11 21 20 23 17 25
REMARK Flexibility Score: inf
ROOT
ATOM      1  C   UNL     1       5.792 -60.309 190.286  1.00  0.00     0.138 A 
ATOM      2  C   UNL     1       5.133 -59.231 189.678  1.00  0.00     0.100 A 
ATOM      3  C   UNL     1       4.790 -58.114 190.439  1.00  0.00     0.197 A 
ATOM      4  O   UNL     1       4.255 -57.137 189.854  1.00  0.00    -0.289 OA
ATOM      5  C   UNL     1       5.082 -58.089 191.824  1.00  0.00     0.107 A 
ATOM      6  C   UNL     1       4.742 -57.021 192.707  1.00  0.00     0.134 A 
ATOM      7  C   UNL     1       5.185 -57.056 194.035  1.00  0.00     0.093 A 
ATOM      8  C   UNL     1       5.903 -58.149 194.527  1.00  0.00     0.123 A 
ATOM      9  C   UNL     1       6.193 -59.221 193.687  1.00  0.00     0.094 A 
ATOM     10  C   UNL     1       5.795 -59.201 192.348  1.00  0.00     0.146 A 
ATOM     11  O   UNL     1       6.103 -60.237 191.576  1.00  0.00    -0.456 OA
ENDROOT
BRANCH   1  12
ATOM     12  C   UNL     1       6.179 -61.522 189.523  1.00  0.00     0.021 A 
ATOM     13  C   UNL     1       7.521 -61.934 189.514  1.00  0.00     0.016 A 
ATOM     14  C   UNL     1       7.908 -63.075 188.810  1.00  0.00     0.051 A 
ATOM     15  C   UNL     1       6.968 -63.837 188.110  1.00  0.00     0.157 A 
ATOM     16  C   UNL     1       5.229 -62.296 188.831  1.00  0.00     0.062 A 
ATOM     17  C   UNL     1       5.609 -63.445 188.124  1.00  0.00     0.158 A 
BRANCH  15  18
ATOM     18  O   UNL     1       7.422 -64.963 187.421  1.00  0.00    -0.504 OA
ATOM     19  H   UNL     1       7.811 -65.780 187.869  1.00  0.00     0.293 HD
ENDBRANCH  15  18
BRANCH  17  20
ATOM     20  O   UNL     1       4.611 -64.163 187.463  1.00  0.00    -0.504 OA
ATOM     21  H   UNL     1       3.790 -63.743 187.052  1.00  0.00     0.293 HD
ENDBRANCH  17  20
ENDBRANCH   1  12
BRANCH   6  22
ATOM     22  O   UNL     1       3.957 -55.924 192.340  1.00  0.00    -0.507 OA
ATOM     23  H   UNL     1       3.993 -55.462 191.445  1.00  0.00     0.293 HD
ENDBRANCH   6  22
BRANCH   8  24
ATOM     24  O   UNL     1       6.327 -58.183 195.854  1.00  0.00    -0.508 OA
ATOM     25  H   UNL     1       5.785 -57.752 196.594  1.00  0.00     0.293 HD
ENDBRANCH   8  24
TORSDOF 5
ENDMDL
MODEL 9
REMARK VINA RESULT:    -5.625      8.449     10.164
REMARK INTER + INTRA:          -6.929
REMARK INTER:                  -6.637
REMARK INTRA:                  -0.292
REMARK UNBOUND:                -0.317
REMARK SMILES O=c1cc(-c2ccc(O)c(O)c2)oc2cc(O)cc(O)c12
REMARK SMILES IDX 4 1 3 2 2 3 1 4 21 5 19 6 18 7 16 8 15 9 14 10 13 11 5 12
REMARK SMILES IDX 6 13 7 14 8 15 12 16 10 17 9 18 11 20 20 22 17 24
REMARK H PARENT 9 19 11 21 20 23 17 25
REMARK Flexibility Score: inf
ROOT
ATOM      1  C   UNL     1      11.882 -55.776 196.517  1.00  0.00     0.138 A 
ATOM      2  C   UNL     1      10.584 -55.592 196.018  1.00  0.00     0.100 A 
ATOM      3  C   UNL     1       9.494 -56.089 196.731  1.00  0.00     0.197 A 
ATOM      4  O   UNL     1       8.339 -55.855 196.290  1.00  0.00    -0.289 OA
ATOM      5  C   UNL     1       9.705 -56.802 197.936  1.00  0.00     0.107 A 
ATOM      6  C   UNL     1       8.672 -57.389 198.725  1.00  0.00     0.134 A 
ATOM      7  C   UNL     1       8.993 -57.970 199.959  1.00  0.00     0.093 A 
ATOM      8  C   UNL     1      10.315 -58.038 200.402  1.00  0.00     0.123 A 
ATOM      9  C   UNL     1      11.337 -57.516 199.613  1.00  0.00     0.094 A 
ATOM     10  C   UNL     1      11.047 -56.899 198.394  1.00  0.00     0.146 A 
ATOM     11  O   UNL     1      12.049 -56.401 197.678  1.00  0.00    -0.456 OA
ENDROOT
BRANCH   1  12
ATOM     12  C   UNL     1      13.077 -55.269 195.799  1.00  0.00     0.021 A 
ATOM     13  C   UNL     1      14.272 -55.061 196.506  1.00  0.00     0.016 A 
ATOM     14  C   UNL     1      15.411 -54.591 195.852  1.00  0.00     0.051 A 
ATOM     15  C   UNL     1      15.390 -54.327 194.478  1.00  0.00     0.157 A 
ATOM     16  C   UNL     1      13.058 -55.018 194.414  1.00  0.00     0.062 A 
ATOM     17  C   UNL     1      14.199 -54.549 193.749  1.00  0.00     0.158 A 
BRANCH  15  18
ATOM     18  O   UNL     1      16.562 -53.854 193.885  1.00  0.00    -0.504 OA
ATOM     19  H   UNL     1      17.136 -54.397 193.257  1.00  0.00     0.293 HD
ENDBRANCH  15  18
BRANCH  17  20
ATOM     20  O   UNL     1      14.105 -54.324 192.374  1.00  0.00    -0.504 OA
ATOM     21  H   UNL     1      14.618 -54.848 191.679  1.00  0.00     0.293 HD
ENDBRANCH  17  20
ENDBRANCH   1  12
BRANCH   6  22
ATOM     22  O   UNL     1       7.331 -57.451 198.335  1.00  0.00    -0.507 OA
ATOM     23  H   UNL     1       6.554 -57.599 198.961  1.00  0.00     0.293 HD
ENDBRANCH   6  22
BRANCH   8  24
ATOM     24  O   UNL     1      10.626 -58.632 201.624  1.00  0.00    -0.508 OA
ATOM     25  H   UNL     1      11.564 -58.954 201.832  1.00  0.00     0.293 HD
ENDBRANCH   8  24
TORSDOF 5
ENDMDL
