MODEL 1
REMARK VINA RESULT:    -8.108      0.000      0.000
REMARK INTER + INTRA:         -10.054
REMARK INTER:                  -9.767
REMARK INTRA:                  -0.286
REMARK UNBOUND:                -0.286
REMARK SMILES O=c1c(O)c(-c2ccc(O)c(O)c2)oc2cc(O)cc(O)c12
REMARK SMILES IDX 5 1 3 2 2 3 1 4 22 5 20 6 19 7 17 8 16 9 15 10 14 11 6 12
REMARK SMILES IDX 7 13 8 14 9 15 13 16 11 17 10 18 12 20 4 22 21 24 18 26
REMARK H PARENT 10 19 12 21 4 23 21 25 18 27
REMARK Flexibility Score: inf
ROOT
ATOM      1  C   UNL     1      15.132 119.500  24.297  1.00  0.00     0.180 A 
ATOM      2  C   UNL     1      16.165 119.285  23.367  1.00  0.00     0.208 A 
ATOM      3  C   UNL     1      16.768 118.019  23.301  1.00  0.00     0.238 A 
ATOM      4  O   UNL     1      17.741 117.855  22.519  1.00  0.00    -0.285 OA
ATOM      5  C   UNL     1      16.297 116.969  24.125  1.00  0.00     0.111 A 
ATOM      6  C   UNL     1      16.805 115.634  24.110  1.00  0.00     0.134 A 
ATOM      7  C   UNL     1      16.332 114.706  25.046  1.00  0.00     0.093 A 
ATOM      8  C   UNL     1      15.328 115.042  25.952  1.00  0.00     0.123 A 
ATOM      9  C   UNL     1      14.785 116.328  25.939  1.00  0.00     0.094 A 
ATOM     10  C   UNL     1      15.262 117.287  25.043  1.00  0.00     0.146 A 
ATOM     11  O   UNL     1      14.733 118.504  25.079  1.00  0.00    -0.452 OA
ENDROOT
BRANCH   1  12
ATOM     12  C   UNL     1      14.457 120.811  24.436  1.00  0.00     0.025 A 
ATOM     13  C   UNL     1      13.459 121.172  23.518  1.00  0.00     0.016 A 
ATOM     14  C   UNL     1      12.793 122.395  23.642  1.00  0.00     0.051 A 
ATOM     15  C   UNL     1      13.104 123.266  24.693  1.00  0.00     0.157 A 
ATOM     16  C   UNL     1      14.752 121.678  25.503  1.00  0.00     0.062 A 
ATOM     17  C   UNL     1      14.086 122.902  25.631  1.00  0.00     0.158 A 
BRANCH  15  18
ATOM     18  O   UNL     1      12.441 124.486  24.813  1.00  0.00    -0.504 OA
ATOM     19  H   UNL     1      12.215 124.880  25.719  1.00  0.00     0.293 HD
ENDBRANCH  15  18
BRANCH  17  20
ATOM     20  O   UNL     1      14.408 123.741  26.698  1.00  0.00    -0.504 OA
ATOM     21  H   UNL     1      15.351 123.810  27.063  1.00  0.00     0.293 HD
ENDBRANCH  17  20
ENDBRANCH   1  12
BRANCH   2  22
ATOM     22  O   UNL     1      16.563 120.313  22.509  1.00  0.00    -0.502 OA
ATOM     23  H   UNL     1      17.135 120.147  21.690  1.00  0.00     0.293 HD
ENDBRANCH   2  22
BRANCH   6  24
ATOM     24  O   UNL     1      17.746 115.164  23.190  1.00  0.00    -0.507 OA
ATOM     25  H   UNL     1      18.413 114.429  23.369  1.00  0.00     0.293 HD
ENDBRANCH   6  24
BRANCH   8  26
ATOM     26  O   UNL     1      14.870 114.087  26.857  1.00  0.00    -0.508 OA
ATOM     27  H   UNL     1      15.183 114.076  27.821  1.00  0.00     0.293 HD
ENDBRANCH   8  26
TORSDOF 6
ENDMDL
MODEL 2
REMARK VINA RESULT:    -8.098      1.485      7.019
REMARK INTER + INTRA:         -10.041
REMARK INTER:                  -9.725
REMARK INTRA:                  -0.316
REMARK UNBOUND:                -0.286
REMARK SMILES O=c1c(O)c(-c2ccc(O)c(O)c2)oc2cc(O)cc(O)c12
REMARK SMILES IDX 5 1 3 2 2 3 1 4 22 5 20 6 19 7 17 8 16 9 15 10 14 11 6 12
REMARK SMILES IDX 7 13 8 14 9 15 13 16 11 17 10 18 12 20 4 22 21 24 18 26
REMARK H PARENT 10 19 12 21 4 23 21 25 18 27
REMARK Flexibility Score: inf
ROOT
ATOM      1  C   UNL     1      14.841 119.723  24.649  1.00  0.00     0.180 A 
ATOM      2  C   UNL     1      13.789 120.134  23.812  1.00  0.00     0.208 A 
ATOM      3  C   UNL     1      13.231 121.408  23.996  1.00  0.00     0.238 A 
ATOM      4  O   UNL     1      12.241 121.740  23.292  1.00  0.00    -0.285 OA
ATOM      5  C   UNL     1      13.766 122.278  24.976  1.00  0.00     0.111 A 
ATOM      6  C   UNL     1      13.308 123.608  25.220  1.00  0.00     0.134 A 
ATOM      7  C   UNL     1      13.843 124.338  26.288  1.00  0.00     0.093 A 
ATOM      8  C   UNL     1      14.862 123.814  27.082  1.00  0.00     0.123 A 
ATOM      9  C   UNL     1      15.356 122.535  26.818  1.00  0.00     0.094 A 
ATOM     10  C   UNL     1      14.817 121.768  25.784  1.00  0.00     0.146 A 
ATOM     11  O   UNL     1      15.301 120.548  25.581  1.00  0.00    -0.452 OA
ENDROOT
BRANCH   1  12
ATOM     12  C   UNL     1      15.472 118.388  24.526  1.00  0.00     0.025 A 
ATOM     13  C   UNL     1      14.885 117.287  25.168  1.00  0.00     0.016 A 
ATOM     14  C   UNL     1      15.450 116.014  25.049  1.00  0.00     0.051 A 
ATOM     15  C   UNL     1      16.600 115.821  24.273  1.00  0.00     0.157 A 
ATOM     16  C   UNL     1      16.615 118.187  23.731  1.00  0.00     0.062 A 
ATOM     17  C   UNL     1      17.182 116.915  23.608  1.00  0.00     0.158 A 
BRANCH  15  18
ATOM     18  O   UNL     1      17.164 114.552  24.158  1.00  0.00    -0.504 OA
ATOM     19  H   UNL     1      17.245 114.087  23.261  1.00  0.00     0.293 HD
ENDBRANCH  15  18
BRANCH  17  20
ATOM     20  O   UNL     1      18.319 116.753  22.816  1.00  0.00    -0.504 OA
ATOM     21  H   UNL     1      18.944 115.963  22.926  1.00  0.00     0.293 HD
ENDBRANCH  17  20
ENDBRANCH   1  12
BRANCH   2  22
ATOM     22  O   UNL     1      13.327 119.289  22.799  1.00  0.00    -0.502 OA
ATOM     23  H   UNL     1      13.898 119.030  22.004  1.00  0.00     0.293 HD
ENDBRANCH   2  22
BRANCH   6  24
ATOM     24  O   UNL     1      12.356 124.265  24.434  1.00  0.00    -0.507 OA
ATOM     25  H   UNL     1      12.098 125.235  24.528  1.00  0.00     0.293 HD
ENDBRANCH   6  24
BRANCH   8  26
ATOM     26  O   UNL     1      15.382 124.575  28.125  1.00  0.00    -0.508 OA
ATOM     27  H   UNL     1      16.132 124.228  28.713  1.00  0.00     0.293 HD
ENDBRANCH   8  26
TORSDOF 6
ENDMDL
MODEL 3
REMARK VINA RESULT:    -8.087      1.562      3.297
REMARK INTER + INTRA:         -10.027
REMARK INTER:                  -9.709
REMARK INTRA:                  -0.318
REMARK UNBOUND:                -0.286
REMARK SMILES O=c1c(O)c(-c2ccc(O)c(O)c2)oc2cc(O)cc(O)c12
REMARK SMILES IDX 5 1 3 2 2 3 1 4 22 5 20 6 19 7 17 8 16 9 15 10 14 11 6 12
REMARK SMILES IDX 7 13 8 14 9 15 13 16 11 17 10 18 12 20 4 22 21 24 18 26
REMARK H PARENT 10 19 12 21 4 23 21 25 18 27
REMARK Flexibility Score: inf
ROOT
ATOM      1  C   UNL     1      14.082 120.535  25.359  1.00  0.00     0.180 A 
ATOM      2  C   UNL     1      13.387 119.452  25.925  1.00  0.00     0.208 A 
ATOM      3  C   UNL     1      13.834 118.147  25.666  1.00  0.00     0.238 A 
ATOM      4  O   UNL     1      13.164 117.179  26.113  1.00  0.00    -0.285 OA
ATOM      5  C   UNL     1      15.000 117.941  24.890  1.00  0.00     0.111 A 
ATOM      6  C   UNL     1      15.570 116.664  24.601  1.00  0.00     0.134 A 
ATOM      7  C   UNL     1      16.666 116.578  23.734  1.00  0.00     0.093 A 
ATOM      8  C   UNL     1      17.254 117.722  23.198  1.00  0.00     0.123 A 
ATOM      9  C   UNL     1      16.740 118.980  23.518  1.00  0.00     0.094 A 
ATOM     10  C   UNL     1      15.624 119.097  24.349  1.00  0.00     0.146 A 
ATOM     11  O   UNL     1      15.154 120.310  24.610  1.00  0.00    -0.452 OA
ENDROOT
BRANCH   1  12
ATOM     12  C   UNL     1      13.663 121.939  25.576  1.00  0.00     0.025 A 
ATOM     13  C   UNL     1      12.783 122.544  24.665  1.00  0.00     0.016 A 
ATOM     14  C   UNL     1      12.357 123.861  24.859  1.00  0.00     0.051 A 
ATOM     15  C   UNL     1      12.792 124.587  25.976  1.00  0.00     0.157 A 
ATOM     16  C   UNL     1      14.081 122.664  26.706  1.00  0.00     0.062 A 
ATOM     17  C   UNL     1      13.655 123.982  26.906  1.00  0.00     0.158 A 
BRANCH  15  18
ATOM     18  O   UNL     1      12.369 125.901  26.166  1.00  0.00    -0.504 OA
ATOM     19  H   UNL     1      12.168 126.264  27.091  1.00  0.00     0.293 HD
ENDBRANCH  15  18
BRANCH  17  20
ATOM     20  O   UNL     1      14.094 124.672  28.035  1.00  0.00    -0.504 OA
ATOM     21  H   UNL     1      14.845 124.325  28.621  1.00  0.00     0.293 HD
ENDBRANCH  17  20
ENDBRANCH   1  12
BRANCH   2  22
ATOM     22  O   UNL     1      12.282 119.679  26.750  1.00  0.00    -0.502 OA
ATOM     23  H   UNL     1      11.375 119.944  26.384  1.00  0.00     0.293 HD
ENDBRANCH   2  22
BRANCH   6  24
ATOM     24  O   UNL     1      15.118 115.462  25.153  1.00  0.00    -0.507 OA
ATOM     25  H   UNL     1      15.659 114.864  25.758  1.00  0.00     0.293 HD
ENDBRANCH   6  24
BRANCH   8  26
ATOM     26  O   UNL     1      18.355 117.599  22.354  1.00  0.00    -0.508 OA
ATOM     27  H   UNL     1      18.256 117.629  21.345  1.00  0.00     0.293 HD
ENDBRANCH   8  26
TORSDOF 6
ENDMDL
MODEL 4
REMARK VINA RESULT:    -8.072      0.590      1.414
REMARK INTER + INTRA:         -10.010
REMARK INTER:                  -9.735
REMARK INTRA:                  -0.275
REMARK UNBOUND:                -0.286
REMARK SMILES O=c1c(O)c(-c2ccc(O)c(O)c2)oc2cc(O)cc(O)c12
REMARK SMILES IDX 5 1 3 2 2 3 1 4 22 5 20 6 19 7 17 8 16 9 15 10 14 11 6 12
REMARK SMILES IDX 7 13 8 14 9 15 13 16 11 17 10 18 12 20 4 22 21 24 18 26
REMARK H PARENT 10 19 12 21 4 23 21 25 18 27
REMARK Flexibility Score: inf
ROOT
ATOM      1  C   UNL     1      15.290 119.553  24.552  1.00  0.00     0.180 A 
ATOM      2  C   UNL     1      16.265 119.335  23.563  1.00  0.00     0.208 A 
ATOM      3  C   UNL     1      16.815 118.051  23.422  1.00  0.00     0.238 A 
ATOM      4  O   UNL     1      17.740 117.880  22.586  1.00  0.00    -0.285 OA
ATOM      5  C   UNL     1      16.344 116.989  24.232  1.00  0.00     0.111 A 
ATOM      6  C   UNL     1      16.798 115.637  24.144  1.00  0.00     0.134 A 
ATOM      7  C   UNL     1      16.336 114.693  25.069  1.00  0.00     0.093 A 
ATOM      8  C   UNL     1      15.392 115.033  26.037  1.00  0.00     0.123 A 
ATOM      9  C   UNL     1      14.900 116.338  26.097  1.00  0.00     0.094 A 
ATOM     10  C   UNL     1      15.369 117.311  25.212  1.00  0.00     0.146 A 
ATOM     11  O   UNL     1      14.891 118.545  25.318  1.00  0.00    -0.452 OA
ENDROOT
BRANCH   1  12
ATOM     12  C   UNL     1      14.674 120.883  24.771  1.00  0.00     0.025 A 
ATOM     13  C   UNL     1      15.126 121.685  25.831  1.00  0.00     0.016 A 
ATOM     14  C   UNL     1      14.575 122.951  26.045  1.00  0.00     0.051 A 
ATOM     15  C   UNL     1      13.576 123.440  25.193  1.00  0.00     0.157 A 
ATOM     16  C   UNL     1      13.687 121.385  23.906  1.00  0.00     0.062 A 
ATOM     17  C   UNL     1      13.134 122.654  24.115  1.00  0.00     0.158 A 
BRANCH  15  18
ATOM     18  O   UNL     1      13.026 124.703  25.410  1.00  0.00    -0.504 OA
ATOM     19  H   UNL     1      12.120 124.958  25.034  1.00  0.00     0.293 HD
ENDBRANCH  15  18
BRANCH  17  20
ATOM     20  O   UNL     1      12.152 123.118  23.241  1.00  0.00    -0.504 OA
ATOM     21  H   UNL     1      12.350 123.808  22.526  1.00  0.00     0.293 HD
ENDBRANCH  17  20
ENDBRANCH   1  12
BRANCH   2  22
ATOM     22  O   UNL     1      16.661 120.379  22.723  1.00  0.00    -0.502 OA
ATOM     23  H   UNL     1      16.908 121.296  23.076  1.00  0.00     0.293 HD
ENDBRANCH   2  22
BRANCH   6  24
ATOM     24  O   UNL     1      17.673 115.167  23.161  1.00  0.00    -0.507 OA
ATOM     25  H   UNL     1      17.813 115.596  22.259  1.00  0.00     0.293 HD
ENDBRANCH   6  24
BRANCH   8  26
ATOM     26  O   UNL     1      14.942 114.063  26.929  1.00  0.00    -0.508 OA
ATOM     27  H   UNL     1      15.545 113.687  27.653  1.00  0.00     0.293 HD
ENDBRANCH   8  26
TORSDOF 6
ENDMDL
MODEL 5
REMARK VINA RESULT:    -7.814      4.295      6.879
REMARK INTER + INTRA:          -9.699
REMARK INTER:                  -9.398
REMARK INTRA:                  -0.302
REMARK UNBOUND:                -0.286
REMARK SMILES O=c1c(O)c(-c2ccc(O)c(O)c2)oc2cc(O)cc(O)c12
REMARK SMILES IDX 5 1 3 2 2 3 1 4 22 5 20 6 19 7 17 8 16 9 15 10 14 11 6 12
REMARK SMILES IDX 7 13 8 14 9 15 13 16 11 17 10 18 12 20 4 22 21 24 18 26
REMARK H PARENT 10 19 12 21 4 23 21 25 18 27
REMARK Flexibility Score: inf
ROOT
ATOM      1  C   UNL     1      15.492 119.287  21.325  1.00  0.00     0.180 A 
ATOM      2  C   UNL     1      14.158 118.968  21.014  1.00  0.00     0.208 A 
ATOM      3  C   UNL     1      13.738 119.030  19.677  1.00  0.00     0.238 A 
ATOM      4  O   UNL     1      12.526 118.817  19.415  1.00  0.00    -0.285 OA
ATOM      5  C   UNL     1      14.668 119.355  18.659  1.00  0.00     0.111 A 
ATOM      6  C   UNL     1      14.363 119.403  17.265  1.00  0.00     0.134 A 
ATOM      7  C   UNL     1      15.338 119.840  16.360  1.00  0.00     0.093 A 
ATOM      8  C   UNL     1      16.624 120.169  16.788  1.00  0.00     0.123 A 
ATOM      9  C   UNL     1      16.949 120.073  18.142  1.00  0.00     0.094 A 
ATOM     10  C   UNL     1      15.988 119.676  19.073  1.00  0.00     0.146 A 
ATOM     11  O   UNL     1      16.333 119.619  20.354  1.00  0.00    -0.452 OA
ENDROOT
BRANCH   1  12
ATOM     12  C   UNL     1      16.006 119.259  22.714  1.00  0.00     0.025 A 
ATOM     13  C   UNL     1      16.063 120.451  23.452  1.00  0.00     0.016 A 
ATOM     14  C   UNL     1      16.525 120.446  24.771  1.00  0.00     0.051 A 
ATOM     15  C   UNL     1      16.920 119.246  25.377  1.00  0.00     0.157 A 
ATOM     16  C   UNL     1      16.384 118.053  23.333  1.00  0.00     0.062 A 
ATOM     17  C   UNL     1      16.844 118.043  24.654  1.00  0.00     0.158 A 
BRANCH  15  18
ATOM     18  O   UNL     1      17.382 119.243  26.692  1.00  0.00    -0.504 OA
ATOM     19  H   UNL     1      17.708 118.394  27.138  1.00  0.00     0.293 HD
ENDBRANCH  15  18
BRANCH  17  20
ATOM     20  O   UNL     1      17.216 116.830  25.233  1.00  0.00    -0.504 OA
ATOM     21  H   UNL     1      17.549 116.049  24.680  1.00  0.00     0.293 HD
ENDBRANCH  17  20
ENDBRANCH   1  12
BRANCH   2  22
ATOM     22  O   UNL     1      13.276 118.576  22.024  1.00  0.00    -0.502 OA
ATOM     23  H   UNL     1      12.443 118.030  21.836  1.00  0.00     0.293 HD
ENDBRANCH   2  22
BRANCH   6  24
ATOM     24  O   UNL     1      13.138 119.012  16.717  1.00  0.00    -0.507 OA
ATOM     25  H   UNL     1      12.709 118.109  16.847  1.00  0.00     0.293 HD
ENDBRANCH   6  24
BRANCH   8  26
ATOM     26  O   UNL     1      17.573 120.583  15.857  1.00  0.00    -0.508 OA
ATOM     27  H   UNL     1      17.439 120.438  14.862  1.00  0.00     0.293 HD
ENDBRANCH   8  26
TORSDOF 6
ENDMDL
MODEL 6
REMARK VINA RESULT:    -7.759      2.041      6.973
REMARK INTER + INTRA:          -9.633
REMARK INTER:                  -9.438
REMARK INTRA:                  -0.196
REMARK UNBOUND:                -0.286
REMARK SMILES O=c1c(O)c(-c2ccc(O)c(O)c2)oc2cc(O)cc(O)c12
REMARK SMILES IDX 5 1 3 2 2 3 1 4 22 5 20 6 19 7 17 8 16 9 15 10 14 11 6 12
REMARK SMILES IDX 7 13 8 14 9 15 13 16 11 17 10 18 12 20 4 22 21 24 18 26
REMARK H PARENT 10 19 12 21 4 23 21 25 18 27
REMARK Flexibility Score: inf
ROOT
ATOM      1  C   UNL     1      15.967 117.925  25.405  1.00  0.00     0.180 A 
ATOM      2  C   UNL     1      16.595 118.994  26.069  1.00  0.00     0.208 A 
ATOM      3  C   UNL     1      16.071 120.287  25.924  1.00  0.00     0.238 A 
ATOM      4  O   UNL     1      16.681 121.249  26.460  1.00  0.00    -0.285 OA
ATOM      5  C   UNL     1      14.894 120.491  25.163  1.00  0.00     0.111 A 
ATOM      6  C   UNL     1      14.249 121.753  24.985  1.00  0.00     0.134 A 
ATOM      7  C   UNL     1      13.150 121.851  24.124  1.00  0.00     0.093 A 
ATOM      8  C   UNL     1      12.632 120.726  23.484  1.00  0.00     0.123 A 
ATOM      9  C   UNL     1      13.221 119.478  23.693  1.00  0.00     0.094 A 
ATOM     10  C   UNL     1      14.342 119.354  24.517  1.00  0.00     0.146 A 
ATOM     11  O   UNL     1      14.884 118.152  24.672  1.00  0.00    -0.452 OA
ENDROOT
BRANCH   1  12
ATOM     12  C   UNL     1      16.469 116.535  25.497  1.00  0.00     0.025 A 
ATOM     13  C   UNL     1      17.061 115.940  24.372  1.00  0.00     0.016 A 
ATOM     14  C   UNL     1      17.561 114.637  24.442  1.00  0.00     0.051 A 
ATOM     15  C   UNL     1      17.491 113.916  25.640  1.00  0.00     0.157 A 
ATOM     16  C   UNL     1      16.419 115.816  26.704  1.00  0.00     0.062 A 
ATOM     17  C   UNL     1      16.921 114.512  26.779  1.00  0.00     0.158 A 
BRANCH  15  18
ATOM     18  O   UNL     1      17.988 112.615  25.707  1.00  0.00    -0.504 OA
ATOM     19  H   UNL     1      18.180 112.166  26.594  1.00  0.00     0.293 HD
ENDBRANCH  15  18
BRANCH  17  20
ATOM     20  O   UNL     1      16.849 113.826  27.991  1.00  0.00    -0.504 OA
ATOM     21  H   UNL     1      16.768 112.817  28.035  1.00  0.00     0.293 HD
ENDBRANCH  17  20
ENDBRANCH   1  12
BRANCH   2  22
ATOM     22  O   UNL     1      17.711 118.760  26.877  1.00  0.00    -0.502 OA
ATOM     23  H   UNL     1      18.054 117.827  27.074  1.00  0.00     0.293 HD
ENDBRANCH   2  22
BRANCH   6  24
ATOM     24  O   UNL     1      14.628 122.926  25.645  1.00  0.00    -0.507 OA
ATOM     25  H   UNL     1      15.290 122.974  26.404  1.00  0.00     0.293 HD
ENDBRANCH   6  24
BRANCH   8  26
ATOM     26  O   UNL     1      11.527 120.858  22.647  1.00  0.00    -0.508 OA
ATOM     27  H   UNL     1      11.550 121.456  21.828  1.00  0.00     0.293 HD
ENDBRANCH   8  26
TORSDOF 6
ENDMDL
MODEL 7
REMARK VINA RESULT:    -7.650      3.350      6.196
REMARK INTER + INTRA:          -9.501
REMARK INTER:                  -9.525
REMARK INTRA:                   0.024
REMARK UNBOUND:                -0.286
REMARK SMILES O=c1c(O)c(-c2ccc(O)c(O)c2)oc2cc(O)cc(O)c12
REMARK SMILES IDX 5 1 3 2 2 3 1 4 22 5 20 6 19 7 17 8 16 9 15 10 14 11 6 12
REMARK SMILES IDX 7 13 8 14 9 15 13 16 11 17 10 18 12 20 4 22 21 24 18 26
REMARK H PARENT 10 19 12 21 4 23 21 25 18 27
REMARK Flexibility Score: inf
ROOT
ATOM      1  C   UNL     1      15.435 119.789  21.820  1.00  0.00     0.180 A 
ATOM      2  C   UNL     1      16.404 119.175  22.634  1.00  0.00     0.208 A 
ATOM      3  C   UNL     1      16.363 119.389  24.020  1.00  0.00     0.238 A 
ATOM      4  O   UNL     1      17.277 118.896  24.733  1.00  0.00    -0.285 OA
ATOM      5  C   UNL     1      15.325 120.168  24.584  1.00  0.00     0.111 A 
ATOM      6  C   UNL     1      15.159 120.414  25.981  1.00  0.00     0.134 A 
ATOM      7  C   UNL     1      14.155 121.289  26.414  1.00  0.00     0.093 A 
ATOM      8  C   UNL     1      13.270 121.875  25.510  1.00  0.00     0.123 A 
ATOM      9  C   UNL     1      13.388 121.599  24.147  1.00  0.00     0.094 A 
ATOM     10  C   UNL     1      14.403 120.761  23.681  1.00  0.00     0.146 A 
ATOM     11  O   UNL     1      14.492 120.541  22.374  1.00  0.00    -0.452 OA
ENDROOT
BRANCH   1  12
ATOM     12  C   UNL     1      15.421 119.623  20.349  1.00  0.00     0.025 A 
ATOM     13  C   UNL     1      16.602 119.834  19.620  1.00  0.00     0.016 A 
ATOM     14  C   UNL     1      16.618 119.663  18.233  1.00  0.00     0.051 A 
ATOM     15  C   UNL     1      15.458 119.262  17.557  1.00  0.00     0.157 A 
ATOM     16  C   UNL     1      14.265 119.200  19.670  1.00  0.00     0.062 A 
ATOM     17  C   UNL     1      14.277 119.025  18.281  1.00  0.00     0.158 A 
BRANCH  15  18
ATOM     18  O   UNL     1      15.475 119.094  16.174  1.00  0.00    -0.504 OA
ATOM     19  H   UNL     1      14.853 118.441  15.711  1.00  0.00     0.293 HD
ENDBRANCH  15  18
BRANCH  17  20
ATOM     20  O   UNL     1      13.110 118.611  17.640  1.00  0.00    -0.504 OA
ATOM     21  H   UNL     1      12.475 119.267  17.200  1.00  0.00     0.293 HD
ENDBRANCH  17  20
ENDBRANCH   1  12
BRANCH   2  22
ATOM     22  O   UNL     1      17.376 118.346  22.065  1.00  0.00    -0.502 OA
ATOM     23  H   UNL     1      17.697 117.498  22.516  1.00  0.00     0.293 HD
ENDBRANCH   2  22
BRANCH   6  24
ATOM     24  O   UNL     1      15.931 119.811  26.979  1.00  0.00    -0.507 OA
ATOM     25  H   UNL     1      15.583 119.155  27.661  1.00  0.00     0.293 HD
ENDBRANCH   6  24
BRANCH   8  26
ATOM     26  O   UNL     1      12.273 122.726  25.979  1.00  0.00    -0.508 OA
ATOM     27  H   UNL     1      11.365 122.374  26.261  1.00  0.00     0.293 HD
ENDBRANCH   8  26
TORSDOF 6
ENDMDL
MODEL 8
REMARK VINA RESULT:    -7.615      3.280      5.025
REMARK INTER + INTRA:          -9.459
REMARK INTER:                  -9.147
REMARK INTRA:                  -0.312
REMARK UNBOUND:                -0.286
REMARK SMILES O=c1c(O)c(-c2ccc(O)c(O)c2)oc2cc(O)cc(O)c12
REMARK SMILES IDX 5 1 3 2 2 3 1 4 22 5 20 6 19 7 17 8 16 9 15 10 14 11 6 12
REMARK SMILES IDX 7 13 8 14 9 15 13 16 11 17 10 18 12 20 4 22 21 24 18 26
REMARK H PARENT 10 19 12 21 4 23 21 25 18 27
REMARK Flexibility Score: inf
ROOT
ATOM      1  C   UNL     1      15.378 118.916  22.040  1.00  0.00     0.180 A 
ATOM      2  C   UNL     1      15.362 120.020  22.911  1.00  0.00     0.208 A 
ATOM      3  C   UNL     1      15.668 119.820  24.267  1.00  0.00     0.238 A 
ATOM      4  O   UNL     1      15.580 120.798  25.055  1.00  0.00    -0.285 OA
ATOM      5  C   UNL     1      16.038 118.533  24.725  1.00  0.00     0.111 A 
ATOM      6  C   UNL     1      16.412 118.224  26.068  1.00  0.00     0.134 A 
ATOM      7  C   UNL     1      16.657 116.893  26.428  1.00  0.00     0.093 A 
ATOM      8  C   UNL     1      16.606 115.869  25.483  1.00  0.00     0.123 A 
ATOM      9  C   UNL     1      16.296 116.167  24.155  1.00  0.00     0.094 A 
ATOM     10  C   UNL     1      16.009 117.479  23.773  1.00  0.00     0.146 A 
ATOM     11  O   UNL     1      15.698 117.715  22.504  1.00  0.00    -0.452 OA
ENDROOT
BRANCH   1  12
ATOM     12  C   UNL     1      15.053 119.044  20.600  1.00  0.00     0.025 A 
ATOM     13  C   UNL     1      13.736 118.820  20.169  1.00  0.00     0.016 A 
ATOM     14  C   UNL     1      13.401 118.956  18.819  1.00  0.00     0.051 A 
ATOM     15  C   UNL     1      14.374 119.333  17.884  1.00  0.00     0.157 A 
ATOM     16  C   UNL     1      16.021 119.444  19.662  1.00  0.00     0.062 A 
ATOM     17  C   UNL     1      15.690 119.583  18.310  1.00  0.00     0.158 A 
BRANCH  15  18
ATOM     18  O   UNL     1      14.038 119.465  16.537  1.00  0.00    -0.504 OA
ATOM     19  H   UNL     1      13.551 118.731  16.038  1.00  0.00     0.293 HD
ENDBRANCH  15  18
BRANCH  17  20
ATOM     20  O   UNL     1      16.677 119.974  17.407  1.00  0.00    -0.504 OA
ATOM     21  H   UNL     1      17.083 120.903  17.421  1.00  0.00     0.293 HD
ENDBRANCH  17  20
ENDBRANCH   1  12
BRANCH   2  22
ATOM     22  O   UNL     1      15.068 121.296  22.424  1.00  0.00    -0.502 OA
ATOM     23  H   UNL     1      15.779 122.008  22.302  1.00  0.00     0.293 HD
ENDBRANCH   2  22
BRANCH   6  24
ATOM     24  O   UNL     1      16.580 119.181  27.074  1.00  0.00    -0.507 OA
ATOM     25  H   UNL     1      16.227 120.125  27.038  1.00  0.00     0.293 HD
ENDBRANCH   6  24
BRANCH   8  26
ATOM     26  O   UNL     1      16.872 114.559  25.874  1.00  0.00    -0.508 OA
ATOM     27  H   UNL     1      16.661 113.772  25.270  1.00  0.00     0.293 HD
ENDBRANCH   8  26
TORSDOF 6
ENDMDL
MODEL 9
REMARK VINA RESULT:    -7.566      3.093      5.177
REMARK INTER + INTRA:          -9.400
REMARK INTER:                  -9.204
REMARK INTRA:                  -0.197
REMARK UNBOUND:                -0.286
REMARK SMILES O=c1c(O)c(-c2ccc(O)c(O)c2)oc2cc(O)cc(O)c12
REMARK SMILES IDX 5 1 3 2 2 3 1 4 22 5 20 6 19 7 17 8 16 9 15 10 14 11 6 12
REMARK SMILES IDX 7 13 8 14 9 15 13 16 11 17 10 18 12 20 4 22 21 24 18 26
REMARK H PARENT 10 19 12 21 4 23 21 25 18 27
REMARK Flexibility Score: inf
ROOT
ATOM      1  C   UNL     1      14.911 118.656  22.298  1.00  0.00     0.180 A 
ATOM      2  C   UNL     1      14.016 119.388  23.099  1.00  0.00     0.208 A 
ATOM      3  C   UNL     1      13.785 118.969  24.418  1.00  0.00     0.238 A 
ATOM      4  O   UNL     1      12.927 119.583  25.105  1.00  0.00    -0.285 OA
ATOM      5  C   UNL     1      14.491 117.858  24.940  1.00  0.00     0.111 A 
ATOM      6  C   UNL     1      14.369 117.372  26.278  1.00  0.00     0.134 A 
ATOM      7  C   UNL     1      15.038 116.200  26.650  1.00  0.00     0.093 A 
ATOM      8  C   UNL     1      15.874 115.532  25.757  1.00  0.00     0.123 A 
ATOM      9  C   UNL     1      16.044 116.028  24.464  1.00  0.00     0.094 A 
ATOM     10  C   UNL     1      15.361 117.174  24.050  1.00  0.00     0.146 A 
ATOM     11  O   UNL     1      15.534 117.600  22.805  1.00  0.00    -0.452 OA
ENDROOT
BRANCH   1  12
ATOM     12  C   UNL     1      15.195 119.027  20.893  1.00  0.00     0.025 A 
ATOM     13  C   UNL     1      16.499 119.401  20.529  1.00  0.00     0.016 A 
ATOM     14  C   UNL     1      16.796 119.735  19.205  1.00  0.00     0.051 A 
ATOM     15  C   UNL     1      15.799 119.684  18.223  1.00  0.00     0.157 A 
ATOM     16  C   UNL     1      14.202 118.957  19.900  1.00  0.00     0.062 A 
ATOM     17  C   UNL     1      14.496 119.288  18.573  1.00  0.00     0.158 A 
BRANCH  15  18
ATOM     18  O   UNL     1      16.096 120.020  16.903  1.00  0.00    -0.504 OA
ATOM     19  H   UNL     1      16.542 120.899  16.668  1.00  0.00     0.293 HD
ENDBRANCH  15  18
BRANCH  17  20
ATOM     20  O   UNL     1      13.485 119.213  17.616  1.00  0.00    -0.504 OA
ATOM     21  H   UNL     1      12.854 118.422  17.560  1.00  0.00     0.293 HD
ENDBRANCH  17  20
ENDBRANCH   1  12
BRANCH   2  22
ATOM     22  O   UNL     1      13.387 120.527  22.589  1.00  0.00    -0.502 OA
ATOM     23  H   UNL     1      13.764 121.053  21.810  1.00  0.00     0.293 HD
ENDBRANCH   2  22
BRANCH   6  24
ATOM     24  O   UNL     1      13.630 118.011  27.278  1.00  0.00    -0.507 OA
ATOM     25  H   UNL     1      13.747 117.859  28.269  1.00  0.00     0.293 HD
ENDBRANCH   6  24
BRANCH   8  26
ATOM     26  O   UNL     1      16.538 114.378  26.168  1.00  0.00    -0.508 OA
ATOM     27  H   UNL     1      17.447 114.129  25.796  1.00  0.00     0.293 HD
ENDBRANCH   8  26
TORSDOF 6
ENDMDL
