MODEL 1
REMARK VINA RESULT:    -3.900      0.000      0.000
REMARK INTER + INTRA:          -9.059
REMARK INTER:                  -7.547
REMARK INTRA:                  -1.512
REMARK UNBOUND:                -1.512
REMARK SMILES CCCCCCCCCCCCCCCCCC(=O)[O-]
REMARK SMILES IDX 10 1 11 2 12 3 13 4 14 5 15 6 16 7 17 8 18 9 19 10 20 11
REMARK SMILES IDX 9 12 8 13 7 14 6 15 5 16 4 17 3 18 2 19 1 20
REMARK H PARENT
REMARK Flexibility Score: inf
ROOT
ATOM      1  C   UNL     1      44.177  26.567   2.833  1.00  0.00     0.000 C 
ENDROOT
BRANCH   1   2
ATOM      2  C   UNL     1      43.546  27.582   1.865  1.00  0.00     0.000 C 
BRANCH   2   3
ATOM      3  C   UNL     1      43.427  28.986   2.478  1.00  0.00     0.000 C 
BRANCH   3   4
ATOM      4  C   UNL     1      44.118  30.069   1.629  1.00  0.00     0.000 C 
BRANCH   4   5
ATOM      5  C   UNL     1      45.492  29.676   1.050  1.00  0.00     0.000 C 
BRANCH   5   6
ATOM      6  C   UNL     1      45.684  29.983  -0.447  1.00  0.00     0.000 C 
BRANCH   6   7
ATOM      7  C   UNL     1      46.327  28.816  -1.215  1.00  0.00     0.006 C 
BRANCH   7   8
ATOM      8  C   UNL     1      45.994  28.858  -2.714  1.00  0.00     0.053 C 
BRANCH   8   9
ATOM      9  C   UNL     1      46.407  27.599  -3.412  1.00  0.00     0.041 C 
ATOM     10  O   UNL     1      46.141  27.434  -4.631  1.00  0.00    -0.550 OA
ATOM     11  O   UNL     1      47.111  26.619  -2.722  1.00  0.00    -0.550 OA
ENDBRANCH   8   9
ENDBRANCH   7   8
ENDBRANCH   6   7
ENDBRANCH   5   6
ENDBRANCH   4   5
ENDBRANCH   3   4
ENDBRANCH   2   3
ENDBRANCH   1   2
BRANCH   1  12
ATOM     12  C   UNL     1      45.665  26.853   3.107  1.00  0.00     0.000 C 
BRANCH  12  13
ATOM     13  C   UNL     1      46.133  26.290   4.458  1.00  0.00    -0.000 C 
BRANCH  13  14
ATOM     14  C   UNL     1      46.619  27.389   5.419  1.00  0.00    -0.000 C 
BRANCH  14  15
ATOM     15  C   UNL     1      45.989  28.758   5.120  1.00  0.00    -0.000 C 
BRANCH  15  16
ATOM     16  C   UNL     1      45.992  29.691   6.343  1.00  0.00    -0.000 C 
BRANCH  16  17
ATOM     17  C   UNL     1      46.453  28.967   7.627  1.00  0.00    -0.000 C 
BRANCH  17  18
ATOM     18  C   UNL     1      45.441  29.061   8.786  1.00  0.00    -0.000 C 
BRANCH  18  19
ATOM     19  C   UNL     1      45.175  27.734   9.515  1.00  0.00    -0.003 C 
ATOM     20  C   UNL     1      45.705  26.520   8.750  1.00  0.00     0.004 C 
ENDBRANCH  18  19
ENDBRANCH  17  18
ENDBRANCH  16  17
ENDBRANCH  15  16
ENDBRANCH  14  15
ENDBRANCH  13  14
ENDBRANCH  12  13
ENDBRANCH   1  12
TORSDOF 16
ENDMDL
MODEL 2
REMARK VINA RESULT:    -3.897      4.342      9.295
REMARK INTER + INTRA:          -9.055
REMARK INTER:                  -7.755
REMARK INTRA:                  -1.300
REMARK UNBOUND:                -1.512
REMARK SMILES CCCCCCCCCCCCCCCCCC(=O)[O-]
REMARK SMILES IDX 10 1 11 2 12 3 13 4 14 5 15 6 16 7 17 8 18 9 19 10 20 11
REMARK SMILES IDX 9 12 8 13 7 14 6 15 5 16 4 17 3 18 2 19 1 20
REMARK H PARENT
REMARK Flexibility Score: inf
ROOT
ATOM      1  C   UNL     1      44.632  27.488   1.445  1.00  0.00     0.000 C 
ENDROOT
BRANCH   1   2
ATOM      2  C   UNL     1      43.954  27.076   2.763  1.00  0.00     0.000 C 
BRANCH   2   3
ATOM      3  C   UNL     1      44.831  26.140   3.609  1.00  0.00     0.000 C 
BRANCH   3   4
ATOM      4  C   UNL     1      46.335  26.435   3.462  1.00  0.00     0.000 C 
BRANCH   4   5
ATOM      5  C   UNL     1      47.028  26.975   4.730  1.00  0.00     0.000 C 
BRANCH   5   6
ATOM      6  C   UNL     1      46.348  28.193   5.380  1.00  0.00     0.000 C 
BRANCH   6   7
ATOM      7  C   UNL     1      46.386  28.147   6.917  1.00  0.00     0.006 C 
BRANCH   7   8
ATOM      8  C   UNL     1      45.986  26.769   7.464  1.00  0.00     0.053 C 
BRANCH   8   9
ATOM      9  C   UNL     1      45.558  26.841   8.897  1.00  0.00     0.041 C 
ATOM     10  O   UNL     1      45.722  25.851   9.657  1.00  0.00    -0.550 OA
ATOM     11  O   UNL     1      45.001  28.010   9.400  1.00  0.00    -0.550 OA
ENDBRANCH   8   9
ENDBRANCH   7   8
ENDBRANCH   6   7
ENDBRANCH   5   6
ENDBRANCH   4   5
ENDBRANCH   3   4
ENDBRANCH   2   3
ENDBRANCH   1   2
BRANCH   1  12
ATOM     12  C   UNL     1      44.837  29.009   1.332  1.00  0.00     0.000 C 
BRANCH  12  13
ATOM     13  C   UNL     1      46.309  29.387   1.105  1.00  0.00    -0.000 C 
BRANCH  13  14
ATOM     14  C   UNL     1      46.910  28.703  -0.135  1.00  0.00    -0.000 C 
BRANCH  14  15
ATOM     15  C   UNL     1      46.175  29.075  -1.432  1.00  0.00    -0.000 C 
BRANCH  15  16
ATOM     16  C   UNL     1      46.132  27.916  -2.442  1.00  0.00    -0.000 C 
BRANCH  16  17
ATOM     17  C   UNL     1      45.490  28.334  -3.783  1.00  0.00    -0.000 C 
BRANCH  17  18
ATOM     18  C   UNL     1      44.930  27.150  -4.595  1.00  0.00    -0.000 C 
BRANCH  18  19
ATOM     19  C   UNL     1      43.955  27.544  -5.717  1.00  0.00    -0.003 C 
ATOM     20  C   UNL     1      42.960  28.623  -5.286  1.00  0.00     0.004 C 
ENDBRANCH  18  19
ENDBRANCH  17  18
ENDBRANCH  16  17
ENDBRANCH  15  16
ENDBRANCH  14  15
ENDBRANCH  13  14
ENDBRANCH  12  13
ENDBRANCH   1  12
TORSDOF 16
ENDMDL
MODEL 3
REMARK VINA RESULT:    -3.896      1.937      3.149
REMARK INTER + INTRA:          -9.051
REMARK INTER:                  -8.365
REMARK INTRA:                  -0.686
REMARK UNBOUND:                -1.512
REMARK SMILES CCCCCCCCCCCCCCCCCC(=O)[O-]
REMARK SMILES IDX 10 1 11 2 12 3 13 4 14 5 15 6 16 7 17 8 18 9 19 10 20 11
REMARK SMILES IDX 9 12 8 13 7 14 6 15 5 16 4 17 3 18 2 19 1 20
REMARK H PARENT
REMARK Flexibility Score: inf
ROOT
ATOM      1  C   UNL     1      45.021  28.507   1.757  1.00  0.00     0.000 C 
ENDROOT
BRANCH   1   2
ATOM      2  C   UNL     1      45.644  28.261   0.373  1.00  0.00     0.000 C 
BRANCH   2   3
ATOM      3  C   UNL     1      46.256  29.535  -0.233  1.00  0.00     0.000 C 
BRANCH   3   4
ATOM      4  C   UNL     1      46.263  29.520  -1.773  1.00  0.00     0.000 C 
BRANCH   4   5
ATOM      5  C   UNL     1      45.980  28.149  -2.420  1.00  0.00     0.000 C 
BRANCH   5   6
ATOM      6  C   UNL     1      45.919  28.151  -3.959  1.00  0.00     0.000 C 
BRANCH   6   7
ATOM      7  C   UNL     1      44.930  27.114  -4.516  1.00  0.00     0.006 C 
BRANCH   7   8
ATOM      8  C   UNL     1      44.139  27.655  -5.716  1.00  0.00     0.053 C 
BRANCH   8   9
ATOM      9  C   UNL     1      43.065  28.608  -5.292  1.00  0.00     0.041 C 
ATOM     10  O   UNL     1      41.860  28.241  -5.283  1.00  0.00    -0.550 OA
ATOM     11  O   UNL     1      43.396  29.893  -4.880  1.00  0.00    -0.550 OA
ENDBRANCH   8   9
ENDBRANCH   7   8
ENDBRANCH   6   7
ENDBRANCH   5   6
ENDBRANCH   4   5
ENDBRANCH   3   4
ENDBRANCH   2   3
ENDBRANCH   1   2
BRANCH   1  12
ATOM     12  C   UNL     1      43.889  27.517   2.084  1.00  0.00     0.000 C 
BRANCH  12  13
ATOM     13  C   UNL     1      44.289  26.502   3.166  1.00  0.00    -0.000 C 
BRANCH  13  14
ATOM     14  C   UNL     1      45.791  26.554   3.497  1.00  0.00    -0.000 C 
BRANCH  14  15
ATOM     15  C   UNL     1      46.073  26.394   4.999  1.00  0.00    -0.000 C 
BRANCH  15  16
ATOM     16  C   UNL     1      46.296  27.741   5.706  1.00  0.00    -0.000 C 
BRANCH  16  17
ATOM     17  C   UNL     1      46.386  27.587   7.240  1.00  0.00    -0.000 C 
BRANCH  17  18
ATOM     18  C   UNL     1      45.687  28.720   8.017  1.00  0.00    -0.000 C 
BRANCH  18  19
ATOM     19  C   UNL     1      45.075  28.294   9.361  1.00  0.00    -0.003 C 
ATOM     20  C   UNL     1      45.445  26.863   9.755  1.00  0.00     0.004 C 
ENDBRANCH  18  19
ENDBRANCH  17  18
ENDBRANCH  16  17
ENDBRANCH  15  16
ENDBRANCH  14  15
ENDBRANCH  13  14
ENDBRANCH  12  13
ENDBRANCH   1  12
TORSDOF 16
ENDMDL
MODEL 4
REMARK VINA RESULT:    -3.862      1.410      2.486
REMARK INTER + INTRA:          -8.986
REMARK INTER:                  -7.863
REMARK INTRA:                  -1.123
REMARK UNBOUND:                -1.512
REMARK SMILES CCCCCCCCCCCCCCCCCC(=O)[O-]
REMARK SMILES IDX 10 1 11 2 12 3 13 4 14 5 15 6 16 7 17 8 18 9 19 10 20 11
REMARK SMILES IDX 9 12 8 13 7 14 6 15 5 16 4 17 3 18 2 19 1 20
REMARK H PARENT
REMARK Flexibility Score: inf
ROOT
ATOM      1  C   UNL     1      44.528  27.732   1.418  1.00  0.00     0.000 C 
ENDROOT
BRANCH   1   2
ATOM      2  C   UNL     1      44.585  29.269   1.462  1.00  0.00     0.000 C 
BRANCH   2   3
ATOM      3  C   UNL     1      45.728  29.841   0.609  1.00  0.00     0.000 C 
BRANCH   3   4
ATOM      4  C   UNL     1      46.696  28.756   0.102  1.00  0.00     0.000 C 
BRANCH   4   5
ATOM      5  C   UNL     1      47.113  28.884  -1.378  1.00  0.00     0.000 C 
BRANCH   5   6
ATOM      6  C   UNL     1      46.025  28.508  -2.400  1.00  0.00     0.000 C 
BRANCH   6   7
ATOM      7  C   UNL     1      46.471  27.392  -3.361  1.00  0.00     0.006 C 
BRANCH   7   8
ATOM      8  C   UNL     1      45.308  26.865  -4.214  1.00  0.00     0.053 C 
BRANCH   8   9
ATOM      9  C   UNL     1      45.253  27.531  -5.554  1.00  0.00     0.041 C 
ATOM     10  O   UNL     1      44.142  27.783  -6.090  1.00  0.00    -0.550 OA
ATOM     11  O   UNL     1      46.428  27.898  -6.198  1.00  0.00    -0.550 OA
ENDBRANCH   8   9
ENDBRANCH   7   8
ENDBRANCH   6   7
ENDBRANCH   5   6
ENDBRANCH   4   5
ENDBRANCH   3   4
ENDBRANCH   2   3
ENDBRANCH   1   2
BRANCH   1  12
ATOM     12  C   UNL     1      43.840  27.127   2.655  1.00  0.00     0.000 C 
BRANCH  12  13
ATOM     13  C   UNL     1      44.755  26.159   3.421  1.00  0.00    -0.000 C 
BRANCH  13  14
ATOM     14  C   UNL     1      46.230  26.596   3.395  1.00  0.00    -0.000 C 
BRANCH  14  15
ATOM     15  C   UNL     1      46.664  27.290   4.695  1.00  0.00    -0.000 C 
BRANCH  15  16
ATOM     16  C   UNL     1      46.357  26.449   5.946  1.00  0.00    -0.000 C 
BRANCH  16  17
ATOM     17  C   UNL     1      46.328  27.304   7.232  1.00  0.00    -0.000 C 
BRANCH  17  18
ATOM     18  C   UNL     1      46.126  26.480   8.518  1.00  0.00    -0.000 C 
BRANCH  18  19
ATOM     19  C   UNL     1      45.226  27.145   9.573  1.00  0.00    -0.003 C 
ATOM     20  C   UNL     1      45.120  28.660   9.392  1.00  0.00     0.004 C 
ENDBRANCH  18  19
ENDBRANCH  17  18
ENDBRANCH  16  17
ENDBRANCH  15  16
ENDBRANCH  14  15
ENDBRANCH  13  14
ENDBRANCH  12  13
ENDBRANCH   1  12
TORSDOF 16
ENDMDL
MODEL 5
REMARK VINA RESULT:    -3.827      4.488      9.963
REMARK INTER + INTRA:          -8.919
REMARK INTER:                  -8.035
REMARK INTRA:                  -0.884
REMARK UNBOUND:                -1.512
REMARK SMILES CCCCCCCCCCCCCCCCCC(=O)[O-]
REMARK SMILES IDX 10 1 11 2 12 3 13 4 14 5 15 6 16 7 17 8 18 9 19 10 20 11
REMARK SMILES IDX 9 12 8 13 7 14 6 15 5 16 4 17 3 18 2 19 1 20
REMARK H PARENT
REMARK Flexibility Score: inf
ROOT
ATOM      1  C   UNL     1      45.313  28.560   1.332  1.00  0.00     0.000 C 
ENDROOT
BRANCH   1   2
ATOM      2  C   UNL     1      43.976  27.912   1.729  1.00  0.00     0.000 C 
BRANCH   2   3
ATOM      3  C   UNL     1      44.133  26.881   2.858  1.00  0.00     0.000 C 
BRANCH   3   4
ATOM      4  C   UNL     1      45.597  26.697   3.300  1.00  0.00     0.000 C 
BRANCH   4   5
ATOM      5  C   UNL     1      45.791  26.143   4.726  1.00  0.00     0.000 C 
BRANCH   5   6
ATOM      6  C   UNL     1      46.422  27.124   5.730  1.00  0.00     0.000 C 
BRANCH   6   7
ATOM      7  C   UNL     1      46.402  26.594   7.173  1.00  0.00     0.006 C 
BRANCH   7   8
ATOM      8  C   UNL     1      45.916  27.653   8.173  1.00  0.00     0.053 C 
BRANCH   8   9
ATOM      9  C   UNL     1      45.890  27.127   9.575  1.00  0.00     0.041 C 
ATOM     10  O   UNL     1      45.514  25.947   9.802  1.00  0.00    -0.550 OA
ATOM     11  O   UNL     1      46.306  27.932  10.628  1.00  0.00    -0.550 OA
ENDBRANCH   8   9
ENDBRANCH   7   8
ENDBRANCH   6   7
ENDBRANCH   5   6
ENDBRANCH   4   5
ENDBRANCH   3   4
ENDBRANCH   2   3
ENDBRANCH   1   2
BRANCH   1  12
ATOM     12  C   UNL     1      45.777  28.149  -0.077  1.00  0.00     0.000 C 
BRANCH  12  13
ATOM     13  C   UNL     1      46.008  29.359  -0.996  1.00  0.00    -0.000 C 
BRANCH  13  14
ATOM     14  C   UNL     1      46.091  28.965  -2.481  1.00  0.00    -0.000 C 
BRANCH  14  15
ATOM     15  C   UNL     1      46.015  27.445  -2.695  1.00  0.00    -0.000 C 
BRANCH  15  16
ATOM     16  C   UNL     1      45.842  27.065  -4.176  1.00  0.00    -0.000 C 
BRANCH  16  17
ATOM     17  C   UNL     1      45.969  28.288  -5.111  1.00  0.00    -0.000 C 
BRANCH  17  18
ATOM     18  C   UNL     1      44.663  28.638  -5.851  1.00  0.00    -0.000 C 
BRANCH  18  19
ATOM     19  C   UNL     1      43.501  27.665  -5.596  1.00  0.00    -0.003 C 
ATOM     20  C   UNL     1      42.139  28.360  -5.572  1.00  0.00     0.004 C 
ENDBRANCH  18  19
ENDBRANCH  17  18
ENDBRANCH  16  17
ENDBRANCH  15  16
ENDBRANCH  14  15
ENDBRANCH  13  14
ENDBRANCH  12  13
ENDBRANCH   1  12
TORSDOF 16
ENDMDL
MODEL 6
REMARK VINA RESULT:    -3.767      1.152      1.631
REMARK INTER + INTRA:          -8.803
REMARK INTER:                  -7.611
REMARK INTRA:                  -1.192
REMARK UNBOUND:                -1.512
REMARK SMILES CCCCCCCCCCCCCCCCCC(=O)[O-]
REMARK SMILES IDX 10 1 11 2 12 3 13 4 14 5 15 6 16 7 17 8 18 9 19 10 20 11
REMARK SMILES IDX 9 12 8 13 7 14 6 15 5 16 4 17 3 18 2 19 1 20
REMARK H PARENT
REMARK Flexibility Score: inf
ROOT
ATOM      1  C   UNL     1      43.982  27.190   2.513  1.00  0.00     0.000 C 
ENDROOT
BRANCH   1   2
ATOM      2  C   UNL     1      44.001  28.670   2.097  1.00  0.00     0.000 C 
BRANCH   2   3
ATOM      3  C   UNL     1      45.370  29.112   1.553  1.00  0.00     0.000 C 
BRANCH   3   4
ATOM      4  C   UNL     1      45.664  28.550   0.150  1.00  0.00     0.000 C 
BRANCH   4   5
ATOM      5  C   UNL     1      46.145  29.586  -0.887  1.00  0.00     0.000 C 
BRANCH   5   6
ATOM      6  C   UNL     1      46.049  29.134  -2.356  1.00  0.00     0.000 C 
BRANCH   6   7
ATOM      7  C   UNL     1      46.113  27.606  -2.515  1.00  0.00     0.006 C 
BRANCH   7   8
ATOM      8  C   UNL     1      46.661  27.189  -3.887  1.00  0.00     0.053 C 
BRANCH   8   9
ATOM      9  C   UNL     1      45.722  27.549  -4.996  1.00  0.00     0.041 C 
ATOM     10  O   UNL     1      46.154  28.120  -6.032  1.00  0.00    -0.550 OA
ATOM     11  O   UNL     1      44.373  27.230  -4.898  1.00  0.00    -0.550 OA
ENDBRANCH   8   9
ENDBRANCH   7   8
ENDBRANCH   6   7
ENDBRANCH   5   6
ENDBRANCH   4   5
ENDBRANCH   3   4
ENDBRANCH   2   3
ENDBRANCH   1   2
BRANCH   1  12
ATOM     12  C   UNL     1      45.349  26.698   3.021  1.00  0.00     0.000 C 
BRANCH  12  13
ATOM     13  C   UNL     1      45.257  26.028   4.401  1.00  0.00    -0.000 C 
BRANCH  13  14
ATOM     14  C   UNL     1      46.311  26.562   5.387  1.00  0.00    -0.000 C 
BRANCH  14  15
ATOM     15  C   UNL     1      46.570  28.067   5.219  1.00  0.00    -0.000 C 
BRANCH  15  16
ATOM     16  C   UNL     1      45.998  28.899   6.380  1.00  0.00    -0.000 C 
BRANCH  16  17
ATOM     17  C   UNL     1      46.435  28.355   7.758  1.00  0.00    -0.000 C 
BRANCH  17  18
ATOM     18  C   UNL     1      45.323  28.409   8.824  1.00  0.00    -0.000 C 
BRANCH  18  19
ATOM     19  C   UNL     1      45.214  27.152   9.703  1.00  0.00    -0.003 C 
ATOM     20  C   UNL     1      46.196  26.054   9.291  1.00  0.00     0.004 C 
ENDBRANCH  18  19
ENDBRANCH  17  18
ENDBRANCH  16  17
ENDBRANCH  15  16
ENDBRANCH  14  15
ENDBRANCH  13  14
ENDBRANCH  12  13
ENDBRANCH   1  12
TORSDOF 16
ENDMDL
MODEL 7
REMARK VINA RESULT:    -3.725      4.427      9.256
REMARK INTER + INTRA:          -8.720
REMARK INTER:                  -7.431
REMARK INTRA:                  -1.289
REMARK UNBOUND:                -1.512
REMARK SMILES CCCCCCCCCCCCCCCCCC(=O)[O-]
REMARK SMILES IDX 10 1 11 2 12 3 13 4 14 5 15 6 16 7 17 8 18 9 19 10 20 11
REMARK SMILES IDX 9 12 8 13 7 14 6 15 5 16 4 17 3 18 2 19 1 20
REMARK H PARENT
REMARK Flexibility Score: inf
ROOT
ATOM      1  C   UNL     1      43.745  27.747   2.043  1.00  0.00     0.000 C 
ENDROOT
BRANCH   1   2
ATOM      2  C   UNL     1      44.448  26.771   3.002  1.00  0.00     0.000 C 
BRANCH   2   3
ATOM      3  C   UNL     1      45.979  26.896   2.951  1.00  0.00     0.000 C 
BRANCH   3   4
ATOM      4  C   UNL     1      46.621  26.940   4.350  1.00  0.00     0.000 C 
BRANCH   4   5
ATOM      5  C   UNL     1      46.265  28.177   5.200  1.00  0.00     0.000 C 
BRANCH   5   6
ATOM      6  C   UNL     1      46.620  28.070   6.695  1.00  0.00     0.000 C 
BRANCH   6   7
ATOM      7  C   UNL     1      46.277  26.694   7.290  1.00  0.00     0.006 C 
BRANCH   7   8
ATOM      8  C   UNL     1      47.043  26.420   8.593  1.00  0.00     0.053 C 
BRANCH   8   9
ATOM      9  C   UNL     1      46.120  26.080   9.722  1.00  0.00     0.041 C 
ATOM     10  O   UNL     1      44.968  26.586   9.772  1.00  0.00    -0.550 OA
ATOM     11  O   UNL     1      46.522  25.184  10.704  1.00  0.00    -0.550 OA
ENDBRANCH   8   9
ENDBRANCH   7   8
ENDBRANCH   6   7
ENDBRANCH   5   6
ENDBRANCH   4   5
ENDBRANCH   3   4
ENDBRANCH   2   3
ENDBRANCH   1   2
BRANCH   1  12
ATOM     12  C   UNL     1      43.923  29.219   2.459  1.00  0.00     0.000 C 
BRANCH  12  13
ATOM     13  C   UNL     1      44.311  30.120   1.276  1.00  0.00    -0.000 C 
BRANCH  13  14
ATOM     14  C   UNL     1      45.767  29.910   0.827  1.00  0.00    -0.000 C 
BRANCH  14  15
ATOM     15  C   UNL     1      45.898  29.732  -0.694  1.00  0.00    -0.000 C 
BRANCH  15  16
ATOM     16  C   UNL     1      46.203  28.279  -1.095  1.00  0.00    -0.000 C 
BRANCH  16  17
ATOM     17  C   UNL     1      46.495  28.140  -2.606  1.00  0.00    -0.000 C 
BRANCH  17  18
ATOM     18  C   UNL     1      45.605  27.101  -3.314  1.00  0.00    -0.000 C 
BRANCH  18  19
ATOM     19  C   UNL     1      45.487  27.287  -4.836  1.00  0.00    -0.003 C 
ATOM     20  C   UNL     1      44.539  28.424  -5.223  1.00  0.00     0.004 C 
ENDBRANCH  18  19
ENDBRANCH  17  18
ENDBRANCH  16  17
ENDBRANCH  15  16
ENDBRANCH  14  15
ENDBRANCH  13  14
ENDBRANCH  12  13
ENDBRANCH   1  12
TORSDOF 16
ENDMDL
MODEL 8
REMARK VINA RESULT:    -3.198      3.049      9.234
REMARK INTER + INTRA:          -7.701
REMARK INTER:                  -6.263
REMARK INTRA:                  -1.439
REMARK UNBOUND:                -1.512
REMARK SMILES CCCCCCCCCCCCCCCCCC(=O)[O-]
REMARK SMILES IDX 10 1 11 2 12 3 13 4 14 5 15 6 16 7 17 8 18 9 19 10 20 11
REMARK SMILES IDX 9 12 8 13 7 14 6 15 5 16 4 17 3 18 2 19 1 20
REMARK H PARENT
REMARK Flexibility Score: inf
ROOT
ATOM      1  C   UNL     1      45.624  28.614  -0.667  1.00  0.00     0.000 C 
ENDROOT
BRANCH   1   2
ATOM      2  C   UNL     1      45.809  28.248   0.815  1.00  0.00     0.000 C 
BRANCH   2   3
ATOM      3  C   UNL     1      44.508  28.386   1.623  1.00  0.00     0.000 C 
BRANCH   3   4
ATOM      4  C   UNL     1      44.593  29.475   2.709  1.00  0.00     0.000 C 
BRANCH   4   5
ATOM      5  C   UNL     1      46.012  29.777   3.231  1.00  0.00     0.000 C 
BRANCH   5   6
ATOM      6  C   UNL     1      46.253  29.432   4.712  1.00  0.00     0.000 C 
BRANCH   6   7
ATOM      7  C   UNL     1      46.982  28.091   4.900  1.00  0.00     0.006 C 
BRANCH   7   8
ATOM      8  C   UNL     1      46.005  26.913   5.017  1.00  0.00     0.053 C 
BRANCH   8   9
ATOM      9  C   UNL     1      46.167  25.940   3.890  1.00  0.00     0.041 C 
ATOM     10  O   UNL     1      47.125  26.060   3.082  1.00  0.00    -0.550 OA
ATOM     11  O   UNL     1      45.274  24.884   3.747  1.00  0.00    -0.550 OA
ENDBRANCH   8   9
ENDBRANCH   7   8
ENDBRANCH   6   7
ENDBRANCH   5   6
ENDBRANCH   4   5
ENDBRANCH   3   4
ENDBRANCH   2   3
ENDBRANCH   1   2
BRANCH   1  12
ATOM     12  C   UNL     1      46.951  28.622  -1.447  1.00  0.00     0.000 C 
BRANCH  12  13
ATOM     13  C   UNL     1      46.739  28.568  -2.968  1.00  0.00    -0.000 C 
BRANCH  13  14
ATOM     14  C   UNL     1      45.648  27.563  -3.376  1.00  0.00    -0.000 C 
BRANCH  14  15
ATOM     15  C   UNL     1      45.943  26.882  -4.721  1.00  0.00    -0.000 C 
BRANCH  15  16
ATOM     16  C   UNL     1      46.240  27.892  -5.843  1.00  0.00    -0.000 C 
BRANCH  16  17
ATOM     17  C   UNL     1      45.192  27.831  -6.976  1.00  0.00    -0.000 C 
BRANCH  17  18
ATOM     18  C   UNL     1      44.344  29.111  -7.103  1.00  0.00    -0.000 C 
BRANCH  18  19
ATOM     19  C   UNL     1      42.841  28.914  -6.845  1.00  0.00    -0.003 C 
ATOM     20  C   UNL     1      42.516  28.697  -5.366  1.00  0.00     0.004 C 
ENDBRANCH  18  19
ENDBRANCH  17  18
ENDBRANCH  16  17
ENDBRANCH  15  16
ENDBRANCH  14  15
ENDBRANCH  13  14
ENDBRANCH  12  13
ENDBRANCH   1  12
TORSDOF 16
ENDMDL
MODEL 9
REMARK VINA RESULT:    -3.144      4.402      8.286
REMARK INTER + INTRA:          -7.595
REMARK INTER:                  -6.596
REMARK INTRA:                  -0.999
REMARK UNBOUND:                -1.512
REMARK SMILES CCCCCCCCCCCCCCCCCC(=O)[O-]
REMARK SMILES IDX 10 1 11 2 12 3 13 4 14 5 15 6 16 7 17 8 18 9 19 10 20 11
REMARK SMILES IDX 9 12 8 13 7 14 6 15 5 16 4 17 3 18 2 19 1 20
REMARK H PARENT
REMARK Flexibility Score: inf
ROOT
ATOM      1  C   UNL     1      43.624  27.220   2.082  1.00  0.00     0.000 C 
ENDROOT
BRANCH   1   2
ATOM      2  C   UNL     1      44.487  27.077   3.348  1.00  0.00     0.000 C 
BRANCH   2   3
ATOM      3  C   UNL     1      45.107  25.677   3.483  1.00  0.00     0.000 C 
BRANCH   3   4
ATOM      4  C   UNL     1      46.257  25.629   4.505  1.00  0.00     0.000 C 
BRANCH   4   5
ATOM      5  C   UNL     1      46.532  26.951   5.251  1.00  0.00     0.000 C 
BRANCH   5   6
ATOM      6  C   UNL     1      46.868  26.803   6.746  1.00  0.00     0.000 C 
BRANCH   6   7
ATOM      7  C   UNL     1      46.955  28.155   7.474  1.00  0.00     0.006 C 
BRANCH   7   8
ATOM      8  C   UNL     1      45.569  28.753   7.751  1.00  0.00     0.053 C 
BRANCH   8   9
ATOM      9  C   UNL     1      45.151  28.557   9.175  1.00  0.00     0.041 C 
ATOM     10  O   UNL     1      45.167  27.406   9.687  1.00  0.00    -0.550 OA
ATOM     11  O   UNL     1      44.769  29.648   9.946  1.00  0.00    -0.550 OA
ENDBRANCH   8   9
ENDBRANCH   7   8
ENDBRANCH   6   7
ENDBRANCH   5   6
ENDBRANCH   4   5
ENDBRANCH   3   4
ENDBRANCH   2   3
ENDBRANCH   1   2
BRANCH   1  12
ATOM     12  C   UNL     1      42.399  28.127   2.298  1.00  0.00     0.000 C 
BRANCH  12  13
ATOM     13  C   UNL     1      42.780  29.611   2.413  1.00  0.00    -0.000 C 
BRANCH  13  14
ATOM     14  C   UNL     1      44.022  29.968   1.577  1.00  0.00    -0.000 C 
BRANCH  14  15
ATOM     15  C   UNL     1      45.288  30.125   2.434  1.00  0.00    -0.000 C 
BRANCH  15  16
ATOM     16  C   UNL     1      46.575  30.125   1.593  1.00  0.00    -0.000 C 
BRANCH  16  17
ATOM     17  C   UNL     1      46.762  28.805   0.813  1.00  0.00    -0.000 C 
BRANCH  17  18
ATOM     18  C   UNL     1      46.871  28.999  -0.712  1.00  0.00    -0.000 C 
BRANCH  18  19
ATOM     19  C   UNL     1      46.035  28.015  -1.546  1.00  0.00    -0.003 C 
ATOM     20  C   UNL     1      46.401  28.035  -3.031  1.00  0.00     0.004 C 
ENDBRANCH  18  19
ENDBRANCH  17  18
ENDBRANCH  16  17
ENDBRANCH  15  16
ENDBRANCH  14  15
ENDBRANCH  13  14
ENDBRANCH  12  13
ENDBRANCH   1  12
TORSDOF 16
ENDMDL
