MODEL 1
REMARK VINA RESULT:    -5.962      0.000      0.000
REMARK INTER + INTRA:         -10.167
REMARK INTER:                  -8.576
REMARK INTRA:                  -1.591
REMARK UNBOUND:                -1.591
REMARK SMILES O=c1c(O[C@@H]2O[C@@H](CO)[C@H](O)[C@H](O)[C@H]2O)c(-c2ccc(O)cc2)oc2cc(O)cc(O)c12
REMARK SMILES IDX 4 1 3 2 16 3 24 4 2 5 25 6 1 7 32 8 26 9 30 10 27 11 29 12
REMARK SMILES IDX 17 13 18 14 19 15 20 16 23 17 22 18 21 19 31 21 28 23 5 25
REMARK SMILES IDX 14 26 6 27 12 28 7 29 10 30 15 31 13 33 8 35 9 36 11 38
REMARK H PARENT 21 20 31 22 28 24 15 32 13 34 9 37 11 39
REMARK Flexibility Score: inf
ROOT
ATOM      1  O   UNL     1      18.653  -0.500 -12.684  1.00  0.00    -0.454 OA
ENDROOT
BRANCH   1   2
ATOM      2  C   UNL     1      18.621  -0.596 -14.085  1.00  0.00     0.214 A 
ATOM      3  C   UNL     1      17.526  -1.201 -14.727  1.00  0.00     0.180 A 
ATOM      4  O   UNL     1      17.522  -1.339 -16.046  1.00  0.00    -0.452 OA
ATOM      5  C   UNL     1      19.662  -0.080 -14.876  1.00  0.00     0.239 A 
ATOM      6  C   UNL     1      18.509  -0.917 -16.827  1.00  0.00     0.146 A 
ATOM      7  O   UNL     1      20.557   0.613 -14.324  1.00  0.00    -0.285 OA
ATOM      8  C   UNL     1      19.655  -0.289 -16.276  1.00  0.00     0.111 A 
ATOM      9  C   UNL     1      18.389  -1.087 -18.209  1.00  0.00     0.094 A 
ATOM     10  C   UNL     1      20.699   0.122 -17.158  1.00  0.00     0.134 A 
ATOM     11  C   UNL     1      19.386  -0.629 -19.067  1.00  0.00     0.123 A 
ATOM     12  C   UNL     1      20.530  -0.024 -18.540  1.00  0.00     0.093 A 
BRANCH   3  13
ATOM     13  C   UNL     1      16.368  -1.707 -13.969  1.00  0.00     0.021 A 
ATOM     14  C   UNL     1      15.391  -0.812 -13.510  1.00  0.00     0.016 A 
ATOM     15  C   UNL     1      14.267  -1.285 -12.826  1.00  0.00     0.047 A 
ATOM     16  C   UNL     1      14.118  -2.654 -12.580  1.00  0.00     0.115 A 
ATOM     17  C   UNL     1      16.233  -3.078 -13.692  1.00  0.00     0.016 A 
ATOM     18  C   UNL     1      15.108  -3.550 -13.010  1.00  0.00     0.047 A 
BRANCH  16  19
ATOM     19  O   UNL     1      12.987  -3.114 -11.910  1.00  0.00    -0.508 OA
ATOM     20  H   UNL     1      12.964  -4.030 -11.478  1.00  0.00     0.293 HD
ENDBRANCH  16  19
ENDBRANCH   3  13
BRANCH  10  21
ATOM     21  O   UNL     1      21.922   0.642 -16.727  1.00  0.00    -0.507 OA
ATOM     22  H   UNL     1      22.824   0.280 -17.002  1.00  0.00     0.293 HD
ENDBRANCH  10  21
BRANCH  11  23
ATOM     23  O   UNL     1      19.234  -0.787 -20.443  1.00  0.00    -0.508 OA
ATOM     24  H   UNL     1      19.071  -1.696 -20.856  1.00  0.00     0.293 HD
ENDBRANCH  11  23
ENDBRANCH   1   2
BRANCH   1  25
ATOM     25  C   UNL     1      19.459  -1.356 -11.863  1.00  0.00     0.339 C 
ATOM     26  C   UNL     1      20.289  -0.549 -10.841  1.00  0.00     0.214 C 
ATOM     27  O   UNL     1      18.674  -2.360 -11.238  1.00  0.00    -0.332 OA
ATOM     28  C   UNL     1      19.430  -0.020  -9.670  1.00  0.00     0.180 C 
ATOM     29  C   UNL     1      17.729  -1.805 -10.338  1.00  0.00     0.179 C 
ATOM     30  C   UNL     1      18.453  -1.102  -9.161  1.00  0.00     0.177 C 
BRANCH  26  31
ATOM     31  O   UNL     1      21.305  -1.379 -10.336  1.00  0.00    -0.384 OA
ATOM     32  H   UNL     1      21.176  -1.431  -9.353  1.00  0.00     0.211 HD
ENDBRANCH  26  31
BRANCH  28  33
ATOM     33  O   UNL     1      18.776   1.176 -10.018  1.00  0.00    -0.387 OA
ATOM     34  H   UNL     1      19.410   1.737 -10.530  1.00  0.00     0.211 HD
ENDBRANCH  28  33
BRANCH  29  35
ATOM     35  C   UNL     1      16.825  -2.942  -9.840  1.00  0.00     0.191 C 
BRANCH  35  36
ATOM     36  O   UNL     1      17.414  -3.592  -8.744  1.00  0.00    -0.394 OA
ATOM     37  H   UNL     1      16.759  -4.260  -8.409  1.00  0.00     0.210 HD
ENDBRANCH  35  36
ENDBRANCH  29  35
BRANCH  30  38
ATOM     38  O   UNL     1      17.546  -0.561  -8.230  1.00  0.00    -0.387 OA
ATOM     39  H   UNL     1      18.030   0.122  -7.695  1.00  0.00     0.211 HD
ENDBRANCH  30  38
ENDBRANCH   1  25
TORSDOF 11
ENDMDL
MODEL 2
REMARK VINA RESULT:    -5.852      2.748      4.555
REMARK INTER + INTRA:         -10.009
REMARK INTER:                  -8.618
REMARK INTRA:                  -1.391
REMARK UNBOUND:                -1.591
REMARK SMILES O=c1c(O[C@@H]2O[C@@H](CO)[C@H](O)[C@H](O)[C@H]2O)c(-c2ccc(O)cc2)oc2cc(O)cc(O)c12
REMARK SMILES IDX 4 1 3 2 16 3 24 4 2 5 25 6 1 7 32 8 26 9 30 10 27 11 29 12
REMARK SMILES IDX 17 13 18 14 19 15 20 16 23 17 22 18 21 19 31 21 28 23 5 25
REMARK SMILES IDX 14 26 6 27 12 28 7 29 10 30 15 31 13 33 8 35 9 36 11 38
REMARK H PARENT 21 20 31 22 28 24 15 32 13 34 9 37 11 39
REMARK Flexibility Score: inf
ROOT
ATOM      1  O   UNL     1      16.997  -3.840 -14.770  1.00  0.00    -0.454 OA
ENDROOT
BRANCH   1   2
ATOM      2  C   UNL     1      17.718  -2.986 -15.621  1.00  0.00     0.214 A 
ATOM      3  C   UNL     1      17.790  -1.610 -15.345  1.00  0.00     0.180 A 
ATOM      4  O   UNL     1      18.424  -0.796 -16.180  1.00  0.00    -0.452 OA
ATOM      5  C   UNL     1      18.392  -3.481 -16.751  1.00  0.00     0.239 A 
ATOM      6  C   UNL     1      19.028  -1.212 -17.286  1.00  0.00     0.146 A 
ATOM      7  O   UNL     1      18.478  -4.727 -16.909  1.00  0.00    -0.285 OA
ATOM      8  C   UNL     1      19.016  -2.583 -17.650  1.00  0.00     0.111 A 
ATOM      9  C   UNL     1      19.693  -0.274 -18.079  1.00  0.00     0.094 A 
ATOM     10  C   UNL     1      19.657  -2.973 -18.864  1.00  0.00     0.134 A 
ATOM     11  C   UNL     1      20.368  -0.672 -19.231  1.00  0.00     0.123 A 
ATOM     12  C   UNL     1      20.351  -2.016 -19.614  1.00  0.00     0.093 A 
BRANCH   3  13
ATOM     13  C   UNL     1      17.163  -1.027 -14.146  1.00  0.00     0.021 A 
ATOM     14  C   UNL     1      15.785  -0.763 -14.139  1.00  0.00     0.016 A 
ATOM     15  C   UNL     1      15.172  -0.249 -12.992  1.00  0.00     0.047 A 
ATOM     16  C   UNL     1      15.932   0.021 -11.849  1.00  0.00     0.115 A 
ATOM     17  C   UNL     1      17.929  -0.724 -13.008  1.00  0.00     0.016 A 
ATOM     18  C   UNL     1      17.314  -0.212 -11.862  1.00  0.00     0.047 A 
BRANCH  16  19
ATOM     19  O   UNL     1      15.305   0.519 -10.709  1.00  0.00    -0.508 OA
ATOM     20  H   UNL     1      15.441   1.477 -10.407  1.00  0.00     0.293 HD
ENDBRANCH  16  19
ENDBRANCH   3  13
BRANCH  10  21
ATOM     21  O   UNL     1      19.613  -4.268 -19.387  1.00  0.00    -0.507 OA
ATOM     22  H   UNL     1      19.704  -5.109 -18.835  1.00  0.00     0.293 HD
ENDBRANCH  10  21
BRANCH  11  23
ATOM     23  O   UNL     1      21.045   0.277 -19.993  1.00  0.00    -0.508 OA
ATOM     24  H   UNL     1      21.081   0.218 -21.003  1.00  0.00     0.293 HD
ENDBRANCH  11  23
ENDBRANCH   1   2
BRANCH   1  25
ATOM     25  C   UNL     1      17.601  -4.540 -13.673  1.00  0.00     0.339 C 
ATOM     26  C   UNL     1      16.886  -4.232 -12.340  1.00  0.00     0.214 C 
ATOM     27  O   UNL     1      17.675  -5.933 -13.929  1.00  0.00    -0.332 OA
ATOM     28  C   UNL     1      15.526  -4.955 -12.219  1.00  0.00     0.180 C 
ATOM     29  C   UNL     1      16.388  -6.517 -14.046  1.00  0.00     0.179 C 
ATOM     30  C   UNL     1      15.627  -6.419 -12.700  1.00  0.00     0.177 C 
BRANCH  26  31
ATOM     31  O   UNL     1      17.723  -4.632 -11.283  1.00  0.00    -0.384 OA
ATOM     32  H   UNL     1      17.153  -4.704 -10.473  1.00  0.00     0.211 HD
ENDBRANCH  26  31
BRANCH  28  33
ATOM     33  O   UNL     1      14.509  -4.239 -12.878  1.00  0.00    -0.387 OA
ATOM     34  H   UNL     1      14.313  -4.698 -13.732  1.00  0.00     0.211 HD
ENDBRANCH  28  33
BRANCH  29  35
ATOM     35  C   UNL     1      16.569  -7.979 -14.481  1.00  0.00     0.191 C 
BRANCH  35  36
ATOM     36  O   UNL     1      16.562  -8.827 -13.363  1.00  0.00    -0.394 OA
ATOM     37  H   UNL     1      16.197  -9.703 -13.659  1.00  0.00     0.210 HD
ENDBRANCH  35  36
ENDBRANCH  29  35
BRANCH  30  38
ATOM     38  O   UNL     1      14.352  -7.012 -12.769  1.00  0.00    -0.387 OA
ATOM     39  H   UNL     1      13.759  -6.401 -13.279  1.00  0.00     0.211 HD
ENDBRANCH  30  38
ENDBRANCH   1  25
TORSDOF 11
ENDMDL
MODEL 3
REMARK VINA RESULT:    -5.735      2.942      5.265
REMARK INTER + INTRA:          -9.841
REMARK INTER:                  -8.610
REMARK INTRA:                  -1.230
REMARK UNBOUND:                -1.591
REMARK SMILES O=c1c(O[C@@H]2O[C@@H](CO)[C@H](O)[C@H](O)[C@H]2O)c(-c2ccc(O)cc2)oc2cc(O)cc(O)c12
REMARK SMILES IDX 4 1 3 2 16 3 24 4 2 5 25 6 1 7 32 8 26 9 30 10 27 11 29 12
REMARK SMILES IDX 17 13 18 14 19 15 20 16 23 17 22 18 21 19 31 21 28 23 5 25
REMARK SMILES IDX 14 26 6 27 12 28 7 29 10 30 15 31 13 33 8 35 9 36 11 38
REMARK H PARENT 21 20 31 22 28 24 15 32 13 34 9 37 11 39
REMARK Flexibility Score: inf
ROOT
ATOM      1  O   UNL     1      18.307  -2.774 -12.383  1.00  0.00    -0.454 OA
ENDROOT
BRANCH   1   2
ATOM      2  C   UNL     1      17.909  -3.582 -13.461  1.00  0.00     0.214 A 
ATOM      3  C   UNL     1      17.464  -2.995 -14.658  1.00  0.00     0.180 A 
ATOM      4  O   UNL     1      17.038  -3.758 -15.655  1.00  0.00    -0.452 OA
ATOM      5  C   UNL     1      17.960  -4.984 -13.379  1.00  0.00     0.239 A 
ATOM      6  C   UNL     1      17.016  -5.084 -15.601  1.00  0.00     0.146 A 
ATOM      7  O   UNL     1      18.517  -5.514 -12.382  1.00  0.00    -0.285 OA
ATOM      8  C   UNL     1      17.451  -5.772 -14.439  1.00  0.00     0.111 A 
ATOM      9  C   UNL     1      16.575  -5.793 -16.721  1.00  0.00     0.094 A 
ATOM     10  C   UNL     1      17.381  -7.197 -14.423  1.00  0.00     0.134 A 
ATOM     11  C   UNL     1      16.568  -7.186 -16.719  1.00  0.00     0.123 A 
ATOM     12  C   UNL     1      16.975  -7.880 -15.576  1.00  0.00     0.093 A 
BRANCH   3  13
ATOM     13  C   UNL     1      17.443  -1.533 -14.842  1.00  0.00     0.021 A 
ATOM     14  C   UNL     1      16.230  -0.836 -14.744  1.00  0.00     0.016 A 
ATOM     15  C   UNL     1      16.204   0.556 -14.876  1.00  0.00     0.047 A 
ATOM     16  C   UNL     1      17.386   1.262 -15.122  1.00  0.00     0.115 A 
ATOM     17  C   UNL     1      18.624  -0.825 -15.121  1.00  0.00     0.016 A 
ATOM     18  C   UNL     1      18.597   0.567 -15.250  1.00  0.00     0.047 A 
BRANCH  16  19
ATOM     19  O   UNL     1      17.348   2.649 -15.235  1.00  0.00    -0.508 OA
ATOM     20  H   UNL     1      16.638   3.115 -15.788  1.00  0.00     0.293 HD
ENDBRANCH  16  19
ENDBRANCH   3  13
BRANCH  10  21
ATOM     21  O   UNL     1      17.667  -7.978 -13.300  1.00  0.00    -0.507 OA
ATOM     22  H   UNL     1      18.462  -8.596 -13.223  1.00  0.00     0.293 HD
ENDBRANCH  10  21
BRANCH  11  23
ATOM     23  O   UNL     1      16.146  -7.873 -17.855  1.00  0.00    -0.508 OA
ATOM     24  H   UNL     1      16.346  -8.856 -17.985  1.00  0.00     0.293 HD
ENDBRANCH  11  23
ENDBRANCH   1   2
BRANCH   1  25
ATOM     25  C   UNL     1      17.407  -1.894 -11.695  1.00  0.00     0.339 C 
ATOM     26  C   UNL     1      16.188  -2.654 -11.130  1.00  0.00     0.214 C 
ATOM     27  O   UNL     1      18.081  -1.148 -10.694  1.00  0.00    -0.332 OA
ATOM     28  C   UNL     1      16.540  -3.484  -9.875  1.00  0.00     0.180 C 
ATOM     29  C   UNL     1      18.597  -1.983  -9.671  1.00  0.00     0.179 C 
ATOM     30  C   UNL     1      17.442  -2.683  -8.910  1.00  0.00     0.177 C 
BRANCH  26  31
ATOM     31  O   UNL     1      15.189  -1.719 -10.806  1.00  0.00    -0.384 OA
ATOM     32  H   UNL     1      14.906  -1.290 -11.656  1.00  0.00     0.211 HD
ENDBRANCH  26  31
BRANCH  28  33
ATOM     33  O   UNL     1      17.097  -4.727 -10.227  1.00  0.00    -0.387 OA
ATOM     34  H   UNL     1      17.552  -4.626 -11.099  1.00  0.00     0.211 HD
ENDBRANCH  28  33
BRANCH  29  35
ATOM     35  C   UNL     1      19.441  -1.113  -8.729  1.00  0.00     0.191 C 
BRANCH  35  36
ATOM     36  O   UNL     1      18.664  -0.664  -7.650  1.00  0.00    -0.394 OA
ATOM     37  H   UNL     1      18.505  -1.445  -7.056  1.00  0.00     0.210 HD
ENDBRANCH  35  36
ENDBRANCH  29  35
BRANCH  30  38
ATOM     38  O   UNL     1      17.914  -3.503  -7.869  1.00  0.00    -0.387 OA
ATOM     39  H   UNL     1      18.768  -3.913  -8.167  1.00  0.00     0.211 HD
ENDBRANCH  30  38
ENDBRANCH   1  25
TORSDOF 11
ENDMDL
MODEL 4
REMARK VINA RESULT:    -5.688      2.082      4.153
REMARK INTER + INTRA:          -9.773
REMARK INTER:                  -8.292
REMARK INTRA:                  -1.481
REMARK UNBOUND:                -1.591
REMARK SMILES O=c1c(O[C@@H]2O[C@@H](CO)[C@H](O)[C@H](O)[C@H]2O)c(-c2ccc(O)cc2)oc2cc(O)cc(O)c12
REMARK SMILES IDX 4 1 3 2 16 3 24 4 2 5 25 6 1 7 32 8 26 9 30 10 27 11 29 12
REMARK SMILES IDX 17 13 18 14 19 15 20 16 23 17 22 18 21 19 31 21 28 23 5 25
REMARK SMILES IDX 14 26 6 27 12 28 7 29 10 30 15 31 13 33 8 35 9 36 11 38
REMARK H PARENT 21 20 31 22 28 24 15 32 13 34 9 37 11 39
REMARK Flexibility Score: inf
ROOT
ATOM      1  O   UNL     1      17.687  -2.626 -13.552  1.00  0.00    -0.454 OA
ENDROOT
BRANCH   1   2
ATOM      2  C   UNL     1      18.136  -2.112 -14.781  1.00  0.00     0.214 A 
ATOM      3  C   UNL     1      18.338  -0.730 -14.937  1.00  0.00     0.180 A 
ATOM      4  O   UNL     1      18.709  -0.241 -16.113  1.00  0.00    -0.452 OA
ATOM      5  C   UNL     1      18.407  -2.958 -15.869  1.00  0.00     0.239 A 
ATOM      6  C   UNL     1      18.923  -0.997 -17.183  1.00  0.00     0.146 A 
ATOM      7  O   UNL     1      18.397  -4.204 -15.688  1.00  0.00    -0.285 OA
ATOM      8  C   UNL     1      18.752  -2.403 -17.125  1.00  0.00     0.111 A 
ATOM      9  C   UNL     1      19.340  -0.380 -18.365  1.00  0.00     0.094 A 
ATOM     10  C   UNL     1      18.969  -3.166 -18.312  1.00  0.00     0.134 A 
ATOM     11  C   UNL     1      19.608  -1.140 -19.502  1.00  0.00     0.123 A 
ATOM     12  C   UNL     1      19.427  -2.525 -19.469  1.00  0.00     0.093 A 
BRANCH   3  13
ATOM     13  C   UNL     1      18.136   0.212 -13.822  1.00  0.00     0.021 A 
ATOM     14  C   UNL     1      16.992   1.023 -13.794  1.00  0.00     0.016 A 
ATOM     15  C   UNL     1      16.770   1.892 -12.721  1.00  0.00     0.047 A 
ATOM     16  C   UNL     1      17.695   1.969 -11.675  1.00  0.00     0.115 A 
ATOM     17  C   UNL     1      19.080   0.316 -12.787  1.00  0.00     0.016 A 
ATOM     18  C   UNL     1      18.855   1.183 -11.714  1.00  0.00     0.047 A 
BRANCH  16  19
ATOM     19  O   UNL     1      17.454   2.827 -10.605  1.00  0.00    -0.508 OA
ATOM     20  H   UNL     1      18.021   2.798  -9.765  1.00  0.00     0.293 HD
ENDBRANCH  16  19
ENDBRANCH   3  13
BRANCH  10  21
ATOM     21  O   UNL     1      18.719  -4.537 -18.413  1.00  0.00    -0.507 OA
ATOM     22  H   UNL     1      18.647  -5.041 -19.285  1.00  0.00     0.293 HD
ENDBRANCH  10  21
BRANCH  11  23
ATOM     23  O   UNL     1      20.046  -0.507 -20.663  1.00  0.00    -0.508 OA
ATOM     24  H   UNL     1      20.838   0.124 -20.656  1.00  0.00     0.293 HD
ENDBRANCH  11  23
ENDBRANCH   1   2
BRANCH   1  25
ATOM     25  C   UNL     1      16.299  -2.704 -13.200  1.00  0.00     0.339 C 
ATOM     26  C   UNL     1      15.868  -4.156 -12.904  1.00  0.00     0.214 C 
ATOM     27  O   UNL     1      15.989  -1.826 -12.130  1.00  0.00    -0.332 OA
ATOM     28  C   UNL     1      16.376  -4.654 -11.532  1.00  0.00     0.180 C 
ATOM     29  C   UNL     1      16.669  -2.187 -10.938  1.00  0.00     0.179 C 
ATOM     30  C   UNL     1      16.190  -3.575 -10.442  1.00  0.00     0.177 C 
BRANCH  26  31
ATOM     31  O   UNL     1      14.464  -4.220 -12.932  1.00  0.00    -0.384 OA
ATOM     32  H   UNL     1      14.220  -5.027 -13.456  1.00  0.00     0.211 HD
ENDBRANCH  26  31
BRANCH  28  33
ATOM     33  O   UNL     1      17.703  -5.112 -11.616  1.00  0.00    -0.387 OA
ATOM     34  H   UNL     1      17.922  -5.252 -12.571  1.00  0.00     0.211 HD
ENDBRANCH  28  33
BRANCH  29  35
ATOM     35  C   UNL     1      16.402  -1.096  -9.891  1.00  0.00     0.191 C 
BRANCH  35  36
ATOM     36  O   UNL     1      15.300  -0.314 -10.269  1.00  0.00    -0.394 OA
ATOM     37  H   UNL     1      14.681  -0.281  -9.492  1.00  0.00     0.210 HD
ENDBRANCH  35  36
ENDBRANCH  29  35
BRANCH  30  38
ATOM     38  O   UNL     1      16.825  -3.957  -9.246  1.00  0.00    -0.387 OA
ATOM     39  H   UNL     1      17.802  -3.818  -9.361  1.00  0.00     0.211 HD
ENDBRANCH  30  38
ENDBRANCH   1  25
TORSDOF 11
ENDMDL
MODEL 5
REMARK VINA RESULT:    -5.548      3.215      8.016
REMARK INTER + INTRA:          -9.571
REMARK INTER:                  -8.172
REMARK INTRA:                  -1.400
REMARK UNBOUND:                -1.591
REMARK SMILES O=c1c(O[C@@H]2O[C@@H](CO)[C@H](O)[C@H](O)[C@H]2O)c(-c2ccc(O)cc2)oc2cc(O)cc(O)c12
REMARK SMILES IDX 4 1 3 2 16 3 24 4 2 5 25 6 1 7 32 8 26 9 30 10 27 11 29 12
REMARK SMILES IDX 17 13 18 14 19 15 20 16 23 17 22 18 21 19 31 21 28 23 5 25
REMARK SMILES IDX 14 26 6 27 12 28 7 29 10 30 15 31 13 33 8 35 9 36 11 38
REMARK H PARENT 21 20 31 22 28 24 15 32 13 34 9 37 11 39
REMARK Flexibility Score: inf
ROOT
ATOM      1  O   UNL     1      18.090   0.082 -10.750  1.00  0.00    -0.454 OA
ENDROOT
BRANCH   1   2
ATOM      2  C   UNL     1      19.013  -0.425  -9.820  1.00  0.00     0.214 A 
ATOM      3  C   UNL     1      20.393  -0.280 -10.043  1.00  0.00     0.180 A 
ATOM      4  O   UNL     1      21.264  -0.806  -9.192  1.00  0.00    -0.452 OA
ATOM      5  C   UNL     1      18.587  -1.070  -8.646  1.00  0.00     0.239 A 
ATOM      6  C   UNL     1      20.906  -1.471  -8.100  1.00  0.00     0.146 A 
ATOM      7  O   UNL     1      17.362  -1.051  -8.354  1.00  0.00    -0.285 OA
ATOM      8  C   UNL     1      19.537  -1.666  -7.784  1.00  0.00     0.111 A 
ATOM      9  C   UNL     1      21.906  -1.959  -7.256  1.00  0.00     0.094 A 
ATOM     10  C   UNL     1      19.207  -2.411  -6.612  1.00  0.00     0.134 A 
ATOM     11  C   UNL     1      21.574  -2.633  -6.082  1.00  0.00     0.123 A 
ATOM     12  C   UNL     1      20.231  -2.851  -5.764  1.00  0.00     0.093 A 
BRANCH   3  13
ATOM     13  C   UNL     1      20.915   0.440 -11.218  1.00  0.00     0.021 A 
ATOM     14  C   UNL     1      20.777   1.833 -11.300  1.00  0.00     0.016 A 
ATOM     15  C   UNL     1      21.304   2.531 -12.391  1.00  0.00     0.047 A 
ATOM     16  C   UNL     1      21.960   1.842 -13.416  1.00  0.00     0.115 A 
ATOM     17  C   UNL     1      21.545  -0.253 -12.265  1.00  0.00     0.016 A 
ATOM     18  C   UNL     1      22.074   0.447 -13.354  1.00  0.00     0.047 A 
BRANCH  16  19
ATOM     19  O   UNL     1      22.494   2.552 -14.490  1.00  0.00    -0.508 OA
ATOM     20  H   UNL     1      23.441   2.389 -14.812  1.00  0.00     0.293 HD
ENDBRANCH  16  19
ENDBRANCH   3  13
BRANCH  10  21
ATOM     21  O   UNL     1      17.904  -2.770  -6.259  1.00  0.00    -0.507 OA
ATOM     22  H   UNL     1      17.670  -3.537  -5.645  1.00  0.00     0.293 HD
ENDBRANCH  10  21
BRANCH  11  23
ATOM     23  O   UNL     1      22.587  -3.090  -5.243  1.00  0.00    -0.508 OA
ATOM     24  H   UNL     1      22.940  -2.524  -4.482  1.00  0.00     0.293 HD
ENDBRANCH  11  23
ENDBRANCH   1   2
BRANCH   1  25
ATOM     25  C   UNL     1      17.885  -0.503 -12.043  1.00  0.00     0.339 C 
ATOM     26  C   UNL     1      17.209  -1.888 -11.941  1.00  0.00     0.214 C 
ATOM     27  O   UNL     1      17.173   0.376 -12.899  1.00  0.00    -0.332 OA
ATOM     28  C   UNL     1      15.704  -1.786 -11.607  1.00  0.00     0.180 C 
ATOM     29  C   UNL     1      15.862   0.629 -12.423  1.00  0.00     0.179 C 
ATOM     30  C   UNL     1      15.022  -0.674 -12.433  1.00  0.00     0.177 C 
BRANCH  26  31
ATOM     31  O   UNL     1      17.371  -2.555 -13.168  1.00  0.00    -0.384 OA
ATOM     32  H   UNL     1      18.003  -3.304 -13.010  1.00  0.00     0.211 HD
ENDBRANCH  26  31
BRANCH  28  33
ATOM     33  O   UNL     1      15.499  -1.633 -10.223  1.00  0.00    -0.387 OA
ATOM     34  H   UNL     1      14.921  -0.843 -10.082  1.00  0.00     0.211 HD
ENDBRANCH  28  33
BRANCH  29  35
ATOM     35  C   UNL     1      15.232   1.708 -13.316  1.00  0.00     0.191 C 
BRANCH  35  36
ATOM     36  O   UNL     1      14.472   1.115 -14.337  1.00  0.00    -0.394 OA
ATOM     37  H   UNL     1      15.086   0.541 -14.867  1.00  0.00     0.210 HD
ENDBRANCH  35  36
ENDBRANCH  29  35
BRANCH  30  38
ATOM     38  O   UNL     1      13.704  -0.457 -11.990  1.00  0.00    -0.387 OA
ATOM     39  H   UNL     1      13.740   0.175 -11.224  1.00  0.00     0.211 HD
ENDBRANCH  30  38
ENDBRANCH   1  25
TORSDOF 11
ENDMDL
MODEL 6
REMARK VINA RESULT:    -5.432      2.537      8.071
REMARK INTER + INTRA:          -9.404
REMARK INTER:                  -7.853
REMARK INTRA:                  -1.552
REMARK UNBOUND:                -1.591
REMARK SMILES O=c1c(O[C@@H]2O[C@@H](CO)[C@H](O)[C@H](O)[C@H]2O)c(-c2ccc(O)cc2)oc2cc(O)cc(O)c12
REMARK SMILES IDX 4 1 3 2 16 3 24 4 2 5 25 6 1 7 32 8 26 9 30 10 27 11 29 12
REMARK SMILES IDX 17 13 18 14 19 15 20 16 23 17 22 18 21 19 31 21 28 23 5 25
REMARK SMILES IDX 14 26 6 27 12 28 7 29 10 30 15 31 13 33 8 35 9 36 11 38
REMARK H PARENT 21 20 31 22 28 24 15 32 13 34 9 37 11 39
REMARK Flexibility Score: inf
ROOT
ATOM      1  O   UNL     1      18.190  -0.049 -11.336  1.00  0.00    -0.454 OA
ENDROOT
BRANCH   1   2
ATOM      2  C   UNL     1      19.046  -0.467 -10.303  1.00  0.00     0.214 A 
ATOM      3  C   UNL     1      20.432  -0.259 -10.406  1.00  0.00     0.180 A 
ATOM      4  O   UNL     1      21.244  -0.704  -9.456  1.00  0.00    -0.452 OA
ATOM      5  C   UNL     1      18.544  -1.085  -9.145  1.00  0.00     0.239 A 
ATOM      6  C   UNL     1      20.819  -1.340  -8.372  1.00  0.00     0.146 A 
ATOM      7  O   UNL     1      17.298  -1.119  -8.967  1.00  0.00    -0.285 OA
ATOM      8  C   UNL     1      19.438  -1.595  -8.173  1.00  0.00     0.111 A 
ATOM      9  C   UNL     1      21.759  -1.740  -7.419  1.00  0.00     0.094 A 
ATOM     10  C   UNL     1      19.037  -2.307  -7.003  1.00  0.00     0.134 A 
ATOM     11  C   UNL     1      21.352  -2.382  -6.251  1.00  0.00     0.123 A 
ATOM     12  C   UNL     1      19.998  -2.657  -6.046  1.00  0.00     0.093 A 
BRANCH   3  13
ATOM     13  C   UNL     1      21.026   0.438 -11.561  1.00  0.00     0.021 A 
ATOM     14  C   UNL     1      20.767   1.803 -11.759  1.00  0.00     0.016 A 
ATOM     15  C   UNL     1      21.357   2.484 -12.828  1.00  0.00     0.047 A 
ATOM     16  C   UNL     1      22.198   1.805 -13.717  1.00  0.00     0.115 A 
ATOM     17  C   UNL     1      21.844  -0.248 -12.473  1.00  0.00     0.016 A 
ATOM     18  C   UNL     1      22.436   0.435 -13.540  1.00  0.00     0.047 A 
BRANCH  16  19
ATOM     19  O   UNL     1      22.792   2.500 -14.768  1.00  0.00    -0.508 OA
ATOM     20  H   UNL     1      23.484   2.064 -15.365  1.00  0.00     0.293 HD
ENDBRANCH  16  19
ENDBRANCH   3  13
BRANCH  10  21
ATOM     21  O   UNL     1      17.726  -2.720  -6.754  1.00  0.00    -0.507 OA
ATOM     22  H   UNL     1      16.984  -2.708  -7.440  1.00  0.00     0.293 HD
ENDBRANCH  10  21
BRANCH  11  23
ATOM     23  O   UNL     1      22.304  -2.750  -5.303  1.00  0.00    -0.508 OA
ATOM     24  H   UNL     1      22.529  -2.152  -4.518  1.00  0.00     0.293 HD
ENDBRANCH  11  23
ENDBRANCH   1   2
BRANCH   1  25
ATOM     25  C   UNL     1      17.612  -0.956 -12.285  1.00  0.00     0.339 C 
ATOM     26  C   UNL     1      16.114  -0.661 -12.515  1.00  0.00     0.214 C 
ATOM     27  O   UNL     1      18.346  -0.967 -13.499  1.00  0.00    -0.332 OA
ATOM     28  C   UNL     1      15.887   0.597 -13.384  1.00  0.00     0.180 C 
ATOM     29  C   UNL     1      18.304   0.291 -14.152  1.00  0.00     0.179 C 
ATOM     30  C   UNL     1      16.855   0.626 -14.588  1.00  0.00     0.177 C 
BRANCH  26  31
ATOM     31  O   UNL     1      15.532  -1.774 -13.144  1.00  0.00    -0.384 OA
ATOM     32  H   UNL     1      15.333  -2.439 -12.434  1.00  0.00     0.211 HD
ENDBRANCH  26  31
BRANCH  28  33
ATOM     33  O   UNL     1      15.954   1.769 -12.610  1.00  0.00    -0.387 OA
ATOM     34  H   UNL     1      15.044   2.150 -12.546  1.00  0.00     0.211 HD
ENDBRANCH  28  33
BRANCH  29  35
ATOM     35  C   UNL     1      19.251   0.231 -15.359  1.00  0.00     0.191 C 
BRANCH  35  36
ATOM     36  O   UNL     1      18.521   0.058 -16.546  1.00  0.00    -0.394 OA
ATOM     37  H   UNL     1      17.773   0.712 -16.529  1.00  0.00     0.210 HD
ENDBRANCH  35  36
ENDBRANCH  29  35
BRANCH  30  38
ATOM     38  O   UNL     1      16.776   1.858 -15.263  1.00  0.00    -0.387 OA
ATOM     39  H   UNL     1      17.119   2.563 -14.653  1.00  0.00     0.211 HD
ENDBRANCH  30  38
ENDBRANCH   1  25
TORSDOF 11
ENDMDL
MODEL 7
REMARK VINA RESULT:    -5.423      2.710      5.561
REMARK INTER + INTRA:          -9.392
REMARK INTER:                  -8.457
REMARK INTRA:                  -0.934
REMARK UNBOUND:                -1.591
REMARK SMILES O=c1c(O[C@@H]2O[C@@H](CO)[C@H](O)[C@H](O)[C@H]2O)c(-c2ccc(O)cc2)oc2cc(O)cc(O)c12
REMARK SMILES IDX 4 1 3 2 16 3 24 4 2 5 25 6 1 7 32 8 26 9 30 10 27 11 29 12
REMARK SMILES IDX 17 13 18 14 19 15 20 16 23 17 22 18 21 19 31 21 28 23 5 25
REMARK SMILES IDX 14 26 6 27 12 28 7 29 10 30 15 31 13 33 8 35 9 36 11 38
REMARK H PARENT 21 20 31 22 28 24 15 32 13 34 9 37 11 39
REMARK Flexibility Score: inf
ROOT
ATOM      1  O   UNL     1      17.830  -1.105 -11.878  1.00  0.00    -0.454 OA
ENDROOT
BRANCH   1   2
ATOM      2  C   UNL     1      16.492  -0.829 -12.207  1.00  0.00     0.214 A 
ATOM      3  C   UNL     1      15.917  -1.392 -13.359  1.00  0.00     0.180 A 
ATOM      4  O   UNL     1      14.672  -1.087 -13.698  1.00  0.00    -0.452 OA
ATOM      5  C   UNL     1      15.697  -0.004 -11.394  1.00  0.00     0.239 A 
ATOM      6  C   UNL     1      13.902  -0.270 -12.989  1.00  0.00     0.146 A 
ATOM      7  O   UNL     1      16.146   0.362 -10.276  1.00  0.00    -0.285 OA
ATOM      8  C   UNL     1      14.389   0.345 -11.807  1.00  0.00     0.111 A 
ATOM      9  C   UNL     1      12.594  -0.040 -13.421  1.00  0.00     0.094 A 
ATOM     10  C   UNL     1      13.529   1.236 -11.098  1.00  0.00     0.134 A 
ATOM     11  C   UNL     1      11.742   0.784 -12.689  1.00  0.00     0.123 A 
ATOM     12  C   UNL     1      12.210   1.412 -11.532  1.00  0.00     0.093 A 
BRANCH   3  13
ATOM     13  C   UNL     1      16.669  -2.317 -14.226  1.00  0.00     0.021 A 
ATOM     14  C   UNL     1      16.455  -3.699 -14.122  1.00  0.00     0.016 A 
ATOM     15  C   UNL     1      17.132  -4.583 -14.967  1.00  0.00     0.047 A 
ATOM     16  C   UNL     1      18.041  -4.095 -15.913  1.00  0.00     0.115 A 
ATOM     17  C   UNL     1      17.607  -1.832 -15.153  1.00  0.00     0.016 A 
ATOM     18  C   UNL     1      18.281  -2.717 -15.999  1.00  0.00     0.047 A 
BRANCH  16  19
ATOM     19  O   UNL     1      18.698  -4.986 -16.758  1.00  0.00    -0.508 OA
ATOM     20  H   UNL     1      19.577  -5.415 -16.494  1.00  0.00     0.293 HD
ENDBRANCH  16  19
ENDBRANCH   3  13
BRANCH  10  21
ATOM     21  O   UNL     1      13.931   1.989  -9.992  1.00  0.00    -0.507 OA
ATOM     22  H   UNL     1      13.325   2.611  -9.475  1.00  0.00     0.293 HD
ENDBRANCH  10  21
BRANCH  11  23
ATOM     23  O   UNL     1      10.433   0.979 -13.126  1.00  0.00    -0.508 OA
ATOM     24  H   UNL     1       9.666   1.077 -12.473  1.00  0.00     0.293 HD
ENDBRANCH  11  23
ENDBRANCH   1   2
BRANCH   1  25
ATOM     25  C   UNL     1      18.296  -2.420 -11.545  1.00  0.00     0.339 C 
ATOM     26  C   UNL     1      19.830  -2.530 -11.680  1.00  0.00     0.214 C 
ATOM     27  O   UNL     1      17.843  -2.817 -10.261  1.00  0.00    -0.332 OA
ATOM     28  C   UNL     1      20.576  -1.833 -10.520  1.00  0.00     0.180 C 
ATOM     29  C   UNL     1      18.373  -1.992  -9.236  1.00  0.00     0.179 C 
ATOM     30  C   UNL     1      19.914  -2.148  -9.160  1.00  0.00     0.177 C 
BRANCH  26  31
ATOM     31  O   UNL     1      20.179  -3.892 -11.706  1.00  0.00    -0.384 OA
ATOM     32  H   UNL     1      20.915  -3.991 -12.365  1.00  0.00     0.211 HD
ENDBRANCH  26  31
BRANCH  28  33
ATOM     33  O   UNL     1      20.700  -0.451 -10.752  1.00  0.00    -0.387 OA
ATOM     34  H   UNL     1      20.098   0.023 -10.126  1.00  0.00     0.211 HD
ENDBRANCH  28  33
BRANCH  29  35
ATOM     35  C   UNL     1      17.705  -2.391  -7.912  1.00  0.00     0.191 C 
BRANCH  35  36
ATOM     36  O   UNL     1      18.268  -3.578  -7.418  1.00  0.00    -0.394 OA
ATOM     37  H   UNL     1      17.590  -4.003  -6.829  1.00  0.00     0.210 HD
ENDBRANCH  35  36
ENDBRANCH  29  35
BRANCH  30  38
ATOM     38  O   UNL     1      20.475  -1.362  -8.136  1.00  0.00    -0.387 OA
ATOM     39  H   UNL     1      19.752  -1.140  -7.492  1.00  0.00     0.211 HD
ENDBRANCH  30  38
ENDBRANCH   1  25
TORSDOF 11
ENDMDL
MODEL 8
REMARK VINA RESULT:    -5.298      2.916      6.740
REMARK INTER + INTRA:          -9.212
REMARK INTER:                  -7.943
REMARK INTRA:                  -1.269
REMARK UNBOUND:                -1.591
REMARK SMILES O=c1c(O[C@@H]2O[C@@H](CO)[C@H](O)[C@H](O)[C@H]2O)c(-c2ccc(O)cc2)oc2cc(O)cc(O)c12
REMARK SMILES IDX 4 1 3 2 16 3 24 4 2 5 25 6 1 7 32 8 26 9 30 10 27 11 29 12
REMARK SMILES IDX 17 13 18 14 19 15 20 16 23 17 22 18 21 19 31 21 28 23 5 25
REMARK SMILES IDX 14 26 6 27 12 28 7 29 10 30 15 31 13 33 8 35 9 36 11 38
REMARK H PARENT 21 20 31 22 28 24 15 32 13 34 9 37 11 39
REMARK Flexibility Score: inf
ROOT
ATOM      1  O   UNL     1      16.989  -2.392 -15.048  1.00  0.00    -0.454 OA
ENDROOT
BRANCH   1   2
ATOM      2  C   UNL     1      16.772  -1.053 -14.680  1.00  0.00     0.214 A 
ATOM      3  C   UNL     1      17.548  -0.029 -15.250  1.00  0.00     0.180 A 
ATOM      4  O   UNL     1      17.379   1.228 -14.861  1.00  0.00    -0.452 OA
ATOM      5  C   UNL     1      15.774  -0.704 -13.754  1.00  0.00     0.239 A 
ATOM      6  C   UNL     1      16.487   1.596 -13.949  1.00  0.00     0.146 A 
ATOM      7  O   UNL     1      14.964  -1.589 -13.372  1.00  0.00    -0.285 OA
ATOM      8  C   UNL     1      15.653   0.637 -13.320  1.00  0.00     0.111 A 
ATOM      9  C   UNL     1      16.373   2.952 -13.635  1.00  0.00     0.094 A 
ATOM     10  C   UNL     1      14.730   1.084 -12.327  1.00  0.00     0.134 A 
ATOM     11  C   UNL     1      15.427   3.386 -12.708  1.00  0.00     0.123 A 
ATOM     12  C   UNL     1      14.609   2.454 -12.065  1.00  0.00     0.093 A 
BRANCH   3  13
ATOM     13  C   UNL     1      18.569  -0.311 -16.274  1.00  0.00     0.021 A 
ATOM     14  C   UNL     1      19.878   0.161 -16.101  1.00  0.00     0.016 A 
ATOM     15  C   UNL     1      20.865  -0.135 -17.047  1.00  0.00     0.047 A 
ATOM     16  C   UNL     1      20.549  -0.891 -18.180  1.00  0.00     0.115 A 
ATOM     17  C   UNL     1      18.247  -1.042 -17.430  1.00  0.00     0.016 A 
ATOM     18  C   UNL     1      19.235  -1.339 -18.373  1.00  0.00     0.047 A 
BRANCH  16  19
ATOM     19  O   UNL     1      21.545  -1.191 -19.106  1.00  0.00    -0.508 OA
ATOM     20  H   UNL     1      22.480  -1.449 -18.812  1.00  0.00     0.293 HD
ENDBRANCH  16  19
ENDBRANCH   3  13
BRANCH  10  21
ATOM     21  O   UNL     1      13.941   0.226 -11.556  1.00  0.00    -0.507 OA
ATOM     22  H   UNL     1      13.620   0.433 -10.620  1.00  0.00     0.293 HD
ENDBRANCH  10  21
BRANCH  11  23
ATOM     23  O   UNL     1      15.314   4.746 -12.428  1.00  0.00    -0.508 OA
ATOM     24  H   UNL     1      16.087   5.273 -12.044  1.00  0.00     0.293 HD
ENDBRANCH  11  23
ENDBRANCH   1   2
BRANCH   1  25
ATOM     25  C   UNL     1      17.971  -3.225 -14.417  1.00  0.00     0.339 C 
ATOM     26  C   UNL     1      17.473  -3.764 -13.059  1.00  0.00     0.214 C 
ATOM     27  O   UNL     1      18.394  -4.267 -15.282  1.00  0.00    -0.332 OA
ATOM     28  C   UNL     1      16.431  -4.893 -13.219  1.00  0.00     0.180 C 
ATOM     29  C   UNL     1      17.335  -5.157 -15.593  1.00  0.00     0.179 C 
ATOM     30  C   UNL     1      16.855  -5.894 -14.317  1.00  0.00     0.177 C 
BRANCH  26  31
ATOM     31  O   UNL     1      18.578  -4.247 -12.338  1.00  0.00    -0.384 OA
ATOM     32  H   UNL     1      18.799  -3.565 -11.651  1.00  0.00     0.211 HD
ENDBRANCH  26  31
BRANCH  28  33
ATOM     33  O   UNL     1      15.142  -4.371 -13.434  1.00  0.00    -0.387 OA
ATOM     34  H   UNL     1      15.068  -3.518 -12.939  1.00  0.00     0.211 HD
ENDBRANCH  28  33
BRANCH  29  35
ATOM     35  C   UNL     1      17.842  -6.146 -16.653  1.00  0.00     0.191 C 
BRANCH  35  36
ATOM     36  O   UNL     1      16.780  -6.589 -17.457  1.00  0.00    -0.394 OA
ATOM     37  H   UNL     1      15.939  -6.263 -17.041  1.00  0.00     0.210 HD
ENDBRANCH  35  36
ENDBRANCH  29  35
BRANCH  30  38
ATOM     38  O   UNL     1      15.819  -6.806 -14.590  1.00  0.00    -0.387 OA
ATOM     39  H   UNL     1      16.221  -7.602 -15.029  1.00  0.00     0.211 HD
ENDBRANCH  30  38
ENDBRANCH   1  25
TORSDOF 11
ENDMDL
