MODEL 1
REMARK VINA RESULT:    -1.895      0.000      0.000
REMARK INTER + INTRA:          -5.286
REMARK INTER:                  -3.556
REMARK INTRA:                  -1.730
REMARK UNBOUND:                -1.730
REMARK SMILES CCCCCCCCC=CCCCCCCCC(=O)[O-]
REMARK SMILES IDX 10 1 9 2 11 3 12 4 13 5 14 6 15 7 16 8 17 9 18 10 19 11
REMARK SMILES IDX 20 12 8 13 7 14 6 15 5 16 4 17 3 18 2 19 1 20
REMARK H PARENT
REMARK Flexibility Score: inf
ROOT
ATOM      1  C   UNL     1      28.657  17.185  10.987  1.00  0.00    -0.031 C 
ATOM      2  C   UNL     1      28.146  15.947  11.078  1.00  0.00    -0.031 C 
ENDROOT
BRANCH   1   3
ATOM      3  C   UNL     1      27.774  18.401  11.014  1.00  0.00     0.027 C 
BRANCH   3   4
ATOM      4  C   UNL     1      27.443  18.819  12.456  1.00  0.00     0.004 C 
BRANCH   4   5
ATOM      5  C   UNL     1      28.156  20.114  12.880  1.00  0.00     0.000 C 
BRANCH   5   6
ATOM      6  C   UNL     1      29.253  19.939  13.949  1.00  0.00     0.000 C 
BRANCH   6   7
ATOM      7  C   UNL     1      29.775  18.493  14.080  1.00  0.00     0.000 C 
BRANCH   7   8
ATOM      8  C   UNL     1      30.428  18.226  15.446  1.00  0.00     0.006 C 
BRANCH   8   9
ATOM      9  C   UNL     1      31.101  19.494  15.991  1.00  0.00     0.053 C 
BRANCH   9  10
ATOM     10  C   UNL     1      30.714  19.760  17.414  1.00  0.00     0.041 C 
ATOM     11  O   UNL     1      31.100  20.815  17.997  1.00  0.00    -0.550 OA
ATOM     12  O   UNL     1      29.996  18.802  18.124  1.00  0.00    -0.550 OA
ENDBRANCH   9  10
ENDBRANCH   8   9
ENDBRANCH   7   8
ENDBRANCH   6   7
ENDBRANCH   5   6
ENDBRANCH   4   5
ENDBRANCH   3   4
ENDBRANCH   1   3
BRANCH   2  13
ATOM     13  C   UNL     1      29.018  14.724  10.999  1.00  0.00     0.027 C 
BRANCH  13  14
ATOM     14  C   UNL     1      28.951  13.909  12.300  1.00  0.00     0.004 C 
BRANCH  14  15
ATOM     15  C   UNL     1      28.989  14.794  13.556  1.00  0.00     0.000 C 
BRANCH  15  16
ATOM     16  C   UNL     1      27.644  14.833  14.299  1.00  0.00     0.000 C 
BRANCH  16  17
ATOM     17  C   UNL     1      27.238  16.279  14.623  1.00  0.00    -0.000 C 
BRANCH  17  18
ATOM     18  C   UNL     1      25.742  16.550  14.373  1.00  0.00    -0.000 C 
BRANCH  18  19
ATOM     19  C   UNL     1      24.859  15.288  14.302  1.00  0.00    -0.003 C 
ATOM     20  C   UNL     1      23.802  15.356  13.198  1.00  0.00     0.004 C 
ENDBRANCH  18  19
ENDBRANCH  17  18
ENDBRANCH  16  17
ENDBRANCH  15  16
ENDBRANCH  14  15
ENDBRANCH  13  14
ENDBRANCH   2  13
TORSDOF 15
ENDMDL
MODEL 2
REMARK VINA RESULT:    -1.890      2.478      5.956
REMARK INTER + INTRA:          -5.276
REMARK INTER:                  -4.073
REMARK INTRA:                  -1.203
REMARK UNBOUND:                -1.730
REMARK SMILES CCCCCCCCC=CCCCCCCCC(=O)[O-]
REMARK SMILES IDX 10 1 9 2 11 3 12 4 13 5 14 6 15 7 16 8 17 9 18 10 19 11
REMARK SMILES IDX 20 12 8 13 7 14 6 15 5 16 4 17 3 18 2 19 1 20
REMARK H PARENT
REMARK Flexibility Score: inf
ROOT
ATOM      1  C   UNL     1      28.479  16.762  10.850  1.00  0.00    -0.031 C 
ATOM      2  C   UNL     1      27.627  17.620  11.433  1.00  0.00    -0.031 C 
ENDROOT
BRANCH   1   3
ATOM      3  C   UNL     1      28.238  15.278  10.878  1.00  0.00     0.027 C 
BRANCH   3   4
ATOM      4  C   UNL     1      29.416  14.534  11.528  1.00  0.00     0.004 C 
BRANCH   4   5
ATOM      5  C   UNL     1      28.961  13.471  12.543  1.00  0.00     0.000 C 
BRANCH   5   6
ATOM      6  C   UNL     1      28.577  14.014  13.934  1.00  0.00     0.000 C 
BRANCH   6   7
ATOM      7  C   UNL     1      28.726  15.544  14.072  1.00  0.00     0.000 C 
BRANCH   7   8
ATOM      8  C   UNL     1      27.379  16.247  14.306  1.00  0.00     0.006 C 
BRANCH   8   9
ATOM      9  C   UNL     1      26.211  15.265  14.140  1.00  0.00     0.053 C 
BRANCH   9  10
ATOM     10  C   UNL     1      24.885  15.952  14.269  1.00  0.00     0.041 C 
ATOM     11  O   UNL     1      24.663  16.741  15.234  1.00  0.00    -0.550 OA
ATOM     12  O   UNL     1      23.865  15.658  13.369  1.00  0.00    -0.550 OA
ENDBRANCH   9  10
ENDBRANCH   8   9
ENDBRANCH   7   8
ENDBRANCH   6   7
ENDBRANCH   5   6
ENDBRANCH   4   5
ENDBRANCH   3   4
ENDBRANCH   1   3
BRANCH   2  13
ATOM     13  C   UNL     1      27.886  19.101  11.454  1.00  0.00     0.027 C 
BRANCH  13  14
ATOM     14  C   UNL     1      27.589  19.698  12.838  1.00  0.00     0.004 C 
BRANCH  14  15
ATOM     15  C   UNL     1      28.864  20.083  13.605  1.00  0.00     0.000 C 
BRANCH  15  16
ATOM     16  C   UNL     1      29.435  18.920  14.433  1.00  0.00     0.000 C 
BRANCH  16  17
ATOM     17  C   UNL     1      30.969  18.986  14.489  1.00  0.00    -0.000 C 
BRANCH  17  18
ATOM     18  C   UNL     1      31.491  19.681  15.761  1.00  0.00    -0.000 C 
BRANCH  18  19
ATOM     19  C   UNL     1      30.654  19.421  17.030  1.00  0.00    -0.003 C 
ATOM     20  C   UNL     1      30.884  20.465  18.124  1.00  0.00     0.004 C 
ENDBRANCH  18  19
ENDBRANCH  17  18
ENDBRANCH  16  17
ENDBRANCH  15  16
ENDBRANCH  14  15
ENDBRANCH  13  14
ENDBRANCH   2  13
TORSDOF 15
ENDMDL
MODEL 3
REMARK VINA RESULT:    -1.888     15.548     18.059
REMARK INTER + INTRA:          -5.274
REMARK INTER:                  -4.074
REMARK INTRA:                  -1.200
REMARK UNBOUND:                -1.730
REMARK SMILES CCCCCCCCC=CCCCCCCCC(=O)[O-]
REMARK SMILES IDX 10 1 9 2 11 3 12 4 13 5 14 6 15 7 16 8 17 9 18 10 19 11
REMARK SMILES IDX 20 12 8 13 7 14 6 15 5 16 4 17 3 18 2 19 1 20
REMARK H PARENT
REMARK Flexibility Score: inf
ROOT
ATOM      1  C   UNL     1      31.353   8.460  -1.300  1.00  0.00    -0.031 C 
ATOM      2  C   UNL     1      32.663   8.743  -1.374  1.00  0.00    -0.031 C 
ENDROOT
BRANCH   1   3
ATOM      3  C   UNL     1      30.747   7.340  -2.099  1.00  0.00     0.027 C 
BRANCH   3   4
ATOM      4  C   UNL     1      30.461   6.115  -1.217  1.00  0.00     0.004 C 
BRANCH   4   5
ATOM      5  C   UNL     1      28.959   5.903  -0.960  1.00  0.00     0.000 C 
BRANCH   5   6
ATOM      6  C   UNL     1      28.032   6.306  -2.125  1.00  0.00     0.000 C 
BRANCH   6   7
ATOM      7  C   UNL     1      26.999   7.392  -1.757  1.00  0.00     0.000 C 
BRANCH   7   8
ATOM      8  C   UNL     1      27.662   8.717  -1.344  1.00  0.00     0.006 C 
BRANCH   8   9
ATOM      9  C   UNL     1      27.145   9.187   0.023  1.00  0.00     0.053 C 
BRANCH   9  10
ATOM     10  C   UNL     1      28.230   9.187   1.057  1.00  0.00     0.041 C 
ATOM     11  O   UNL     1      28.015   9.656   2.213  1.00  0.00    -0.550 OA
ATOM     12  O   UNL     1      29.506   8.745   0.718  1.00  0.00    -0.550 OA
ENDBRANCH   9  10
ENDBRANCH   8   9
ENDBRANCH   7   8
ENDBRANCH   6   7
ENDBRANCH   5   6
ENDBRANCH   4   5
ENDBRANCH   3   4
ENDBRANCH   1   3
BRANCH   2  13
ATOM     13  C   UNL     1      33.267   9.893  -0.617  1.00  0.00     0.027 C 
BRANCH  13  14
ATOM     14  C   UNL     1      34.784   9.713  -0.449  1.00  0.00     0.004 C 
BRANCH  14  15
ATOM     15  C   UNL     1      35.231   8.252  -0.625  1.00  0.00     0.000 C 
BRANCH  15  16
ATOM     16  C   UNL     1      36.002   7.714   0.590  1.00  0.00     0.000 C 
BRANCH  16  17
ATOM     17  C   UNL     1      35.438   6.359   1.043  1.00  0.00    -0.000 C 
BRANCH  17  18
ATOM     18  C   UNL     1      35.004   6.356   2.522  1.00  0.00    -0.000 C 
BRANCH  18  19
ATOM     19  C   UNL     1      33.558   5.882   2.770  1.00  0.00    -0.003 C 
ATOM     20  C   UNL     1      32.576   6.370   1.703  1.00  0.00     0.004 C 
ENDBRANCH  18  19
ENDBRANCH  17  18
ENDBRANCH  16  17
ENDBRANCH  15  16
ENDBRANCH  14  15
ENDBRANCH  13  14
ENDBRANCH   2  13
TORSDOF 15
ENDMDL
MODEL 4
REMARK VINA RESULT:    -1.618      3.427      4.972
REMARK INTER + INTRA:          -4.766
REMARK INTER:                  -3.654
REMARK INTRA:                  -1.112
REMARK UNBOUND:                -1.730
REMARK SMILES CCCCCCCCC=CCCCCCCCC(=O)[O-]
REMARK SMILES IDX 10 1 9 2 11 3 12 4 13 5 14 6 15 7 16 8 17 9 18 10 19 11
REMARK SMILES IDX 20 12 8 13 7 14 6 15 5 16 4 17 3 18 2 19 1 20
REMARK H PARENT
REMARK Flexibility Score: inf
ROOT
ATOM      1  C   UNL     1      29.801  19.297  14.065  1.00  0.00    -0.031 C 
ATOM      2  C   UNL     1      28.855  18.582  13.435  1.00  0.00    -0.031 C 
ENDROOT
BRANCH   1   3
ATOM      3  C   UNL     1      30.695  18.672  15.100  1.00  0.00     0.027 C 
BRANCH   3   4
ATOM      4  C   UNL     1      31.757  19.667  15.595  1.00  0.00     0.004 C 
BRANCH   4   5
ATOM      5  C   UNL     1      33.059  19.605  14.778  1.00  0.00     0.000 C 
BRANCH   5   6
ATOM      6  C   UNL     1      34.148  20.609  15.204  1.00  0.00     0.000 C 
BRANCH   6   7
ATOM      7  C   UNL     1      35.266  20.803  14.157  1.00  0.00     0.000 C 
BRANCH   7   8
ATOM      8  C   UNL     1      35.837  22.231  14.167  1.00  0.00     0.006 C 
BRANCH   8   9
ATOM      9  C   UNL     1      35.364  23.004  15.406  1.00  0.00     0.053 C 
BRANCH   9  10
ATOM     10  C   UNL     1      35.038  24.430  15.080  1.00  0.00     0.041 C 
ATOM     11  O   UNL     1      35.866  25.149  14.447  1.00  0.00    -0.550 OA
ATOM     12  O   UNL     1      33.851  24.989  15.546  1.00  0.00    -0.550 OA
ENDBRANCH   9  10
ENDBRANCH   8   9
ENDBRANCH   7   8
ENDBRANCH   6   7
ENDBRANCH   5   6
ENDBRANCH   4   5
ENDBRANCH   3   4
ENDBRANCH   1   3
BRANCH   2  13
ATOM     13  C   UNL     1      27.923  19.212  12.437  1.00  0.00     0.027 C 
BRANCH  13  14
ATOM     14  C   UNL     1      27.654  18.267  11.254  1.00  0.00     0.004 C 
BRANCH  14  15
ATOM     15  C   UNL     1      28.621  17.073  11.219  1.00  0.00     0.000 C 
BRANCH  15  16
ATOM     16  C   UNL     1      27.923  15.733  11.507  1.00  0.00     0.000 C 
BRANCH  16  17
ATOM     17  C   UNL     1      28.585  15.013  12.691  1.00  0.00    -0.000 C 
BRANCH  17  18
ATOM     18  C   UNL     1      27.756  15.105  13.986  1.00  0.00    -0.000 C 
BRANCH  18  19
ATOM     19  C   UNL     1      26.575  16.094  13.928  1.00  0.00    -0.003 C 
ATOM     20  C   UNL     1      25.214  15.412  14.079  1.00  0.00     0.004 C 
ENDBRANCH  18  19
ENDBRANCH  17  18
ENDBRANCH  16  17
ENDBRANCH  15  16
ENDBRANCH  14  15
ENDBRANCH  13  14
ENDBRANCH   2  13
TORSDOF 15
ENDMDL
MODEL 5
REMARK VINA RESULT:    -1.368      3.271      7.205
REMARK INTER + INTRA:          -4.297
REMARK INTER:                  -2.948
REMARK INTRA:                  -1.349
REMARK UNBOUND:                -1.730
REMARK SMILES CCCCCCCCC=CCCCCCCCC(=O)[O-]
REMARK SMILES IDX 10 1 9 2 11 3 12 4 13 5 14 6 15 7 16 8 17 9 18 10 19 11
REMARK SMILES IDX 20 12 8 13 7 14 6 15 5 16 4 17 3 18 2 19 1 20
REMARK H PARENT
REMARK Flexibility Score: inf
ROOT
ATOM      1  C   UNL     1      28.071  18.958  12.498  1.00  0.00    -0.031 C 
ATOM      2  C   UNL     1      29.066  18.539  13.295  1.00  0.00    -0.031 C 
ENDROOT
BRANCH   1   3
ATOM      3  C   UNL     1      27.545  18.096  11.383  1.00  0.00     0.027 C 
BRANCH   3   4
ATOM      4  C   UNL     1      28.587  17.055  10.944  1.00  0.00     0.004 C 
BRANCH   4   5
ATOM      5  C   UNL     1      28.092  15.608  11.116  1.00  0.00     0.000 C 
BRANCH   5   6
ATOM      6  C   UNL     1      28.943  14.732  12.057  1.00  0.00     0.000 C 
BRANCH   6   7
ATOM      7  C   UNL     1      28.744  15.045  13.555  1.00  0.00     0.000 C 
BRANCH   7   8
ATOM      8  C   UNL     1      27.281  14.881  14.001  1.00  0.00     0.006 C 
BRANCH   8   9
ATOM      9  C   UNL     1      26.677  16.232  14.409  1.00  0.00     0.053 C 
BRANCH   9  10
ATOM     10  C   UNL     1      25.190  16.148  14.571  1.00  0.00     0.041 C 
ATOM     11  O   UNL     1      24.488  15.509  13.733  1.00  0.00    -0.550 OA
ATOM     12  O   UNL     1      24.568  16.846  15.603  1.00  0.00    -0.550 OA
ENDBRANCH   9  10
ENDBRANCH   8   9
ENDBRANCH   7   8
ENDBRANCH   6   7
ENDBRANCH   5   6
ENDBRANCH   4   5
ENDBRANCH   3   4
ENDBRANCH   1   3
BRANCH   2  13
ATOM     13  C   UNL     1      29.632  19.415  14.379  1.00  0.00     0.027 C 
BRANCH  13  14
ATOM     14  C   UNL     1      30.800  18.724  15.100  1.00  0.00     0.004 C 
BRANCH  14  15
ATOM     15  C   UNL     1      31.885  19.713  15.553  1.00  0.00     0.000 C 
BRANCH  15  16
ATOM     16  C   UNL     1      33.186  19.583  14.744  1.00  0.00     0.000 C 
BRANCH  16  17
ATOM     17  C   UNL     1      34.210  20.643  15.177  1.00  0.00    -0.000 C 
BRANCH  17  18
ATOM     18  C   UNL     1      35.328  20.854  14.138  1.00  0.00    -0.000 C 
BRANCH  18  19
ATOM     19  C   UNL     1      36.037  22.220  14.220  1.00  0.00    -0.003 C 
ATOM     20  C   UNL     1      35.339  23.203  15.162  1.00  0.00     0.004 C 
ENDBRANCH  18  19
ENDBRANCH  17  18
ENDBRANCH  16  17
ENDBRANCH  15  16
ENDBRANCH  14  15
ENDBRANCH  13  14
ENDBRANCH   2  13
TORSDOF 15
ENDMDL
MODEL 6
REMARK VINA RESULT:    -1.352      3.927      5.933
REMARK INTER + INTRA:          -4.266
REMARK INTER:                  -3.230
REMARK INTRA:                  -1.036
REMARK UNBOUND:                -1.730
REMARK SMILES CCCCCCCCC=CCCCCCCCC(=O)[O-]
REMARK SMILES IDX 10 1 9 2 11 3 12 4 13 5 14 6 15 7 16 8 17 9 18 10 19 11
REMARK SMILES IDX 20 12 8 13 7 14 6 15 5 16 4 17 3 18 2 19 1 20
REMARK H PARENT
REMARK Flexibility Score: inf
ROOT
ATOM      1  C   UNL     1      32.062  19.087  14.810  1.00  0.00    -0.031 C 
ATOM      2  C   UNL     1      30.755  19.383  14.882  1.00  0.00    -0.031 C 
ENDROOT
BRANCH   1   3
ATOM      3  C   UNL     1      33.109  20.029  15.337  1.00  0.00     0.027 C 
BRANCH   3   4
ATOM      4  C   UNL     1      34.274  20.179  14.347  1.00  0.00     0.004 C 
BRANCH   4   5
ATOM      5  C   UNL     1      35.396  21.087  14.880  1.00  0.00     0.000 C 
BRANCH   5   6
ATOM      6  C   UNL     1      35.798  22.248  13.948  1.00  0.00     0.000 C 
BRANCH   6   7
ATOM      7  C   UNL     1      35.735  23.638  14.616  1.00  0.00     0.000 C 
BRANCH   7   8
ATOM      8  C   UNL     1      34.811  23.658  15.845  1.00  0.00     0.006 C 
BRANCH   8   9
ATOM      9  C   UNL     1      34.743  25.064  16.458  1.00  0.00     0.053 C 
BRANCH   9  10
ATOM     10  C   UNL     1      33.384  25.675  16.296  1.00  0.00     0.041 C 
ATOM     11  O   UNL     1      32.643  25.869  17.304  1.00  0.00    -0.550 OA
ATOM     12  O   UNL     1      32.901  25.955  15.020  1.00  0.00    -0.550 OA
ENDBRANCH   9  10
ENDBRANCH   8   9
ENDBRANCH   7   8
ENDBRANCH   6   7
ENDBRANCH   5   6
ENDBRANCH   4   5
ENDBRANCH   3   4
ENDBRANCH   1   3
BRANCH   2  13
ATOM     13  C   UNL     1      29.705  18.471  14.311  1.00  0.00     0.027 C 
BRANCH  13  14
ATOM     14  C   UNL     1      28.821  19.209  13.293  1.00  0.00     0.004 C 
BRANCH  14  15
ATOM     15  C   UNL     1      27.888  18.261  12.522  1.00  0.00     0.000 C 
BRANCH  15  16
ATOM     16  C   UNL     1      28.640  17.364  11.526  1.00  0.00     0.000 C 
BRANCH  16  17
ATOM     17  C   UNL     1      28.033  15.953  11.490  1.00  0.00    -0.000 C 
BRANCH  17  18
ATOM     18  C   UNL     1      28.881  14.918  12.253  1.00  0.00    -0.000 C 
BRANCH  18  19
ATOM     19  C   UNL     1      28.488  14.724  13.731  1.00  0.00    -0.003 C 
ATOM     20  C   UNL     1      27.101  15.278  14.061  1.00  0.00     0.004 C 
ENDBRANCH  18  19
ENDBRANCH  17  18
ENDBRANCH  16  17
ENDBRANCH  15  16
ENDBRANCH  14  15
ENDBRANCH  13  14
ENDBRANCH   2  13
TORSDOF 15
ENDMDL
MODEL 7
REMARK VINA RESULT:    -1.302      1.304      1.893
REMARK INTER + INTRA:          -4.174
REMARK INTER:                  -2.482
REMARK INTRA:                  -1.691
REMARK UNBOUND:                -1.730
REMARK SMILES CCCCCCCCC=CCCCCCCCC(=O)[O-]
REMARK SMILES IDX 10 1 9 2 11 3 12 4 13 5 14 6 15 7 16 8 17 9 18 10 19 11
REMARK SMILES IDX 20 12 8 13 7 14 6 15 5 16 4 17 3 18 2 19 1 20
REMARK H PARENT
REMARK Flexibility Score: inf
ROOT
ATOM      1  C   UNL     1      28.548  16.579  11.301  1.00  0.00    -0.031 C 
ATOM      2  C   UNL     1      28.450  15.254  11.112  1.00  0.00    -0.031 C 
ENDROOT
BRANCH   1   3
ATOM      3  C   UNL     1      28.048  17.556  10.273  1.00  0.00     0.027 C 
BRANCH   3   4
ATOM      4  C   UNL     1      27.584  18.867  10.928  1.00  0.00     0.004 C 
BRANCH   4   5
ATOM      5  C   UNL     1      27.570  18.793  12.464  1.00  0.00     0.000 C 
BRANCH   5   6
ATOM      6  C   UNL     1      28.125  20.038  13.185  1.00  0.00     0.000 C 
BRANCH   6   7
ATOM      7  C   UNL     1      29.507  19.821  13.837  1.00  0.00     0.000 C 
BRANCH   7   8
ATOM      8  C   UNL     1      29.751  18.352  14.221  1.00  0.00     0.006 C 
BRANCH   8   9
ATOM      9  C   UNL     1      30.155  18.230  15.697  1.00  0.00     0.053 C 
BRANCH   9  10
ATOM     10  C   UNL     1      31.022  19.373  16.131  1.00  0.00     0.041 C 
ATOM     11  O   UNL     1      32.073  19.662  15.487  1.00  0.00    -0.550 OA
ATOM     12  O   UNL     1      30.713  20.069  17.297  1.00  0.00    -0.550 OA
ENDBRANCH   9  10
ENDBRANCH   8   9
ENDBRANCH   7   8
ENDBRANCH   6   7
ENDBRANCH   5   6
ENDBRANCH   4   5
ENDBRANCH   3   4
ENDBRANCH   1   3
BRANCH   2  13
ATOM     13  C   UNL     1      28.995  14.271  12.111  1.00  0.00     0.027 C 
BRANCH  13  14
ATOM     14  C   UNL     1      29.007  14.866  13.528  1.00  0.00     0.004 C 
BRANCH  14  15
ATOM     15  C   UNL     1      27.666  14.688  14.257  1.00  0.00     0.000 C 
BRANCH  15  16
ATOM     16  C   UNL     1      26.851  15.990  14.334  1.00  0.00     0.000 C 
BRANCH  16  17
ATOM     17  C   UNL     1      25.346  15.703  14.224  1.00  0.00    -0.000 C 
BRANCH  17  18
ATOM     18  C   UNL     1      24.481  16.782  14.904  1.00  0.00    -0.000 C 
BRANCH  18  19
ATOM     19  C   UNL     1      24.600  16.832  16.440  1.00  0.00    -0.003 C 
ATOM     20  C   UNL     1      23.838  18.003  17.063  1.00  0.00     0.004 C 
ENDBRANCH  18  19
ENDBRANCH  17  18
ENDBRANCH  16  17
ENDBRANCH  15  16
ENDBRANCH  14  15
ENDBRANCH  13  14
ENDBRANCH   2  13
TORSDOF 15
ENDMDL
MODEL 8
REMARK VINA RESULT:    -1.146      4.597      8.748
REMARK INTER + INTRA:          -3.881
REMARK INTER:                  -2.987
REMARK INTRA:                  -0.894
REMARK UNBOUND:                -1.730
REMARK SMILES CCCCCCCCC=CCCCCCCCC(=O)[O-]
REMARK SMILES IDX 10 1 9 2 11 3 12 4 13 5 14 6 15 7 16 8 17 9 18 10 19 11
REMARK SMILES IDX 20 12 8 13 7 14 6 15 5 16 4 17 3 18 2 19 1 20
REMARK H PARENT
REMARK Flexibility Score: inf
ROOT
ATOM      1  C   UNL     1      31.878  19.420  15.355  1.00  0.00    -0.031 C 
ATOM      2  C   UNL     1      32.950  19.691  14.594  1.00  0.00    -0.031 C 
ENDROOT
BRANCH   1   3
ATOM      3  C   UNL     1      30.530  19.156  14.743  1.00  0.00     0.027 C 
BRANCH   3   4
ATOM      4  C   UNL     1      30.022  17.749  15.096  1.00  0.00     0.004 C 
BRANCH   4   5
ATOM      5  C   UNL     1      28.845  17.301  14.212  1.00  0.00     0.000 C 
BRANCH   5   6
ATOM      6  C   UNL     1      28.644  18.123  12.923  1.00  0.00     0.000 C 
BRANCH   6   7
ATOM      7  C   UNL     1      28.342  17.267  11.675  1.00  0.00     0.000 C 
BRANCH   7   8
ATOM      8  C   UNL     1      27.896  15.840  12.035  1.00  0.00     0.006 C 
BRANCH   8   9
ATOM      9  C   UNL     1      28.958  14.812  11.621  1.00  0.00     0.053 C 
BRANCH   9  10
ATOM     10  C   UNL     1      28.977  13.631  12.544  1.00  0.00     0.041 C 
ATOM     11  O   UNL     1      29.187  12.467  12.093  1.00  0.00    -0.550 OA
ATOM     12  O   UNL     1      28.683  13.806  13.894  1.00  0.00    -0.550 OA
ENDBRANCH   9  10
ENDBRANCH   8   9
ENDBRANCH   7   8
ENDBRANCH   6   7
ENDBRANCH   5   6
ENDBRANCH   4   5
ENDBRANCH   3   4
ENDBRANCH   1   3
BRANCH   2  13
ATOM     13  C   UNL     1      34.289  20.007  15.200  1.00  0.00     0.027 C 
BRANCH  13  14
ATOM     14  C   UNL     1      35.171  20.797  14.220  1.00  0.00     0.004 C 
BRANCH  14  15
ATOM     15  C   UNL     1      35.909  21.964  14.895  1.00  0.00     0.000 C 
BRANCH  15  16
ATOM     16  C   UNL     1      36.084  23.176  13.967  1.00  0.00     0.000 C 
BRANCH  16  17
ATOM     17  C   UNL     1      35.966  24.491  14.752  1.00  0.00    -0.000 C 
BRANCH  17  18
ATOM     18  C   UNL     1      35.181  24.333  16.069  1.00  0.00    -0.000 C 
BRANCH  18  19
ATOM     19  C   UNL     1      34.210  25.487  16.385  1.00  0.00    -0.003 C 
ATOM     20  C   UNL     1      33.238  25.784  15.242  1.00  0.00     0.004 C 
ENDBRANCH  18  19
ENDBRANCH  17  18
ENDBRANCH  16  17
ENDBRANCH  15  16
ENDBRANCH  14  15
ENDBRANCH  13  14
ENDBRANCH   2  13
TORSDOF 15
ENDMDL
MODEL 9
REMARK VINA RESULT:    -0.991      3.987      5.873
REMARK INTER + INTRA:          -3.590
REMARK INTER:                  -2.827
REMARK INTRA:                  -0.763
REMARK UNBOUND:                -1.730
REMARK SMILES CCCCCCCCC=CCCCCCCCC(=O)[O-]
REMARK SMILES IDX 10 1 9 2 11 3 12 4 13 5 14 6 15 7 16 8 17 9 18 10 19 11
REMARK SMILES IDX 20 12 8 13 7 14 6 15 5 16 4 17 3 18 2 19 1 20
REMARK H PARENT
REMARK Flexibility Score: inf
ROOT
ATOM      1  C   UNL     1      32.532  19.689  14.685  1.00  0.00    -0.031 C 
ATOM      2  C   UNL     1      31.502  19.468  15.517  1.00  0.00    -0.031 C 
ENDROOT
BRANCH   1   3
ATOM      3  C   UNL     1      33.937  19.835  15.200  1.00  0.00     0.027 C 
BRANCH   3   4
ATOM      4  C   UNL     1      34.838  20.537  14.172  1.00  0.00     0.004 C 
BRANCH   4   5
ATOM      5  C   UNL     1      35.787  21.564  14.814  1.00  0.00     0.000 C 
BRANCH   5   6
ATOM      6  C   UNL     1      35.853  22.930  14.102  1.00  0.00     0.000 C 
BRANCH   6   7
ATOM      7  C   UNL     1      35.990  24.131  15.061  1.00  0.00     0.000 C 
BRANCH   7   8
ATOM      8  C   UNL     1      34.688  24.944  15.173  1.00  0.00     0.006 C 
BRANCH   8   9
ATOM      9  C   UNL     1      34.572  25.606  16.553  1.00  0.00     0.053 C 
BRANCH   9  10
ATOM     10  C   UNL     1      33.616  24.872  17.443  1.00  0.00     0.041 C 
ATOM     11  O   UNL     1      33.933  23.752  17.940  1.00  0.00    -0.550 OA
ATOM     12  O   UNL     1      32.340  25.386  17.657  1.00  0.00    -0.550 OA
ENDBRANCH   9  10
ENDBRANCH   8   9
ENDBRANCH   7   8
ENDBRANCH   6   7
ENDBRANCH   5   6
ENDBRANCH   4   5
ENDBRANCH   3   4
ENDBRANCH   1   3
BRANCH   2  13
ATOM     13  C   UNL     1      30.087  19.372  15.016  1.00  0.00     0.027 C 
BRANCH  13  14
ATOM     14  C   UNL     1      29.839  18.034  14.302  1.00  0.00     0.004 C 
BRANCH  14  15
ATOM     15  C   UNL     1      28.823  18.154  13.155  1.00  0.00     0.000 C 
BRANCH  15  16
ATOM     16  C   UNL     1      28.456  16.795  12.539  1.00  0.00     0.000 C 
BRANCH  16  17
ATOM     17  C   UNL     1      28.635  15.662  13.561  1.00  0.00    -0.000 C 
BRANCH  17  18
ATOM     18  C   UNL     1      27.296  15.152  14.129  1.00  0.00    -0.000 C 
BRANCH  18  19
ATOM     19  C   UNL     1      26.181  16.214  14.207  1.00  0.00    -0.003 C 
ATOM     20  C   UNL     1      24.779  15.625  14.037  1.00  0.00     0.004 C 
ENDBRANCH  18  19
ENDBRANCH  17  18
ENDBRANCH  16  17
ENDBRANCH  15  16
ENDBRANCH  14  15
ENDBRANCH  13  14
ENDBRANCH   2  13
TORSDOF 15
ENDMDL
