MODEL 1
REMARK VINA RESULT:    -3.941      0.000      0.000
REMARK INTER + INTRA:          -9.608
REMARK INTER:                  -7.396
REMARK INTRA:                  -2.211
REMARK UNBOUND:                -2.211
REMARK SMILES CCCCCCCCC=CCCCCCCCC(=O)[O-]
REMARK SMILES IDX 10 1 9 2 11 3 12 4 13 5 14 6 15 7 16 8 17 9 18 10 19 11
REMARK SMILES IDX 20 12 8 13 7 14 6 15 5 16 4 17 3 18 2 19 1 20
REMARK H PARENT
REMARK Flexibility Score: inf
ROOT
ATOM      1  C   UNL     1      10.624  29.625   9.234  1.00  0.00    -0.031 C 
ATOM      2  C   UNL     1      11.531  28.863   8.604  1.00  0.00    -0.031 C 
ENDROOT
BRANCH   1   3
ATOM      3  C   UNL     1       9.372  30.094   8.542  1.00  0.00     0.027 C 
BRANCH   3   4
ATOM      4  C   UNL     1       8.769  29.012   7.632  1.00  0.00     0.004 C 
BRANCH   4   5
ATOM      5  C   UNL     1       7.712  28.168   8.361  1.00  0.00     0.000 C 
BRANCH   5   6
ATOM      6  C   UNL     1       8.230  26.773   8.754  1.00  0.00     0.000 C 
BRANCH   6   7
ATOM      7  C   UNL     1       8.805  26.714  10.186  1.00  0.00     0.000 C 
BRANCH   7   8
ATOM      8  C   UNL     1      10.114  25.907  10.252  1.00  0.00     0.006 C 
BRANCH   8   9
ATOM      9  C   UNL     1      10.349  25.296  11.639  1.00  0.00     0.053 C 
BRANCH   9  10
ATOM     10  C   UNL     1      10.997  23.948  11.548  1.00  0.00     0.041 C 
ATOM     11  O   UNL     1      11.274  23.452  10.424  1.00  0.00    -0.550 OA
ATOM     12  O   UNL     1      11.265  23.224  12.703  1.00  0.00    -0.550 OA
ENDBRANCH   9  10
ENDBRANCH   8   9
ENDBRANCH   7   8
ENDBRANCH   6   7
ENDBRANCH   5   6
ENDBRANCH   4   5
ENDBRANCH   3   4
ENDBRANCH   1   3
BRANCH   2  13
ATOM     13  C   UNL     1      12.770  28.367   9.301  1.00  0.00     0.027 C 
BRANCH  13  14
ATOM     14  C   UNL     1      13.237  29.348  10.383  1.00  0.00     0.004 C 
BRANCH  14  15
ATOM     15  C   UNL     1      14.109  30.476   9.803  1.00  0.00     0.000 C 
BRANCH  15  16
ATOM     16  C   UNL     1      13.565  31.874  10.138  1.00  0.00     0.000 C 
BRANCH  16  17
ATOM     17  C   UNL     1      13.071  31.985  11.592  1.00  0.00    -0.000 C 
BRANCH  17  18
ATOM     18  C   UNL     1      11.604  32.429  11.685  1.00  0.00    -0.000 C 
BRANCH  18  19
ATOM     19  C   UNL     1      10.868  31.790  12.872  1.00  0.00    -0.003 C 
ATOM     20  C   UNL     1      11.637  30.586  13.410  1.00  0.00     0.004 C 
ENDBRANCH  18  19
ENDBRANCH  17  18
ENDBRANCH  16  17
ENDBRANCH  15  16
ENDBRANCH  14  15
ENDBRANCH  13  14
ENDBRANCH   2  13
TORSDOF 15
ENDMDL
MODEL 2
REMARK VINA RESULT:    -3.913      9.122     11.461
REMARK INTER + INTRA:          -9.555
REMARK INTER:                  -7.233
REMARK INTRA:                  -2.322
REMARK UNBOUND:                -2.211
REMARK SMILES CCCCCCCCC=CCCCCCCCC(=O)[O-]
REMARK SMILES IDX 10 1 9 2 11 3 12 4 13 5 14 6 15 7 16 8 17 9 18 10 19 11
REMARK SMILES IDX 20 12 8 13 7 14 6 15 5 16 4 17 3 18 2 19 1 20
REMARK H PARENT
REMARK Flexibility Score: inf
ROOT
ATOM      1  C   UNL     1       5.079  31.054  16.701  1.00  0.00    -0.031 C 
ATOM      2  C   UNL     1       4.252  30.007  16.557  1.00  0.00    -0.031 C 
ENDROOT
BRANCH   1   3
ATOM      3  C   UNL     1       4.901  32.051  17.814  1.00  0.00     0.027 C 
BRANCH   3   4
ATOM      4  C   UNL     1       6.185  32.245  18.635  1.00  0.00     0.004 C 
BRANCH   4   5
ATOM      5  C   UNL     1       5.930  32.124  20.145  1.00  0.00     0.000 C 
BRANCH   5   6
ATOM      6  C   UNL     1       5.265  30.791  20.534  1.00  0.00     0.000 C 
BRANCH   6   7
ATOM      7  C   UNL     1       6.083  29.553  20.109  1.00  0.00     0.000 C 
BRANCH   7   8
ATOM      8  C   UNL     1       5.180  28.363  19.736  1.00  0.00     0.006 C 
BRANCH   8   9
ATOM      9  C   UNL     1       5.986  27.165  19.218  1.00  0.00     0.053 C 
BRANCH   9  10
ATOM     10  C   UNL     1       6.112  26.092  20.256  1.00  0.00     0.041 C 
ATOM     11  O   UNL     1       5.973  26.371  21.476  1.00  0.00    -0.550 OA
ATOM     12  O   UNL     1       6.415  24.789  19.879  1.00  0.00    -0.550 OA
ENDBRANCH   9  10
ENDBRANCH   8   9
ENDBRANCH   7   8
ENDBRANCH   6   7
ENDBRANCH   5   6
ENDBRANCH   4   5
ENDBRANCH   3   4
ENDBRANCH   1   3
BRANCH   2  13
ATOM     13  C   UNL     1       4.444  28.991  15.463  1.00  0.00     0.027 C 
BRANCH  13  14
ATOM     14  C   UNL     1       3.316  29.059  14.427  1.00  0.00     0.004 C 
BRANCH  14  15
ATOM     15  C   UNL     1       2.374  27.847  14.517  1.00  0.00     0.000 C 
BRANCH  15  16
ATOM     16  C   UNL     1       1.592  27.803  15.840  1.00  0.00     0.000 C 
BRANCH  16  17
ATOM     17  C   UNL     1       0.616  28.984  15.991  1.00  0.00    -0.000 C 
BRANCH  17  18
ATOM     18  C   UNL     1       0.353  29.349  17.460  1.00  0.00    -0.000 C 
BRANCH  18  19
ATOM     19  C   UNL     1       1.453  28.836  18.401  1.00  0.00    -0.003 C 
ATOM     20  C   UNL     1       1.787  29.872  19.472  1.00  0.00     0.004 C 
ENDBRANCH  18  19
ENDBRANCH  17  18
ENDBRANCH  16  17
ENDBRANCH  15  16
ENDBRANCH  14  15
ENDBRANCH  13  14
ENDBRANCH   2  13
TORSDOF 15
ENDMDL
MODEL 3
REMARK VINA RESULT:    -3.899      1.476      3.173
REMARK INTER + INTRA:          -9.529
REMARK INTER:                  -6.590
REMARK INTRA:                  -2.939
REMARK UNBOUND:                -2.211
REMARK SMILES CCCCCCCCC=CCCCCCCCC(=O)[O-]
REMARK SMILES IDX 10 1 9 2 11 3 12 4 13 5 14 6 15 7 16 8 17 9 18 10 19 11
REMARK SMILES IDX 20 12 8 13 7 14 6 15 5 16 4 17 3 18 2 19 1 20
REMARK H PARENT
REMARK Flexibility Score: inf
ROOT
ATOM      1  C   UNL     1      12.467  28.703  10.452  1.00  0.00    -0.031 C 
ATOM      2  C   UNL     1      11.408  29.344  10.968  1.00  0.00    -0.031 C 
ENDROOT
BRANCH   1   3
ATOM      3  C   UNL     1      12.523  28.320   8.997  1.00  0.00     0.027 C 
BRANCH   3   4
ATOM      4  C   UNL     1      11.885  29.383   8.089  1.00  0.00     0.004 C 
BRANCH   4   5
ATOM      5  C   UNL     1      10.743  28.806   7.238  1.00  0.00     0.000 C 
BRANCH   5   6
ATOM      6  C   UNL     1      10.361  27.372   7.645  1.00  0.00     0.000 C 
BRANCH   6   7
ATOM      7  C   UNL     1       8.912  27.248   8.164  1.00  0.00     0.000 C 
BRANCH   7   8
ATOM      8  C   UNL     1       8.860  26.778   9.629  1.00  0.00     0.006 C 
BRANCH   8   9
ATOM      9  C   UNL     1      10.021  25.840   9.979  1.00  0.00     0.053 C 
BRANCH   9  10
ATOM     10  C   UNL     1      10.180  25.685  11.461  1.00  0.00     0.041 C 
ATOM     11  O   UNL     1       9.732  26.565  12.243  1.00  0.00    -0.550 OA
ATOM     12  O   UNL     1      10.851  24.584  11.978  1.00  0.00    -0.550 OA
ENDBRANCH   9  10
ENDBRANCH   8   9
ENDBRANCH   7   8
ENDBRANCH   6   7
ENDBRANCH   5   6
ENDBRANCH   4   5
ENDBRANCH   3   4
ENDBRANCH   1   3
BRANCH   2  13
ATOM     13  C   UNL     1      11.359  29.755  12.416  1.00  0.00     0.027 C 
BRANCH  13  14
ATOM     14  C   UNL     1      12.410  30.826  12.732  1.00  0.00     0.004 C 
BRANCH  14  15
ATOM     15  C   UNL     1      12.060  32.184  12.100  1.00  0.00     0.000 C 
BRANCH  15  16
ATOM     16  C   UNL     1      13.166  32.704  11.168  1.00  0.00     0.000 C 
BRANCH  16  17
ATOM     17  C   UNL     1      12.796  32.576   9.679  1.00  0.00    -0.000 C 
BRANCH  17  18
ATOM     18  C   UNL     1      14.015  32.289   8.790  1.00  0.00    -0.000 C 
BRANCH  18  19
ATOM     19  C   UNL     1      15.231  31.804   9.594  1.00  0.00    -0.003 C 
ATOM     20  C   UNL     1      15.596  30.368   9.226  1.00  0.00     0.004 C 
ENDBRANCH  18  19
ENDBRANCH  17  18
ENDBRANCH  16  17
ENDBRANCH  15  16
ENDBRANCH  14  15
ENDBRANCH  13  14
ENDBRANCH   2  13
TORSDOF 15
ENDMDL
MODEL 4
REMARK VINA RESULT:    -3.872      2.873      4.807
REMARK INTER + INTRA:          -9.478
REMARK INTER:                  -6.716
REMARK INTRA:                  -2.762
REMARK UNBOUND:                -2.211
REMARK SMILES CCCCCCCCC=CCCCCCCCC(=O)[O-]
REMARK SMILES IDX 10 1 9 2 11 3 12 4 13 5 14 6 15 7 16 8 17 9 18 10 19 11
REMARK SMILES IDX 20 12 8 13 7 14 6 15 5 16 4 17 3 18 2 19 1 20
REMARK H PARENT
REMARK Flexibility Score: inf
ROOT
ATOM      1  C   UNL     1       9.822  27.670  11.880  1.00  0.00    -0.031 C 
ATOM      2  C   UNL     1       9.003  28.335  12.708  1.00  0.00    -0.031 C 
ENDROOT
BRANCH   1   3
ATOM      3  C   UNL     1       9.408  26.372  11.239  1.00  0.00     0.027 C 
BRANCH   3   4
ATOM      4  C   UNL     1      10.508  25.790  10.337  1.00  0.00     0.004 C 
BRANCH   4   5
ATOM      5  C   UNL     1      10.245  26.073   8.849  1.00  0.00     0.000 C 
BRANCH   5   6
ATOM      6  C   UNL     1       8.780  26.447   8.562  1.00  0.00     0.000 C 
BRANCH   6   7
ATOM      7  C   UNL     1       8.620  27.832   7.900  1.00  0.00     0.000 C 
BRANCH   7   8
ATOM      8  C   UNL     1       8.057  28.880   8.877  1.00  0.00     0.006 C 
BRANCH   8   9
ATOM      9  C   UNL     1       6.537  29.040   8.742  1.00  0.00     0.053 C 
BRANCH   9  10
ATOM     10  C   UNL     1       5.825  28.641   9.999  1.00  0.00     0.041 C 
ATOM     11  O   UNL     1       6.220  27.648  10.665  1.00  0.00    -0.550 OA
ATOM     12  O   UNL     1       4.704  29.347  10.418  1.00  0.00    -0.550 OA
ENDBRANCH   9  10
ENDBRANCH   8   9
ENDBRANCH   7   8
ENDBRANCH   6   7
ENDBRANCH   5   6
ENDBRANCH   4   5
ENDBRANCH   3   4
ENDBRANCH   1   3
BRANCH   2  13
ATOM     13  C   UNL     1       9.400  29.648  13.328  1.00  0.00     0.027 C 
BRANCH  13  14
ATOM     14  C   UNL     1       9.622  30.729  12.264  1.00  0.00     0.004 C 
BRANCH  14  15
ATOM     15  C   UNL     1      11.029  31.346  12.351  1.00  0.00     0.000 C 
BRANCH  15  16
ATOM     16  C   UNL     1      11.961  30.562  13.288  1.00  0.00     0.000 C 
BRANCH  16  17
ATOM     17  C   UNL     1      13.077  29.822  12.531  1.00  0.00    -0.000 C 
BRANCH  17  18
ATOM     18  C   UNL     1      13.045  30.091  11.019  1.00  0.00    -0.000 C 
BRANCH  18  19
ATOM     19  C   UNL     1      12.784  28.818  10.199  1.00  0.00    -0.003 C 
ATOM     20  C   UNL     1      12.228  29.159   8.818  1.00  0.00     0.004 C 
ENDBRANCH  18  19
ENDBRANCH  17  18
ENDBRANCH  16  17
ENDBRANCH  15  16
ENDBRANCH  14  15
ENDBRANCH  13  14
ENDBRANCH   2  13
TORSDOF 15
ENDMDL
MODEL 5
REMARK VINA RESULT:    -3.861      1.730      3.709
REMARK INTER + INTRA:          -9.458
REMARK INTER:                  -6.835
REMARK INTRA:                  -2.623
REMARK UNBOUND:                -2.211
REMARK SMILES CCCCCCCCC=CCCCCCCCC(=O)[O-]
REMARK SMILES IDX 10 1 9 2 11 3 12 4 13 5 14 6 15 7 16 8 17 9 18 10 19 11
REMARK SMILES IDX 20 12 8 13 7 14 6 15 5 16 4 17 3 18 2 19 1 20
REMARK H PARENT
REMARK Flexibility Score: inf
ROOT
ATOM      1  C   UNL     1       7.383  28.546   8.992  1.00  0.00    -0.031 C 
ATOM      2  C   UNL     1       7.233  27.602   9.934  1.00  0.00    -0.031 C 
ENDROOT
BRANCH   1   3
ATOM      3  C   UNL     1       8.303  28.346   7.817  1.00  0.00     0.027 C 
BRANCH   3   4
ATOM      4  C   UNL     1       9.689  28.967   8.050  1.00  0.00     0.004 C 
BRANCH   4   5
ATOM      5  C   UNL     1      10.812  27.921   7.967  1.00  0.00     0.000 C 
BRANCH   5   6
ATOM      6  C   UNL     1      11.789  27.998   9.153  1.00  0.00     0.000 C 
BRANCH   6   7
ATOM      7  C   UNL     1      11.213  27.413  10.461  1.00  0.00     0.000 C 
BRANCH   7   8
ATOM      8  C   UNL     1      10.517  26.059  10.232  1.00  0.00     0.006 C 
BRANCH   8   9
ATOM      9  C   UNL     1      10.295  25.293  11.542  1.00  0.00     0.053 C 
BRANCH   9  10
ATOM     10  C   UNL     1      10.960  23.951  11.518  1.00  0.00     0.041 C 
ATOM     11  O   UNL     1      11.278  23.420  10.421  1.00  0.00    -0.550 OA
ATOM     12  O   UNL     1      11.200  23.270  12.705  1.00  0.00    -0.550 OA
ENDBRANCH   9  10
ENDBRANCH   8   9
ENDBRANCH   7   8
ENDBRANCH   6   7
ENDBRANCH   5   6
ENDBRANCH   4   5
ENDBRANCH   3   4
ENDBRANCH   1   3
BRANCH   2  13
ATOM     13  C   UNL     1       6.292  27.785  11.094  1.00  0.00     0.027 C 
BRANCH  13  14
ATOM     14  C   UNL     1       6.876  28.731  12.150  1.00  0.00     0.004 C 
BRANCH  14  15
ATOM     15  C   UNL     1       8.289  28.309  12.586  1.00  0.00     0.000 C 
BRANCH  15  16
ATOM     16  C   UNL     1       9.055  29.445  13.284  1.00  0.00     0.000 C 
BRANCH  16  17
ATOM     17  C   UNL     1       9.135  30.721  12.426  1.00  0.00    -0.000 C 
BRANCH  17  18
ATOM     18  C   UNL     1      10.242  30.650  11.363  1.00  0.00    -0.000 C 
BRANCH  18  19
ATOM     19  C   UNL     1      11.637  30.924  11.945  1.00  0.00    -0.003 C 
ATOM     20  C   UNL     1      12.514  31.666  10.940  1.00  0.00     0.004 C 
ENDBRANCH  18  19
ENDBRANCH  17  18
ENDBRANCH  16  17
ENDBRANCH  15  16
ENDBRANCH  14  15
ENDBRANCH  13  14
ENDBRANCH   2  13
TORSDOF 15
ENDMDL
MODEL 6
REMARK VINA RESULT:    -3.844      8.632     10.868
REMARK INTER + INTRA:          -9.426
REMARK INTER:                  -6.607
REMARK INTRA:                  -2.819
REMARK UNBOUND:                -2.211
REMARK SMILES CCCCCCCCC=CCCCCCCCC(=O)[O-]
REMARK SMILES IDX 10 1 9 2 11 3 12 4 13 5 14 6 15 7 16 8 17 9 18 10 19 11
REMARK SMILES IDX 20 12 8 13 7 14 6 15 5 16 4 17 3 18 2 19 1 20
REMARK H PARENT
REMARK Flexibility Score: inf
ROOT
ATOM      1  C   UNL     1       6.666  31.921  18.738  1.00  0.00    -0.031 C 
ATOM      2  C   UNL     1       7.250  31.092  17.860  1.00  0.00    -0.031 C 
ENDROOT
BRANCH   1   3
ATOM      3  C   UNL     1       6.467  31.530  20.178  1.00  0.00     0.027 C 
BRANCH   3   4
ATOM      4  C   UNL     1       4.996  31.626  20.612  1.00  0.00     0.004 C 
BRANCH   4   5
ATOM      5  C   UNL     1       4.042  31.680  19.408  1.00  0.00     0.000 C 
BRANCH   5   6
ATOM      6  C   UNL     1       3.302  30.351  19.173  1.00  0.00     0.000 C 
BRANCH   6   7
ATOM      7  C   UNL     1       3.961  29.149  19.883  1.00  0.00     0.000 C 
BRANCH   7   8
ATOM      8  C   UNL     1       4.677  28.213  18.894  1.00  0.00     0.006 C 
BRANCH   8   9
ATOM      9  C   UNL     1       6.060  27.784  19.399  1.00  0.00     0.053 C 
BRANCH   9  10
ATOM     10  C   UNL     1       5.984  26.542  20.233  1.00  0.00     0.041 C 
ATOM     11  O   UNL     1       6.125  25.410  19.700  1.00  0.00    -0.550 OA
ATOM     12  O   UNL     1       5.725  26.632  21.595  1.00  0.00    -0.550 OA
ENDBRANCH   9  10
ENDBRANCH   8   9
ENDBRANCH   7   8
ENDBRANCH   6   7
ENDBRANCH   5   6
ENDBRANCH   4   5
ENDBRANCH   3   4
ENDBRANCH   1   3
BRANCH   2  13
ATOM     13  C   UNL     1       7.478  31.490  16.426  1.00  0.00     0.027 C 
BRANCH  13  14
ATOM     14  C   UNL     1       6.838  30.490  15.456  1.00  0.00     0.004 C 
BRANCH  14  15
ATOM     15  C   UNL     1       5.443  30.041  15.924  1.00  0.00     0.000 C 
BRANCH  15  16
ATOM     16  C   UNL     1       4.310  30.791  15.205  1.00  0.00     0.000 C 
BRANCH  16  17
ATOM     17  C   UNL     1       2.920  30.211  15.524  1.00  0.00    -0.000 C 
BRANCH  17  18
ATOM     18  C   UNL     1       2.934  28.681  15.654  1.00  0.00    -0.000 C 
BRANCH  18  19
ATOM     19  C   UNL     1       1.683  28.137  16.361  1.00  0.00    -0.003 C 
ATOM     20  C   UNL     1       0.696  29.260  16.671  1.00  0.00     0.004 C 
ENDBRANCH  18  19
ENDBRANCH  17  18
ENDBRANCH  16  17
ENDBRANCH  15  16
ENDBRANCH  14  15
ENDBRANCH  13  14
ENDBRANCH   2  13
TORSDOF 15
ENDMDL
MODEL 7
REMARK VINA RESULT:    -3.814      1.819      2.896
REMARK INTER + INTRA:          -9.370
REMARK INTER:                  -6.693
REMARK INTRA:                  -2.677
REMARK UNBOUND:                -2.211
REMARK SMILES CCCCCCCCC=CCCCCCCCC(=O)[O-]
REMARK SMILES IDX 10 1 9 2 11 3 12 4 13 5 14 6 15 7 16 8 17 9 18 10 19 11
REMARK SMILES IDX 20 12 8 13 7 14 6 15 5 16 4 17 3 18 2 19 1 20
REMARK H PARENT
REMARK Flexibility Score: inf
ROOT
ATOM      1  C   UNL     1      12.020  29.036   9.436  1.00  0.00    -0.031 C 
ATOM      2  C   UNL     1      12.083  29.769  10.558  1.00  0.00    -0.031 C 
ENDROOT
BRANCH   1   3
ATOM      3  C   UNL     1      10.843  29.125   8.502  1.00  0.00     0.027 C 
BRANCH   3   4
ATOM      4  C   UNL     1      10.472  27.762   7.900  1.00  0.00     0.004 C 
BRANCH   4   5
ATOM      5  C   UNL     1       8.997  27.404   8.146  1.00  0.00     0.000 C 
BRANCH   5   6
ATOM      6  C   UNL     1       8.468  27.942   9.487  1.00  0.00     0.000 C 
BRANCH   6   7
ATOM      7  C   UNL     1       8.054  26.829  10.474  1.00  0.00     0.000 C 
BRANCH   7   8
ATOM      8  C   UNL     1       8.915  26.836  11.749  1.00  0.00     0.006 C 
BRANCH   8   9
ATOM      9  C   UNL     1      10.392  26.548  11.454  1.00  0.00     0.053 C 
BRANCH   9  10
ATOM     10  C   UNL     1      10.610  25.117  11.069  1.00  0.00     0.041 C 
ATOM     11  O   UNL     1      10.632  24.219  11.952  1.00  0.00    -0.550 OA
ATOM     12  O   UNL     1      10.823  24.777   9.739  1.00  0.00    -0.550 OA
ENDBRANCH   9  10
ENDBRANCH   8   9
ENDBRANCH   7   8
ENDBRANCH   6   7
ENDBRANCH   5   6
ENDBRANCH   4   5
ENDBRANCH   3   4
ENDBRANCH   1   3
BRANCH   2  13
ATOM     13  C   UNL     1      13.272  29.706  11.480  1.00  0.00     0.027 C 
BRANCH  13  14
ATOM     14  C   UNL     1      12.885  30.057  12.922  1.00  0.00     0.004 C 
BRANCH  14  15
ATOM     15  C   UNL     1      11.644  30.963  12.984  1.00  0.00     0.000 C 
BRANCH  15  16
ATOM     16  C   UNL     1      10.701  30.595  14.141  1.00  0.00     0.000 C 
BRANCH  16  17
ATOM     17  C   UNL     1       9.340  30.068  13.653  1.00  0.00    -0.000 C 
BRANCH  17  18
ATOM     18  C   UNL     1       9.061  30.424  12.185  1.00  0.00    -0.000 C 
BRANCH  18  19
ATOM     19  C   UNL     1       7.660  31.021  11.979  1.00  0.00    -0.003 C 
ATOM     20  C   UNL     1       6.666  30.448  12.986  1.00  0.00     0.004 C 
ENDBRANCH  18  19
ENDBRANCH  17  18
ENDBRANCH  16  17
ENDBRANCH  15  16
ENDBRANCH  14  15
ENDBRANCH  13  14
ENDBRANCH   2  13
TORSDOF 15
ENDMDL
MODEL 8
REMARK VINA RESULT:    -3.791      1.663      3.043
REMARK INTER + INTRA:          -9.328
REMARK INTER:                  -6.681
REMARK INTRA:                  -2.647
REMARK UNBOUND:                -2.211
REMARK SMILES CCCCCCCCC=CCCCCCCCC(=O)[O-]
REMARK SMILES IDX 10 1 9 2 11 3 12 4 13 5 14 6 15 7 16 8 17 9 18 10 19 11
REMARK SMILES IDX 20 12 8 13 7 14 6 15 5 16 4 17 3 18 2 19 1 20
REMARK H PARENT
REMARK Flexibility Score: inf
ROOT
ATOM      1  C   UNL     1       8.503  29.633  10.820  1.00  0.00    -0.031 C 
ATOM      2  C   UNL     1       9.104  30.376  11.763  1.00  0.00    -0.031 C 
ENDROOT
BRANCH   1   3
ATOM      3  C   UNL     1       7.900  30.260   9.591  1.00  0.00     0.027 C 
BRANCH   3   4
ATOM      4  C   UNL     1       7.945  29.321   8.376  1.00  0.00     0.004 C 
BRANCH   4   5
ATOM      5  C   UNL     1       7.551  27.881   8.743  1.00  0.00     0.000 C 
BRANCH   5   6
ATOM      6  C   UNL     1       8.573  26.839   8.255  1.00  0.00     0.000 C 
BRANCH   6   7
ATOM      7  C   UNL     1      10.014  27.385   8.175  1.00  0.00     0.000 C 
BRANCH   7   8
ATOM      8  C   UNL     1      10.862  26.966   9.389  1.00  0.00     0.006 C 
BRANCH   8   9
ATOM      9  C   UNL     1      10.582  25.521   9.820  1.00  0.00     0.053 C 
BRANCH   9  10
ATOM     10  C   UNL     1      10.294  25.427  11.287  1.00  0.00     0.041 C 
ATOM     11  O   UNL     1       9.583  26.300  11.851  1.00  0.00    -0.550 OA
ATOM     12  O   UNL     1      10.837  24.392  12.039  1.00  0.00    -0.550 OA
ENDBRANCH   9  10
ENDBRANCH   8   9
ENDBRANCH   7   8
ENDBRANCH   6   7
ENDBRANCH   5   6
ENDBRANCH   4   5
ENDBRANCH   3   4
ENDBRANCH   1   3
BRANCH   2  13
ATOM     13  C   UNL     1       9.735  29.751  12.979  1.00  0.00     0.027 C 
BRANCH  13  14
ATOM     14  C   UNL     1      10.511  30.785  13.803  1.00  0.00     0.004 C 
BRANCH  14  15
ATOM     15  C   UNL     1      12.022  30.496  13.819  1.00  0.00     0.000 C 
BRANCH  15  16
ATOM     16  C   UNL     1      12.714  30.899  12.507  1.00  0.00     0.000 C 
BRANCH  16  17
ATOM     17  C   UNL     1      13.070  29.687  11.628  1.00  0.00    -0.000 C 
BRANCH  17  18
ATOM     18  C   UNL     1      13.149  30.042  10.136  1.00  0.00    -0.000 C 
BRANCH  18  19
ATOM     19  C   UNL     1      12.201  31.189   9.751  1.00  0.00    -0.003 C 
ATOM     20  C   UNL     1      11.363  30.822   8.529  1.00  0.00     0.004 C 
ENDBRANCH  18  19
ENDBRANCH  17  18
ENDBRANCH  16  17
ENDBRANCH  15  16
ENDBRANCH  14  15
ENDBRANCH  13  14
ENDBRANCH   2  13
TORSDOF 15
ENDMDL
MODEL 9
REMARK VINA RESULT:    -3.704      2.767      5.718
REMARK INTER + INTRA:          -9.164
REMARK INTER:                  -6.345
REMARK INTRA:                  -2.819
REMARK UNBOUND:                -2.211
REMARK SMILES CCCCCCCCC=CCCCCCCCC(=O)[O-]
REMARK SMILES IDX 10 1 9 2 11 3 12 4 13 5 14 6 15 7 16 8 17 9 18 10 19 11
REMARK SMILES IDX 20 12 8 13 7 14 6 15 5 16 4 17 3 18 2 19 1 20
REMARK H PARENT
REMARK Flexibility Score: inf
ROOT
ATOM      1  C   UNL     1      11.693  30.507  14.076  1.00  0.00    -0.031 C 
ATOM      2  C   UNL     1      10.872  31.567  14.123  1.00  0.00    -0.031 C 
ENDROOT
BRANCH   1   3
ATOM      3  C   UNL     1      12.706  30.344  12.974  1.00  0.00     0.027 C 
BRANCH   3   4
ATOM      4  C   UNL     1      12.490  31.347  11.830  1.00  0.00     0.004 C 
BRANCH   4   5
ATOM      5  C   UNL     1      12.174  30.646  10.499  1.00  0.00     0.000 C 
BRANCH   5   6
ATOM      6  C   UNL     1      13.128  29.476  10.199  1.00  0.00     0.000 C 
BRANCH   6   7
ATOM      7  C   UNL     1      12.401  28.195   9.739  1.00  0.00     0.000 C 
BRANCH   7   8
ATOM      8  C   UNL     1      11.218  28.503   8.804  1.00  0.00     0.006 C 
BRANCH   8   9
ATOM      9  C   UNL     1      10.585  27.230   8.230  1.00  0.00     0.053 C 
BRANCH   9  10
ATOM     10  C   UNL     1       9.102  27.370   8.073  1.00  0.00     0.041 C 
ATOM     11  O   UNL     1       8.335  26.438   8.432  1.00  0.00    -0.550 OA
ATOM     12  O   UNL     1       8.567  28.518   7.501  1.00  0.00    -0.550 OA
ENDBRANCH   9  10
ENDBRANCH   8   9
ENDBRANCH   7   8
ENDBRANCH   6   7
ENDBRANCH   5   6
ENDBRANCH   4   5
ENDBRANCH   3   4
ENDBRANCH   1   3
BRANCH   2  13
ATOM     13  C   UNL     1       9.879  31.750  15.240  1.00  0.00     0.027 C 
BRANCH  13  14
ATOM     14  C   UNL     1       8.436  31.699  14.723  1.00  0.00     0.004 C 
BRANCH  14  15
ATOM     15  C   UNL     1       7.810  30.304  14.889  1.00  0.00     0.000 C 
BRANCH  15  16
ATOM     16  C   UNL     1       7.348  29.700  13.554  1.00  0.00     0.000 C 
BRANCH  16  17
ATOM     17  C   UNL     1       8.100  30.287  12.346  1.00  0.00    -0.000 C 
BRANCH  17  18
ATOM     18  C   UNL     1       8.718  29.201  11.451  1.00  0.00    -0.000 C 
BRANCH  18  19
ATOM     19  C   UNL     1       9.635  28.246  12.230  1.00  0.00    -0.003 C 
ATOM     20  C   UNL     1       9.387  26.795  11.825  1.00  0.00     0.004 C 
ENDBRANCH  18  19
ENDBRANCH  17  18
ENDBRANCH  16  17
ENDBRANCH  15  16
ENDBRANCH  14  15
ENDBRANCH  13  14
ENDBRANCH   2  13
TORSDOF 15
ENDMDL
