MODEL 1
REMARK VINA RESULT:    -4.585      0.000      0.000
REMARK INTER + INTRA:         -11.277
REMARK INTER:                  -8.874
REMARK INTRA:                  -2.403
REMARK UNBOUND:                -2.403
REMARK SMILES CCCCCCCCCCCCCCCCCC(=O)[O-]
REMARK SMILES IDX 10 1 11 2 12 3 13 4 14 5 15 6 16 7 17 8 18 9 19 10 20 11
REMARK SMILES IDX 9 12 8 13 7 14 6 15 5 16 4 17 3 18 2 19 1 20
REMARK H PARENT
REMARK Flexibility Score: inf
ROOT
ATOM      1  C   UNL     1       7.656  34.763  68.546  1.00  0.00     0.000 C 
ENDROOT
BRANCH   1   2
ATOM      2  C   UNL     1       6.434  34.859  69.479  1.00  0.00     0.000 C 
BRANCH   2   3
ATOM      3  C   UNL     1       5.242  34.019  68.989  1.00  0.00     0.000 C 
BRANCH   3   4
ATOM      4  C   UNL     1       4.287  33.631  70.129  1.00  0.00     0.000 C 
BRANCH   4   5
ATOM      5  C   UNL     1       4.443  34.531  71.367  1.00  0.00     0.000 C 
BRANCH   5   6
ATOM      6  C   UNL     1       3.425  35.682  71.392  1.00  0.00     0.000 C 
BRANCH   6   7
ATOM      7  C   UNL     1       2.168  35.378  70.566  1.00  0.00     0.006 C 
BRANCH   7   8
ATOM      8  C   UNL     1       1.827  36.547  69.636  1.00  0.00     0.053 C 
BRANCH   8   9
ATOM      9  C   UNL     1       1.386  36.041  68.299  1.00  0.00     0.041 C 
ATOM     10  O   UNL     1       0.357  36.514  67.750  1.00  0.00    -0.550 OA
ATOM     11  O   UNL     1       2.140  35.081  67.635  1.00  0.00    -0.550 OA
ENDBRANCH   8   9
ENDBRANCH   7   8
ENDBRANCH   6   7
ENDBRANCH   5   6
ENDBRANCH   4   5
ENDBRANCH   3   4
ENDBRANCH   2   3
ENDBRANCH   1   2
BRANCH   1  12
ATOM     12  C   UNL     1       7.426  33.967  67.246  1.00  0.00     0.000 C 
BRANCH  12  13
ATOM     13  C   UNL     1       8.119  32.592  67.190  1.00  0.00    -0.000 C 
BRANCH  13  14
ATOM     14  C   UNL     1       7.172  31.392  66.983  1.00  0.00    -0.000 C 
BRANCH  14  15
ATOM     15  C   UNL     1       6.837  30.602  68.260  1.00  0.00    -0.000 C 
BRANCH  15  16
ATOM     16  C   UNL     1       7.732  30.979  69.450  1.00  0.00    -0.000 C 
BRANCH  16  17
ATOM     17  C   UNL     1       6.909  31.115  70.736  1.00  0.00    -0.000 C 
BRANCH  17  18
ATOM     18  C   UNL     1       7.443  32.257  71.613  1.00  0.00    -0.000 C 
BRANCH  18  19
ATOM     19  C   UNL     1       7.749  31.805  73.050  1.00  0.00    -0.003 C 
ATOM     20  C   UNL     1       8.247  32.946  73.935  1.00  0.00     0.004 C 
ENDBRANCH  18  19
ENDBRANCH  17  18
ENDBRANCH  16  17
ENDBRANCH  15  16
ENDBRANCH  14  15
ENDBRANCH  13  14
ENDBRANCH  12  13
ENDBRANCH   1  12
TORSDOF 16
ENDMDL
MODEL 2
REMARK VINA RESULT:    -4.568      3.114      6.349
REMARK INTER + INTRA:         -11.244
REMARK INTER:                  -8.359
REMARK INTRA:                  -2.885
REMARK UNBOUND:                -2.403
REMARK SMILES CCCCCCCCCCCCCCCCCC(=O)[O-]
REMARK SMILES IDX 10 1 11 2 12 3 13 4 14 5 15 6 16 7 17 8 18 9 19 10 20 11
REMARK SMILES IDX 9 12 8 13 7 14 6 15 5 16 4 17 3 18 2 19 1 20
REMARK H PARENT
REMARK Flexibility Score: inf
ROOT
ATOM      1  C   UNL     1       2.561  36.108  70.080  1.00  0.00     0.000 C 
ENDROOT
BRANCH   1   2
ATOM      2  C   UNL     1       2.953  35.351  71.363  1.00  0.00     0.000 C 
BRANCH   2   3
ATOM      3  C   UNL     1       4.363  34.740  71.288  1.00  0.00     0.000 C 
BRANCH   3   4
ATOM      4  C   UNL     1       5.320  35.571  70.418  1.00  0.00     0.000 C 
BRANCH   4   5
ATOM      5  C   UNL     1       6.594  34.800  70.033  1.00  0.00     0.000 C 
BRANCH   5   6
ATOM      6  C   UNL     1       6.870  33.611  70.967  1.00  0.00     0.000 C 
BRANCH   6   7
ATOM      7  C   UNL     1       7.354  32.365  70.212  1.00  0.00     0.006 C 
BRANCH   7   8
ATOM      8  C   UNL     1       7.799  32.724  68.791  1.00  0.00     0.053 C 
BRANCH   8   9
ATOM      9  C   UNL     1       8.027  31.485  67.985  1.00  0.00     0.041 C 
ATOM     10  O   UNL     1       7.744  30.356  68.465  1.00  0.00    -0.550 OA
ATOM     11  O   UNL     1       8.507  31.579  66.684  1.00  0.00    -0.550 OA
ENDBRANCH   8   9
ENDBRANCH   7   8
ENDBRANCH   6   7
ENDBRANCH   5   6
ENDBRANCH   4   5
ENDBRANCH   3   4
ENDBRANCH   2   3
ENDBRANCH   1   2
BRANCH   1  12
ATOM     12  C   UNL     1       1.086  35.960  69.658  1.00  0.00     0.000 C 
BRANCH  12  13
ATOM     13  C   UNL     1       0.800  36.241  68.170  1.00  0.00    -0.000 C 
BRANCH  13  14
ATOM     14  C   UNL     1       0.739  34.990  67.270  1.00  0.00    -0.000 C 
BRANCH  14  15
ATOM     15  C   UNL     1       0.484  33.667  68.013  1.00  0.00    -0.000 C 
BRANCH  15  16
ATOM     16  C   UNL     1       1.535  32.592  67.698  1.00  0.00    -0.000 C 
BRANCH  16  17
ATOM     17  C   UNL     1       2.573  32.490  68.823  1.00  0.00    -0.000 C 
BRANCH  17  18
ATOM     18  C   UNL     1       3.996  32.681  68.278  1.00  0.00    -0.000 C 
BRANCH  18  19
ATOM     19  C   UNL     1       4.108  33.884  67.329  1.00  0.00    -0.003 C 
ATOM     20  C   UNL     1       5.431  33.914  66.566  1.00  0.00     0.004 C 
ENDBRANCH  18  19
ENDBRANCH  17  18
ENDBRANCH  16  17
ENDBRANCH  15  16
ENDBRANCH  14  15
ENDBRANCH  13  14
ENDBRANCH  12  13
ENDBRANCH   1  12
TORSDOF 16
ENDMDL
MODEL 3
REMARK VINA RESULT:    -4.521      1.597      2.912
REMARK INTER + INTRA:         -11.153
REMARK INTER:                  -8.412
REMARK INTRA:                  -2.741
REMARK UNBOUND:                -2.403
REMARK SMILES CCCCCCCCCCCCCCCCCC(=O)[O-]
REMARK SMILES IDX 10 1 11 2 12 3 13 4 14 5 15 6 16 7 17 8 18 9 19 10 20 11
REMARK SMILES IDX 9 12 8 13 7 14 6 15 5 16 4 17 3 18 2 19 1 20
REMARK H PARENT
REMARK Flexibility Score: inf
ROOT
ATOM      1  C   UNL     1       6.885  34.220  67.397  1.00  0.00     0.000 C 
ENDROOT
BRANCH   1   2
ATOM      2  C   UNL     1       5.699  33.613  66.625  1.00  0.00     0.000 C 
BRANCH   2   3
ATOM      3  C   UNL     1       4.388  33.634  67.431  1.00  0.00     0.000 C 
BRANCH   3   4
ATOM      4  C   UNL     1       3.949  32.231  67.879  1.00  0.00     0.000 C 
BRANCH   4   5
ATOM      5  C   UNL     1       2.470  32.177  68.299  1.00  0.00     0.000 C 
BRANCH   5   6
ATOM      6  C   UNL     1       2.077  33.335  69.229  1.00  0.00     0.000 C 
BRANCH   6   7
ATOM      7  C   UNL     1       0.670  33.876  68.938  1.00  0.00     0.006 C 
BRANCH   7   8
ATOM      8  C   UNL     1       0.606  34.520  67.550  1.00  0.00     0.053 C 
BRANCH   8   9
ATOM      9  C   UNL     1       1.364  35.811  67.536  1.00  0.00     0.041 C 
ATOM     10  O   UNL     1       1.884  36.228  66.469  1.00  0.00    -0.550 OA
ATOM     11  O   UNL     1       1.453  36.577  68.692  1.00  0.00    -0.550 OA
ENDBRANCH   8   9
ENDBRANCH   7   8
ENDBRANCH   6   7
ENDBRANCH   5   6
ENDBRANCH   4   5
ENDBRANCH   3   4
ENDBRANCH   2   3
ENDBRANCH   1   2
BRANCH   1  12
ATOM     12  C   UNL     1       8.118  33.304  67.529  1.00  0.00     0.000 C 
BRANCH  12  13
ATOM     13  C   UNL     1       7.811  31.795  67.563  1.00  0.00    -0.000 C 
BRANCH  13  14
ATOM     14  C   UNL     1       7.983  31.126  68.942  1.00  0.00    -0.000 C 
BRANCH  14  15
ATOM     15  C   UNL     1       6.863  31.425  69.954  1.00  0.00    -0.000 C 
BRANCH  15  16
ATOM     16  C   UNL     1       7.347  32.249  71.156  1.00  0.00    -0.000 C 
BRANCH  16  17
ATOM     17  C   UNL     1       6.961  33.725  71.002  1.00  0.00    -0.000 C 
BRANCH  17  18
ATOM     18  C   UNL     1       5.436  33.900  71.018  1.00  0.00    -0.000 C 
BRANCH  18  19
ATOM     19  C   UNL     1       4.999  35.311  70.594  1.00  0.00    -0.003 C 
ATOM     20  C   UNL     1       3.700  35.754  71.266  1.00  0.00     0.004 C 
ENDBRANCH  18  19
ENDBRANCH  17  18
ENDBRANCH  16  17
ENDBRANCH  15  16
ENDBRANCH  14  15
ENDBRANCH  13  14
ENDBRANCH  12  13
ENDBRANCH   1  12
TORSDOF 16
ENDMDL
MODEL 4
REMARK VINA RESULT:    -4.512     10.833     13.434
REMARK INTER + INTRA:         -11.136
REMARK INTER:                  -9.586
REMARK INTRA:                  -1.550
REMARK UNBOUND:                -2.403
REMARK SMILES CCCCCCCCCCCCCCCCCC(=O)[O-]
REMARK SMILES IDX 10 1 11 2 12 3 13 4 14 5 15 6 16 7 17 8 18 9 19 10 20 11
REMARK SMILES IDX 9 12 8 13 7 14 6 15 5 16 4 17 3 18 2 19 1 20
REMARK H PARENT
REMARK Flexibility Score: inf
ROOT
ATOM      1  C   UNL     1       4.270  46.369  65.267  1.00  0.00     0.000 C 
ENDROOT
BRANCH   1   2
ATOM      2  C   UNL     1       2.853  45.905  64.881  1.00  0.00     0.000 C 
BRANCH   2   3
ATOM      3  C   UNL     1       2.820  44.459  64.357  1.00  0.00     0.000 C 
BRANCH   3   4
ATOM      4  C   UNL     1       3.607  43.489  65.253  1.00  0.00     0.000 C 
BRANCH   4   5
ATOM      5  C   UNL     1       2.775  42.969  66.439  1.00  0.00     0.000 C 
BRANCH   5   6
ATOM      6  C   UNL     1       3.120  43.677  67.758  1.00  0.00     0.000 C 
BRANCH   6   7
ATOM      7  C   UNL     1       3.311  42.697  68.924  1.00  0.00     0.006 C 
BRANCH   7   8
ATOM      8  C   UNL     1       2.701  43.253  70.214  1.00  0.00     0.053 C 
BRANCH   8   9
ATOM      9  C   UNL     1       3.778  43.656  71.172  1.00  0.00     0.041 C 
ATOM     10  O   UNL     1       3.507  44.390  72.158  1.00  0.00    -0.550 OA
ATOM     11  O   UNL     1       5.072  43.179  71.003  1.00  0.00    -0.550 OA
ENDBRANCH   8   9
ENDBRANCH   7   8
ENDBRANCH   6   7
ENDBRANCH   5   6
ENDBRANCH   4   5
ENDBRANCH   3   4
ENDBRANCH   2   3
ENDBRANCH   1   2
BRANCH   1  12
ATOM     12  C   UNL     1       4.970  47.268  64.229  1.00  0.00     0.000 C 
BRANCH  12  13
ATOM     13  C   UNL     1       5.128  48.744  64.642  1.00  0.00    -0.000 C 
BRANCH  13  14
ATOM     14  C   UNL     1       5.438  48.973  66.135  1.00  0.00    -0.000 C 
BRANCH  14  15
ATOM     15  C   UNL     1       6.555  49.993  66.417  1.00  0.00    -0.000 C 
BRANCH  15  16
ATOM     16  C   UNL     1       7.725  49.394  67.212  1.00  0.00    -0.000 C 
BRANCH  16  17
ATOM     17  C   UNL     1       7.786  47.872  67.039  1.00  0.00    -0.000 C 
BRANCH  17  18
ATOM     18  C   UNL     1       8.266  47.190  68.328  1.00  0.00    -0.000 C 
BRANCH  18  19
ATOM     19  C   UNL     1       7.358  47.492  69.530  1.00  0.00    -0.003 C 
ATOM     20  C   UNL     1       5.993  46.812  69.425  1.00  0.00     0.004 C 
ENDBRANCH  18  19
ENDBRANCH  17  18
ENDBRANCH  16  17
ENDBRANCH  15  16
ENDBRANCH  14  15
ENDBRANCH  13  14
ENDBRANCH  12  13
ENDBRANCH   1  12
TORSDOF 16
ENDMDL
MODEL 5
REMARK VINA RESULT:    -4.487      2.389      4.890
REMARK INTER + INTRA:         -11.088
REMARK INTER:                  -8.737
REMARK INTRA:                  -2.350
REMARK UNBOUND:                -2.403
REMARK SMILES CCCCCCCCCCCCCCCCCC(=O)[O-]
REMARK SMILES IDX 10 1 11 2 12 3 13 4 14 5 15 6 16 7 17 8 18 9 19 10 20 11
REMARK SMILES IDX 9 12 8 13 7 14 6 15 5 16 4 17 3 18 2 19 1 20
REMARK H PARENT
REMARK Flexibility Score: inf
ROOT
ATOM      1  C   UNL     1       2.357  36.270  69.895  1.00  0.00     0.000 C 
ENDROOT
BRANCH   1   2
ATOM      2  C   UNL     1       1.677  35.597  68.688  1.00  0.00     0.000 C 
BRANCH   2   3
ATOM      3  C   UNL     1       1.411  34.098  68.913  1.00  0.00     0.000 C 
BRANCH   3   4
ATOM      4  C   UNL     1       1.379  33.302  67.598  1.00  0.00     0.000 C 
BRANCH   4   5
ATOM      5  C   UNL     1       2.385  32.138  67.584  1.00  0.00     0.000 C 
BRANCH   5   6
ATOM      6  C   UNL     1       3.720  32.503  68.254  1.00  0.00     0.000 C 
BRANCH   6   7
ATOM      7  C   UNL     1       4.684  33.219  67.297  1.00  0.00     0.006 C 
BRANCH   7   8
ATOM      8  C   UNL     1       6.028  32.488  67.224  1.00  0.00     0.053 C 
BRANCH   8   9
ATOM      9  C   UNL     1       7.158  33.468  67.218  1.00  0.00     0.041 C 
ATOM     10  O   UNL     1       6.977  34.641  66.800  1.00  0.00    -0.550 OA
ATOM     11  O   UNL     1       8.401  33.100  67.721  1.00  0.00    -0.550 OA
ENDBRANCH   8   9
ENDBRANCH   7   8
ENDBRANCH   6   7
ENDBRANCH   5   6
ENDBRANCH   4   5
ENDBRANCH   3   4
ENDBRANCH   2   3
ENDBRANCH   1   2
BRANCH   1  12
ATOM     12  C   UNL     1       2.537  35.369  71.132  1.00  0.00     0.000 C 
BRANCH  12  13
ATOM     13  C   UNL     1       3.998  35.110  71.545  1.00  0.00    -0.000 C 
BRANCH  13  14
ATOM     14  C   UNL     1       5.057  35.563  70.519  1.00  0.00    -0.000 C 
BRANCH  14  15
ATOM     15  C   UNL     1       6.302  34.663  70.429  1.00  0.00    -0.000 C 
BRANCH  15  16
ATOM     16  C   UNL     1       6.045  33.235  70.934  1.00  0.00    -0.000 C 
BRANCH  16  17
ATOM     17  C   UNL     1       7.364  32.486  71.158  1.00  0.00    -0.000 C 
BRANCH  17  18
ATOM     18  C   UNL     1       7.331  31.696  72.475  1.00  0.00    -0.000 C 
BRANCH  18  19
ATOM     19  C   UNL     1       7.302  32.610  73.710  1.00  0.00    -0.003 C 
ATOM     20  C   UNL     1       8.669  33.212  74.033  1.00  0.00     0.004 C 
ENDBRANCH  18  19
ENDBRANCH  17  18
ENDBRANCH  16  17
ENDBRANCH  15  16
ENDBRANCH  14  15
ENDBRANCH  13  14
ENDBRANCH  12  13
ENDBRANCH   1  12
TORSDOF 16
ENDMDL
MODEL 6
REMARK VINA RESULT:    -4.484      1.486      3.518
REMARK INTER + INTRA:         -11.081
REMARK INTER:                  -8.104
REMARK INTRA:                  -2.978
REMARK UNBOUND:                -2.403
REMARK SMILES CCCCCCCCCCCCCCCCCC(=O)[O-]
REMARK SMILES IDX 10 1 11 2 12 3 13 4 14 5 15 6 16 7 17 8 18 9 19 10 20 11
REMARK SMILES IDX 9 12 8 13 7 14 6 15 5 16 4 17 3 18 2 19 1 20
REMARK H PARENT
REMARK Flexibility Score: inf
ROOT
ATOM      1  C   UNL     1       6.775  31.269  70.365  1.00  0.00     0.000 C 
ENDROOT
BRANCH   1   2
ATOM      2  C   UNL     1       7.344  32.635  70.792  1.00  0.00     0.000 C 
BRANCH   2   3
ATOM      3  C   UNL     1       6.249  33.638  71.197  1.00  0.00     0.000 C 
BRANCH   3   4
ATOM      4  C   UNL     1       6.240  34.891  70.307  1.00  0.00     0.000 C 
BRANCH   4   5
ATOM      5  C   UNL     1       5.001  35.774  70.537  1.00  0.00     0.000 C 
BRANCH   5   6
ATOM      6  C   UNL     1       4.053  35.195  71.599  1.00  0.00     0.000 C 
BRANCH   6   7
ATOM      7  C   UNL     1       2.574  35.463  71.281  1.00  0.00     0.006 C 
BRANCH   7   8
ATOM      8  C   UNL     1       2.410  36.016  69.862  1.00  0.00     0.053 C 
BRANCH   8   9
ATOM      9  C   UNL     1       1.092  35.603  69.288  1.00  0.00     0.041 C 
ATOM     10  O   UNL     1       0.426  36.409  68.587  1.00  0.00    -0.550 OA
ATOM     11  O   UNL     1       0.621  34.310  69.486  1.00  0.00    -0.550 OA
ENDBRANCH   8   9
ENDBRANCH   7   8
ENDBRANCH   6   7
ENDBRANCH   5   6
ENDBRANCH   4   5
ENDBRANCH   3   4
ENDBRANCH   2   3
ENDBRANCH   1   2
BRANCH   1  12
ATOM     12  C   UNL     1       7.531  30.576  69.214  1.00  0.00     0.000 C 
BRANCH  12  13
ATOM     13  C   UNL     1       8.401  31.507  68.348  1.00  0.00    -0.000 C 
BRANCH  13  14
ATOM     14  C   UNL     1       7.666  32.176  67.169  1.00  0.00    -0.000 C 
BRANCH  14  15
ATOM     15  C   UNL     1       7.628  33.713  67.215  1.00  0.00    -0.000 C 
BRANCH  15  16
ATOM     16  C   UNL     1       6.248  34.288  66.864  1.00  0.00    -0.000 C 
BRANCH  16  17
ATOM     17  C   UNL     1       5.194  33.177  66.781  1.00  0.00    -0.000 C 
BRANCH  17  18
ATOM     18  C   UNL     1       3.939  33.548  67.584  1.00  0.00    -0.000 C 
BRANCH  18  19
ATOM     19  C   UNL     1       3.736  32.647  68.812  1.00  0.00    -0.003 C 
ATOM     20  C   UNL     1       2.684  31.563  68.582  1.00  0.00     0.004 C 
ENDBRANCH  18  19
ENDBRANCH  17  18
ENDBRANCH  16  17
ENDBRANCH  15  16
ENDBRANCH  14  15
ENDBRANCH  13  14
ENDBRANCH  12  13
ENDBRANCH   1  12
TORSDOF 16
ENDMDL
MODEL 7
REMARK VINA RESULT:    -4.463      3.276      6.054
REMARK INTER + INTRA:         -11.041
REMARK INTER:                  -8.357
REMARK INTRA:                  -2.684
REMARK UNBOUND:                -2.403
REMARK SMILES CCCCCCCCCCCCCCCCCC(=O)[O-]
REMARK SMILES IDX 10 1 11 2 12 3 13 4 14 5 15 6 16 7 17 8 18 9 19 10 20 11
REMARK SMILES IDX 9 12 8 13 7 14 6 15 5 16 4 17 3 18 2 19 1 20
REMARK H PARENT
REMARK Flexibility Score: inf
ROOT
ATOM      1  C   UNL     1       2.184  36.291  69.641  1.00  0.00     0.000 C 
ENDROOT
BRANCH   1   2
ATOM      2  C   UNL     1       2.239  35.499  70.959  1.00  0.00     0.000 C 
BRANCH   2   3
ATOM      3  C   UNL     1       3.632  35.522  71.613  1.00  0.00     0.000 C 
BRANCH   3   4
ATOM      4  C   UNL     1       4.761  35.715  70.588  1.00  0.00     0.000 C 
BRANCH   4   5
ATOM      5  C   UNL     1       5.826  34.607  70.662  1.00  0.00     0.000 C 
BRANCH   5   6
ATOM      6  C   UNL     1       5.217  33.219  70.917  1.00  0.00     0.000 C 
BRANCH   6   7
ATOM      7  C   UNL     1       6.185  32.273  71.642  1.00  0.00     0.006 C 
BRANCH   7   8
ATOM      8  C   UNL     1       7.447  33.018  72.091  1.00  0.00     0.053 C 
BRANCH   8   9
ATOM      9  C   UNL     1       7.852  32.581  73.463  1.00  0.00     0.041 C 
ATOM     10  O   UNL     1       8.867  33.083  74.014  1.00  0.00    -0.550 OA
ATOM     11  O   UNL     1       7.081  31.655  74.155  1.00  0.00    -0.550 OA
ENDBRANCH   8   9
ENDBRANCH   7   8
ENDBRANCH   6   7
ENDBRANCH   5   6
ENDBRANCH   4   5
ENDBRANCH   3   4
ENDBRANCH   2   3
ENDBRANCH   1   2
BRANCH   1  12
ATOM     12  C   UNL     1       1.053  35.882  68.677  1.00  0.00     0.000 C 
BRANCH  12  13
ATOM     13  C   UNL     1       1.500  35.048  67.460  1.00  0.00    -0.000 C 
BRANCH  13  14
ATOM     14  C   UNL     1       1.625  33.533  67.718  1.00  0.00    -0.000 C 
BRANCH  14  15
ATOM     15  C   UNL     1       3.062  33.029  67.946  1.00  0.00    -0.000 C 
BRANCH  15  16
ATOM     16  C   UNL     1       4.126  33.984  67.385  1.00  0.00    -0.000 C 
BRANCH  16  17
ATOM     17  C   UNL     1       5.391  33.219  66.979  1.00  0.00    -0.000 C 
BRANCH  17  18
ATOM     18  C   UNL     1       6.637  34.109  67.105  1.00  0.00    -0.000 C 
BRANCH  18  19
ATOM     19  C   UNL     1       7.899  33.309  67.466  1.00  0.00    -0.003 C 
ATOM     20  C   UNL     1       7.585  32.018  68.220  1.00  0.00     0.004 C 
ENDBRANCH  18  19
ENDBRANCH  17  18
ENDBRANCH  16  17
ENDBRANCH  15  16
ENDBRANCH  14  15
ENDBRANCH  13  14
ENDBRANCH  12  13
ENDBRANCH   1  12
TORSDOF 16
ENDMDL
MODEL 8
REMARK VINA RESULT:    -4.403      1.706      3.417
REMARK INTER + INTRA:         -10.925
REMARK INTER:                  -7.978
REMARK INTRA:                  -2.947
REMARK UNBOUND:                -2.403
REMARK SMILES CCCCCCCCCCCCCCCCCC(=O)[O-]
REMARK SMILES IDX 10 1 11 2 12 3 13 4 14 5 15 6 16 7 17 8 18 9 19 10 20 11
REMARK SMILES IDX 9 12 8 13 7 14 6 15 5 16 4 17 3 18 2 19 1 20
REMARK H PARENT
REMARK Flexibility Score: inf
ROOT
ATOM      1  C   UNL     1       8.488  32.561  67.242  1.00  0.00     0.000 C 
ENDROOT
BRANCH   1   2
ATOM      2  C   UNL     1       8.055  33.833  67.994  1.00  0.00     0.000 C 
BRANCH   2   3
ATOM      3  C   UNL     1       6.767  34.454  67.425  1.00  0.00     0.000 C 
BRANCH   3   4
ATOM      4  C   UNL     1       5.783  33.394  66.904  1.00  0.00     0.000 C 
BRANCH   4   5
ATOM      5  C   UNL     1       4.355  33.594  67.442  1.00  0.00     0.000 C 
BRANCH   5   6
ATOM      6  C   UNL     1       3.828  32.359  68.189  1.00  0.00     0.000 C 
BRANCH   6   7
ATOM      7  C   UNL     1       2.296  32.342  68.298  1.00  0.00     0.006 C 
BRANCH   7   8
ATOM      8  C   UNL     1       1.704  33.696  67.897  1.00  0.00     0.053 C 
BRANCH   8   9
ATOM      9  C   UNL     1       0.819  34.223  68.982  1.00  0.00     0.041 C 
ATOM     10  O   UNL     1       0.300  33.434  69.815  1.00  0.00    -0.550 OA
ATOM     11  O   UNL     1       0.606  35.591  69.104  1.00  0.00    -0.550 OA
ENDBRANCH   8   9
ENDBRANCH   7   8
ENDBRANCH   6   7
ENDBRANCH   5   6
ENDBRANCH   4   5
ENDBRANCH   3   4
ENDBRANCH   2   3
ENDBRANCH   1   2
BRANCH   1  12
ATOM     12  C   UNL     1       8.783  31.341  68.137  1.00  0.00     0.000 C 
BRANCH  12  13
ATOM     13  C   UNL     1       7.571  30.436  68.430  1.00  0.00    -0.000 C 
BRANCH  13  14
ATOM     14  C   UNL     1       7.234  30.261  69.925  1.00  0.00    -0.000 C 
BRANCH  14  15
ATOM     15  C   UNL     1       6.493  31.447  70.567  1.00  0.00    -0.000 C 
BRANCH  15  16
ATOM     16  C   UNL     1       7.403  32.313  71.452  1.00  0.00    -0.000 C 
BRANCH  16  17
ATOM     17  C   UNL     1       7.087  33.803  71.275  1.00  0.00    -0.000 C 
BRANCH  17  18
ATOM     18  C   UNL     1       5.602  34.014  70.944  1.00  0.00    -0.000 C 
BRANCH  18  19
ATOM     19  C   UNL     1       5.272  35.480  70.622  1.00  0.00    -0.003 C 
ATOM     20  C   UNL     1       3.771  35.767  70.645  1.00  0.00     0.004 C 
ENDBRANCH  18  19
ENDBRANCH  17  18
ENDBRANCH  16  17
ENDBRANCH  15  16
ENDBRANCH  14  15
ENDBRANCH  13  14
ENDBRANCH  12  13
ENDBRANCH   1  12
TORSDOF 16
ENDMDL
MODEL 9
REMARK VINA RESULT:    -4.358      1.248      1.905
REMARK INTER + INTRA:         -10.837
REMARK INTER:                  -8.244
REMARK INTRA:                  -2.593
REMARK UNBOUND:                -2.403
REMARK SMILES CCCCCCCCCCCCCCCCCC(=O)[O-]
REMARK SMILES IDX 10 1 11 2 12 3 13 4 14 5 15 6 16 7 17 8 18 9 19 10 20 11
REMARK SMILES IDX 9 12 8 13 7 14 6 15 5 16 4 17 3 18 2 19 1 20
REMARK H PARENT
REMARK Flexibility Score: inf
ROOT
ATOM      1  C   UNL     1       6.554  34.908  69.232  1.00  0.00     0.000 C 
ENDROOT
BRANCH   1   2
ATOM      2  C   UNL     1       5.238  34.252  68.774  1.00  0.00     0.000 C 
BRANCH   2   3
ATOM      3  C   UNL     1       4.224  34.084  69.919  1.00  0.00     0.000 C 
BRANCH   3   4
ATOM      4  C   UNL     1       4.156  35.320  70.831  1.00  0.00     0.000 C 
BRANCH   4   5
ATOM      5  C   UNL     1       2.729  35.876  70.972  1.00  0.00     0.000 C 
BRANCH   5   6
ATOM      6  C   UNL     1       2.116  36.277  69.621  1.00  0.00     0.000 C 
BRANCH   6   7
ATOM      7  C   UNL     1       0.612  35.978  69.542  1.00  0.00     0.006 C 
BRANCH   7   8
ATOM      8  C   UNL     1       0.288  35.114  68.319  1.00  0.00     0.053 C 
BRANCH   8   9
ATOM      9  C   UNL     1       0.848  33.737  68.488  1.00  0.00     0.041 C 
ATOM     10  O   UNL     1       1.556  33.225  67.582  1.00  0.00    -0.550 OA
ATOM     11  O   UNL     1       0.627  33.036  69.668  1.00  0.00    -0.550 OA
ENDBRANCH   8   9
ENDBRANCH   7   8
ENDBRANCH   6   7
ENDBRANCH   5   6
ENDBRANCH   4   5
ENDBRANCH   3   4
ENDBRANCH   2   3
ENDBRANCH   1   2
BRANCH   1  12
ATOM     12  C   UNL     1       7.797  34.533  68.400  1.00  0.00     0.000 C 
BRANCH  12  13
ATOM     13  C   UNL     1       7.537  33.553  67.241  1.00  0.00    -0.000 C 
BRANCH  13  14
ATOM     14  C   UNL     1       8.447  32.308  67.223  1.00  0.00    -0.000 C 
BRANCH  14  15
ATOM     15  C   UNL     1       8.259  31.349  68.412  1.00  0.00    -0.000 C 
BRANCH  15  16
ATOM     16  C   UNL     1       6.807  30.876  68.576  1.00  0.00    -0.000 C 
BRANCH  16  17
ATOM     17  C   UNL     1       6.337  31.036  70.027  1.00  0.00    -0.000 C 
BRANCH  17  18
ATOM     18  C   UNL     1       7.428  31.686  70.890  1.00  0.00    -0.000 C 
BRANCH  18  19
ATOM     19  C   UNL     1       6.849  32.540  72.028  1.00  0.00    -0.003 C 
ATOM     20  C   UNL     1       7.845  32.765  73.165  1.00  0.00     0.004 C 
ENDBRANCH  18  19
ENDBRANCH  17  18
ENDBRANCH  16  17
ENDBRANCH  15  16
ENDBRANCH  14  15
ENDBRANCH  13  14
ENDBRANCH  12  13
ENDBRANCH   1  12
TORSDOF 16
ENDMDL
