MODEL 1
REMARK VINA RESULT:    -3.747      0.000      0.000
REMARK INTER + INTRA:          -8.224
REMARK INTER:                  -6.814
REMARK INTRA:                  -1.410
REMARK UNBOUND:                -1.410
REMARK SMILES CCCCCCCCCCCCCCCC(=O)[O-]
REMARK SMILES IDX 9 1 10 2 11 3 12 4 13 5 14 6 15 7 16 8 17 9 18 10 8 11 7 12
REMARK SMILES IDX 6 13 5 14 4 15 3 16 2 17 1 18
REMARK H PARENT
REMARK Flexibility Score: inf
ROOT
ATOM      1  C   UNL     1     -20.186  21.067  46.284  1.00  0.00     0.000 C 
ENDROOT
BRANCH   1   2
ATOM      2  C   UNL     1     -19.108  21.794  45.461  1.00  0.00     0.000 C 
BRANCH   2   3
ATOM      3  C   UNL     1     -18.250  20.881  44.560  1.00  0.00     0.000 C 
BRANCH   3   4
ATOM      4  C   UNL     1     -17.372  21.613  43.530  1.00  0.00     0.000 C 
BRANCH   4   5
ATOM      5  C   UNL     1     -18.193  22.432  42.519  1.00  0.00     0.000 C 
BRANCH   5   6
ATOM      6  C   UNL     1     -17.710  23.887  42.410  1.00  0.00     0.006 C 
BRANCH   6   7
ATOM      7  C   UNL     1     -18.853  24.872  42.136  1.00  0.00     0.053 C 
BRANCH   7   8
ATOM      8  C   UNL     1     -19.487  25.306  43.420  1.00  0.00     0.041 C 
ATOM      9  O   UNL     1     -20.682  25.704  43.433  1.00  0.00    -0.550 OA
ATOM     10  O   UNL     1     -18.744  25.319  44.592  1.00  0.00    -0.550 OA
ENDBRANCH   7   8
ENDBRANCH   6   7
ENDBRANCH   5   6
ENDBRANCH   4   5
ENDBRANCH   3   4
ENDBRANCH   2   3
ENDBRANCH   1   2
BRANCH   1  11
ATOM     11  C   UNL     1     -21.411  21.953  46.572  1.00  0.00     0.000 C 
BRANCH  11  12
ATOM     12  C   UNL     1     -21.476  23.190  45.664  1.00  0.00    -0.000 C 
BRANCH  12  13
ATOM     13  C   UNL     1     -22.726  24.048  45.924  1.00  0.00    -0.000 C 
BRANCH  13  14
ATOM     14  C   UNL     1     -23.688  24.079  44.724  1.00  0.00    -0.000 C 
BRANCH  14  15
ATOM     15  C   UNL     1     -25.081  23.476  44.988  1.00  0.00    -0.000 C 
BRANCH  15  16
ATOM     16  C   UNL     1     -25.341  23.131  46.470  1.00  0.00    -0.000 C 
BRANCH  16  17
ATOM     17  C   UNL     1     -25.919  21.719  46.645  1.00  0.00    -0.003 C 
ATOM     18  C   UNL     1     -25.382  20.769  45.579  1.00  0.00     0.004 C 
ENDBRANCH  16  17
ENDBRANCH  15  16
ENDBRANCH  14  15
ENDBRANCH  13  14
ENDBRANCH  12  13
ENDBRANCH  11  12
ENDBRANCH   1  11
TORSDOF 14
ENDMDL
MODEL 2
REMARK VINA RESULT:    -3.725      1.257      2.229
REMARK INTER + INTRA:          -8.183
REMARK INTER:                  -6.856
REMARK INTRA:                  -1.327
REMARK UNBOUND:                -1.410
REMARK SMILES CCCCCCCCCCCCCCCC(=O)[O-]
REMARK SMILES IDX 9 1 10 2 11 3 12 4 13 5 14 6 15 7 16 8 17 9 18 10 8 11 7 12
REMARK SMILES IDX 6 13 5 14 4 15 3 16 2 17 1 18
REMARK H PARENT
REMARK Flexibility Score: inf
ROOT
ATOM      1  C   UNL     1     -17.855  20.230  44.684  1.00  0.00     0.000 C 
ENDROOT
BRANCH   1   2
ATOM      2  C   UNL     1     -17.031  21.529  44.698  1.00  0.00     0.000 C 
BRANCH   2   3
ATOM      3  C   UNL     1     -16.755  22.142  43.310  1.00  0.00     0.000 C 
BRANCH   3   4
ATOM      4  C   UNL     1     -18.006  22.459  42.471  1.00  0.00     0.000 C 
BRANCH   4   5
ATOM      5  C   UNL     1     -18.337  23.961  42.437  1.00  0.00     0.000 C 
BRANCH   5   6
ATOM      6  C   UNL     1     -19.276  24.383  43.577  1.00  0.00     0.006 C 
BRANCH   6   7
ATOM      7  C   UNL     1     -19.361  25.906  43.742  1.00  0.00     0.053 C 
BRANCH   7   8
ATOM      8  C   UNL     1     -20.660  26.418  43.202  1.00  0.00     0.041 C 
ATOM      9  O   UNL     1     -20.670  27.348  42.353  1.00  0.00    -0.550 OA
ATOM     10  O   UNL     1     -21.860  25.902  43.672  1.00  0.00    -0.550 OA
ENDBRANCH   7   8
ENDBRANCH   6   7
ENDBRANCH   5   6
ENDBRANCH   4   5
ENDBRANCH   3   4
ENDBRANCH   2   3
ENDBRANCH   1   2
BRANCH   1  11
ATOM     11  C   UNL     1     -19.120  20.318  45.556  1.00  0.00     0.000 C 
BRANCH  11  12
ATOM     12  C   UNL     1     -19.535  21.767  45.855  1.00  0.00    -0.000 C 
BRANCH  12  13
ATOM     13  C   UNL     1     -20.965  21.867  46.412  1.00  0.00    -0.000 C 
BRANCH  13  14
ATOM     14  C   UNL     1     -21.579  23.265  46.231  1.00  0.00    -0.000 C 
BRANCH  14  15
ATOM     15  C   UNL     1     -23.036  23.279  45.729  1.00  0.00    -0.000 C 
BRANCH  15  16
ATOM     16  C   UNL     1     -23.906  22.143  46.309  1.00  0.00    -0.000 C 
BRANCH  16  17
ATOM     17  C   UNL     1     -25.138  21.853  45.438  1.00  0.00    -0.003 C 
ATOM     18  C   UNL     1     -25.595  20.406  45.595  1.00  0.00     0.004 C 
ENDBRANCH  16  17
ENDBRANCH  15  16
ENDBRANCH  14  15
ENDBRANCH  13  14
ENDBRANCH  12  13
ENDBRANCH  11  12
ENDBRANCH   1  11
TORSDOF 14
ENDMDL
MODEL 3
REMARK VINA RESULT:    -3.722      3.017      5.702
REMARK INTER + INTRA:          -8.179
REMARK INTER:                  -6.317
REMARK INTRA:                  -1.862
REMARK UNBOUND:                -1.410
REMARK SMILES CCCCCCCCCCCCCCCC(=O)[O-]
REMARK SMILES IDX 9 1 10 2 11 3 12 4 13 5 14 6 15 7 16 8 17 9 18 10 8 11 7 12
REMARK SMILES IDX 6 13 5 14 4 15 3 16 2 17 1 18
REMARK H PARENT
REMARK Flexibility Score: inf
ROOT
ATOM      1  C   UNL     1     -13.546  24.099  43.285  1.00  0.00     0.000 C 
ENDROOT
BRANCH   1   2
ATOM      2  C   UNL     1     -14.776  24.572  42.490  1.00  0.00     0.000 C 
BRANCH   2   3
ATOM      3  C   UNL     1     -15.745  25.483  43.271  1.00  0.00     0.000 C 
BRANCH   3   4
ATOM      4  C   UNL     1     -17.090  24.839  43.652  1.00  0.00     0.000 C 
BRANCH   4   5
ATOM      5  C   UNL     1     -17.834  24.251  42.442  1.00  0.00     0.000 C 
BRANCH   5   6
ATOM      6  C   UNL     1     -19.215  24.892  42.232  1.00  0.00     0.006 C 
BRANCH   6   7
ATOM      7  C   UNL     1     -19.129  26.383  41.881  1.00  0.00     0.053 C 
BRANCH   7   8
ATOM      8  C   UNL     1     -20.088  27.172  42.715  1.00  0.00     0.041 C 
ATOM      9  O   UNL     1     -21.209  26.687  43.020  1.00  0.00    -0.550 OA
ATOM     10  O   UNL     1     -19.765  28.462  43.114  1.00  0.00    -0.550 OA
ENDBRANCH   7   8
ENDBRANCH   6   7
ENDBRANCH   5   6
ENDBRANCH   4   5
ENDBRANCH   3   4
ENDBRANCH   2   3
ENDBRANCH   1   2
BRANCH   1  11
ATOM     11  C   UNL     1     -13.618  22.608  43.658  1.00  0.00     0.000 C 
BRANCH  11  12
ATOM     12  C   UNL     1     -14.902  21.931  43.154  1.00  0.00    -0.000 C 
BRANCH  12  13
ATOM     13  C   UNL     1     -15.710  21.280  44.290  1.00  0.00    -0.000 C 
BRANCH  13  14
ATOM     14  C   UNL     1     -17.156  20.952  43.881  1.00  0.00    -0.000 C 
BRANCH  14  15
ATOM     15  C   UNL     1     -17.958  20.137  44.915  1.00  0.00    -0.000 C 
BRANCH  15  16
ATOM     16  C   UNL     1     -19.232  20.849  45.417  1.00  0.00    -0.000 C 
BRANCH  16  17
ATOM     17  C   UNL     1     -19.002  22.348  45.662  1.00  0.00    -0.003 C 
ATOM     18  C   UNL     1     -20.274  23.150  45.402  1.00  0.00     0.004 C 
ENDBRANCH  16  17
ENDBRANCH  15  16
ENDBRANCH  14  15
ENDBRANCH  13  14
ENDBRANCH  12  13
ENDBRANCH  11  12
ENDBRANCH   1  11
TORSDOF 14
ENDMDL
MODEL 4
REMARK VINA RESULT:    -3.706      1.867      2.384
REMARK INTER + INTRA:          -8.149
REMARK INTER:                  -6.483
REMARK INTRA:                  -1.666
REMARK UNBOUND:                -1.410
REMARK SMILES CCCCCCCCCCCCCCCC(=O)[O-]
REMARK SMILES IDX 9 1 10 2 11 3 12 4 13 5 14 6 15 7 16 8 17 9 18 10 8 11 7 12
REMARK SMILES IDX 6 13 5 14 4 15 3 16 2 17 1 18
REMARK H PARENT
REMARK Flexibility Score: inf
ROOT
ATOM      1  C   UNL     1     -19.225  21.735  46.224  1.00  0.00     0.000 C 
ENDROOT
BRANCH   1   2
ATOM      2  C   UNL     1     -19.072  20.401  45.471  1.00  0.00     0.000 C 
BRANCH   2   3
ATOM      3  C   UNL     1     -17.830  20.306  44.560  1.00  0.00     0.000 C 
BRANCH   3   4
ATOM      4  C   UNL     1     -17.275  21.652  44.063  1.00  0.00     0.000 C 
BRANCH   4   5
ATOM      5  C   UNL     1     -17.852  22.069  42.699  1.00  0.00     0.000 C 
BRANCH   5   6
ATOM      6  C   UNL     1     -17.724  23.578  42.441  1.00  0.00     0.006 C 
BRANCH   6   7
ATOM      7  C   UNL     1     -16.923  24.300  43.534  1.00  0.00     0.053 C 
BRANCH   7   8
ATOM      8  C   UNL     1     -15.639  24.827  42.977  1.00  0.00     0.041 C 
ATOM      9  O   UNL     1     -15.460  26.069  42.864  1.00  0.00    -0.550 OA
ATOM     10  O   UNL     1     -14.659  23.948  42.535  1.00  0.00    -0.550 OA
ENDBRANCH   7   8
ENDBRANCH   6   7
ENDBRANCH   5   6
ENDBRANCH   4   5
ENDBRANCH   3   4
ENDBRANCH   2   3
ENDBRANCH   1   2
BRANCH   1  11
ATOM     11  C   UNL     1     -20.537  22.463  45.882  1.00  0.00     0.000 C 
BRANCH  11  12
ATOM     12  C   UNL     1     -20.308  23.746  45.068  1.00  0.00    -0.000 C 
BRANCH  12  13
ATOM     13  C   UNL     1     -20.958  24.980  45.717  1.00  0.00    -0.000 C 
BRANCH  13  14
ATOM     14  C   UNL     1     -22.485  24.849  45.851  1.00  0.00    -0.000 C 
BRANCH  14  15
ATOM     15  C   UNL     1     -23.248  24.720  44.518  1.00  0.00    -0.000 C 
BRANCH  15  16
ATOM     16  C   UNL     1     -24.297  23.587  44.507  1.00  0.00    -0.000 C 
BRANCH  16  17
ATOM     17  C   UNL     1     -24.423  22.900  45.876  1.00  0.00    -0.003 C 
ATOM     18  C   UNL     1     -25.072  21.525  45.743  1.00  0.00     0.004 C 
ENDBRANCH  16  17
ENDBRANCH  15  16
ENDBRANCH  14  15
ENDBRANCH  13  14
ENDBRANCH  12  13
ENDBRANCH  11  12
ENDBRANCH   1  11
TORSDOF 14
ENDMDL
MODEL 5
REMARK VINA RESULT:    -3.703      2.668      6.645
REMARK INTER + INTRA:          -8.143
REMARK INTER:                  -6.275
REMARK INTRA:                  -1.868
REMARK UNBOUND:                -1.410
REMARK SMILES CCCCCCCCCCCCCCCC(=O)[O-]
REMARK SMILES IDX 9 1 10 2 11 3 12 4 13 5 14 6 15 7 16 8 17 9 18 10 8 11 7 12
REMARK SMILES IDX 6 13 5 14 4 15 3 16 2 17 1 18
REMARK H PARENT
REMARK Flexibility Score: inf
ROOT
ATOM      1  C   UNL     1     -18.010  22.475  42.878  1.00  0.00     0.000 C 
ENDROOT
BRANCH   1   2
ATOM      2  C   UNL     1     -17.761  23.821  42.175  1.00  0.00     0.000 C 
BRANCH   2   3
ATOM      3  C   UNL     1     -18.205  25.065  42.973  1.00  0.00     0.000 C 
BRANCH   3   4
ATOM      4  C   UNL     1     -18.956  26.134  42.159  1.00  0.00     0.000 C 
BRANCH   4   5
ATOM      5  C   UNL     1     -20.272  26.574  42.823  1.00  0.00     0.000 C 
BRANCH   5   6
ATOM      6  C   UNL     1     -20.839  25.506  43.771  1.00  0.00     0.006 C 
BRANCH   6   7
ATOM      7  C   UNL     1     -21.922  26.058  44.706  1.00  0.00     0.053 C 
BRANCH   7   8
ATOM      8  C   UNL     1     -22.973  25.023  44.956  1.00  0.00     0.041 C 
ATOM      9  O   UNL     1     -23.613  24.524  43.993  1.00  0.00    -0.550 OA
ATOM     10  O   UNL     1     -23.282  24.645  46.256  1.00  0.00    -0.550 OA
ENDBRANCH   7   8
ENDBRANCH   6   7
ENDBRANCH   5   6
ENDBRANCH   4   5
ENDBRANCH   3   4
ENDBRANCH   2   3
ENDBRANCH   1   2
BRANCH   1  11
ATOM     11  C   UNL     1     -18.711  22.636  44.239  1.00  0.00     0.000 C 
BRANCH  11  12
ATOM     12  C   UNL     1     -18.744  21.330  45.048  1.00  0.00    -0.000 C 
BRANCH  12  13
ATOM     13  C   UNL     1     -17.726  20.295  44.537  1.00  0.00    -0.000 C 
BRANCH  13  14
ATOM     14  C   UNL     1     -16.488  20.180  45.441  1.00  0.00    -0.000 C 
BRANCH  14  15
ATOM     15  C   UNL     1     -15.225  20.887  44.912  1.00  0.00    -0.000 C 
BRANCH  15  16
ATOM     16  C   UNL     1     -15.128  22.375  45.312  1.00  0.00    -0.000 C 
BRANCH  16  17
ATOM     17  C   UNL     1     -14.589  23.250  44.170  1.00  0.00    -0.003 C 
ATOM     18  C   UNL     1     -14.284  22.412  42.932  1.00  0.00     0.004 C 
ENDBRANCH  16  17
ENDBRANCH  15  16
ENDBRANCH  14  15
ENDBRANCH  13  14
ENDBRANCH  12  13
ENDBRANCH  11  12
ENDBRANCH   1  11
TORSDOF 14
ENDMDL
MODEL 6
REMARK VINA RESULT:    -3.685      2.920      6.482
REMARK INTER + INTRA:          -8.111
REMARK INTER:                  -6.090
REMARK INTRA:                  -2.021
REMARK UNBOUND:                -1.410
REMARK SMILES CCCCCCCCCCCCCCCC(=O)[O-]
REMARK SMILES IDX 9 1 10 2 11 3 12 4 13 5 14 6 15 7 16 8 17 9 18 10 8 11 7 12
REMARK SMILES IDX 6 13 5 14 4 15 3 16 2 17 1 18
REMARK H PARENT
REMARK Flexibility Score: inf
ROOT
ATOM      1  C   UNL     1     -18.196  21.279  45.668  1.00  0.00     0.000 C 
ENDROOT
BRANCH   1   2
ATOM      2  C   UNL     1     -19.731  21.357  45.745  1.00  0.00     0.000 C 
BRANCH   2   3
ATOM      3  C   UNL     1     -20.315  22.783  45.685  1.00  0.00     0.000 C 
BRANCH   3   4
ATOM      4  C   UNL     1     -19.352  23.906  46.111  1.00  0.00     0.000 C 
BRANCH   4   5
ATOM      5  C   UNL     1     -19.533  25.192  45.287  1.00  0.00     0.000 C 
BRANCH   5   6
ATOM      6  C   UNL     1     -20.510  25.008  44.115  1.00  0.00     0.006 C 
BRANCH   6   7
ATOM      7  C   UNL     1     -21.410  26.231  43.896  1.00  0.00     0.053 C 
BRANCH   7   8
ATOM      8  C   UNL     1     -20.991  26.974  42.667  1.00  0.00     0.041 C 
ATOM      9  O   UNL     1     -21.791  27.766  42.102  1.00  0.00    -0.550 OA
ATOM     10  O   UNL     1     -19.736  26.753  42.115  1.00  0.00    -0.550 OA
ENDBRANCH   7   8
ENDBRANCH   6   7
ENDBRANCH   5   6
ENDBRANCH   4   5
ENDBRANCH   3   4
ENDBRANCH   2   3
ENDBRANCH   1   2
BRANCH   1  11
ATOM     11  C   UNL     1     -17.699  20.619  44.369  1.00  0.00     0.000 C 
BRANCH  11  12
ATOM     12  C   UNL     1     -16.958  21.603  43.451  1.00  0.00    -0.000 C 
BRANCH  12  13
ATOM     13  C   UNL     1     -17.916  22.529  42.683  1.00  0.00    -0.000 C 
BRANCH  13  14
ATOM     14  C   UNL     1     -17.340  23.940  42.472  1.00  0.00    -0.000 C 
BRANCH  14  15
ATOM     15  C   UNL     1     -16.415  24.443  43.597  1.00  0.00    -0.000 C 
BRANCH  15  16
ATOM     16  C   UNL     1     -15.048  24.957  43.098  1.00  0.00    -0.000 C 
BRANCH  16  17
ATOM     17  C   UNL     1     -14.378  23.975  42.125  1.00  0.00    -0.003 C 
ATOM     18  C   UNL     1     -13.489  24.710  41.127  1.00  0.00     0.004 C 
ENDBRANCH  16  17
ENDBRANCH  15  16
ENDBRANCH  14  15
ENDBRANCH  13  14
ENDBRANCH  12  13
ENDBRANCH  11  12
ENDBRANCH   1  11
TORSDOF 14
ENDMDL
MODEL 7
REMARK VINA RESULT:    -3.679      3.494      5.058
REMARK INTER + INTRA:          -8.099
REMARK INTER:                  -6.102
REMARK INTRA:                  -1.996
REMARK UNBOUND:                -1.410
REMARK SMILES CCCCCCCCCCCCCCCC(=O)[O-]
REMARK SMILES IDX 9 1 10 2 11 3 12 4 13 5 14 6 15 7 16 8 17 9 18 10 8 11 7 12
REMARK SMILES IDX 6 13 5 14 4 15 3 16 2 17 1 18
REMARK H PARENT
REMARK Flexibility Score: inf
ROOT
ATOM      1  C   UNL     1     -18.214  20.598  44.716  1.00  0.00     0.000 C 
ENDROOT
BRANCH   1   2
ATOM      2  C   UNL     1     -17.231  21.238  43.719  1.00  0.00     0.000 C 
BRANCH   2   3
ATOM      3  C   UNL     1     -17.866  22.235  42.728  1.00  0.00     0.000 C 
BRANCH   3   4
ATOM      4  C   UNL     1     -17.161  23.600  42.627  1.00  0.00     0.000 C 
BRANCH   4   5
ATOM      5  C   UNL     1     -16.523  24.042  43.955  1.00  0.00     0.000 C 
BRANCH   5   6
ATOM      6  C   UNL     1     -15.022  24.343  43.815  1.00  0.00     0.006 C 
BRANCH   6   7
ATOM      7  C   UNL     1     -14.664  24.950  42.452  1.00  0.00     0.053 C 
BRANCH   7   8
ATOM      8  C   UNL     1     -13.487  24.243  41.859  1.00  0.00     0.041 C 
ATOM      9  O   UNL     1     -12.697  24.859  41.094  1.00  0.00    -0.550 OA
ATOM     10  O   UNL     1     -13.288  22.892  42.109  1.00  0.00    -0.550 OA
ENDBRANCH   7   8
ENDBRANCH   6   7
ENDBRANCH   5   6
ENDBRANCH   4   5
ENDBRANCH   3   4
ENDBRANCH   2   3
ENDBRANCH   1   2
BRANCH   1  11
ATOM     11  C   UNL     1     -18.671  21.577  45.811  1.00  0.00     0.000 C 
BRANCH  11  12
ATOM     12  C   UNL     1     -20.182  21.500  46.083  1.00  0.00    -0.000 C 
BRANCH  12  13
ATOM     13  C   UNL     1     -20.888  22.850  45.876  1.00  0.00    -0.000 C 
BRANCH  13  14
ATOM     14  C   UNL     1     -20.085  23.813  44.985  1.00  0.00    -0.000 C 
BRANCH  14  15
ATOM     15  C   UNL     1     -19.809  25.198  45.603  1.00  0.00    -0.000 C 
BRANCH  15  16
ATOM     16  C   UNL     1     -19.712  26.336  44.565  1.00  0.00    -0.000 C 
BRANCH  16  17
ATOM     17  C   UNL     1     -20.212  25.901  43.178  1.00  0.00    -0.003 C 
ATOM     18  C   UNL     1     -19.331  26.474  42.072  1.00  0.00     0.004 C 
ENDBRANCH  16  17
ENDBRANCH  15  16
ENDBRANCH  14  15
ENDBRANCH  13  14
ENDBRANCH  12  13
ENDBRANCH  11  12
ENDBRANCH   1  11
TORSDOF 14
ENDMDL
MODEL 8
REMARK VINA RESULT:    -3.648      2.524      5.903
REMARK INTER + INTRA:          -8.044
REMARK INTER:                  -5.580
REMARK INTRA:                  -2.464
REMARK UNBOUND:                -1.410
REMARK SMILES CCCCCCCCCCCCCCCC(=O)[O-]
REMARK SMILES IDX 9 1 10 2 11 3 12 4 13 5 14 6 15 7 16 8 17 9 18 10 8 11 7 12
REMARK SMILES IDX 6 13 5 14 4 15 3 16 2 17 1 18
REMARK H PARENT
REMARK Flexibility Score: inf
ROOT
ATOM      1  C   UNL     1     -18.058  21.118  45.668  1.00  0.00     0.000 C 
ENDROOT
BRANCH   1   2
ATOM      2  C   UNL     1     -19.577  21.008  45.890  1.00  0.00     0.000 C 
BRANCH   2   3
ATOM      3  C   UNL     1     -20.356  22.330  45.733  1.00  0.00     0.000 C 
BRANCH   3   4
ATOM      4  C   UNL     1     -19.511  23.610  45.863  1.00  0.00     0.000 C 
BRANCH   4   5
ATOM      5  C   UNL     1     -20.325  24.891  45.606  1.00  0.00     0.000 C 
BRANCH   5   6
ATOM      6  C   UNL     1     -20.778  25.016  44.143  1.00  0.00     0.006 C 
BRANCH   6   7
ATOM      7  C   UNL     1     -22.125  25.736  44.000  1.00  0.00     0.053 C 
BRANCH   7   8
ATOM      8  C   UNL     1     -23.183  25.022  44.780  1.00  0.00     0.041 C 
ATOM      9  O   UNL     1     -23.560  23.872  44.432  1.00  0.00    -0.550 OA
ATOM     10  O   UNL     1     -23.790  25.646  45.862  1.00  0.00    -0.550 OA
ENDBRANCH   7   8
ENDBRANCH   6   7
ENDBRANCH   5   6
ENDBRANCH   4   5
ENDBRANCH   3   4
ENDBRANCH   2   3
ENDBRANCH   1   2
BRANCH   1  11
ATOM     11  C   UNL     1     -17.624  20.630  44.275  1.00  0.00     0.000 C 
BRANCH  11  12
ATOM     12  C   UNL     1     -16.986  21.742  43.429  1.00  0.00    -0.000 C 
BRANCH  12  13
ATOM     13  C   UNL     1     -18.000  22.432  42.501  1.00  0.00    -0.000 C 
BRANCH  13  14
ATOM     14  C   UNL     1     -17.844  23.962  42.479  1.00  0.00    -0.000 C 
BRANCH  14  15
ATOM     15  C   UNL     1     -16.603  24.503  43.217  1.00  0.00    -0.000 C 
BRANCH  15  16
ATOM     16  C   UNL     1     -16.886  25.748  44.084  1.00  0.00    -0.000 C 
BRANCH  16  17
ATOM     17  C   UNL     1     -16.500  25.531  45.555  1.00  0.00    -0.003 C 
ATOM     18  C   UNL     1     -15.680  24.255  45.726  1.00  0.00     0.004 C 
ENDBRANCH  16  17
ENDBRANCH  15  16
ENDBRANCH  14  15
ENDBRANCH  13  14
ENDBRANCH  12  13
ENDBRANCH  11  12
ENDBRANCH   1  11
TORSDOF 14
ENDMDL
MODEL 9
REMARK VINA RESULT:    -3.624      1.567      3.183
REMARK INTER + INTRA:          -8.000
REMARK INTER:                  -6.056
REMARK INTRA:                  -1.944
REMARK UNBOUND:                -1.410
REMARK SMILES CCCCCCCCCCCCCCCC(=O)[O-]
REMARK SMILES IDX 9 1 10 2 11 3 12 4 13 5 14 6 15 7 16 8 17 9 18 10 8 11 7 12
REMARK SMILES IDX 6 13 5 14 4 15 3 16 2 17 1 18
REMARK H PARENT
REMARK Flexibility Score: inf
ROOT
ATOM      1  C   UNL     1     -17.440  21.555  44.856  1.00  0.00     0.000 C 
ENDROOT
BRANCH   1   2
ATOM      2  C   UNL     1     -17.076  21.561  43.361  1.00  0.00     0.000 C 
BRANCH   2   3
ATOM      3  C   UNL     1     -17.989  22.429  42.471  1.00  0.00     0.000 C 
BRANCH   3   4
ATOM      4  C   UNL     1     -17.787  23.949  42.606  1.00  0.00     0.000 C 
BRANCH   4   5
ATOM      5  C   UNL     1     -19.011  24.757  42.143  1.00  0.00     0.000 C 
BRANCH   5   6
ATOM      6  C   UNL     1     -18.937  26.232  42.567  1.00  0.00     0.006 C 
BRANCH   6   7
ATOM      7  C   UNL     1     -20.305  26.927  42.536  1.00  0.00     0.053 C 
BRANCH   7   8
ATOM      8  C   UNL     1     -20.375  27.987  43.590  1.00  0.00     0.041 C 
ATOM      9  O   UNL     1     -20.794  27.705  44.744  1.00  0.00    -0.550 OA
ATOM     10  O   UNL     1     -20.027  29.296  43.284  1.00  0.00    -0.550 OA
ENDBRANCH   7   8
ENDBRANCH   6   7
ENDBRANCH   5   6
ENDBRANCH   4   5
ENDBRANCH   3   4
ENDBRANCH   2   3
ENDBRANCH   1   2
BRANCH   1  11
ATOM     11  C   UNL     1     -18.760  20.818  45.144  1.00  0.00     0.000 C 
BRANCH  11  12
ATOM     12  C   UNL     1     -19.797  21.709  45.846  1.00  0.00    -0.000 C 
BRANCH  12  13
ATOM     13  C   UNL     1     -19.196  23.037  46.337  1.00  0.00    -0.000 C 
BRANCH  13  14
ATOM     14  C   UNL     1     -19.918  24.267  45.761  1.00  0.00    -0.000 C 
BRANCH  14  15
ATOM     15  C   UNL     1     -21.141  23.952  44.878  1.00  0.00    -0.000 C 
BRANCH  15  16
ATOM     16  C   UNL     1     -22.434  24.670  45.323  1.00  0.00    -0.000 C 
BRANCH  16  17
ATOM     17  C   UNL     1     -23.615  24.372  44.387  1.00  0.00    -0.003 C 
ATOM     18  C   UNL     1     -24.670  23.519  45.086  1.00  0.00     0.004 C 
ENDBRANCH  16  17
ENDBRANCH  15  16
ENDBRANCH  14  15
ENDBRANCH  13  14
ENDBRANCH  12  13
ENDBRANCH  11  12
ENDBRANCH   1  11
TORSDOF 14
ENDMDL
