MODEL 1
REMARK VINA RESULT:    -5.161      0.000      0.000
REMARK INTER + INTRA:         -19.094
REMARK INTER:                 -13.609
REMARK INTRA:                  -5.485
REMARK UNBOUND:                -5.485
REMARK SMILES CCCCCCCCCCCCCCCCCCCCCCCCCCCCCC(=O)[O-]
REMARK SMILES IDX 16 1 17 2 18 3 19 4 20 5 21 6 22 7 23 8 24 9 25 10 26 11
REMARK SMILES IDX 27 12 28 13 29 14 30 15 31 16 32 17 15 18 14 19 13 20 12 21
REMARK SMILES IDX 11 22 10 23 9 24 8 25 7 26 6 27 5 28 4 29 3 30 2 31 1 32
REMARK H PARENT
REMARK Flexibility Score: inf
ROOT
ATOM      1  C   UNL     1      78.277  12.444  18.647  1.00  0.00     0.000 C 
ENDROOT
BRANCH   1   2
ATOM      2  C   UNL     1      78.357  13.843  18.012  1.00  0.00     0.000 C 
BRANCH   2   3
ATOM      3  C   UNL     1      78.134  14.973  19.031  1.00  0.00     0.000 C 
BRANCH   3   4
ATOM      4  C   UNL     1      79.146  16.124  18.867  1.00  0.00     0.000 C 
BRANCH   4   5
ATOM      5  C   UNL     1      80.288  16.088  19.902  1.00  0.00     0.000 C 
BRANCH   5   6
ATOM      6  C   UNL     1      80.351  14.807  20.757  1.00  0.00     0.000 C 
BRANCH   6   7
ATOM      7  C   UNL     1      81.784  14.314  21.056  1.00  0.00     0.000 C 
BRANCH   7   8
ATOM      8  C   UNL     1      82.195  13.073  20.247  1.00  0.00     0.000 C 
BRANCH   8   9
ATOM      9  C   UNL     1      83.068  13.423  19.031  1.00  0.00     0.000 C 
BRANCH   9  10
ATOM     10  C   UNL     1      82.238  13.690  17.765  1.00  0.00     0.000 C 
BRANCH  10  11
ATOM     11  C   UNL     1      81.822  12.399  17.046  1.00  0.00     0.000 C 
BRANCH  11  12
ATOM     12  C   UNL     1      80.935  12.716  15.830  1.00  0.00     0.000 C 
BRANCH  12  13
ATOM     13  C   UNL     1      80.109  11.510  15.360  1.00  0.00     0.006 C 
BRANCH  13  14
ATOM     14  C   UNL     1      79.979  11.432  13.833  1.00  0.00     0.053 C 
BRANCH  14  15
ATOM     15  C   UNL     1      78.554  11.193  13.443  1.00  0.00     0.041 C 
ATOM     16  O   UNL     1      77.624  11.412  14.267  1.00  0.00    -0.550 OA
ATOM     17  O   UNL     1      78.255  10.673  12.188  1.00  0.00    -0.550 OA
ENDBRANCH  14  15
ENDBRANCH  13  14
ENDBRANCH  12  13
ENDBRANCH  11  12
ENDBRANCH  10  11
ENDBRANCH   9  10
ENDBRANCH   8   9
ENDBRANCH   7   8
ENDBRANCH   6   7
ENDBRANCH   5   6
ENDBRANCH   4   5
ENDBRANCH   3   4
ENDBRANCH   2   3
ENDBRANCH   1   2
BRANCH   1  18
ATOM     18  C   UNL     1      77.722  12.516  20.080  1.00  0.00     0.000 C 
BRANCH  18  19
ATOM     19  C   UNL     1      76.578  11.518  20.329  1.00  0.00     0.000 C 
BRANCH  19  20
ATOM     20  C   UNL     1      75.569  11.447  19.168  1.00  0.00     0.000 C 
BRANCH  20  21
ATOM     21  C   UNL     1      74.204  12.051  19.546  1.00  0.00     0.000 C 
BRANCH  21  22
ATOM     22  C   UNL     1      73.759  13.174  18.591  1.00  0.00     0.000 C 
BRANCH  22  23
ATOM     23  C   UNL     1      74.692  13.292  17.373  1.00  0.00     0.000 C 
BRANCH  23  24
ATOM     24  C   UNL     1      75.017  14.760  17.041  1.00  0.00    -0.000 C 
BRANCH  24  25
ATOM     25  C   UNL     1      75.143  15.012  15.530  1.00  0.00    -0.000 C 
BRANCH  25  26
ATOM     26  C   UNL     1      74.875  16.481  15.151  1.00  0.00    -0.000 C 
BRANCH  26  27
ATOM     27  C   UNL     1      75.224  17.465  16.281  1.00  0.00    -0.000 C 
BRANCH  27  28
ATOM     28  C   UNL     1      76.676  17.987  16.228  1.00  0.00    -0.000 C 
BRANCH  28  29
ATOM     29  C   UNL     1      77.140  18.307  14.795  1.00  0.00    -0.000 C 
BRANCH  29  30
ATOM     30  C   UNL     1      78.471  17.628  14.441  1.00  0.00    -0.000 C 
BRANCH  30  31
ATOM     31  C   UNL     1      78.757  16.393  15.306  1.00  0.00    -0.003 C 
ATOM     32  C   UNL     1      78.621  15.108  14.494  1.00  0.00     0.004 C 
ENDBRANCH  30  31
ENDBRANCH  29  30
ENDBRANCH  28  29
ENDBRANCH  27  28
ENDBRANCH  26  27
ENDBRANCH  25  26
ENDBRANCH  24  25
ENDBRANCH  23  24
ENDBRANCH  22  23
ENDBRANCH  21  22
ENDBRANCH  20  21
ENDBRANCH  19  20
ENDBRANCH  18  19
ENDBRANCH   1  18
TORSDOF 28
ENDMDL
MODEL 2
REMARK VINA RESULT:    -5.112      1.605      4.720
REMARK INTER + INTRA:         -18.964
REMARK INTER:                 -13.849
REMARK INTRA:                  -5.115
REMARK UNBOUND:                -5.485
REMARK SMILES CCCCCCCCCCCCCCCCCCCCCCCCCCCCCC(=O)[O-]
REMARK SMILES IDX 16 1 17 2 18 3 19 4 20 5 21 6 22 7 23 8 24 9 25 10 26 11
REMARK SMILES IDX 27 12 28 13 29 14 30 15 31 16 32 17 15 18 14 19 13 20 12 21
REMARK SMILES IDX 11 22 10 23 9 24 8 25 7 26 6 27 5 28 4 29 3 30 2 31 1 32
REMARK H PARENT
REMARK Flexibility Score: inf
ROOT
ATOM      1  C   UNL     1      74.156  12.105  19.612  1.00  0.00     0.000 C 
ENDROOT
BRANCH   1   2
ATOM      2  C   UNL     1      75.559  11.607  19.225  1.00  0.00     0.000 C 
BRANCH   2   3
ATOM      3  C   UNL     1      76.522  11.549  20.423  1.00  0.00     0.000 C 
BRANCH   3   4
ATOM      4  C   UNL     1      77.806  12.368  20.190  1.00  0.00     0.000 C 
BRANCH   4   5
ATOM      5  C   UNL     1      77.870  13.023  18.795  1.00  0.00     0.000 C 
BRANCH   5   6
ATOM      6  C   UNL     1      79.123  12.671  17.969  1.00  0.00     0.000 C 
BRANCH   6   7
ATOM      7  C   UNL     1      79.895  11.435  18.482  1.00  0.00     0.000 C 
BRANCH   7   8
ATOM      8  C   UNL     1      79.793  10.212  17.557  1.00  0.00     0.000 C 
BRANCH   8   9
ATOM      9  C   UNL     1      78.478   9.437  17.744  1.00  0.00     0.000 C 
BRANCH   9  10
ATOM     10  C   UNL     1      77.400   9.849  16.729  1.00  0.00     0.000 C 
BRANCH  10  11
ATOM     11  C   UNL     1      77.943   9.959  15.298  1.00  0.00     0.000 C 
BRANCH  11  12
ATOM     12  C   UNL     1      77.429  11.238  14.618  1.00  0.00     0.000 C 
BRANCH  12  13
ATOM     13  C   UNL     1      78.450  12.386  14.649  1.00  0.00     0.006 C 
BRANCH  13  14
ATOM     14  C   UNL     1      78.127  13.502  13.647  1.00  0.00     0.053 C 
BRANCH  14  15
ATOM     15  C   UNL     1      78.841  13.264  12.353  1.00  0.00     0.041 C 
ATOM     16  O   UNL     1      80.101  13.311  12.305  1.00  0.00    -0.550 OA
ATOM     17  O   UNL     1      78.115  13.046  11.187  1.00  0.00    -0.550 OA
ENDBRANCH  14  15
ENDBRANCH  13  14
ENDBRANCH  12  13
ENDBRANCH  11  12
ENDBRANCH  10  11
ENDBRANCH   9  10
ENDBRANCH   8   9
ENDBRANCH   7   8
ENDBRANCH   6   7
ENDBRANCH   5   6
ENDBRANCH   4   5
ENDBRANCH   3   4
ENDBRANCH   2   3
ENDBRANCH   1   2
BRANCH   1  18
ATOM     18  C   UNL     1      73.623  13.118  18.585  1.00  0.00     0.000 C 
BRANCH  18  19
ATOM     19  C   UNL     1      74.551  13.278  17.367  1.00  0.00     0.000 C 
BRANCH  19  20
ATOM     20  C   UNL     1      75.110  14.704  17.211  1.00  0.00     0.000 C 
BRANCH  20  21
ATOM     21  C   UNL     1      75.456  15.037  15.748  1.00  0.00     0.000 C 
BRANCH  21  22
ATOM     22  C   UNL     1      74.960  16.428  15.316  1.00  0.00     0.000 C 
BRANCH  22  23
ATOM     23  C   UNL     1      76.128  17.389  15.030  1.00  0.00     0.000 C 
BRANCH  23  24
ATOM     24  C   UNL     1      76.808  17.865  16.326  1.00  0.00    -0.000 C 
BRANCH  24  25
ATOM     25  C   UNL     1      78.251  17.351  16.461  1.00  0.00    -0.000 C 
BRANCH  25  26
ATOM     26  C   UNL     1      78.449  16.465  17.706  1.00  0.00    -0.000 C 
BRANCH  26  27
ATOM     27  C   UNL     1      79.924  16.345  18.127  1.00  0.00    -0.000 C 
BRANCH  27  28
ATOM     28  C   UNL     1      80.161  16.551  19.639  1.00  0.00    -0.000 C 
BRANCH  28  29
ATOM     29  C   UNL     1      80.060  15.239  20.439  1.00  0.00    -0.000 C 
BRANCH  29  30
ATOM     30  C   UNL     1      81.436  14.678  20.826  1.00  0.00    -0.000 C 
BRANCH  30  31
ATOM     31  C   UNL     1      82.212  14.121  19.624  1.00  0.00    -0.003 C 
ATOM     32  C   UNL     1      83.707  14.395  19.758  1.00  0.00     0.004 C 
ENDBRANCH  30  31
ENDBRANCH  29  30
ENDBRANCH  28  29
ENDBRANCH  27  28
ENDBRANCH  26  27
ENDBRANCH  25  26
ENDBRANCH  24  25
ENDBRANCH  23  24
ENDBRANCH  22  23
ENDBRANCH  21  22
ENDBRANCH  20  21
ENDBRANCH  19  20
ENDBRANCH  18  19
ENDBRANCH   1  18
TORSDOF 28
ENDMDL
MODEL 3
REMARK VINA RESULT:    -5.074      1.948      5.074
REMARK INTER + INTRA:         -18.863
REMARK INTER:                 -14.169
REMARK INTRA:                  -4.694
REMARK UNBOUND:                -5.485
REMARK SMILES CCCCCCCCCCCCCCCCCCCCCCCCCCCCCC(=O)[O-]
REMARK SMILES IDX 16 1 17 2 18 3 19 4 20 5 21 6 22 7 23 8 24 9 25 10 26 11
REMARK SMILES IDX 27 12 28 13 29 14 30 15 31 16 32 17 15 18 14 19 13 20 12 21
REMARK SMILES IDX 11 22 10 23 9 24 8 25 7 26 6 27 5 28 4 29 3 30 2 31 1 32
REMARK H PARENT
REMARK Flexibility Score: inf
ROOT
ATOM      1  C   UNL     1      74.357  12.135  19.386  1.00  0.00     0.000 C 
ENDROOT
BRANCH   1   2
ATOM      2  C   UNL     1      75.869  12.388  19.514  1.00  0.00     0.000 C 
BRANCH   2   3
ATOM      3  C   UNL     1      76.512  11.587  20.659  1.00  0.00     0.000 C 
BRANCH   3   4
ATOM      4  C   UNL     1      77.251  10.331  20.157  1.00  0.00     0.000 C 
BRANCH   4   5
ATOM      5  C   UNL     1      77.485  10.325  18.634  1.00  0.00     0.000 C 
BRANCH   5   6
ATOM      6  C   UNL     1      76.901   9.107  17.890  1.00  0.00     0.000 C 
BRANCH   6   7
ATOM      7  C   UNL     1      77.961   8.207  17.219  1.00  0.00     0.000 C 
BRANCH   7   8
ATOM      8  C   UNL     1      78.776   8.916  16.126  1.00  0.00     0.000 C 
BRANCH   8   9
ATOM      9  C   UNL     1      77.963   9.156  14.843  1.00  0.00     0.000 C 
BRANCH   9  10
ATOM     10  C   UNL     1      78.020  10.618  14.372  1.00  0.00     0.000 C 
BRANCH  10  11
ATOM     11  C   UNL     1      78.688  11.546  15.396  1.00  0.00     0.000 C 
BRANCH  11  12
ATOM     12  C   UNL     1      78.635  13.007  14.921  1.00  0.00     0.000 C 
BRANCH  12  13
ATOM     13  C   UNL     1      78.329  13.140  13.422  1.00  0.00     0.006 C 
BRANCH  13  14
ATOM     14  C   UNL     1      79.255  14.132  12.708  1.00  0.00     0.053 C 
BRANCH  14  15
ATOM     15  C   UNL     1      79.383  13.775  11.259  1.00  0.00     0.041 C 
ATOM     16  O   UNL     1      80.507  13.834  10.687  1.00  0.00    -0.550 OA
ATOM     17  O   UNL     1      78.253  13.433  10.525  1.00  0.00    -0.550 OA
ENDBRANCH  14  15
ENDBRANCH  13  14
ENDBRANCH  12  13
ENDBRANCH  11  12
ENDBRANCH  10  11
ENDBRANCH   9  10
ENDBRANCH   8   9
ENDBRANCH   7   8
ENDBRANCH   6   7
ENDBRANCH   5   6
ENDBRANCH   4   5
ENDBRANCH   3   4
ENDBRANCH   2   3
ENDBRANCH   1   2
BRANCH   1  18
ATOM     18  C   UNL     1      73.738  13.015  18.286  1.00  0.00     0.000 C 
BRANCH  18  19
ATOM     19  C   UNL     1      74.762  13.956  17.627  1.00  0.00     0.000 C 
BRANCH  19  20
ATOM     20  C   UNL     1      75.148  13.530  16.198  1.00  0.00     0.000 C 
BRANCH  20  21
ATOM     21  C   UNL     1      75.328  14.738  15.260  1.00  0.00     0.000 C 
BRANCH  21  22
ATOM     22  C   UNL     1      74.752  16.041  15.842  1.00  0.00     0.000 C 
BRANCH  22  23
ATOM     23  C   UNL     1      75.194  17.273  15.033  1.00  0.00     0.000 C 
BRANCH  23  24
ATOM     24  C   UNL     1      76.401  17.979  15.678  1.00  0.00    -0.000 C 
BRANCH  24  25
ATOM     25  C   UNL     1      77.712  17.726  14.917  1.00  0.00    -0.000 C 
BRANCH  25  26
ATOM     26  C   UNL     1      78.565  16.617  15.561  1.00  0.00    -0.000 C 
BRANCH  26  27
ATOM     27  C   UNL     1      78.227  16.384  17.043  1.00  0.00    -0.000 C 
BRANCH  27  28
ATOM     28  C   UNL     1      79.097  15.305  17.722  1.00  0.00    -0.000 C 
BRANCH  28  29
ATOM     29  C   UNL     1      78.451  14.741  19.001  1.00  0.00    -0.000 C 
BRANCH  29  30
ATOM     30  C   UNL     1      79.404  13.831  19.791  1.00  0.00    -0.000 C 
BRANCH  30  31
ATOM     31  C   UNL     1      80.176  14.585  20.883  1.00  0.00    -0.003 C 
ATOM     32  C   UNL     1      81.659  14.228  20.854  1.00  0.00     0.004 C 
ENDBRANCH  30  31
ENDBRANCH  29  30
ENDBRANCH  28  29
ENDBRANCH  27  28
ENDBRANCH  26  27
ENDBRANCH  25  26
ENDBRANCH  24  25
ENDBRANCH  23  24
ENDBRANCH  22  23
ENDBRANCH  21  22
ENDBRANCH  20  21
ENDBRANCH  19  20
ENDBRANCH  18  19
ENDBRANCH   1  18
TORSDOF 28
ENDMDL
MODEL 4
REMARK VINA RESULT:    -5.064      1.538      5.564
REMARK INTER + INTRA:         -18.839
REMARK INTER:                 -13.433
REMARK INTRA:                  -5.406
REMARK UNBOUND:                -5.485
REMARK SMILES CCCCCCCCCCCCCCCCCCCCCCCCCCCCCC(=O)[O-]
REMARK SMILES IDX 16 1 17 2 18 3 19 4 20 5 21 6 22 7 23 8 24 9 25 10 26 11
REMARK SMILES IDX 27 12 28 13 29 14 30 15 31 16 32 17 15 18 14 19 13 20 12 21
REMARK SMILES IDX 11 22 10 23 9 24 8 25 7 26 6 27 5 28 4 29 3 30 2 31 1 32
REMARK H PARENT
REMARK Flexibility Score: inf
ROOT
ATOM      1  C   UNL     1      75.121  15.262  17.614  1.00  0.00     0.000 C 
ENDROOT
BRANCH   1   2
ATOM      2  C   UNL     1      75.558  13.979  18.342  1.00  0.00     0.000 C 
BRANCH   2   3
ATOM      3  C   UNL     1      74.400  12.988  18.549  1.00  0.00     0.000 C 
BRANCH   3   4
ATOM      4  C   UNL     1      74.745  11.881  19.564  1.00  0.00     0.000 C 
BRANCH   4   5
ATOM      5  C   UNL     1      76.183  11.978  20.111  1.00  0.00     0.000 C 
BRANCH   5   6
ATOM      6  C   UNL     1      77.099  10.791  19.748  1.00  0.00     0.000 C 
BRANCH   6   7
ATOM      7  C   UNL     1      76.560   9.901  18.607  1.00  0.00     0.000 C 
BRANCH   7   8
ATOM      8  C   UNL     1      77.337  10.042  17.289  1.00  0.00     0.000 C 
BRANCH   8   9
ATOM      9  C   UNL     1      77.362  11.489  16.768  1.00  0.00     0.000 C 
BRANCH   9  10
ATOM     10  C   UNL     1      76.942  11.593  15.294  1.00  0.00     0.000 C 
BRANCH  10  11
ATOM     11  C   UNL     1      77.478  12.860  14.612  1.00  0.00     0.000 C 
BRANCH  11  12
ATOM     12  C   UNL     1      78.944  12.669  14.188  1.00  0.00     0.000 C 
BRANCH  12  13
ATOM     13  C   UNL     1      79.268  13.327  12.839  1.00  0.00     0.006 C 
BRANCH  13  14
ATOM     14  C   UNL     1      78.460  12.738  11.675  1.00  0.00     0.053 C 
BRANCH  14  15
ATOM     15  C   UNL     1      78.900  11.336  11.393  1.00  0.00     0.041 C 
ATOM     16  O   UNL     1      78.156  10.363  11.699  1.00  0.00    -0.550 OA
ATOM     17  O   UNL     1      80.155  11.097  10.843  1.00  0.00    -0.550 OA
ENDBRANCH  14  15
ENDBRANCH  13  14
ENDBRANCH  12  13
ENDBRANCH  11  12
ENDBRANCH  10  11
ENDBRANCH   9  10
ENDBRANCH   8   9
ENDBRANCH   7   8
ENDBRANCH   6   7
ENDBRANCH   5   6
ENDBRANCH   4   5
ENDBRANCH   3   4
ENDBRANCH   2   3
ENDBRANCH   1   2
BRANCH   1  18
ATOM     18  C   UNL     1      74.941  15.011  16.107  1.00  0.00     0.000 C 
BRANCH  18  19
ATOM     19  C   UNL     1      74.934  16.311  15.282  1.00  0.00     0.000 C 
BRANCH  19  20
ATOM     20  C   UNL     1      75.736  17.451  15.936  1.00  0.00     0.000 C 
BRANCH  20  21
ATOM     21  C   UNL     1      76.680  18.145  14.937  1.00  0.00     0.000 C 
BRANCH  21  22
ATOM     22  C   UNL     1      78.167  17.882  15.234  1.00  0.00     0.000 C 
BRANCH  22  23
ATOM     23  C   UNL     1      78.531  16.396  15.064  1.00  0.00     0.000 C 
BRANCH  23  24
ATOM     24  C   UNL     1      79.541  15.929  16.128  1.00  0.00    -0.000 C 
BRANCH  24  25
ATOM     25  C   UNL     1      78.874  15.167  17.285  1.00  0.00    -0.000 C 
BRANCH  25  26
ATOM     26  C   UNL     1      78.599  16.067  18.504  1.00  0.00    -0.000 C 
BRANCH  26  27
ATOM     27  C   UNL     1      79.764  16.091  19.507  1.00  0.00    -0.000 C 
BRANCH  27  28
ATOM     28  C   UNL     1      79.893  14.802  20.347  1.00  0.00    -0.000 C 
BRANCH  28  29
ATOM     29  C   UNL     1      81.356  14.354  20.526  1.00  0.00    -0.000 C 
BRANCH  29  30
ATOM     30  C   UNL     1      81.681  13.075  19.741  1.00  0.00    -0.000 C 
BRANCH  30  31
ATOM     31  C   UNL     1      80.460  12.502  19.007  1.00  0.00    -0.003 C 
ATOM     32  C   UNL     1      80.744  11.099  18.478  1.00  0.00     0.004 C 
ENDBRANCH  30  31
ENDBRANCH  29  30
ENDBRANCH  28  29
ENDBRANCH  27  28
ENDBRANCH  26  27
ENDBRANCH  25  26
ENDBRANCH  24  25
ENDBRANCH  23  24
ENDBRANCH  22  23
ENDBRANCH  21  22
ENDBRANCH  20  21
ENDBRANCH  19  20
ENDBRANCH  18  19
ENDBRANCH   1  18
TORSDOF 28
ENDMDL
MODEL 5
REMARK VINA RESULT:    -5.055      1.667      5.717
REMARK INTER + INTRA:         -18.813
REMARK INTER:                 -13.446
REMARK INTRA:                  -5.367
REMARK UNBOUND:                -5.485
REMARK SMILES CCCCCCCCCCCCCCCCCCCCCCCCCCCCCC(=O)[O-]
REMARK SMILES IDX 16 1 17 2 18 3 19 4 20 5 21 6 22 7 23 8 24 9 25 10 26 11
REMARK SMILES IDX 27 12 28 13 29 14 30 15 31 16 32 17 15 18 14 19 13 20 12 21
REMARK SMILES IDX 11 22 10 23 9 24 8 25 7 26 6 27 5 28 4 29 3 30 2 31 1 32
REMARK H PARENT
REMARK Flexibility Score: inf
ROOT
ATOM      1  C   UNL     1      74.758  16.197  16.087  1.00  0.00     0.000 C 
ENDROOT
BRANCH   1   2
ATOM      2  C   UNL     1      75.265  14.926  15.385  1.00  0.00     0.000 C 
BRANCH   2   3
ATOM      3  C   UNL     1      75.083  13.661  16.241  1.00  0.00     0.000 C 
BRANCH   3   4
ATOM      4  C   UNL     1      74.768  13.985  17.714  1.00  0.00     0.000 C 
BRANCH   4   5
ATOM      5  C   UNL     1      73.737  13.028  18.345  1.00  0.00     0.000 C 
BRANCH   5   6
ATOM      6  C   UNL     1      74.324  11.987  19.318  1.00  0.00     0.000 C 
BRANCH   6   7
ATOM      7  C   UNL     1      75.832  12.165  19.602  1.00  0.00     0.000 C 
BRANCH   7   8
ATOM      8  C   UNL     1      76.519  10.896  20.131  1.00  0.00     0.000 C 
BRANCH   8   9
ATOM      9  C   UNL     1      76.798   9.868  19.021  1.00  0.00     0.000 C 
BRANCH   9  10
ATOM     10  C   UNL     1      77.697  10.430  17.909  1.00  0.00     0.000 C 
BRANCH  10  11
ATOM     11  C   UNL     1      77.384   9.828  16.532  1.00  0.00     0.000 C 
BRANCH  11  12
ATOM     12  C   UNL     1      77.469  10.903  15.436  1.00  0.00     0.000 C 
BRANCH  12  13
ATOM     13  C   UNL     1      78.639  10.680  14.466  1.00  0.00     0.006 C 
BRANCH  13  14
ATOM     14  C   UNL     1      78.235  10.839  12.995  1.00  0.00     0.053 C 
BRANCH  14  15
ATOM     15  C   UNL     1      78.969  11.986  12.373  1.00  0.00     0.041 C 
ATOM     16  O   UNL     1      78.395  12.723  11.525  1.00  0.00    -0.550 OA
ATOM     17  O   UNL     1      80.305  12.209  12.687  1.00  0.00    -0.550 OA
ENDBRANCH  14  15
ENDBRANCH  13  14
ENDBRANCH  12  13
ENDBRANCH  11  12
ENDBRANCH  10  11
ENDBRANCH   9  10
ENDBRANCH   8   9
ENDBRANCH   7   8
ENDBRANCH   6   7
ENDBRANCH   5   6
ENDBRANCH   4   5
ENDBRANCH   3   4
ENDBRANCH   2   3
ENDBRANCH   1   2
BRANCH   1  18
ATOM     18  C   UNL     1      75.374  17.460  15.460  1.00  0.00     0.000 C 
BRANCH  18  19
ATOM     19  C   UNL     1      76.674  17.900  16.155  1.00  0.00     0.000 C 
BRANCH  19  20
ATOM     20  C   UNL     1      77.539  18.836  15.292  1.00  0.00     0.000 C 
BRANCH  20  21
ATOM     21  C   UNL     1      78.372  18.065  14.252  1.00  0.00     0.000 C 
BRANCH  21  22
ATOM     22  C   UNL     1      79.274  16.989  14.883  1.00  0.00     0.000 C 
BRANCH  22  23
ATOM     23  C   UNL     1      79.140  15.636  14.162  1.00  0.00     0.000 C 
BRANCH  23  24
ATOM     24  C   UNL     1      78.978  14.471  15.156  1.00  0.00    -0.000 C 
BRANCH  24  25
ATOM     25  C   UNL     1      78.791  14.950  16.605  1.00  0.00    -0.000 C 
BRANCH  25  26
ATOM     26  C   UNL     1      78.445  13.799  17.568  1.00  0.00    -0.000 C 
BRANCH  26  27
ATOM     27  C   UNL     1      78.508  14.216  19.047  1.00  0.00    -0.000 C 
BRANCH  27  28
ATOM     28  C   UNL     1      79.814  13.804  19.759  1.00  0.00    -0.000 C 
BRANCH  28  29
ATOM     29  C   UNL     1      80.575  15.008  20.346  1.00  0.00    -0.000 C 
BRANCH  29  30
ATOM     30  C   UNL     1      79.842  16.338  20.114  1.00  0.00    -0.000 C 
BRANCH  30  31
ATOM     31  C   UNL     1      80.624  17.298  19.206  1.00  0.00    -0.003 C 
ATOM     32  C   UNL     1      79.692  18.029  18.245  1.00  0.00     0.004 C 
ENDBRANCH  30  31
ENDBRANCH  29  30
ENDBRANCH  28  29
ENDBRANCH  27  28
ENDBRANCH  26  27
ENDBRANCH  25  26
ENDBRANCH  24  25
ENDBRANCH  23  24
ENDBRANCH  22  23
ENDBRANCH  21  22
ENDBRANCH  20  21
ENDBRANCH  19  20
ENDBRANCH  18  19
ENDBRANCH   1  18
TORSDOF 28
ENDMDL
MODEL 6
REMARK VINA RESULT:    -5.052      2.257      5.335
REMARK INTER + INTRA:         -18.805
REMARK INTER:                 -13.209
REMARK INTRA:                  -5.596
REMARK UNBOUND:                -5.485
REMARK SMILES CCCCCCCCCCCCCCCCCCCCCCCCCCCCCC(=O)[O-]
REMARK SMILES IDX 16 1 17 2 18 3 19 4 20 5 21 6 22 7 23 8 24 9 25 10 26 11
REMARK SMILES IDX 27 12 28 13 29 14 30 15 31 16 32 17 15 18 14 19 13 20 12 21
REMARK SMILES IDX 11 22 10 23 9 24 8 25 7 26 6 27 5 28 4 29 3 30 2 31 1 32
REMARK H PARENT
REMARK Flexibility Score: inf
ROOT
ATOM      1  C   UNL     1      74.454  14.228  18.546  1.00  0.00     0.000 C 
ENDROOT
BRANCH   1   2
ATOM      2  C   UNL     1      74.062  12.877  17.925  1.00  0.00     0.000 C 
BRANCH   2   3
ATOM      3  C   UNL     1      74.779  11.687  18.587  1.00  0.00     0.000 C 
BRANCH   3   4
ATOM      4  C   UNL     1      75.214  11.990  20.034  1.00  0.00     0.000 C 
BRANCH   4   5
ATOM      5  C   UNL     1      76.618  11.454  20.376  1.00  0.00     0.000 C 
BRANCH   5   6
ATOM      6  C   UNL     1      77.781  12.404  20.028  1.00  0.00     0.000 C 
BRANCH   6   7
ATOM      7  C   UNL     1      78.935  11.735  19.250  1.00  0.00     0.000 C 
BRANCH   7   8
ATOM      8  C   UNL     1      79.337  12.484  17.970  1.00  0.00     0.000 C 
BRANCH   8   9
ATOM      9  C   UNL     1      78.124  12.913  17.130  1.00  0.00     0.000 C 
BRANCH   9  10
ATOM     10  C   UNL     1      78.143  12.315  15.714  1.00  0.00     0.000 C 
BRANCH  10  11
ATOM     11  C   UNL     1      77.032  11.280  15.492  1.00  0.00     0.000 C 
BRANCH  11  12
ATOM     12  C   UNL     1      77.238  10.057  16.403  1.00  0.00     0.000 C 
BRANCH  12  13
ATOM     13  C   UNL     1      78.217   9.031  15.816  1.00  0.00     0.006 C 
BRANCH  13  14
ATOM     14  C   UNL     1      78.276   7.729  16.625  1.00  0.00     0.053 C 
BRANCH  14  15
ATOM     15  C   UNL     1      78.532   6.564  15.720  1.00  0.00     0.041 C 
ATOM     16  O   UNL     1      78.170   6.607  14.512  1.00  0.00    -0.550 OA
ATOM     17  O   UNL     1      79.119   5.408  16.224  1.00  0.00    -0.550 OA
ENDBRANCH  14  15
ENDBRANCH  13  14
ENDBRANCH  12  13
ENDBRANCH  11  12
ENDBRANCH  10  11
ENDBRANCH   9  10
ENDBRANCH   8   9
ENDBRANCH   7   8
ENDBRANCH   6   7
ENDBRANCH   5   6
ENDBRANCH   4   5
ENDBRANCH   3   4
ENDBRANCH   2   3
ENDBRANCH   1   2
BRANCH   1  18
ATOM     18  C   UNL     1      75.380  15.023  17.609  1.00  0.00     0.000 C 
BRANCH  18  19
ATOM     19  C   UNL     1      75.118  14.729  16.121  1.00  0.00     0.000 C 
BRANCH  19  20
ATOM     20  C   UNL     1      74.751  15.984  15.308  1.00  0.00     0.000 C 
BRANCH  20  21
ATOM     21  C   UNL     1      75.279  17.275  15.961  1.00  0.00     0.000 C 
BRANCH  21  22
ATOM     22  C   UNL     1      75.983  18.209  14.961  1.00  0.00     0.000 C 
BRANCH  22  23
ATOM     23  C   UNL     1      77.484  18.353  15.271  1.00  0.00     0.000 C 
BRANCH  23  24
ATOM     24  C   UNL     1      77.908  17.476  16.463  1.00  0.00    -0.000 C 
BRANCH  24  25
ATOM     25  C   UNL     1      78.967  16.428  16.081  1.00  0.00    -0.000 C 
BRANCH  25  26
ATOM     26  C   UNL     1      79.885  16.058  17.261  1.00  0.00    -0.000 C 
BRANCH  26  27
ATOM     27  C   UNL     1      79.192  16.197  18.627  1.00  0.00    -0.000 C 
BRANCH  27  28
ATOM     28  C   UNL     1      80.169  16.310  19.817  1.00  0.00    -0.000 C 
BRANCH  28  29
ATOM     29  C   UNL     1      80.055  15.124  20.793  1.00  0.00    -0.000 C 
BRANCH  29  30
ATOM     30  C   UNL     1      81.287  14.209  20.755  1.00  0.00    -0.000 C 
BRANCH  30  31
ATOM     31  C   UNL     1      82.398  14.744  19.840  1.00  0.00    -0.003 C 
ATOM     32  C   UNL     1      82.843  13.684  18.837  1.00  0.00     0.004 C 
ENDBRANCH  30  31
ENDBRANCH  29  30
ENDBRANCH  28  29
ENDBRANCH  27  28
ENDBRANCH  26  27
ENDBRANCH  25  26
ENDBRANCH  24  25
ENDBRANCH  23  24
ENDBRANCH  22  23
ENDBRANCH  21  22
ENDBRANCH  20  21
ENDBRANCH  19  20
ENDBRANCH  18  19
ENDBRANCH   1  18
TORSDOF 28
ENDMDL
MODEL 7
REMARK VINA RESULT:    -5.049      1.956      5.175
REMARK INTER + INTRA:         -18.798
REMARK INTER:                 -13.676
REMARK INTRA:                  -5.122
REMARK UNBOUND:                -5.485
REMARK SMILES CCCCCCCCCCCCCCCCCCCCCCCCCCCCCC(=O)[O-]
REMARK SMILES IDX 16 1 17 2 18 3 19 4 20 5 21 6 22 7 23 8 24 9 25 10 26 11
REMARK SMILES IDX 27 12 28 13 29 14 30 15 31 16 32 17 15 18 14 19 13 20 12 21
REMARK SMILES IDX 11 22 10 23 9 24 8 25 7 26 6 27 5 28 4 29 3 30 2 31 1 32
REMARK H PARENT
REMARK Flexibility Score: inf
ROOT
ATOM      1  C   UNL     1      73.931  13.168  18.797  1.00  0.00     0.000 C 
ENDROOT
BRANCH   1   2
ATOM      2  C   UNL     1      74.402  13.329  17.342  1.00  0.00     0.000 C 
BRANCH   2   3
ATOM      3  C   UNL     1      75.245  14.598  17.126  1.00  0.00     0.000 C 
BRANCH   3   4
ATOM      4  C   UNL     1      75.287  15.035  15.649  1.00  0.00     0.000 C 
BRANCH   4   5
ATOM      5  C   UNL     1      74.699  16.440  15.409  1.00  0.00     0.000 C 
BRANCH   5   6
ATOM      6  C   UNL     1      75.649  17.608  15.738  1.00  0.00     0.000 C 
BRANCH   6   7
ATOM      7  C   UNL     1      77.063  17.463  15.133  1.00  0.00     0.000 C 
BRANCH   7   8
ATOM      8  C   UNL     1      78.142  17.087  16.161  1.00  0.00     0.000 C 
BRANCH   8   9
ATOM      9  C   UNL     1      79.052  15.947  15.674  1.00  0.00     0.000 C 
BRANCH   9  10
ATOM     10  C   UNL     1      78.716  15.494  14.244  1.00  0.00     0.000 C 
BRANCH  10  11
ATOM     11  C   UNL     1      79.779  14.557  13.654  1.00  0.00     0.000 C 
BRANCH  11  12
ATOM     12  C   UNL     1      80.057  14.909  12.183  1.00  0.00     0.000 C 
BRANCH  12  13
ATOM     13  C   UNL     1      79.245  14.055  11.198  1.00  0.00     0.006 C 
BRANCH  13  14
ATOM     14  C   UNL     1      80.111  13.066  10.408  1.00  0.00     0.053 C 
BRANCH  14  15
ATOM     15  C   UNL     1      79.269  11.954   9.865  1.00  0.00     0.041 C 
ATOM     16  O   UNL     1      78.868  11.987   8.669  1.00  0.00    -0.550 OA
ATOM     17  O   UNL     1      78.878  10.908  10.694  1.00  0.00    -0.550 OA
ENDBRANCH  14  15
ENDBRANCH  13  14
ENDBRANCH  12  13
ENDBRANCH  11  12
ENDBRANCH  10  11
ENDBRANCH   9  10
ENDBRANCH   8   9
ENDBRANCH   7   8
ENDBRANCH   6   7
ENDBRANCH   5   6
ENDBRANCH   4   5
ENDBRANCH   3   4
ENDBRANCH   2   3
ENDBRANCH   1   2
BRANCH   1  18
ATOM     18  C   UNL     1      74.377  11.815  19.378  1.00  0.00     0.000 C 
BRANCH  18  19
ATOM     19  C   UNL     1      75.728  11.895  20.110  1.00  0.00     0.000 C 
BRANCH  19  20
ATOM     20  C   UNL     1      76.704  10.772  19.712  1.00  0.00     0.000 C 
BRANCH  20  21
ATOM     21  C   UNL     1      76.202   9.968  18.499  1.00  0.00     0.000 C 
BRANCH  21  22
ATOM     22  C   UNL     1      77.305   9.119  17.843  1.00  0.00     0.000 C 
BRANCH  22  23
ATOM     23  C   UNL     1      77.966   9.854  16.663  1.00  0.00     0.000 C 
BRANCH  23  24
ATOM     24  C   UNL     1      77.098  11.021  16.157  1.00  0.00    -0.000 C 
BRANCH  24  25
ATOM     25  C   UNL     1      77.854  12.360  16.146  1.00  0.00    -0.000 C 
BRANCH  25  26
ATOM     26  C   UNL     1      79.360  12.191  16.423  1.00  0.00    -0.000 C 
BRANCH  26  27
ATOM     27  C   UNL     1      79.810  12.876  17.725  1.00  0.00    -0.000 C 
BRANCH  27  28
ATOM     28  C   UNL     1      78.669  13.586  18.485  1.00  0.00    -0.000 C 
BRANCH  28  29
ATOM     29  C   UNL     1      78.957  13.723  19.992  1.00  0.00    -0.000 C 
BRANCH  29  30
ATOM     30  C   UNL     1      79.974  14.834  20.298  1.00  0.00    -0.000 C 
BRANCH  30  31
ATOM     31  C   UNL     1      79.478  16.225  19.880  1.00  0.00    -0.003 C 
ATOM     32  C   UNL     1      80.563  16.995  19.134  1.00  0.00     0.004 C 
ENDBRANCH  30  31
ENDBRANCH  29  30
ENDBRANCH  28  29
ENDBRANCH  27  28
ENDBRANCH  26  27
ENDBRANCH  25  26
ENDBRANCH  24  25
ENDBRANCH  23  24
ENDBRANCH  22  23
ENDBRANCH  21  22
ENDBRANCH  20  21
ENDBRANCH  19  20
ENDBRANCH  18  19
ENDBRANCH   1  18
TORSDOF 28
ENDMDL
MODEL 8
REMARK VINA RESULT:    -5.047      1.531      6.359
REMARK INTER + INTRA:         -18.793
REMARK INTER:                 -13.809
REMARK INTRA:                  -4.984
REMARK UNBOUND:                -5.485
REMARK SMILES CCCCCCCCCCCCCCCCCCCCCCCCCCCCCC(=O)[O-]
REMARK SMILES IDX 16 1 17 2 18 3 19 4 20 5 21 6 22 7 23 8 24 9 25 10 26 11
REMARK SMILES IDX 27 12 28 13 29 14 30 15 31 16 32 17 15 18 14 19 13 20 12 21
REMARK SMILES IDX 11 22 10 23 9 24 8 25 7 26 6 27 5 28 4 29 3 30 2 31 1 32
REMARK H PARENT
REMARK Flexibility Score: inf
ROOT
ATOM      1  C   UNL     1      78.799  14.870  19.239  1.00  0.00     0.000 C 
ENDROOT
BRANCH   1   2
ATOM      2  C   UNL     1      78.116  15.767  18.192  1.00  0.00     0.000 C 
BRANCH   2   3
ATOM      3  C   UNL     1      79.028  16.087  16.995  1.00  0.00     0.000 C 
BRANCH   3   4
ATOM      4  C   UNL     1      78.687  17.437  16.337  1.00  0.00     0.000 C 
BRANCH   4   5
ATOM      5  C   UNL     1      77.898  17.295  15.020  1.00  0.00     0.000 C 
BRANCH   5   6
ATOM      6  C   UNL     1      76.665  18.212  14.899  1.00  0.00     0.000 C 
BRANCH   6   7
ATOM      7  C   UNL     1      75.421  17.706  15.662  1.00  0.00     0.000 C 
BRANCH   7   8
ATOM      8  C   UNL     1      74.868  16.373  15.134  1.00  0.00     0.000 C 
BRANCH   8   9
ATOM      9  C   UNL     1      74.918  15.253  16.187  1.00  0.00     0.000 C 
BRANCH   9  10
ATOM     10  C   UNL     1      75.309  13.894  15.586  1.00  0.00     0.000 C 
BRANCH  10  11
ATOM     11  C   UNL     1      76.768  13.852  15.111  1.00  0.00     0.000 C 
BRANCH  11  12
ATOM     12  C   UNL     1      77.483  12.607  15.661  1.00  0.00     0.000 C 
BRANCH  12  13
ATOM     13  C   UNL     1      77.145  11.328  14.882  1.00  0.00     0.006 C 
BRANCH  13  14
ATOM     14  C   UNL     1      78.390  10.537  14.460  1.00  0.00     0.053 C 
BRANCH  14  15
ATOM     15  C   UNL     1      78.666  10.738  13.002  1.00  0.00     0.041 C 
ATOM     16  O   UNL     1      79.500  11.609  12.628  1.00  0.00    -0.550 OA
ATOM     17  O   UNL     1      77.962  10.005  12.053  1.00  0.00    -0.550 OA
ENDBRANCH  14  15
ENDBRANCH  13  14
ENDBRANCH  12  13
ENDBRANCH  11  12
ENDBRANCH  10  11
ENDBRANCH   9  10
ENDBRANCH   8   9
ENDBRANCH   7   8
ENDBRANCH   6   7
ENDBRANCH   5   6
ENDBRANCH   4   5
ENDBRANCH   3   4
ENDBRANCH   2   3
ENDBRANCH   1   2
BRANCH   1  18
ATOM     18  C   UNL     1      79.919  15.627  19.972  1.00  0.00     0.000 C 
BRANCH  18  19
ATOM     19  C   UNL     1      80.741  14.721  20.906  1.00  0.00     0.000 C 
BRANCH  19  20
ATOM     20  C   UNL     1      82.129  14.364  20.342  1.00  0.00     0.000 C 
BRANCH  20  21
ATOM     21  C   UNL     1      82.239  12.874  19.969  1.00  0.00     0.000 C 
BRANCH  21  22
ATOM     22  C   UNL     1      81.703  12.567  18.560  1.00  0.00     0.000 C 
BRANCH  22  23
ATOM     23  C   UNL     1      80.393  11.761  18.609  1.00  0.00     0.000 C 
BRANCH  23  24
ATOM     24  C   UNL     1      80.627  10.268  18.314  1.00  0.00    -0.000 C 
BRANCH  24  25
ATOM     25  C   UNL     1      79.465   9.381  18.791  1.00  0.00    -0.000 C 
BRANCH  25  26
ATOM     26  C   UNL     1      78.189   9.575  17.950  1.00  0.00    -0.000 C 
BRANCH  26  27
ATOM     27  C   UNL     1      76.926   9.751  18.810  1.00  0.00    -0.000 C 
BRANCH  27  28
ATOM     28  C   UNL     1      77.191  10.393  20.188  1.00  0.00    -0.000 C 
BRANCH  28  29
ATOM     29  C   UNL     1      76.987  11.919  20.180  1.00  0.00    -0.000 C 
BRANCH  29  30
ATOM     30  C   UNL     1      75.967  12.371  19.125  1.00  0.00    -0.000 C 
BRANCH  30  31
ATOM     31  C   UNL     1      74.515  12.122  19.557  1.00  0.00    -0.003 C 
ATOM     32  C   UNL     1      73.562  13.102  18.878  1.00  0.00     0.004 C 
ENDBRANCH  30  31
ENDBRANCH  29  30
ENDBRANCH  28  29
ENDBRANCH  27  28
ENDBRANCH  26  27
ENDBRANCH  25  26
ENDBRANCH  24  25
ENDBRANCH  23  24
ENDBRANCH  22  23
ENDBRANCH  21  22
ENDBRANCH  20  21
ENDBRANCH  19  20
ENDBRANCH  18  19
ENDBRANCH   1  18
TORSDOF 28
ENDMDL
MODEL 9
REMARK VINA RESULT:    -5.022      2.055      5.225
REMARK INTER + INTRA:         -18.726
REMARK INTER:                 -13.313
REMARK INTRA:                  -5.414
REMARK UNBOUND:                -5.485
REMARK SMILES CCCCCCCCCCCCCCCCCCCCCCCCCCCCCC(=O)[O-]
REMARK SMILES IDX 16 1 17 2 18 3 19 4 20 5 21 6 22 7 23 8 24 9 25 10 26 11
REMARK SMILES IDX 27 12 28 13 29 14 30 15 31 16 32 17 15 18 14 19 13 20 12 21
REMARK SMILES IDX 11 22 10 23 9 24 8 25 7 26 6 27 5 28 4 29 3 30 2 31 1 32
REMARK H PARENT
REMARK Flexibility Score: inf
ROOT
ATOM      1  C   UNL     1      78.495  16.494  17.487  1.00  0.00     0.000 C 
ENDROOT
BRANCH   1   2
ATOM      2  C   UNL     1      79.875  16.985  17.956  1.00  0.00     0.000 C 
BRANCH   2   3
ATOM      3  C   UNL     1      80.052  16.894  19.482  1.00  0.00     0.000 C 
BRANCH   3   4
ATOM      4  C   UNL     1      80.808  15.622  19.913  1.00  0.00     0.000 C 
BRANCH   4   5
ATOM      5  C   UNL     1      79.899  14.560  20.562  1.00  0.00     0.000 C 
BRANCH   5   6
ATOM      6  C   UNL     1      79.680  13.288  19.719  1.00  0.00     0.000 C 
BRANCH   6   7
ATOM      7  C   UNL     1      80.713  13.092  18.588  1.00  0.00     0.000 C 
BRANCH   7   8
ATOM      8  C   UNL     1      80.123  13.243  17.176  1.00  0.00     0.000 C 
BRANCH   8   9
ATOM      9  C   UNL     1      78.614  12.953  17.131  1.00  0.00     0.000 C 
BRANCH   9  10
ATOM     10  C   UNL     1      78.092  12.760  15.698  1.00  0.00     0.000 C 
BRANCH  10  11
ATOM     11  C   UNL     1      78.760  13.707  14.691  1.00  0.00     0.000 C 
BRANCH  11  12
ATOM     12  C   UNL     1      78.139  13.539  13.294  1.00  0.00     0.000 C 
BRANCH  12  13
ATOM     13  C   UNL     1      79.157  13.089  12.236  1.00  0.00     0.006 C 
BRANCH  13  14
ATOM     14  C   UNL     1      78.496  12.551  10.961  1.00  0.00     0.053 C 
BRANCH  14  15
ATOM     15  C   UNL     1      79.281  12.959   9.754  1.00  0.00     0.041 C 
ATOM     16  O   UNL     1      80.253  13.756   9.868  1.00  0.00    -0.550 OA
ATOM     17  O   UNL     1      78.906  12.506   8.493  1.00  0.00    -0.550 OA
ENDBRANCH  14  15
ENDBRANCH  13  14
ENDBRANCH  12  13
ENDBRANCH  11  12
ENDBRANCH  10  11
ENDBRANCH   9  10
ENDBRANCH   8   9
ENDBRANCH   7   8
ENDBRANCH   6   7
ENDBRANCH   5   6
ENDBRANCH   4   5
ENDBRANCH   3   4
ENDBRANCH   2   3
ENDBRANCH   1   2
BRANCH   1  18
ATOM     18  C   UNL     1      78.174  17.010  16.073  1.00  0.00     0.000 C 
BRANCH  18  19
ATOM     19  C   UNL     1      77.012  18.020  16.055  1.00  0.00     0.000 C 
BRANCH  19  20
ATOM     20  C   UNL     1      75.766  17.501  15.314  1.00  0.00     0.000 C 
BRANCH  20  21
ATOM     21  C   UNL     1      75.776  15.969  15.161  1.00  0.00     0.000 C 
BRANCH  21  22
ATOM     22  C   UNL     1      74.663  15.278  15.969  1.00  0.00     0.000 C 
BRANCH  22  23
ATOM     23  C   UNL     1      75.191  14.707  17.298  1.00  0.00     0.000 C 
BRANCH  23  24
ATOM     24  C   UNL     1      74.854  13.213  17.453  1.00  0.00    -0.000 C 
BRANCH  24  25
ATOM     25  C   UNL     1      73.932  12.935  18.651  1.00  0.00    -0.000 C 
BRANCH  25  26
ATOM     26  C   UNL     1      74.579  11.998  19.689  1.00  0.00    -0.000 C 
BRANCH  26  27
ATOM     27  C   UNL     1      76.110  12.133  19.746  1.00  0.00    -0.000 C 
BRANCH  27  28
ATOM     28  C   UNL     1      76.853  10.783  19.851  1.00  0.00    -0.000 C 
BRANCH  28  29
ATOM     29  C   UNL     1      76.510   9.827  18.693  1.00  0.00    -0.000 C 
BRANCH  29  30
ATOM     30  C   UNL     1      77.742   9.452  17.855  1.00  0.00    -0.000 C 
BRANCH  30  31
ATOM     31  C   UNL     1      79.053   9.552  18.647  1.00  0.00    -0.003 C 
ATOM     32  C   UNL     1      80.261   9.546  17.715  1.00  0.00     0.004 C 
ENDBRANCH  30  31
ENDBRANCH  29  30
ENDBRANCH  28  29
ENDBRANCH  27  28
ENDBRANCH  26  27
ENDBRANCH  25  26
ENDBRANCH  24  25
ENDBRANCH  23  24
ENDBRANCH  22  23
ENDBRANCH  21  22
ENDBRANCH  20  21
ENDBRANCH  19  20
ENDBRANCH  18  19
ENDBRANCH   1  18
TORSDOF 28
ENDMDL
