MODEL 1
REMARK VINA RESULT:    -4.887      0.000      0.000
REMARK INTER + INTRA:          -5.173
REMARK INTER:                  -5.173
REMARK INTRA:                   0.000
REMARK UNBOUND:                 0.000
REMARK SMILES O=c1ccc2cc(O)c(O)cc2o1
REMARK SMILES IDX 4 1 3 2 2 3 1 4 13 5 12 6 11 7 9 8 7 9 6 10 5 11 8 12 10 14
REMARK H PARENT 8 13 10 15
REMARK Flexibility Score: inf
ROOT
ATOM      1  C   UNL     1      -0.021   7.435   3.823  1.00  0.00     0.019 A 
ATOM      2  C   UNL     1       0.242   7.832   5.134  1.00  0.00     0.094 A 
ATOM      3  C   UNL     1       1.571   7.938   5.556  1.00  0.00     0.336 A 
ATOM      4  O   UNL     1       1.827   8.295   6.736  1.00  0.00    -0.246 OA
ATOM      5  O   UNL     1       2.568   7.666   4.719  1.00  0.00    -0.423 OA
ATOM      6  C   UNL     1       2.361   7.285   3.460  1.00  0.00     0.142 A 
ATOM      7  C   UNL     1       3.449   7.012   2.625  1.00  0.00     0.098 A 
ATOM      8  C   UNL     1       3.238   6.610   1.298  1.00  0.00     0.161 A 
ATOM      9  C   UNL     1       1.926   6.481   0.803  1.00  0.00     0.158 A 
ATOM     10  C   UNL     1       0.836   6.754   1.638  1.00  0.00     0.062 A 
ATOM     11  C   UNL     1       1.046   7.156   2.964  1.00  0.00     0.022 A 
ENDROOT
BRANCH   9  12
ATOM     12  O   UNL     1       1.689   6.083  -0.512  1.00  0.00    -0.504 OA
ATOM     13  H   UNL     1       1.500   5.119  -0.757  1.00  0.00     0.293 HD
ENDBRANCH   9  12
BRANCH   8  14
ATOM     14  O   UNL     1       4.325   6.338   0.469  1.00  0.00    -0.504 OA
ATOM     15  H   UNL     1       4.221   6.275  -0.537  1.00  0.00     0.293 HD
ENDBRANCH   8  14
TORSDOF 2
ENDMDL
MODEL 2
REMARK VINA RESULT:    -4.460      1.050      2.237
REMARK INTER + INTRA:          -4.720
REMARK INTER:                  -4.720
REMARK INTRA:                   0.000
REMARK UNBOUND:                 0.000
REMARK SMILES O=c1ccc2cc(O)c(O)cc2o1
REMARK SMILES IDX 4 1 3 2 2 3 1 4 13 5 12 6 11 7 9 8 7 9 6 10 5 11 8 12 10 14
REMARK H PARENT 8 13 10 15
REMARK Flexibility Score: inf
ROOT
ATOM      1  C   UNL     1       2.926   7.841   4.714  1.00  0.00     0.019 A 
ATOM      2  C   UNL     1       1.880   8.171   5.575  1.00  0.00     0.094 A 
ATOM      3  C   UNL     1       0.563   8.019   5.131  1.00  0.00     0.336 A 
ATOM      4  O   UNL     1      -0.395   8.312   5.894  1.00  0.00    -0.246 OA
ATOM      5  O   UNL     1       0.313   7.564   3.906  1.00  0.00    -0.423 OA
ATOM      6  C   UNL     1       1.281   7.237   3.054  1.00  0.00     0.142 A 
ATOM      7  C   UNL     1       0.959   6.764   1.778  1.00  0.00     0.098 A 
ATOM      8  C   UNL     1       1.974   6.418   0.874  1.00  0.00     0.161 A 
ATOM      9  C   UNL     1       3.324   6.546   1.252  1.00  0.00     0.158 A 
ATOM     10  C   UNL     1       3.649   7.019   2.529  1.00  0.00     0.062 A 
ATOM     11  C   UNL     1       2.635   7.365   3.432  1.00  0.00     0.022 A 
ENDROOT
BRANCH   9  12
ATOM     12  O   UNL     1       4.353   6.208   0.374  1.00  0.00    -0.504 OA
ATOM     13  H   UNL     1       4.177   5.730  -0.502  1.00  0.00     0.293 HD
ENDBRANCH   9  12
BRANCH   8  14
ATOM     14  O   UNL     1       1.649   5.947  -0.397  1.00  0.00    -0.504 OA
ATOM     15  H   UNL     1       1.972   5.045  -0.728  1.00  0.00     0.293 HD
ENDBRANCH   8  14
TORSDOF 2
ENDMDL
MODEL 3
REMARK VINA RESULT:    -4.382      1.224      5.009
REMARK INTER + INTRA:          -4.638
REMARK INTER:                  -4.638
REMARK INTRA:                   0.000
REMARK UNBOUND:                 0.000
REMARK SMILES O=c1ccc2cc(O)c(O)cc2o1
REMARK SMILES IDX 4 1 3 2 2 3 1 4 13 5 12 6 11 7 9 8 7 9 6 10 5 11 8 12 10 14
REMARK H PARENT 8 13 10 15
REMARK Flexibility Score: inf
ROOT
ATOM      1  C   UNL     1       3.501   6.890   1.950  1.00  0.00     0.019 A 
ATOM      2  C   UNL     1       3.039   6.334   0.757  1.00  0.00     0.094 A 
ATOM      3  C   UNL     1       1.668   6.114   0.597  1.00  0.00     0.336 A 
ATOM      4  O   UNL     1       1.233   5.613  -0.473  1.00  0.00    -0.246 OA
ATOM      5  O   UNL     1       0.817   6.431   1.570  1.00  0.00    -0.423 OA
ATOM      6  C   UNL     1       1.215   6.963   2.723  1.00  0.00     0.142 A 
ATOM      7  C   UNL     1       0.274   7.275   3.710  1.00  0.00     0.098 A 
ATOM      8  C   UNL     1       0.687   7.836   4.928  1.00  0.00     0.161 A 
ATOM      9  C   UNL     1       2.053   8.086   5.159  1.00  0.00     0.158 A 
ATOM     10  C   UNL     1       2.995   7.774   4.172  1.00  0.00     0.062 A 
ATOM     11  C   UNL     1       2.584   7.214   2.955  1.00  0.00     0.022 A 
ENDROOT
BRANCH   9  12
ATOM     12  O   UNL     1       2.489   8.643   6.360  1.00  0.00    -0.504 OA
ATOM     13  H   UNL     1       3.293   9.257   6.407  1.00  0.00     0.293 HD
ENDBRANCH   9  12
BRANCH   8  14
ATOM     14  O   UNL     1      -0.254   8.147   5.909  1.00  0.00    -0.504 OA
ATOM     15  H   UNL     1      -0.204   9.010   6.437  1.00  0.00     0.293 HD
ENDBRANCH   8  14
TORSDOF 2
ENDMDL
MODEL 4
REMARK VINA RESULT:    -4.354      1.952      4.391
REMARK INTER + INTRA:          -4.609
REMARK INTER:                  -4.609
REMARK INTRA:                   0.000
REMARK UNBOUND:                 0.000
REMARK SMILES O=c1ccc2cc(O)c(O)cc2o1
REMARK SMILES IDX 4 1 3 2 2 3 1 4 13 5 12 6 11 7 9 8 7 9 6 10 5 11 8 12 10 14
REMARK H PARENT 8 13 10 15
REMARK Flexibility Score: inf
ROOT
ATOM      1  C   UNL     1       1.143   7.180   2.011  1.00  0.00     0.019 A 
ATOM      2  C   UNL     1       0.638   6.568   0.865  1.00  0.00     0.094 A 
ATOM      3  C   UNL     1       1.506   5.834   0.049  1.00  0.00     0.336 A 
ATOM      4  O   UNL     1       1.068   5.275  -0.990  1.00  0.00    -0.246 OA
ATOM      5  O   UNL     1       2.793   5.722   0.365  1.00  0.00    -0.423 OA
ATOM      6  C   UNL     1       3.316   6.289   1.450  1.00  0.00     0.142 A 
ATOM      7  C   UNL     1       4.677   6.137   1.731  1.00  0.00     0.098 A 
ATOM      8  C   UNL     1       5.234   6.732   2.873  1.00  0.00     0.161 A 
ATOM      9  C   UNL     1       4.421   7.486   3.739  1.00  0.00     0.158 A 
ATOM     10  C   UNL     1       3.058   7.639   3.459  1.00  0.00     0.062 A 
ATOM     11  C   UNL     1       2.501   7.045   2.320  1.00  0.00     0.022 A 
ENDROOT
BRANCH   9  12
ATOM     12  O   UNL     1       4.949   8.088   4.881  1.00  0.00    -0.504 OA
ATOM     13  H   UNL     1       4.972   7.616   5.776  1.00  0.00     0.293 HD
ENDBRANCH   9  12
BRANCH   8  14
ATOM     14  O   UNL     1       6.592   6.578   3.149  1.00  0.00    -0.504 OA
ATOM     15  H   UNL     1       6.947   5.755   3.623  1.00  0.00     0.293 HD
ENDBRANCH   8  14
TORSDOF 2
ENDMDL
MODEL 5
REMARK VINA RESULT:    -4.346      1.114      4.512
REMARK INTER + INTRA:          -4.600
REMARK INTER:                  -4.600
REMARK INTRA:                   0.000
REMARK UNBOUND:                 0.000
REMARK SMILES O=c1ccc2cc(O)c(O)cc2o1
REMARK SMILES IDX 4 1 3 2 2 3 1 4 13 5 12 6 11 7 9 8 7 9 6 10 5 11 8 12 10 14
REMARK H PARENT 8 13 10 15
REMARK Flexibility Score: inf
ROOT
ATOM      1  C   UNL     1       1.135   6.335   1.601  1.00  0.00     0.019 A 
ATOM      2  C   UNL     1       2.193   6.064   0.734  1.00  0.00     0.094 A 
ATOM      3  C   UNL     1       3.491   6.412   1.119  1.00  0.00     0.336 A 
ATOM      4  O   UNL     1       4.459   6.175   0.350  1.00  0.00    -0.246 OA
ATOM      5  O   UNL     1       3.712   6.994   2.295  1.00  0.00    -0.423 OA
ATOM      6  C   UNL     1       2.731   7.270   3.152  1.00  0.00     0.142 A 
ATOM      7  C   UNL     1       3.023   7.883   4.374  1.00  0.00     0.098 A 
ATOM      8  C   UNL     1       1.994   8.177   5.281  1.00  0.00     0.161 A 
ATOM      9  C   UNL     1       0.662   7.855   4.961  1.00  0.00     0.158 A 
ATOM     10  C   UNL     1       0.368   7.241   3.737  1.00  0.00     0.062 A 
ATOM     11  C   UNL     1       1.395   6.947   2.831  1.00  0.00     0.022 A 
ENDROOT
BRANCH   9  12
ATOM     12  O   UNL     1      -0.379   8.136   5.845  1.00  0.00    -0.504 OA
ATOM     13  H   UNL     1      -0.363   8.943   6.456  1.00  0.00     0.293 HD
ENDBRANCH   9  12
BRANCH   8  14
ATOM     14  O   UNL     1       2.290   8.788   6.499  1.00  0.00    -0.504 OA
ATOM     15  H   UNL     1       1.559   9.081   7.136  1.00  0.00     0.293 HD
ENDBRANCH   8  14
TORSDOF 2
ENDMDL
MODEL 6
REMARK VINA RESULT:    -4.331      3.026      5.096
REMARK INTER + INTRA:          -4.585
REMARK INTER:                  -4.585
REMARK INTRA:                   0.000
REMARK UNBOUND:                 0.000
REMARK SMILES O=c1ccc2cc(O)c(O)cc2o1
REMARK SMILES IDX 4 1 3 2 2 3 1 4 13 5 12 6 11 7 9 8 7 9 6 10 5 11 8 12 10 14
REMARK H PARENT 8 13 10 15
REMARK Flexibility Score: inf
ROOT
ATOM      1  C   UNL     1       3.563   7.273   2.874  1.00  0.00     0.019 A 
ATOM      2  C   UNL     1       2.621   7.233   1.848  1.00  0.00     0.094 A 
ATOM      3  C   UNL     1       2.848   6.396   0.750  1.00  0.00     0.336 A 
ATOM      4  O   UNL     1       2.008   6.346  -0.186  1.00  0.00    -0.246 OA
ATOM      5  O   UNL     1       3.948   5.651   0.688  1.00  0.00    -0.423 OA
ATOM      6  C   UNL     1       4.873   5.659   1.646  1.00  0.00     0.142 A 
ATOM      7  C   UNL     1       6.009   4.853   1.526  1.00  0.00     0.098 A 
ATOM      8  C   UNL     1       6.988   4.857   2.532  1.00  0.00     0.161 A 
ATOM      9  C   UNL     1       6.826   5.675   3.666  1.00  0.00     0.158 A 
ATOM     10  C   UNL     1       5.688   6.482   3.787  1.00  0.00     0.062 A 
ATOM     11  C   UNL     1       4.710   6.478   2.783  1.00  0.00     0.022 A 
ENDROOT
BRANCH   9  12
ATOM     12  O   UNL     1       7.783   5.698   4.679  1.00  0.00    -0.504 OA
ATOM     13  H   UNL     1       8.448   4.945   4.808  1.00  0.00     0.293 HD
ENDBRANCH   9  12
BRANCH   8  14
ATOM     14  O   UNL     1       8.120   4.053   2.409  1.00  0.00    -0.504 OA
ATOM     15  H   UNL     1       8.124   3.230   1.817  1.00  0.00     0.293 HD
ENDBRANCH   8  14
TORSDOF 2
ENDMDL
MODEL 7
REMARK VINA RESULT:    -4.276      2.016      2.365
REMARK INTER + INTRA:          -4.526
REMARK INTER:                  -4.526
REMARK INTRA:                   0.000
REMARK UNBOUND:                 0.000
REMARK SMILES O=c1ccc2cc(O)c(O)cc2o1
REMARK SMILES IDX 4 1 3 2 2 3 1 4 13 5 12 6 11 7 9 8 7 9 6 10 5 11 8 12 10 14
REMARK H PARENT 8 13 10 15
REMARK Flexibility Score: inf
ROOT
ATOM      1  C   UNL     1       0.730   6.794   3.267  1.00  0.00     0.019 A 
ATOM      2  C   UNL     1      -0.131   7.770   3.768  1.00  0.00     0.094 A 
ATOM      3  C   UNL     1       0.109   9.111   3.454  1.00  0.00     0.336 A 
ATOM      4  O   UNL     1      -0.657  10.006   3.897  1.00  0.00    -0.246 OA
ATOM      5  O   UNL     1       1.143   9.450   2.689  1.00  0.00    -0.423 OA
ATOM      6  C   UNL     1       1.988   8.550   2.190  1.00  0.00     0.142 A 
ATOM      7  C   UNL     1       3.058   8.965   1.391  1.00  0.00     0.098 A 
ATOM      8  C   UNL     1       3.953   8.022   0.862  1.00  0.00     0.161 A 
ATOM      9  C   UNL     1       3.774   6.653   1.137  1.00  0.00     0.158 A 
ATOM     10  C   UNL     1       2.703   6.237   1.937  1.00  0.00     0.062 A 
ATOM     11  C   UNL     1       1.809   7.177   2.464  1.00  0.00     0.022 A 
ENDROOT
BRANCH   9  12
ATOM     12  O   UNL     1       4.648   5.696   0.624  1.00  0.00    -0.504 OA
ATOM     13  H   UNL     1       4.769   4.790   1.059  1.00  0.00     0.293 HD
ENDBRANCH   9  12
BRANCH   8  14
ATOM     14  O   UNL     1       5.019   8.439   0.067  1.00  0.00    -0.504 OA
ATOM     15  H   UNL     1       5.263   9.419  -0.022  1.00  0.00     0.293 HD
ENDBRANCH   8  14
TORSDOF 2
ENDMDL
MODEL 8
REMARK VINA RESULT:    -4.205     15.281     16.312
REMARK INTER + INTRA:          -4.451
REMARK INTER:                  -4.451
REMARK INTRA:                   0.000
REMARK UNBOUND:                 0.000
REMARK SMILES O=c1ccc2cc(O)c(O)cc2o1
REMARK SMILES IDX 4 1 3 2 2 3 1 4 13 5 12 6 11 7 9 8 7 9 6 10 5 11 8 12 10 14
REMARK H PARENT 8 13 10 15
REMARK Flexibility Score: inf
ROOT
ATOM      1  C   UNL     1       7.499  -4.222  -7.817  1.00  0.00     0.019 A 
ATOM      2  C   UNL     1       7.985  -5.315  -7.101  1.00  0.00     0.094 A 
ATOM      3  C   UNL     1       7.084  -6.116  -6.391  1.00  0.00     0.336 A 
ATOM      4  O   UNL     1       7.504  -7.108  -5.739  1.00  0.00    -0.246 OA
ATOM      5  O   UNL     1       5.783  -5.837  -6.401  1.00  0.00    -0.423 OA
ATOM      6  C   UNL     1       5.278  -4.805  -7.072  1.00  0.00     0.142 A 
ATOM      7  C   UNL     1       3.901  -4.561  -7.046  1.00  0.00     0.098 A 
ATOM      8  C   UNL     1       3.362  -3.473  -7.750  1.00  0.00     0.161 A 
ATOM      9  C   UNL     1       4.210  -2.624  -8.486  1.00  0.00     0.158 A 
ATOM     10  C   UNL     1       5.588  -2.867  -8.513  1.00  0.00     0.062 A 
ATOM     11  C   UNL     1       6.127  -3.953  -7.811  1.00  0.00     0.022 A 
ENDROOT
BRANCH   9  12
ATOM     12  O   UNL     1       3.700  -1.537  -9.195  1.00  0.00    -0.504 OA
ATOM     13  H   UNL     1       3.128  -1.655 -10.022  1.00  0.00     0.293 HD
ENDBRANCH   9  12
BRANCH   8  14
ATOM     14  O   UNL     1       1.990  -3.233  -7.722  1.00  0.00    -0.504 OA
ATOM     15  H   UNL     1       1.320  -3.990  -7.648  1.00  0.00     0.293 HD
ENDBRANCH   8  14
TORSDOF 2
ENDMDL
MODEL 9
REMARK VINA RESULT:    -4.140      1.889      4.774
REMARK INTER + INTRA:          -4.382
REMARK INTER:                  -4.382
REMARK INTRA:                   0.000
REMARK UNBOUND:                 0.000
REMARK SMILES O=c1ccc2cc(O)c(O)cc2o1
REMARK SMILES IDX 4 1 3 2 2 3 1 4 13 5 12 6 11 7 9 8 7 9 6 10 5 11 8 12 10 14
REMARK H PARENT 8 13 10 15
REMARK Flexibility Score: inf
ROOT
ATOM      1  C   UNL     1       5.041   6.524   3.047  1.00  0.00     0.019 A 
ATOM      2  C   UNL     1       6.044   5.977   2.248  1.00  0.00     0.094 A 
ATOM      3  C   UNL     1       5.774   5.725   0.898  1.00  0.00     0.336 A 
ATOM      4  O   UNL     1       6.667   5.232   0.161  1.00  0.00    -0.246 OA
ATOM      5  O   UNL     1       4.578   6.005   0.387  1.00  0.00    -0.423 OA
ATOM      6  C   UNL     1       3.594   6.528   1.115  1.00  0.00     0.142 A 
ATOM      7  C   UNL     1       2.357   6.801   0.522  1.00  0.00     0.098 A 
ATOM      8  C   UNL     1       1.315   7.352   1.283  1.00  0.00     0.161 A 
ATOM      9  C   UNL     1       1.514   7.631   2.649  1.00  0.00     0.158 A 
ATOM     10  C   UNL     1       2.752   7.358   3.243  1.00  0.00     0.062 A 
ATOM     11  C   UNL     1       3.794   6.808   2.483  1.00  0.00     0.022 A 
ENDROOT
BRANCH   9  12
ATOM     12  O   UNL     1       0.496   8.179   3.427  1.00  0.00    -0.504 OA
ATOM     13  H   UNL     1       0.296   9.171   3.430  1.00  0.00     0.293 HD
ENDBRANCH   9  12
BRANCH   8  14
ATOM     14  O   UNL     1       0.083   7.622   0.690  1.00  0.00    -0.504 OA
ATOM     15  H   UNL     1      -0.279   7.050  -0.064  1.00  0.00     0.293 HD
ENDBRANCH   8  14
TORSDOF 2
ENDMDL
