MODEL 1
REMARK VINA RESULT:    -7.633      0.000      0.000
REMARK INTER + INTRA:          -8.139
REMARK INTER:                  -8.302
REMARK INTRA:                   0.163
REMARK UNBOUND:                 0.163
REMARK SMILES C[C@H]1[C@H]2C3=CC[C@H]4[C@]5(C)CC[C@@H](O)C(C)(C)[C@H]5CC[C@@]4(C)[C@@]3(C)CC[C@@]2(C(=O)[O-])CC[C@@H]1C
REMARK SMILES IDX 26 1 30 2 25 3 3 4 31 5 24 6 4 7 2 8 32 9 22 10 5 11 1 12
REMARK SMILES IDX 33 13 23 14 20 15 6 16 7 17 19 18 21 19 8 20 18 21 17 22
REMARK SMILES IDX 10 23 9 24 14 25 11 26 12 27 15 28 16 29 27 30 28 31 29 32
REMARK SMILES IDX 13 33
REMARK H PARENT 13 34
REMARK Flexibility Score: inf
ROOT
ATOM      1  C   UNL     1      10.282  72.990  -4.599  1.00  0.00     0.017 C 
ATOM      2  C   UNL     1       8.791  72.718  -4.970  1.00  0.00     0.014 C 
ATOM      3  C   UNL     1      10.564  72.378  -3.178  1.00  0.00     0.014 C 
ATOM      4  C   UNL     1      10.593  74.554  -4.708  1.00  0.00     0.030 C 
ATOM      5  C   UNL     1       8.354  73.536  -6.183  1.00  0.00     0.004 C 
ATOM      6  C   UNL     1      11.038  73.368  -2.112  1.00  0.00     0.013 C 
ATOM      7  C   UNL     1      11.708  75.075  -3.779  1.00  0.00    -0.063 C 
ATOM      8  C   UNL     1       9.335  75.489  -4.762  1.00  0.00    -0.003 C 
ATOM      9  C   UNL     1       8.314  75.048  -5.868  1.00  0.00    -0.011 C 
ATOM     10  C   UNL     1      12.217  74.279  -2.570  1.00  0.00    -0.006 C 
ATOM     11  C   UNL     1      12.373  76.182  -4.154  1.00  0.00    -0.027 C 
ATOM     12  C   UNL     1       8.636  75.702  -3.409  1.00  0.00     0.008 C 
ATOM     13  C   UNL     1       8.519  75.849  -7.163  1.00  0.00     0.008 C 
ATOM     14  C   UNL     1      13.386  73.359  -3.048  1.00  0.00     0.017 C 
ATOM     15  C   UNL     1      12.727  75.267  -1.379  1.00  0.00    -0.020 C 
ATOM     16  C   UNL     1      13.649  76.581  -3.494  1.00  0.00     0.032 C 
ATOM     17  C   UNL     1      13.559  76.521  -1.946  1.00  0.00     0.006 C 
ATOM     18  C   UNL     1      11.522  75.764  -0.526  1.00  0.00     0.008 C 
ATOM     19  C   UNL     1      13.627  74.451  -0.385  1.00  0.00     0.012 C 
ATOM     20  C   UNL     1      13.263  77.959  -1.315  1.00  0.00    -0.025 C 
ATOM     21  C   UNL     1      11.809  76.852   0.526  1.00  0.00     0.005 C 
ATOM     22  C   UNL     1      13.018  77.776   0.223  1.00  0.00     0.003 C 
ATOM     23  C   UNL     1      14.529  78.878  -1.574  1.00  0.00     0.010 C 
ATOM     24  C   UNL     1      12.034  78.649  -1.988  1.00  0.00     0.012 C 
ATOM     25  C   UNL     1      13.067  79.091   1.130  1.00  0.00    -0.006 C 
ATOM     26  C   UNL     1      15.125  79.536  -0.325  1.00  0.00     0.033 C 
ATOM     27  C   UNL     1      14.031  80.178   0.531  1.00  0.00     0.120 C 
ATOM     28  C   UNL     1      11.670  79.725   1.386  1.00  0.00     0.014 C 
ATOM     29  C   UNL     1      13.617  78.691   2.528  1.00  0.00     0.014 C 
ENDROOT
BRANCH   1  30
ATOM     30  C   UNL     1      11.129  72.187  -5.603  1.00  0.00     0.048 C 
ATOM     31  O   UNL     1      10.658  71.212  -6.247  1.00  0.00    -0.550 OA
ATOM     32  O   UNL     1      12.451  72.554  -5.837  1.00  0.00    -0.550 OA
ENDBRANCH   1  30
BRANCH  27  33
ATOM     33  O   UNL     1      13.328  81.125  -0.238  1.00  0.00    -0.393 OA
ATOM     34  H   UNL     1      14.003  81.663  -0.731  1.00  0.00     0.210 HD
ENDBRANCH  27  33
TORSDOF 2
ENDMDL
MODEL 2
REMARK VINA RESULT:    -7.606      1.736      2.837
REMARK INTER + INTRA:          -8.110
REMARK INTER:                  -8.214
REMARK INTRA:                   0.104
REMARK UNBOUND:                 0.163
REMARK SMILES C[C@H]1[C@H]2C3=CC[C@H]4[C@]5(C)CC[C@@H](O)C(C)(C)[C@H]5CC[C@@]4(C)[C@@]3(C)CC[C@@]2(C(=O)[O-])CC[C@@H]1C
REMARK SMILES IDX 26 1 30 2 25 3 3 4 31 5 24 6 4 7 2 8 32 9 22 10 5 11 1 12
REMARK SMILES IDX 33 13 23 14 20 15 6 16 7 17 19 18 21 19 8 20 18 21 17 22
REMARK SMILES IDX 10 23 9 24 14 25 11 26 12 27 15 28 16 29 27 30 28 31 29 32
REMARK SMILES IDX 13 33
REMARK H PARENT 13 34
REMARK Flexibility Score: inf
ROOT
ATOM      1  C   UNL     1       9.998  72.724  -3.528  1.00  0.00     0.017 C 
ATOM      2  C   UNL     1       9.596  72.528  -5.024  1.00  0.00     0.014 C 
ATOM      3  C   UNL     1       8.828  73.473  -2.792  1.00  0.00     0.014 C 
ATOM      4  C   UNL     1      11.408  73.470  -3.437  1.00  0.00     0.030 C 
ATOM      5  C   UNL     1      10.787  72.090  -5.874  1.00  0.00     0.004 C 
ATOM      6  C   UNL     1       9.198  74.812  -2.149  1.00  0.00     0.013 C 
ATOM      7  C   UNL     1      11.627  74.321  -2.170  1.00  0.00    -0.063 C 
ATOM      8  C   UNL     1      11.886  74.173  -4.756  1.00  0.00    -0.003 C 
ATOM      9  C   UNL     1      11.847  73.207  -5.991  1.00  0.00    -0.011 C 
ATOM     10  C   UNL     1      10.475  74.756  -1.256  1.00  0.00    -0.006 C 
ATOM     11  C   UNL     1      12.892  74.532  -1.767  1.00  0.00    -0.027 C 
ATOM     12  C   UNL     1      11.180  75.503  -5.064  1.00  0.00     0.008 C 
ATOM     13  C   UNL     1      13.228  72.583  -6.250  1.00  0.00     0.008 C 
ATOM     14  C   UNL     1      10.265  73.648  -0.175  1.00  0.00     0.017 C 
ATOM     15  C   UNL     1      10.787  76.188  -0.544  1.00  0.00    -0.020 C 
ATOM     16  C   UNL     1      13.193  75.070  -0.408  1.00  0.00     0.032 C 
ATOM     17  C   UNL     1      12.314  76.300  -0.051  1.00  0.00     0.006 C 
ATOM     18  C   UNL     1      10.447  77.364  -1.507  1.00  0.00     0.008 C 
ATOM     19  C   UNL     1       9.828  76.371   0.684  1.00  0.00     0.012 C 
ATOM     20  C   UNL     1      13.085  77.674  -0.315  1.00  0.00    -0.025 C 
ATOM     21  C   UNL     1      10.859  78.779  -1.059  1.00  0.00     0.005 C 
ATOM     22  C   UNL     1      12.073  78.851  -0.095  1.00  0.00     0.003 C 
ATOM     23  C   UNL     1      14.286  77.769   0.716  1.00  0.00     0.010 C 
ATOM     24  C   UNL     1      13.692  77.735  -1.753  1.00  0.00     0.012 C 
ATOM     25  C   UNL     1      12.686  80.319   0.061  1.00  0.00    -0.006 C 
ATOM     26  C   UNL     1      14.321  79.045   1.563  1.00  0.00     0.033 C 
ATOM     27  C   UNL     1      14.126  80.287   0.690  1.00  0.00     0.120 C 
ATOM     28  C   UNL     1      12.721  81.125  -1.269  1.00  0.00     0.014 C 
ATOM     29  C   UNL     1      11.768  81.124   1.024  1.00  0.00     0.014 C 
ENDROOT
BRANCH   1  30
ATOM     30  C   UNL     1      10.077  71.314  -2.916  1.00  0.00     0.048 C 
ATOM     31  O   UNL     1       9.455  70.335  -3.406  1.00  0.00    -0.550 OA
ATOM     32  O   UNL     1      10.877  71.093  -1.799  1.00  0.00    -0.550 OA
ENDBRANCH   1  30
BRANCH  27  33
ATOM     33  O   UNL     1      15.124  80.325  -0.302  1.00  0.00    -0.393 OA
ATOM     34  H   UNL     1      15.022  79.504  -0.852  1.00  0.00     0.210 HD
ENDBRANCH  27  33
TORSDOF 2
ENDMDL
MODEL 3
REMARK VINA RESULT:    -6.874      1.676      7.634
REMARK INTER + INTRA:          -7.314
REMARK INTER:                  -7.449
REMARK INTRA:                   0.135
REMARK UNBOUND:                 0.163
REMARK SMILES C[C@H]1[C@H]2C3=CC[C@H]4[C@]5(C)CC[C@@H](O)C(C)(C)[C@H]5CC[C@@]4(C)[C@@]3(C)CC[C@@]2(C(=O)[O-])CC[C@@H]1C
REMARK SMILES IDX 26 1 30 2 25 3 3 4 31 5 24 6 4 7 2 8 32 9 22 10 5 11 1 12
REMARK SMILES IDX 33 13 23 14 20 15 6 16 7 17 19 18 21 19 8 20 18 21 17 22
REMARK SMILES IDX 10 23 9 24 14 25 11 26 12 27 15 28 16 29 27 30 28 31 29 32
REMARK SMILES IDX 13 33
REMARK H PARENT 13 34
REMARK Flexibility Score: inf
ROOT
ATOM      1  C   UNL     1      13.437  78.849   0.539  1.00  0.00     0.017 C 
ATOM      2  C   UNL     1      13.568  80.390   0.329  1.00  0.00     0.014 C 
ATOM      3  C   UNL     1      14.632  78.141  -0.198  1.00  0.00     0.014 C 
ATOM      4  C   UNL     1      11.993  78.356   0.063  1.00  0.00     0.030 C 
ATOM      5  C   UNL     1      12.296  81.125   0.746  1.00  0.00     0.004 C 
ATOM      6  C   UNL     1      14.240  77.137  -1.284  1.00  0.00     0.013 C 
ATOM      7  C   UNL     1      11.922  76.899  -0.437  1.00  0.00    -0.063 C 
ATOM      8  C   UNL     1      11.198  79.367  -0.835  1.00  0.00    -0.003 C 
ATOM      9  C   UNL     1      11.112  80.794  -0.190  1.00  0.00    -0.011 C 
ATOM     10  C   UNL     1      13.169  76.097  -0.830  1.00  0.00    -0.006 C 
ATOM     11  C   UNL     1      10.741  76.263  -0.352  1.00  0.00    -0.027 C 
ATOM     12  C   UNL     1      11.676  79.441  -2.294  1.00  0.00     0.008 C 
ATOM     13  C   UNL     1       9.788  80.980   0.567  1.00  0.00     0.008 C 
ATOM     14  C   UNL     1      13.705  75.372   0.446  1.00  0.00     0.017 C 
ATOM     15  C   UNL     1      12.836  75.011  -1.999  1.00  0.00    -0.020 C 
ATOM     16  C   UNL     1      10.643  74.784  -0.518  1.00  0.00     0.032 C 
ATOM     17  C   UNL     1      11.427  74.274  -1.757  1.00  0.00     0.006 C 
ATOM     18  C   UNL     1      12.851  75.693  -3.400  1.00  0.00     0.008 C 
ATOM     19  C   UNL     1      13.983  73.942  -2.049  1.00  0.00     0.012 C 
ATOM     20  C   UNL     1      10.469  74.064  -3.018  1.00  0.00    -0.025 C 
ATOM     21  C   UNL     1      12.373  74.848  -4.596  1.00  0.00     0.005 C 
ATOM     22  C   UNL     1      11.364  73.719  -4.259  1.00  0.00     0.003 C 
ATOM     23  C   UNL     1       9.482  72.867  -2.690  1.00  0.00     0.010 C 
ATOM     24  C   UNL     1       9.598  75.328  -3.305  1.00  0.00     0.012 C 
ATOM     25  C   UNL     1      10.628  73.109  -5.540  1.00  0.00    -0.006 C 
ATOM     26  C   UNL     1       9.463  71.735  -3.722  1.00  0.00     0.033 C 
ATOM     27  C   UNL     1       9.346  72.290  -5.143  1.00  0.00     0.120 C 
ATOM     28  C   UNL     1      10.250  74.174  -6.608  1.00  0.00     0.014 C 
ATOM     29  C   UNL     1      11.613  72.132  -6.241  1.00  0.00     0.014 C 
ENDROOT
BRANCH   1  30
ATOM     30  C   UNL     1      13.636  78.601   2.045  1.00  0.00     0.048 C 
ATOM     31  O   UNL     1      12.888  79.123   2.914  1.00  0.00    -0.550 OA
ATOM     32  O   UNL     1      14.655  77.756   2.475  1.00  0.00    -0.550 OA
ENDBRANCH   1  30
BRANCH  27  33
ATOM     33  O   UNL     1       8.181  73.073  -5.247  1.00  0.00    -0.393 OA
ATOM     34  H   UNL     1       8.166  73.682  -4.462  1.00  0.00     0.210 HD
ENDBRANCH  27  33
TORSDOF 2
ENDMDL
MODEL 4
REMARK VINA RESULT:    -6.829      2.438      4.230
REMARK INTER + INTRA:          -7.265
REMARK INTER:                  -7.082
REMARK INTRA:                  -0.183
REMARK UNBOUND:                 0.163
REMARK SMILES C[C@H]1[C@H]2C3=CC[C@H]4[C@]5(C)CC[C@@H](O)C(C)(C)[C@H]5CC[C@@]4(C)[C@@]3(C)CC[C@@]2(C(=O)[O-])CC[C@@H]1C
REMARK SMILES IDX 26 1 30 2 25 3 3 4 31 5 24 6 4 7 2 8 32 9 22 10 5 11 1 12
REMARK SMILES IDX 33 13 23 14 20 15 6 16 7 17 19 18 21 19 8 20 18 21 17 22
REMARK SMILES IDX 10 23 9 24 14 25 11 26 12 27 15 28 16 29 27 30 28 31 29 32
REMARK SMILES IDX 13 33
REMARK H PARENT 13 34
REMARK Flexibility Score: inf
ROOT
ATOM      1  C   UNL     1       7.729  75.098  -3.841  1.00  0.00     0.017 C 
ATOM      2  C   UNL     1       7.918  74.497  -5.269  1.00  0.00     0.014 C 
ATOM      3  C   UNL     1       7.609  76.660  -3.969  1.00  0.00     0.014 C 
ATOM      4  C   UNL     1       8.914  74.611  -2.885  1.00  0.00     0.030 C 
ATOM      5  C   UNL     1       8.346  73.032  -5.211  1.00  0.00     0.004 C 
ATOM      6  C   UNL     1       8.662  77.471  -3.210  1.00  0.00     0.013 C 
ATOM      7  C   UNL     1       9.278  75.574  -1.737  1.00  0.00    -0.063 C 
ATOM      8  C   UNL     1      10.163  74.005  -3.615  1.00  0.00    -0.003 C 
ATOM      9  C   UNL     1       9.769  72.875  -4.629  1.00  0.00    -0.011 C 
ATOM     10  C   UNL     1       8.840  77.044  -1.720  1.00  0.00    -0.006 C 
ATOM     11  C   UNL     1       9.844  75.052  -0.635  1.00  0.00    -0.027 C 
ATOM     12  C   UNL     1      11.090  75.044  -4.268  1.00  0.00     0.008 C 
ATOM     13  C   UNL     1       9.914  71.484  -3.993  1.00  0.00     0.008 C 
ATOM     14  C   UNL     1       7.446  77.131  -1.020  1.00  0.00     0.017 C 
ATOM     15  C   UNL     1       9.923  77.980  -0.940  1.00  0.00    -0.020 C 
ATOM     16  C   UNL     1       9.947  75.837   0.629  1.00  0.00     0.032 C 
ATOM     17  C   UNL     1      10.485  77.274   0.391  1.00  0.00     0.006 C 
ATOM     18  C   UNL     1      11.102  78.357  -1.886  1.00  0.00     0.008 C 
ATOM     19  C   UNL     1       9.246  79.343  -0.562  1.00  0.00     0.012 C 
ATOM     20  C   UNL     1      12.052  77.375   0.685  1.00  0.00    -0.025 C 
ATOM     21  C   UNL     1      12.304  79.082  -1.253  1.00  0.00     0.005 C 
ATOM     22  C   UNL     1      12.538  78.803   0.256  1.00  0.00     0.003 C 
ATOM     23  C   UNL     1      12.276  77.152   2.238  1.00  0.00     0.010 C 
ATOM     24  C   UNL     1      12.859  76.272  -0.071  1.00  0.00     0.012 C 
ATOM     25  C   UNL     1      13.971  79.274   0.784  1.00  0.00    -0.006 C 
ATOM     26  C   UNL     1      13.065  78.256   2.950  1.00  0.00     0.033 C 
ATOM     27  C   UNL     1      14.328  78.618   2.167  1.00  0.00     0.120 C 
ATOM     28  C   UNL     1      15.124  79.013  -0.225  1.00  0.00     0.014 C 
ATOM     29  C   UNL     1      13.924  80.815   0.991  1.00  0.00     0.014 C 
ENDROOT
BRANCH   1  30
ATOM     30  C   UNL     1       6.367  74.589  -3.336  1.00  0.00     0.048 C 
ATOM     31  O   UNL     1       5.354  74.535  -4.083  1.00  0.00    -0.550 OA
ATOM     32  O   UNL     1       6.241  74.146  -2.023  1.00  0.00    -0.550 OA
ENDBRANCH   1  30
BRANCH  27  33
ATOM     33  O   UNL     1      15.124  77.469   2.003  1.00  0.00    -0.393 OA
ATOM     34  H   UNL     1      14.944  77.114   1.092  1.00  0.00     0.210 HD
ENDBRANCH  27  33
TORSDOF 2
ENDMDL
MODEL 5
REMARK VINA RESULT:    -6.597      1.493      7.705
REMARK INTER + INTRA:          -7.013
REMARK INTER:                  -6.737
REMARK INTRA:                  -0.276
REMARK UNBOUND:                 0.163
REMARK SMILES C[C@H]1[C@H]2C3=CC[C@H]4[C@]5(C)CC[C@@H](O)C(C)(C)[C@H]5CC[C@@]4(C)[C@@]3(C)CC[C@@]2(C(=O)[O-])CC[C@@H]1C
REMARK SMILES IDX 26 1 30 2 25 3 3 4 31 5 24 6 4 7 2 8 32 9 22 10 5 11 1 12
REMARK SMILES IDX 33 13 23 14 20 15 6 16 7 17 19 18 21 19 8 20 18 21 17 22
REMARK SMILES IDX 10 23 9 24 14 25 11 26 12 27 15 28 16 29 27 30 28 31 29 32
REMARK SMILES IDX 13 33
REMARK H PARENT 13 34
REMARK Flexibility Score: inf
ROOT
ATOM      1  C   UNL     1      13.411  78.832   0.302  1.00  0.00     0.017 C 
ATOM      2  C   UNL     1      14.903  79.286   0.267  1.00  0.00     0.014 C 
ATOM      3  C   UNL     1      13.319  77.479   1.098  1.00  0.00     0.014 C 
ATOM      4  C   UNL     1      12.832  78.753  -1.185  1.00  0.00     0.030 C 
ATOM      5  C   UNL     1      15.125  80.416  -0.736  1.00  0.00     0.004 C 
ATOM      6  C   UNL     1      12.744  76.291   0.323  1.00  0.00     0.013 C 
ATOM      7  C   UNL     1      11.698  77.730  -1.402  1.00  0.00    -0.063 C 
ATOM      8  C   UNL     1      13.906  78.750  -2.328  1.00  0.00    -0.003 C 
ATOM      9  C   UNL     1      14.923  79.936  -2.191  1.00  0.00    -0.011 C 
ATOM     10  C   UNL     1      11.402  76.600  -0.409  1.00  0.00    -0.006 C 
ATOM     11  C   UNL     1      10.834  77.954  -2.408  1.00  0.00    -0.027 C 
ATOM     12  C   UNL     1      14.634  77.409  -2.519  1.00  0.00     0.008 C 
ATOM     13  C   UNL     1      14.511  81.125  -3.073  1.00  0.00     0.008 C 
ATOM     14  C   UNL     1      10.383  77.133   0.648  1.00  0.00     0.017 C 
ATOM     15  C   UNL     1      10.799  75.287  -1.162  1.00  0.00    -0.020 C 
ATOM     16  C   UNL     1       9.547  77.206  -2.505  1.00  0.00     0.032 C 
ATOM     17  C   UNL     1       9.735  75.678  -2.303  1.00  0.00     0.006 C 
ATOM     18  C   UNL     1      11.948  74.430  -1.772  1.00  0.00     0.008 C 
ATOM     19  C   UNL     1      10.110  74.357  -0.102  1.00  0.00     0.012 C 
ATOM     20  C   UNL     1       9.815  74.902  -3.697  1.00  0.00    -0.025 C 
ATOM     21  C   UNL     1      11.539  73.253  -2.678  1.00  0.00     0.005 C 
ATOM     22  C   UNL     1      10.175  73.404  -3.401  1.00  0.00     0.003 C 
ATOM     23  C   UNL     1       8.398  75.008  -4.400  1.00  0.00     0.010 C 
ATOM     24  C   UNL     1      10.868  75.540  -4.659  1.00  0.00     0.012 C 
ATOM     25  C   UNL     1       9.953  72.355  -4.587  1.00  0.00    -0.006 C 
ATOM     26  C   UNL     1       7.770  73.672  -4.810  1.00  0.00     0.033 C 
ATOM     27  C   UNL     1       8.784  72.792  -5.543  1.00  0.00     0.120 C 
ATOM     28  C   UNL     1      11.233  72.083  -5.426  1.00  0.00     0.014 C 
ATOM     29  C   UNL     1       9.560  70.991  -3.953  1.00  0.00     0.014 C 
ENDROOT
BRANCH   1  30
ATOM     30  C   UNL     1      12.659  79.886   1.133  1.00  0.00     0.048 C 
ATOM     31  O   UNL     1      12.831  80.007   2.375  1.00  0.00    -0.550 OA
ATOM     32  O   UNL     1      11.776  80.759   0.503  1.00  0.00    -0.550 OA
ENDBRANCH   1  30
BRANCH  27  33
ATOM     33  O   UNL     1       9.270  73.477  -6.673  1.00  0.00    -0.393 OA
ATOM     34  H   UNL     1      10.262  73.436  -6.636  1.00  0.00     0.210 HD
ENDBRANCH  27  33
TORSDOF 2
ENDMDL
MODEL 6
REMARK VINA RESULT:    -6.352      2.223      7.590
REMARK INTER + INTRA:          -6.746
REMARK INTER:                  -7.269
REMARK INTRA:                   0.523
REMARK UNBOUND:                 0.163
REMARK SMILES C[C@H]1[C@H]2C3=CC[C@H]4[C@]5(C)CC[C@@H](O)C(C)(C)[C@H]5CC[C@@]4(C)[C@@]3(C)CC[C@@]2(C(=O)[O-])CC[C@@H]1C
REMARK SMILES IDX 26 1 30 2 25 3 3 4 31 5 24 6 4 7 2 8 32 9 22 10 5 11 1 12
REMARK SMILES IDX 33 13 23 14 20 15 6 16 7 17 19 18 21 19 8 20 18 21 17 22
REMARK SMILES IDX 10 23 9 24 14 25 11 26 12 27 15 28 16 29 27 30 28 31 29 32
REMARK SMILES IDX 13 33
REMARK H PARENT 13 34
REMARK Flexibility Score: inf
ROOT
ATOM      1  C   UNL     1      10.732  79.855  -0.265  1.00  0.00     0.017 C 
ATOM      2  C   UNL     1       9.874  81.125  -0.560  1.00  0.00     0.014 C 
ATOM      3  C   UNL     1      11.909  79.795  -1.306  1.00  0.00     0.014 C 
ATOM      4  C   UNL     1       9.800  78.558  -0.260  1.00  0.00     0.030 C 
ATOM      5  C   UNL     1       8.549  81.097   0.198  1.00  0.00     0.004 C 
ATOM      6  C   UNL     1      11.956  78.542  -2.183  1.00  0.00     0.013 C 
ATOM      7  C   UNL     1      10.494  77.240  -0.662  1.00  0.00    -0.063 C 
ATOM      8  C   UNL     1       8.383  78.743  -0.909  1.00  0.00    -0.003 C 
ATOM      9  C   UNL     1       7.618  79.978  -0.320  1.00  0.00    -0.011 C 
ATOM     10  C   UNL     1      11.845  77.205  -1.388  1.00  0.00    -0.006 C 
ATOM     11  C   UNL     1       9.976  76.090  -0.198  1.00  0.00    -0.027 C 
ATOM     12  C   UNL     1       8.381  78.764  -2.446  1.00  0.00     0.008 C 
ATOM     13  C   UNL     1       6.654  79.551   0.798  1.00  0.00     0.008 C 
ATOM     14  C   UNL     1      12.977  77.185  -0.311  1.00  0.00     0.017 C 
ATOM     15  C   UNL     1      11.967  75.903  -2.359  1.00  0.00    -0.020 C 
ATOM     16  C   UNL     1      10.739  74.811  -0.273  1.00  0.00     0.032 C 
ATOM     17  C   UNL     1      11.368  74.577  -1.673  1.00  0.00     0.006 C 
ATOM     18  C   UNL     1      11.259  76.168  -3.721  1.00  0.00     0.008 C 
ATOM     19  C   UNL     1      13.476  75.668  -2.718  1.00  0.00     0.012 C 
ATOM     20  C   UNL     1      10.466  73.613  -2.573  1.00  0.00    -0.025 C 
ATOM     21  C   UNL     1      11.119  74.973  -4.684  1.00  0.00     0.005 C 
ATOM     22  C   UNL     1      11.082  73.574  -4.015  1.00  0.00     0.003 C 
ATOM     23  C   UNL     1      10.485  72.170  -1.917  1.00  0.00     0.010 C 
ATOM     24  C   UNL     1       8.978  74.088  -2.626  1.00  0.00     0.012 C 
ATOM     25  C   UNL     1      10.585  72.407  -4.987  1.00  0.00    -0.006 C 
ATOM     26  C   UNL     1      10.907  71.032  -2.853  1.00  0.00     0.033 C 
ATOM     27  C   UNL     1      10.167  71.119  -4.189  1.00  0.00     0.120 C 
ATOM     28  C   UNL     1       9.421  72.833  -5.927  1.00  0.00     0.014 C 
ATOM     29  C   UNL     1      11.768  72.022  -5.920  1.00  0.00     0.014 C 
ENDROOT
BRANCH   1  30
ATOM     30  C   UNL     1      11.373  80.080   1.116  1.00  0.00     0.048 C 
ATOM     31  O   UNL     1      12.332  79.377   1.532  1.00  0.00    -0.550 OA
ATOM     32  O   UNL     1      10.907  81.107   1.933  1.00  0.00    -0.550 OA
ENDBRANCH   1  30
BRANCH  27  33
ATOM     33  O   UNL     1       8.779  71.081  -3.961  1.00  0.00    -0.393 OA
ATOM     34  H   UNL     1       8.394  71.908  -4.355  1.00  0.00     0.210 HD
ENDBRANCH  27  33
TORSDOF 2
ENDMDL
MODEL 7
REMARK VINA RESULT:    -5.225      3.289      7.959
REMARK INTER + INTRA:          -5.521
REMARK INTER:                  -5.472
REMARK INTRA:                  -0.049
REMARK UNBOUND:                 0.163
REMARK SMILES C[C@H]1[C@H]2C3=CC[C@H]4[C@]5(C)CC[C@@H](O)C(C)(C)[C@H]5CC[C@@]4(C)[C@@]3(C)CC[C@@]2(C(=O)[O-])CC[C@@H]1C
REMARK SMILES IDX 26 1 30 2 25 3 3 4 31 5 24 6 4 7 2 8 32 9 22 10 5 11 1 12
REMARK SMILES IDX 33 13 23 14 20 15 6 16 7 17 19 18 21 19 8 20 18 21 17 22
REMARK SMILES IDX 10 23 9 24 14 25 11 26 12 27 15 28 16 29 27 30 28 31 29 32
REMARK SMILES IDX 13 33
REMARK H PARENT 13 34
REMARK Flexibility Score: inf
ROOT
ATOM      1  C   UNL     1      13.039  79.354  -0.066  1.00  0.00     0.017 C 
ATOM      2  C   UNL     1      13.967  79.429   1.187  1.00  0.00     0.014 C 
ATOM      3  C   UNL     1      11.847  80.360   0.135  1.00  0.00     0.014 C 
ATOM      4  C   UNL     1      12.581  77.843  -0.313  1.00  0.00     0.030 C 
ATOM      5  C   UNL     1      14.968  78.276   1.215  1.00  0.00     0.004 C 
ATOM      6  C   UNL     1      10.447  79.743   0.115  1.00  0.00     0.013 C 
ATOM      7  C   UNL     1      11.214  77.669  -1.007  1.00  0.00    -0.063 C 
ATOM      8  C   UNL     1      12.800  76.865   0.893  1.00  0.00    -0.003 C 
ATOM      9  C   UNL     1      14.270  76.917   1.440  1.00  0.00    -0.011 C 
ATOM     10  C   UNL     1      10.185  78.803  -1.102  1.00  0.00    -0.006 C 
ATOM     11  C   UNL     1      11.001  76.539  -1.702  1.00  0.00    -0.027 C 
ATOM     12  C   UNL     1      11.775  77.010   2.030  1.00  0.00     0.008 C 
ATOM     13  C   UNL     1      15.125  75.791   0.837  1.00  0.00     0.008 C 
ATOM     14  C   UNL     1      10.467  79.610  -2.410  1.00  0.00     0.017 C 
ATOM     15  C   UNL     1       8.661  78.226  -1.113  1.00  0.00    -0.020 C 
ATOM     16  C   UNL     1       9.853  76.414  -2.646  1.00  0.00     0.032 C 
ATOM     17  C   UNL     1       8.519  76.908  -2.024  1.00  0.00     0.006 C 
ATOM     18  C   UNL     1       8.178  77.929   0.338  1.00  0.00     0.008 C 
ATOM     19  C   UNL     1       7.694  79.338  -1.650  1.00  0.00     0.012 C 
ATOM     20  C   UNL     1       7.648  75.696  -1.453  1.00  0.00    -0.025 C 
ATOM     21  C   UNL     1       6.828  77.203   0.493  1.00  0.00     0.005 C 
ATOM     22  C   UNL     1       6.413  76.297  -0.697  1.00  0.00     0.003 C 
ATOM     23  C   UNL     1       7.175  74.811  -2.681  1.00  0.00     0.010 C 
ATOM     24  C   UNL     1       8.480  74.777  -0.502  1.00  0.00     0.012 C 
ATOM     25  C   UNL     1       5.211  75.299  -0.359  1.00  0.00    -0.006 C 
ATOM     26  C   UNL     1       5.665  74.569  -2.769  1.00  0.00     0.033 C 
ATOM     27  C   UNL     1       5.099  74.140  -1.414  1.00  0.00     0.120 C 
ATOM     28  C   UNL     1       5.288  74.691   1.071  1.00  0.00     0.014 C 
ATOM     29  C   UNL     1       3.885  76.111  -0.407  1.00  0.00     0.014 C 
ENDROOT
BRANCH   1  30
ATOM     30  C   UNL     1      13.869  79.881  -1.249  1.00  0.00     0.048 C 
ATOM     31  O   UNL     1      14.809  79.214  -1.757  1.00  0.00    -0.550 OA
ATOM     32  O   UNL     1      13.568  81.121  -1.804  1.00  0.00    -0.550 OA
ENDBRANCH   1  30
BRANCH  27  33
ATOM     33  O   UNL     1       5.760  72.977  -0.976  1.00  0.00    -0.393 OA
ATOM     34  H   UNL     1       6.354  72.681  -1.715  1.00  0.00     0.210 HD
ENDBRANCH  27  33
TORSDOF 2
ENDMDL
