MODEL 1
REMARK VINA RESULT:    -4.957      0.000      0.000
REMARK INTER + INTRA:          -9.680
REMARK INTER:                  -8.435
REMARK INTRA:                  -1.245
REMARK UNBOUND:                -1.245
REMARK SMILES CCCCCCCCCCCCCC(=O)[O-]
REMARK SMILES IDX 8 1 9 2 10 3 11 4 12 5 13 6 14 7 15 8 16 9 7 10 6 11 5 12
REMARK SMILES IDX 4 13 3 14 2 15 1 16
REMARK H PARENT
REMARK Flexibility Score: inf
ROOT
ATOM      1  C   UNL     1      35.996  57.330  29.318  1.00  0.00     0.000 C 
ENDROOT
BRANCH   1   2
ATOM      2  C   UNL     1      35.436  57.577  27.906  1.00  0.00     0.000 C 
BRANCH   2   3
ATOM      3  C   UNL     1      34.805  56.319  27.288  1.00  0.00     0.000 C 
BRANCH   3   4
ATOM      4  C   UNL     1      33.415  56.591  26.687  1.00  0.00     0.000 C 
BRANCH   4   5
ATOM      5  C   UNL     1      32.334  55.638  27.233  1.00  0.00     0.006 C 
BRANCH   5   6
ATOM      6  C   UNL     1      32.469  54.183  26.753  1.00  0.00     0.053 C 
BRANCH   6   7
ATOM      7  C   UNL     1      32.640  53.228  27.893  1.00  0.00     0.041 C 
ATOM      8  O   UNL     1      31.709  52.442  28.206  1.00  0.00    -0.550 OA
ATOM      9  O   UNL     1      33.842  53.183  28.589  1.00  0.00    -0.550 OA
ENDBRANCH   6   7
ENDBRANCH   5   6
ENDBRANCH   4   5
ENDBRANCH   3   4
ENDBRANCH   2   3
ENDBRANCH   1   2
BRANCH   1  10
ATOM     10  C   UNL     1      35.296  58.181  30.388  1.00  0.00     0.000 C 
BRANCH  10  11
ATOM     11  C   UNL     1      34.590  57.329  31.453  1.00  0.00    -0.000 C 
BRANCH  11  12
ATOM     12  C   UNL     1      34.086  56.010  30.855  1.00  0.00    -0.000 C 
BRANCH  12  13
ATOM     13  C   UNL     1      32.684  55.667  31.384  1.00  0.00    -0.000 C 
BRANCH  13  14
ATOM     14  C   UNL     1      32.261  56.559  32.561  1.00  0.00    -0.000 C 
BRANCH  14  15
ATOM     15  C   UNL     1      32.148  55.782  33.881  1.00  0.00    -0.003 C 
ATOM     16  C   UNL     1      33.502  55.687  34.579  1.00  0.00     0.004 C 
ENDBRANCH  14  15
ENDBRANCH  13  14
ENDBRANCH  12  13
ENDBRANCH  11  12
ENDBRANCH  10  11
ENDBRANCH   1  10
TORSDOF 12
ENDMDL
MODEL 2
REMARK VINA RESULT:    -4.909      0.660      1.441
REMARK INTER + INTRA:          -9.597
REMARK INTER:                  -8.596
REMARK INTRA:                  -1.001
REMARK UNBOUND:                -1.245
REMARK SMILES CCCCCCCCCCCCCC(=O)[O-]
REMARK SMILES IDX 8 1 9 2 10 3 11 4 12 5 13 6 14 7 15 8 16 9 7 10 6 11 5 12
REMARK SMILES IDX 4 13 3 14 2 15 1 16
REMARK H PARENT
REMARK Flexibility Score: inf
ROOT
ATOM      1  C   UNL     1      35.681  57.762  28.258  1.00  0.00     0.000 C 
ENDROOT
BRANCH   1   2
ATOM      2  C   UNL     1      35.450  56.612  27.261  1.00  0.00     0.000 C 
BRANCH   2   3
ATOM      3  C   UNL     1      34.505  57.002  26.113  1.00  0.00     0.000 C 
BRANCH   3   4
ATOM      4  C   UNL     1      33.099  56.400  26.277  1.00  0.00     0.000 C 
BRANCH   4   5
ATOM      5  C   UNL     1      32.918  55.663  27.617  1.00  0.00     0.006 C 
BRANCH   5   6
ATOM      6  C   UNL     1      32.003  54.429  27.545  1.00  0.00     0.053 C 
BRANCH   6   7
ATOM      7  C   UNL     1      32.625  53.229  28.189  1.00  0.00     0.041 C 
ATOM      8  O   UNL     1      33.852  53.225  28.470  1.00  0.00    -0.550 OA
ATOM      9  O   UNL     1      31.842  52.126  28.509  1.00  0.00    -0.550 OA
ENDBRANCH   6   7
ENDBRANCH   5   6
ENDBRANCH   4   5
ENDBRANCH   3   4
ENDBRANCH   2   3
ENDBRANCH   1   2
BRANCH   1  10
ATOM     10  C   UNL     1      35.828  57.268  29.706  1.00  0.00     0.000 C 
BRANCH  10  11
ATOM     11  C   UNL     1      35.307  58.284  30.733  1.00  0.00    -0.000 C 
BRANCH  11  12
ATOM     12  C   UNL     1      34.781  57.578  31.987  1.00  0.00    -0.000 C 
BRANCH  12  13
ATOM     13  C   UNL     1      34.438  56.110  31.689  1.00  0.00    -0.000 C 
BRANCH  13  14
ATOM     14  C   UNL     1      32.927  55.833  31.738  1.00  0.00    -0.000 C 
BRANCH  14  15
ATOM     15  C   UNL     1      32.247  56.482  32.952  1.00  0.00    -0.003 C 
ATOM     16  C   UNL     1      32.110  55.486  34.101  1.00  0.00     0.004 C 
ENDBRANCH  14  15
ENDBRANCH  13  14
ENDBRANCH  12  13
ENDBRANCH  11  12
ENDBRANCH  10  11
ENDBRANCH   1  10
TORSDOF 12
ENDMDL
MODEL 3
REMARK VINA RESULT:    -4.902      1.297      2.620
REMARK INTER + INTRA:          -9.585
REMARK INTER:                  -8.006
REMARK INTRA:                  -1.580
REMARK UNBOUND:                -1.245
REMARK SMILES CCCCCCCCCCCCCC(=O)[O-]
REMARK SMILES IDX 8 1 9 2 10 3 11 4 12 5 13 6 14 7 15 8 16 9 7 10 6 11 5 12
REMARK SMILES IDX 4 13 3 14 2 15 1 16
REMARK H PARENT
REMARK Flexibility Score: inf
ROOT
ATOM      1  C   UNL     1      34.523  57.066  26.486  1.00  0.00     0.000 C 
ENDROOT
BRANCH   1   2
ATOM      2  C   UNL     1      33.492  56.030  26.000  1.00  0.00     0.000 C 
BRANCH   2   3
ATOM      3  C   UNL     1      32.109  56.223  26.640  1.00  0.00     0.000 C 
BRANCH   3   4
ATOM      4  C   UNL     1      31.831  55.206  27.762  1.00  0.00     0.000 C 
BRANCH   4   5
ATOM      5  C   UNL     1      32.625  53.897  27.589  1.00  0.00     0.006 C 
BRANCH   5   6
ATOM      6  C   UNL     1      33.475  53.504  28.808  1.00  0.00     0.053 C 
BRANCH   6   7
ATOM      7  C   UNL     1      33.018  52.217  29.420  1.00  0.00     0.041 C 
ATOM      8  O   UNL     1      33.727  51.640  30.286  1.00  0.00    -0.550 OA
ATOM      9  O   UNL     1      31.792  51.670  29.060  1.00  0.00    -0.550 OA
ENDBRANCH   6   7
ENDBRANCH   5   6
ENDBRANCH   4   5
ENDBRANCH   3   4
ENDBRANCH   2   3
ENDBRANCH   1   2
BRANCH   1  10
ATOM     10  C   UNL     1      35.304  56.587  27.719  1.00  0.00     0.000 C 
BRANCH  10  11
ATOM     11  C   UNL     1      35.980  57.741  28.475  1.00  0.00    -0.000 C 
BRANCH  11  12
ATOM     12  C   UNL     1      35.510  57.791  29.934  1.00  0.00    -0.000 C 
BRANCH  12  13
ATOM     13  C   UNL     1      34.577  56.612  30.252  1.00  0.00    -0.000 C 
BRANCH  13  14
ATOM     14  C   UNL     1      33.794  56.813  31.559  1.00  0.00    -0.000 C 
BRANCH  14  15
ATOM     15  C   UNL     1      32.518  55.961  31.621  1.00  0.00    -0.003 C 
ATOM     16  C   UNL     1      32.800  54.594  32.239  1.00  0.00     0.004 C 
ENDBRANCH  14  15
ENDBRANCH  13  14
ENDBRANCH  12  13
ENDBRANCH  11  12
ENDBRANCH  10  11
ENDBRANCH   1  10
TORSDOF 12
ENDMDL
MODEL 4
REMARK VINA RESULT:    -4.875      2.808      5.959
REMARK INTER + INTRA:          -9.540
REMARK INTER:                  -8.264
REMARK INTRA:                  -1.277
REMARK UNBOUND:                -1.245
REMARK SMILES CCCCCCCCCCCCCC(=O)[O-]
REMARK SMILES IDX 8 1 9 2 10 3 11 4 12 5 13 6 14 7 15 8 16 9 7 10 6 11 5 12
REMARK SMILES IDX 4 13 3 14 2 15 1 16
REMARK H PARENT
REMARK Flexibility Score: inf
ROOT
ATOM      1  C   UNL     1      32.591  54.066  27.715  1.00  0.00     0.000 C 
ENDROOT
BRANCH   1   2
ATOM      2  C   UNL     1      33.238  54.008  29.110  1.00  0.00     0.000 C 
BRANCH   2   3
ATOM      3  C   UNL     1      32.930  55.250  29.960  1.00  0.00     0.000 C 
BRANCH   3   4
ATOM      4  C   UNL     1      32.981  54.959  31.470  1.00  0.00     0.000 C 
BRANCH   4   5
ATOM      5  C   UNL     1      32.437  56.123  32.320  1.00  0.00     0.006 C 
BRANCH   5   6
ATOM      6  C   UNL     1      32.427  55.853  33.834  1.00  0.00     0.053 C 
BRANCH   6   7
ATOM      7  C   UNL     1      33.572  56.520  34.531  1.00  0.00     0.041 C 
ATOM      8  O   UNL     1      34.172  57.483  33.986  1.00  0.00    -0.550 OA
ATOM      9  O   UNL     1      33.955  56.100  35.800  1.00  0.00    -0.550 OA
ENDBRANCH   6   7
ENDBRANCH   5   6
ENDBRANCH   4   5
ENDBRANCH   3   4
ENDBRANCH   2   3
ENDBRANCH   1   2
BRANCH   1  10
ATOM     10  C   UNL     1      31.673  55.286  27.540  1.00  0.00     0.000 C 
BRANCH  10  11
ATOM     11  C   UNL     1      32.204  56.280  26.496  1.00  0.00    -0.000 C 
BRANCH  11  12
ATOM     12  C   UNL     1      33.635  55.925  26.077  1.00  0.00    -0.000 C 
BRANCH  12  13
ATOM     13  C   UNL     1      34.612  57.052  26.448  1.00  0.00    -0.000 C 
BRANCH  13  14
ATOM     14  C   UNL     1      35.504  56.691  27.645  1.00  0.00    -0.000 C 
BRANCH  14  15
ATOM     15  C   UNL     1      35.908  57.920  28.474  1.00  0.00    -0.003 C 
ATOM     16  C   UNL     1      35.538  57.737  29.943  1.00  0.00     0.004 C 
ENDBRANCH  14  15
ENDBRANCH  13  14
ENDBRANCH  12  13
ENDBRANCH  11  12
ENDBRANCH  10  11
ENDBRANCH   1  10
TORSDOF 12
ENDMDL
MODEL 5
REMARK VINA RESULT:    -4.863      1.639      2.359
REMARK INTER + INTRA:          -9.520
REMARK INTER:                  -8.314
REMARK INTRA:                  -1.205
REMARK UNBOUND:                -1.245
REMARK SMILES CCCCCCCCCCCCCC(=O)[O-]
REMARK SMILES IDX 8 1 9 2 10 3 11 4 12 5 13 6 14 7 15 8 16 9 7 10 6 11 5 12
REMARK SMILES IDX 4 13 3 14 2 15 1 16
REMARK H PARENT
REMARK Flexibility Score: inf
ROOT
ATOM      1  C   UNL     1      35.375  57.167  30.036  1.00  0.00     0.000 C 
ENDROOT
BRANCH   1   2
ATOM      2  C   UNL     1      36.103  57.891  28.889  1.00  0.00     0.000 C 
BRANCH   2   3
ATOM      3  C   UNL     1      35.406  57.705  27.532  1.00  0.00     0.000 C 
BRANCH   3   4
ATOM      4  C   UNL     1      34.612  56.390  27.452  1.00  0.00     0.000 C 
BRANCH   4   5
ATOM      5  C   UNL     1      33.381  56.492  26.533  1.00  0.00     0.006 C 
BRANCH   5   6
ATOM      6  C   UNL     1      32.780  55.137  26.123  1.00  0.00     0.053 C 
BRANCH   6   7
ATOM      7  C   UNL     1      31.386  54.960  26.640  1.00  0.00     0.041 C 
ATOM      8  O   UNL     1      30.729  53.926  26.352  1.00  0.00    -0.550 OA
ATOM      9  O   UNL     1      30.824  55.924  27.470  1.00  0.00    -0.550 OA
ENDBRANCH   6   7
ENDBRANCH   5   6
ENDBRANCH   4   5
ENDBRANCH   3   4
ENDBRANCH   2   3
ENDBRANCH   1   2
BRANCH   1  10
ATOM     10  C   UNL     1      34.948  58.124  31.160  1.00  0.00     0.000 C 
BRANCH  10  11
ATOM     11  C   UNL     1      34.527  57.383  32.438  1.00  0.00    -0.000 C 
BRANCH  11  12
ATOM     12  C   UNL     1      33.056  56.956  32.366  1.00  0.00    -0.000 C 
BRANCH  12  13
ATOM     13  C   UNL     1      32.800  55.716  33.237  1.00  0.00    -0.000 C 
BRANCH  13  14
ATOM     14  C   UNL     1      32.362  54.495  32.413  1.00  0.00    -0.000 C 
BRANCH  14  15
ATOM     15  C   UNL     1      33.455  54.011  31.448  1.00  0.00    -0.003 C 
ATOM     16  C   UNL     1      33.035  54.219  29.995  1.00  0.00     0.004 C 
ENDBRANCH  14  15
ENDBRANCH  13  14
ENDBRANCH  12  13
ENDBRANCH  11  12
ENDBRANCH  10  11
ENDBRANCH   1  10
TORSDOF 12
ENDMDL
MODEL 6
REMARK VINA RESULT:    -4.782     11.648     14.401
REMARK INTER + INTRA:          -9.382
REMARK INTER:                  -7.965
REMARK INTRA:                  -1.416
REMARK UNBOUND:                -1.245
REMARK SMILES CCCCCCCCCCCCCC(=O)[O-]
REMARK SMILES IDX 8 1 9 2 10 3 11 4 12 5 13 6 14 7 15 8 16 9 7 10 6 11 5 12
REMARK SMILES IDX 4 13 3 14 2 15 1 16
REMARK H PARENT
REMARK Flexibility Score: inf
ROOT
ATOM      1  C   UNL     1      23.155  59.323  35.612  1.00  0.00     0.000 C 
ENDROOT
BRANCH   1   2
ATOM      2  C   UNL     1      22.153  58.498  36.440  1.00  0.00     0.000 C 
BRANCH   2   3
ATOM      3  C   UNL     1      22.657  57.078  36.740  1.00  0.00     0.000 C 
BRANCH   3   4
ATOM      4  C   UNL     1      22.191  56.564  38.113  1.00  0.00     0.000 C 
BRANCH   4   5
ATOM      5  C   UNL     1      21.583  57.675  38.990  1.00  0.00     0.006 C 
BRANCH   5   6
ATOM      6  C   UNL     1      20.085  57.498  39.291  1.00  0.00     0.053 C 
BRANCH   6   7
ATOM      7  C   UNL     1      19.758  56.101  39.715  1.00  0.00     0.041 C 
ATOM      8  O   UNL     1      19.097  55.346  38.954  1.00  0.00    -0.550 OA
ATOM      9  O   UNL     1      20.212  55.619  40.937  1.00  0.00    -0.550 OA
ENDBRANCH   6   7
ENDBRANCH   5   6
ENDBRANCH   4   5
ENDBRANCH   3   4
ENDBRANCH   2   3
ENDBRANCH   1   2
BRANCH   1  10
ATOM     10  C   UNL     1      24.011  58.450  34.682  1.00  0.00     0.000 C 
BRANCH  10  11
ATOM     11  C   UNL     1      24.252  59.105  33.314  1.00  0.00    -0.000 C 
BRANCH  11  12
ATOM     12  C   UNL     1      24.413  58.045  32.217  1.00  0.00    -0.000 C 
BRANCH  12  13
ATOM     13  C   UNL     1      23.592  56.787  32.544  1.00  0.00    -0.000 C 
BRANCH  13  14
ATOM     14  C   UNL     1      22.246  56.752  31.806  1.00  0.00    -0.000 C 
BRANCH  14  15
ATOM     15  C   UNL     1      21.045  56.783  32.764  1.00  0.00    -0.003 C 
ATOM     16  C   UNL     1      20.633  58.218  33.081  1.00  0.00     0.004 C 
ENDBRANCH  14  15
ENDBRANCH  13  14
ENDBRANCH  12  13
ENDBRANCH  11  12
ENDBRANCH  10  11
ENDBRANCH   1  10
TORSDOF 12
ENDMDL
MODEL 7
REMARK VINA RESULT:    -4.765      2.534      5.135
REMARK INTER + INTRA:          -9.353
REMARK INTER:                  -7.971
REMARK INTRA:                  -1.382
REMARK UNBOUND:                -1.245
REMARK SMILES CCCCCCCCCCCCCC(=O)[O-]
REMARK SMILES IDX 8 1 9 2 10 3 11 4 12 5 13 6 14 7 15 8 16 9 7 10 6 11 5 12
REMARK SMILES IDX 4 13 3 14 2 15 1 16
REMARK H PARENT
REMARK Flexibility Score: inf
ROOT
ATOM      1  C   UNL     1      35.324  58.137  30.646  1.00  0.00     0.000 C 
ENDROOT
BRANCH   1   2
ATOM      2  C   UNL     1      34.317  57.420  31.564  1.00  0.00     0.000 C 
BRANCH   2   3
ATOM      3  C   UNL     1      34.363  55.892  31.416  1.00  0.00     0.000 C 
BRANCH   3   4
ATOM      4  C   UNL     1      32.961  55.270  31.281  1.00  0.00     0.000 C 
BRANCH   4   5
ATOM      5  C   UNL     1      32.894  53.830  31.824  1.00  0.00     0.006 C 
BRANCH   5   6
ATOM      6  C   UNL     1      31.932  53.643  33.009  1.00  0.00     0.053 C 
BRANCH   6   7
ATOM      7  C   UNL     1      32.268  54.547  34.154  1.00  0.00     0.041 C 
ATOM      8  O   UNL     1      31.469  55.456  34.500  1.00  0.00    -0.550 OA
ATOM      9  O   UNL     1      33.450  54.364  34.862  1.00  0.00    -0.550 OA
ENDBRANCH   6   7
ENDBRANCH   5   6
ENDBRANCH   4   5
ENDBRANCH   3   4
ENDBRANCH   2   3
ENDBRANCH   1   2
BRANCH   1  10
ATOM     10  C   UNL     1      35.830  57.237  29.508  1.00  0.00     0.000 C 
BRANCH  10  11
ATOM     11  C   UNL     1      35.765  57.925  28.136  1.00  0.00    -0.000 C 
BRANCH  11  12
ATOM     12  C   UNL     1      35.081  57.024  27.101  1.00  0.00    -0.000 C 
BRANCH  12  13
ATOM     13  C   UNL     1      34.074  56.078  27.774  1.00  0.00    -0.000 C 
BRANCH  13  14
ATOM     14  C   UNL     1      32.726  56.029  27.039  1.00  0.00    -0.000 C 
BRANCH  14  15
ATOM     15  C   UNL     1      31.823  54.890  27.534  1.00  0.00    -0.003 C 
ATOM     16  C   UNL     1      32.637  53.630  27.820  1.00  0.00     0.004 C 
ENDBRANCH  14  15
ENDBRANCH  13  14
ENDBRANCH  12  13
ENDBRANCH  11  12
ENDBRANCH  10  11
ENDBRANCH   1  10
TORSDOF 12
ENDMDL
MODEL 8
REMARK VINA RESULT:    -4.679      2.323      5.013
REMARK INTER + INTRA:          -9.207
REMARK INTER:                  -7.810
REMARK INTRA:                  -1.397
REMARK UNBOUND:                -1.245
REMARK SMILES CCCCCCCCCCCCCC(=O)[O-]
REMARK SMILES IDX 8 1 9 2 10 3 11 4 12 5 13 6 14 7 15 8 16 9 7 10 6 11 5 12
REMARK SMILES IDX 4 13 3 14 2 15 1 16
REMARK H PARENT
REMARK Flexibility Score: inf
ROOT
ATOM      1  C   UNL     1      35.219  56.738  27.567  1.00  0.00     0.000 C 
ENDROOT
BRANCH   1   2
ATOM      2  C   UNL     1      36.025  57.953  28.060  1.00  0.00     0.000 C 
BRANCH   2   3
ATOM      3  C   UNL     1      36.042  58.072  29.592  1.00  0.00     0.000 C 
BRANCH   3   4
ATOM      4  C   UNL     1      34.884  57.307  30.256  1.00  0.00     0.000 C 
BRANCH   4   5
ATOM      5  C   UNL     1      35.218  56.848  31.688  1.00  0.00     0.006 C 
BRANCH   5   6
ATOM      6  C   UNL     1      34.255  57.375  32.764  1.00  0.00     0.053 C 
BRANCH   6   7
ATOM      7  C   UNL     1      33.203  56.370  33.119  1.00  0.00     0.041 C 
ATOM      8  O   UNL     1      33.531  55.221  33.514  1.00  0.00    -0.550 OA
ATOM      9  O   UNL     1      31.858  56.714  33.044  1.00  0.00    -0.550 OA
ENDBRANCH   6   7
ENDBRANCH   5   6
ENDBRANCH   4   5
ENDBRANCH   3   4
ENDBRANCH   2   3
ENDBRANCH   1   2
BRANCH   1  10
ATOM     10  C   UNL     1      34.493  57.010  26.240  1.00  0.00     0.000 C 
BRANCH  10  11
ATOM     11  C   UNL     1      33.440  55.940  25.913  1.00  0.00    -0.000 C 
BRANCH  11  12
ATOM     12  C   UNL     1      32.115  56.237  26.625  1.00  0.00    -0.000 C 
BRANCH  12  13
ATOM     13  C   UNL     1      31.809  55.167  27.685  1.00  0.00    -0.000 C 
BRANCH  13  14
ATOM     14  C   UNL     1      32.624  53.881  27.479  1.00  0.00    -0.000 C 
BRANCH  14  15
ATOM     15  C   UNL     1      33.450  53.501  28.717  1.00  0.00    -0.003 C 
ATOM     16  C   UNL     1      32.984  54.276  29.947  1.00  0.00     0.004 C 
ENDBRANCH  14  15
ENDBRANCH  13  14
ENDBRANCH  12  13
ENDBRANCH  11  12
ENDBRANCH  10  11
ENDBRANCH   1  10
TORSDOF 12
ENDMDL
MODEL 9
REMARK VINA RESULT:    -4.678      2.424      4.259
REMARK INTER + INTRA:          -9.204
REMARK INTER:                  -7.938
REMARK INTRA:                  -1.265
REMARK UNBOUND:                -1.245
REMARK SMILES CCCCCCCCCCCCCC(=O)[O-]
REMARK SMILES IDX 8 1 9 2 10 3 11 4 12 5 13 6 14 7 15 8 16 9 7 10 6 11 5 12
REMARK SMILES IDX 4 13 3 14 2 15 1 16
REMARK H PARENT
REMARK Flexibility Score: inf
ROOT
ATOM      1  C   UNL     1      32.569  53.748  27.073  1.00  0.00     0.000 C 
ENDROOT
BRANCH   1   2
ATOM      2  C   UNL     1      31.540  54.882  26.918  1.00  0.00     0.000 C 
BRANCH   2   3
ATOM      3  C   UNL     1      32.193  56.242  26.627  1.00  0.00     0.000 C 
BRANCH   3   4
ATOM      4  C   UNL     1      33.649  56.106  26.149  1.00  0.00     0.000 C 
BRANCH   4   5
ATOM      5  C   UNL     1      34.612  57.050  26.893  1.00  0.00     0.006 C 
BRANCH   5   6
ATOM      6  C   UNL     1      34.814  56.708  28.379  1.00  0.00     0.053 C 
BRANCH   6   7
ATOM      7  C   UNL     1      35.812  57.612  29.033  1.00  0.00     0.041 C 
ATOM      8  O   UNL     1      36.366  58.528  28.372  1.00  0.00    -0.550 OA
ATOM      9  O   UNL     1      36.106  57.464  30.383  1.00  0.00    -0.550 OA
ENDBRANCH   6   7
ENDBRANCH   5   6
ENDBRANCH   4   5
ENDBRANCH   3   4
ENDBRANCH   2   3
ENDBRANCH   1   2
BRANCH   1  10
ATOM     10  C   UNL     1      32.388  52.960  28.380  1.00  0.00     0.000 C 
BRANCH  10  11
ATOM     11  C   UNL     1      33.493  53.256  29.406  1.00  0.00    -0.000 C 
BRANCH  11  12
ATOM     12  C   UNL     1      33.148  52.656  30.774  1.00  0.00    -0.000 C 
BRANCH  12  13
ATOM     13  C   UNL     1      33.194  53.729  31.873  1.00  0.00    -0.000 C 
BRANCH  13  14
ATOM     14  C   UNL     1      33.597  55.110  31.334  1.00  0.00    -0.000 C 
BRANCH  14  15
ATOM     15  C   UNL     1      32.655  56.227  31.806  1.00  0.00    -0.003 C 
ATOM     16  C   UNL     1      32.325  56.076  33.289  1.00  0.00     0.004 C 
ENDBRANCH  14  15
ENDBRANCH  13  14
ENDBRANCH  12  13
ENDBRANCH  11  12
ENDBRANCH  10  11
ENDBRANCH   1  10
TORSDOF 12
ENDMDL
