MODEL 1
REMARK VINA RESULT:    -5.317      0.000      0.000
REMARK INTER + INTRA:          -6.514
REMARK INTER:                  -6.249
REMARK INTRA:                  -0.265
REMARK UNBOUND:                -0.265
REMARK SMILES O=c1cc(-c2ccc(O)c(O)c2)oc2cc(O)cc(O)c12
REMARK SMILES IDX 4 1 3 2 2 3 1 4 21 5 19 6 18 7 16 8 15 9 14 10 13 11 5 12
REMARK SMILES IDX 6 13 7 14 8 15 12 16 10 17 9 18 11 20 20 22 17 24
REMARK H PARENT 9 19 11 21 20 23 17 25
REMARK Flexibility Score: inf
ROOT
ATOM      1  C   UNL     1      27.114  12.616  31.637  1.00  0.00     0.138 A 
ATOM      2  C   UNL     1      26.825  13.305  32.828  1.00  0.00     0.100 A 
ATOM      3  C   UNL     1      25.568  13.885  32.998  1.00  0.00     0.197 A 
ATOM      4  O   UNL     1      25.318  14.502  34.068  1.00  0.00    -0.289 OA
ATOM      5  C   UNL     1      24.607  13.776  31.973  1.00  0.00     0.107 A 
ATOM      6  C   UNL     1      23.309  14.333  32.065  1.00  0.00     0.134 A 
ATOM      7  C   UNL     1      22.412  14.185  30.997  1.00  0.00     0.093 A 
ATOM      8  C   UNL     1      22.785  13.492  29.842  1.00  0.00     0.123 A 
ATOM      9  C   UNL     1      24.067  12.939  29.746  1.00  0.00     0.094 A 
ATOM     10  C   UNL     1      24.976  13.076  30.800  1.00  0.00     0.146 A 
ATOM     11  O   UNL     1      26.187  12.540  30.685  1.00  0.00    -0.456 OA
ENDROOT
BRANCH   1  12
ATOM     12  C   UNL     1      28.434  11.980  31.401  1.00  0.00     0.021 A 
ATOM     13  C   UNL     1      29.345  12.496  30.460  1.00  0.00     0.016 A 
ATOM     14  C   UNL     1      30.585  11.882  30.265  1.00  0.00     0.051 A 
ATOM     15  C   UNL     1      30.941  10.753  31.006  1.00  0.00     0.157 A 
ATOM     16  C   UNL     1      28.804  10.851  32.153  1.00  0.00     0.062 A 
ATOM     17  C   UNL     1      30.048  10.235  31.958  1.00  0.00     0.158 A 
BRANCH  15  18
ATOM     18  O   UNL     1      32.186  10.162  30.789  1.00  0.00    -0.504 OA
ATOM     19  H   UNL     1      32.395   9.639  29.948  1.00  0.00     0.293 HD
ENDBRANCH  15  18
BRANCH  17  20
ATOM     20  O   UNL     1      30.398   9.111  32.705  1.00  0.00    -0.504 OA
ATOM     21  H   UNL     1      29.948   8.898  33.587  1.00  0.00     0.293 HD
ENDBRANCH  17  20
ENDBRANCH   1  12
BRANCH   6  22
ATOM     22  O   UNL     1      22.907  15.031  33.204  1.00  0.00    -0.507 OA
ATOM     23  H   UNL     1      22.910  14.600  34.122  1.00  0.00     0.293 HD
ENDBRANCH   6  22
BRANCH   8  24
ATOM     24  O   UNL     1      21.875  13.360  28.796  1.00  0.00    -0.508 OA
ATOM     25  H   UNL     1      20.968  12.929  28.935  1.00  0.00     0.293 HD
ENDBRANCH   8  24
TORSDOF 5
ENDMDL
MODEL 2
REMARK VINA RESULT:    -5.067     18.579     21.392
REMARK INTER + INTRA:          -6.220
REMARK INTER:                  -5.916
REMARK INTRA:                  -0.304
REMARK UNBOUND:                -0.265
REMARK SMILES O=c1cc(-c2ccc(O)c(O)c2)oc2cc(O)cc(O)c12
REMARK SMILES IDX 4 1 3 2 2 3 1 4 21 5 19 6 18 7 16 8 15 9 14 10 13 11 5 12
REMARK SMILES IDX 6 13 7 14 8 15 12 16 10 17 9 18 11 20 20 22 17 24
REMARK H PARENT 9 19 11 21 20 23 17 25
REMARK Flexibility Score: inf
ROOT
ATOM      1  C   UNL     1      36.680  -2.128  43.808  1.00  0.00     0.138 A 
ATOM      2  C   UNL     1      36.293  -3.473  43.683  1.00  0.00     0.100 A 
ATOM      3  C   UNL     1      34.953  -3.783  43.447  1.00  0.00     0.197 A 
ATOM      4  O   UNL     1      34.615  -4.993  43.337  1.00  0.00    -0.289 OA
ATOM      5  C   UNL     1      34.007  -2.744  43.343  1.00  0.00     0.107 A 
ATOM      6  C   UNL     1      32.630  -2.971  43.104  1.00  0.00     0.134 A 
ATOM      7  C   UNL     1      31.751  -1.881  43.019  1.00  0.00     0.093 A 
ATOM      8  C   UNL     1      32.219  -0.574  43.167  1.00  0.00     0.123 A 
ATOM      9  C   UNL     1      33.579  -0.343  43.403  1.00  0.00     0.094 A 
ATOM     10  C   UNL     1      34.472  -1.416  43.491  1.00  0.00     0.146 A 
ATOM     11  O   UNL     1      35.760  -1.172  43.714  1.00  0.00    -0.456 OA
ENDROOT
BRANCH   1  12
ATOM     12  C   UNL     1      38.090  -1.739  44.060  1.00  0.00     0.021 A 
ATOM     13  C   UNL     1      38.957  -2.549  44.819  1.00  0.00     0.016 A 
ATOM     14  C   UNL     1      40.283  -2.163  45.031  1.00  0.00     0.051 A 
ATOM     15  C   UNL     1      40.769  -0.971  44.488  1.00  0.00     0.157 A 
ATOM     16  C   UNL     1      38.590  -0.548  43.505  1.00  0.00     0.062 A 
ATOM     17  C   UNL     1      39.920  -0.159  43.718  1.00  0.00     0.158 A 
BRANCH  15  18
ATOM     18  O   UNL     1      42.097  -0.612  44.718  1.00  0.00    -0.504 OA
ATOM     19  H   UNL     1      42.676  -1.094  45.395  1.00  0.00     0.293 HD
ENDBRANCH  15  18
BRANCH  17  20
ATOM     20  O   UNL     1      40.399   1.029  43.170  1.00  0.00    -0.504 OA
ATOM     21  H   UNL     1      40.002   1.927  43.418  1.00  0.00     0.293 HD
ENDBRANCH  17  20
ENDBRANCH   1  12
BRANCH   6  22
ATOM     22  O   UNL     1      32.132  -4.265  42.952  1.00  0.00    -0.507 OA
ATOM     23  H   UNL     1      32.650  -4.981  42.455  1.00  0.00     0.293 HD
ENDBRANCH   6  22
BRANCH   8  24
ATOM     24  O   UNL     1      31.325   0.491  43.079  1.00  0.00    -0.508 OA
ATOM     25  H   UNL     1      30.348   0.384  43.326  1.00  0.00     0.293 HD
ENDBRANCH   8  24
TORSDOF 5
ENDMDL
MODEL 3
REMARK VINA RESULT:    -5.037      2.008      7.387
REMARK INTER + INTRA:          -6.185
REMARK INTER:                  -5.901
REMARK INTRA:                  -0.284
REMARK UNBOUND:                -0.265
REMARK SMILES O=c1cc(-c2ccc(O)c(O)c2)oc2cc(O)cc(O)c12
REMARK SMILES IDX 4 1 3 2 2 3 1 4 21 5 19 6 18 7 16 8 15 9 14 10 13 11 5 12
REMARK SMILES IDX 6 13 7 14 8 15 12 16 10 17 9 18 11 20 20 22 17 24
REMARK H PARENT 9 19 11 21 20 23 17 25
REMARK Flexibility Score: inf
ROOT
ATOM      1  C   UNL     1      28.220  12.646  30.909  1.00  0.00     0.138 A 
ATOM      2  C   UNL     1      28.424  11.334  31.369  1.00  0.00     0.100 A 
ATOM      3  C   UNL     1      29.724  10.870  31.566  1.00  0.00     0.197 A 
ATOM      4  O   UNL     1      29.898   9.691  31.977  1.00  0.00    -0.289 OA
ATOM      5  C   UNL     1      30.815  11.721  31.297  1.00  0.00     0.107 A 
ATOM      6  C   UNL     1      32.164  11.330  31.471  1.00  0.00     0.134 A 
ATOM      7  C   UNL     1      33.193  12.236  31.175  1.00  0.00     0.093 A 
ATOM      8  C   UNL     1      32.902  13.521  30.710  1.00  0.00     0.123 A 
ATOM      9  C   UNL     1      31.570  13.913  30.537  1.00  0.00     0.094 A 
ATOM     10  C   UNL     1      30.529  13.024  30.826  1.00  0.00     0.146 A 
ATOM     11  O   UNL     1      29.271  13.421  30.655  1.00  0.00    -0.456 OA
ENDROOT
BRANCH   1  12
ATOM     12  C   UNL     1      26.859  13.194  30.681  1.00  0.00     0.021 A 
ATOM     13  C   UNL     1      26.575  14.563  30.845  1.00  0.00     0.016 A 
ATOM     14  C   UNL     1      25.287  15.052  30.613  1.00  0.00     0.051 A 
ATOM     15  C   UNL     1      24.264  14.190  30.209  1.00  0.00     0.157 A 
ATOM     16  C   UNL     1      25.828  12.334  30.262  1.00  0.00     0.062 A 
ATOM     17  C   UNL     1      24.534  12.824  30.030  1.00  0.00     0.158 A 
BRANCH  15  18
ATOM     18  O   UNL     1      22.988  14.708  29.987  1.00  0.00    -0.504 OA
ATOM     19  H   UNL     1      22.648  14.921  29.057  1.00  0.00     0.293 HD
ENDBRANCH  15  18
BRANCH  17  20
ATOM     20  O   UNL     1      23.520  11.959  29.623  1.00  0.00    -0.504 OA
ATOM     21  H   UNL     1      22.542  12.191  29.746  1.00  0.00     0.293 HD
ENDBRANCH  17  20
ENDBRANCH   1  12
BRANCH   6  22
ATOM     22  O   UNL     1      32.487  10.054  31.932  1.00  0.00    -0.507 OA
ATOM     23  H   UNL     1      33.023   9.403  31.369  1.00  0.00     0.293 HD
ENDBRANCH   6  22
BRANCH   8  24
ATOM     24  O   UNL     1      33.943  14.401  30.424  1.00  0.00    -0.508 OA
ATOM     25  H   UNL     1      33.791  15.242  29.879  1.00  0.00     0.293 HD
ENDBRANCH   8  24
TORSDOF 5
ENDMDL
MODEL 4
REMARK VINA RESULT:    -5.011      1.599      2.614
REMARK INTER + INTRA:          -6.154
REMARK INTER:                  -5.842
REMARK INTRA:                  -0.312
REMARK UNBOUND:                -0.265
REMARK SMILES O=c1cc(-c2ccc(O)c(O)c2)oc2cc(O)cc(O)c12
REMARK SMILES IDX 4 1 3 2 2 3 1 4 21 5 19 6 18 7 16 8 15 9 14 10 13 11 5 12
REMARK SMILES IDX 6 13 7 14 8 15 12 16 10 17 9 18 11 20 20 22 17 24
REMARK H PARENT 9 19 11 21 20 23 17 25
REMARK Flexibility Score: inf
ROOT
ATOM      1  C   UNL     1      26.768  12.555  31.505  1.00  0.00     0.138 A 
ATOM      2  C   UNL     1      26.097  13.350  30.562  1.00  0.00     0.100 A 
ATOM      3  C   UNL     1      24.811  13.811  30.844  1.00  0.00     0.197 A 
ATOM      4  O   UNL     1      24.216  14.524  29.991  1.00  0.00    -0.289 OA
ATOM      5  C   UNL     1      24.201  13.469  32.067  1.00  0.00     0.107 A 
ATOM      6  C   UNL     1      22.902  13.896  32.432  1.00  0.00     0.134 A 
ATOM      7  C   UNL     1      22.364  13.507  33.668  1.00  0.00     0.093 A 
ATOM      8  C   UNL     1      23.098  12.703  34.544  1.00  0.00     0.123 A 
ATOM      9  C   UNL     1      24.383  12.279  34.189  1.00  0.00     0.094 A 
ATOM     10  C   UNL     1      24.937  12.656  32.961  1.00  0.00     0.146 A 
ATOM     11  O   UNL     1      26.161  12.242  32.647  1.00  0.00    -0.456 OA
ENDROOT
BRANCH   1  12
ATOM     12  C   UNL     1      28.137  12.035  31.259  1.00  0.00     0.021 A 
ATOM     13  C   UNL     1      29.009  12.652  30.342  1.00  0.00     0.016 A 
ATOM     14  C   UNL     1      30.295  12.147  30.138  1.00  0.00     0.051 A 
ATOM     15  C   UNL     1      30.738  11.027  30.847  1.00  0.00     0.157 A 
ATOM     16  C   UNL     1      28.593  10.916  31.979  1.00  0.00     0.062 A 
ATOM     17  C   UNL     1      29.884  10.409  31.775  1.00  0.00     0.158 A 
BRANCH  15  18
ATOM     18  O   UNL     1      32.027  10.546  30.621  1.00  0.00    -0.504 OA
ATOM     19  H   UNL     1      32.791  11.156  30.354  1.00  0.00     0.293 HD
ENDBRANCH  15  18
BRANCH  17  20
ATOM     20  O   UNL     1      30.320   9.294  32.489  1.00  0.00    -0.504 OA
ATOM     21  H   UNL     1      30.108   9.177  33.472  1.00  0.00     0.293 HD
ENDBRANCH  17  20
ENDBRANCH   1  12
BRANCH   6  22
ATOM     22  O   UNL     1      22.145  14.699  31.579  1.00  0.00    -0.507 OA
ATOM     23  H   UNL     1      22.355  14.772  30.589  1.00  0.00     0.293 HD
ENDBRANCH   6  22
BRANCH   8  24
ATOM     24  O   UNL     1      22.541  12.331  35.765  1.00  0.00    -0.508 OA
ATOM     25  H   UNL     1      21.843  12.904  36.225  1.00  0.00     0.293 HD
ENDBRANCH   8  24
TORSDOF 5
ENDMDL
MODEL 5
REMARK VINA RESULT:    -4.911      9.168     10.005
REMARK INTER + INTRA:          -6.037
REMARK INTER:                  -5.757
REMARK INTRA:                  -0.280
REMARK UNBOUND:                -0.265
REMARK SMILES O=c1cc(-c2ccc(O)c(O)c2)oc2cc(O)cc(O)c12
REMARK SMILES IDX 4 1 3 2 2 3 1 4 21 5 19 6 18 7 16 8 15 9 14 10 13 11 5 12
REMARK SMILES IDX 6 13 7 14 8 15 12 16 10 17 9 18 11 20 20 22 17 24
REMARK H PARENT 9 19 11 21 20 23 17 25
REMARK Flexibility Score: inf
ROOT
ATOM      1  C   UNL     1      27.666   2.738  29.803  1.00  0.00     0.138 A 
ATOM      2  C   UNL     1      27.632   3.150  31.146  1.00  0.00     0.100 A 
ATOM      3  C   UNL     1      26.423   3.561  31.708  1.00  0.00     0.197 A 
ATOM      4  O   UNL     1      26.403   3.931  32.913  1.00  0.00    -0.289 OA
ATOM      5  C   UNL     1      25.255   3.562  30.920  1.00  0.00     0.107 A 
ATOM      6  C   UNL     1      23.989   3.962  31.412  1.00  0.00     0.134 A 
ATOM      7  C   UNL     1      22.874   3.938  30.562  1.00  0.00     0.093 A 
ATOM      8  C   UNL     1      22.999   3.524  29.233  1.00  0.00     0.123 A 
ATOM      9  C   UNL     1      24.247   3.127  28.742  1.00  0.00     0.094 A 
ATOM     10  C   UNL     1      25.371   3.144  29.574  1.00  0.00     0.146 A 
ATOM     11  O   UNL     1      26.546   2.760  29.084  1.00  0.00    -0.456 OA
ENDROOT
BRANCH   1  12
ATOM     12  C   UNL     1      28.923   2.292  29.152  1.00  0.00     0.021 A 
ATOM     13  C   UNL     1      28.942   1.225  28.234  1.00  0.00     0.016 A 
ATOM     14  C   UNL     1      30.139   0.832  27.629  1.00  0.00     0.051 A 
ATOM     15  C   UNL     1      31.332   1.498  27.921  1.00  0.00     0.157 A 
ATOM     16  C   UNL     1      30.125   2.966  29.431  1.00  0.00     0.062 A 
ATOM     17  C   UNL     1      31.327   2.573  28.824  1.00  0.00     0.158 A 
BRANCH  15  18
ATOM     18  O   UNL     1      32.511   1.083  27.301  1.00  0.00    -0.504 OA
ATOM     19  H   UNL     1      32.751   0.105  27.201  1.00  0.00     0.293 HD
ENDBRANCH  15  18
BRANCH  17  20
ATOM     20  O   UNL     1      32.512   3.245  29.118  1.00  0.00    -0.504 OA
ATOM     21  H   UNL     1      32.666   3.683  30.018  1.00  0.00     0.293 HD
ENDBRANCH  17  20
ENDBRANCH   1  12
BRANCH   6  22
ATOM     22  O   UNL     1      23.833   4.381  32.733  1.00  0.00    -0.507 OA
ATOM     23  H   UNL     1      24.233   5.250  33.069  1.00  0.00     0.293 HD
ENDBRANCH   6  22
BRANCH   8  24
ATOM     24  O   UNL     1      21.875   3.510  28.409  1.00  0.00    -0.508 OA
ATOM     25  H   UNL     1      21.069   4.092  28.604  1.00  0.00     0.293 HD
ENDBRANCH   8  24
TORSDOF 5
ENDMDL
MODEL 6
REMARK VINA RESULT:    -4.897      8.997      9.642
REMARK INTER + INTRA:          -6.020
REMARK INTER:                  -5.728
REMARK INTRA:                  -0.292
REMARK UNBOUND:                -0.265
REMARK SMILES O=c1cc(-c2ccc(O)c(O)c2)oc2cc(O)cc(O)c12
REMARK SMILES IDX 4 1 3 2 2 3 1 4 21 5 19 6 18 7 16 8 15 9 14 10 13 11 5 12
REMARK SMILES IDX 6 13 7 14 8 15 12 16 10 17 9 18 11 20 20 22 17 24
REMARK H PARENT 9 19 11 21 20 23 17 25
REMARK Flexibility Score: inf
ROOT
ATOM      1  C   UNL     1      27.194   3.537  30.065  1.00  0.00     0.138 A 
ATOM      2  C   UNL     1      26.604   3.385  28.800  1.00  0.00     0.100 A 
ATOM      3  C   UNL     1      25.214   3.416  28.682  1.00  0.00     0.197 A 
ATOM      4  O   UNL     1      24.692   3.277  27.543  1.00  0.00    -0.289 OA
ATOM      5  C   UNL     1      24.422   3.595  29.834  1.00  0.00     0.107 A 
ATOM      6  C   UNL     1      23.008   3.640  29.804  1.00  0.00     0.134 A 
ATOM      7  C   UNL     1      22.292   3.817  30.997  1.00  0.00     0.093 A 
ATOM      8  C   UNL     1      22.961   3.949  32.217  1.00  0.00     0.123 A 
ATOM      9  C   UNL     1      24.359   3.906  32.253  1.00  0.00     0.094 A 
ATOM     10  C   UNL     1      25.090   3.731  31.074  1.00  0.00     0.146 A 
ATOM     11  O   UNL     1      26.418   3.695  31.134  1.00  0.00    -0.456 OA
ENDROOT
BRANCH   1  12
ATOM     12  C   UNL     1      28.667   3.511  30.250  1.00  0.00     0.021 A 
ATOM     13  C   UNL     1      29.271   3.951  31.444  1.00  0.00     0.016 A 
ATOM     14  C   UNL     1      30.659   3.906  31.593  1.00  0.00     0.051 A 
ATOM     15  C   UNL     1      31.468   3.417  30.564  1.00  0.00     0.157 A 
ATOM     16  C   UNL     1      29.486   3.008  29.223  1.00  0.00     0.062 A 
ATOM     17  C   UNL     1      30.879   2.962  29.373  1.00  0.00     0.158 A 
BRANCH  15  18
ATOM     18  O   UNL     1      32.850   3.385  30.744  1.00  0.00    -0.504 OA
ATOM     19  H   UNL     1      33.493   3.722  30.038  1.00  0.00     0.293 HD
ENDBRANCH  15  18
BRANCH  17  20
ATOM     20  O   UNL     1      31.679   2.469  28.344  1.00  0.00    -0.504 OA
ATOM     21  H   UNL     1      31.955   3.050  27.561  1.00  0.00     0.293 HD
ENDBRANCH  17  20
ENDBRANCH   1  12
BRANCH   6  22
ATOM     22  O   UNL     1      22.312   3.510  28.602  1.00  0.00    -0.507 OA
ATOM     23  H   UNL     1      21.390   3.912  28.473  1.00  0.00     0.293 HD
ENDBRANCH   6  22
BRANCH   8  24
ATOM     24  O   UNL     1      22.226   4.123  33.387  1.00  0.00    -0.508 OA
ATOM     25  H   UNL     1      22.279   4.982  33.923  1.00  0.00     0.293 HD
ENDBRANCH   8  24
TORSDOF 5
ENDMDL
MODEL 7
REMARK VINA RESULT:    -4.868      2.010      7.255
REMARK INTER + INTRA:          -5.986
REMARK INTER:                  -5.716
REMARK INTRA:                  -0.270
REMARK UNBOUND:                -0.265
REMARK SMILES O=c1cc(-c2ccc(O)c(O)c2)oc2cc(O)cc(O)c12
REMARK SMILES IDX 4 1 3 2 2 3 1 4 21 5 19 6 18 7 16 8 15 9 14 10 13 11 5 12
REMARK SMILES IDX 6 13 7 14 8 15 12 16 10 17 9 18 11 20 20 22 17 24
REMARK H PARENT 9 19 11 21 20 23 17 25
REMARK Flexibility Score: inf
ROOT
ATOM      1  C   UNL     1      27.988  12.451  31.085  1.00  0.00     0.138 A 
ATOM      2  C   UNL     1      29.108  12.496  30.239  1.00  0.00     0.100 A 
ATOM      3  C   UNL     1      30.291  11.870  30.632  1.00  0.00     0.197 A 
ATOM      4  O   UNL     1      31.292  11.917  29.867  1.00  0.00    -0.289 OA
ATOM      5  C   UNL     1      30.348  11.206  31.874  1.00  0.00     0.107 A 
ATOM      6  C   UNL     1      31.506  10.546  32.348  1.00  0.00     0.134 A 
ATOM      7  C   UNL     1      31.482   9.912  33.599  1.00  0.00     0.093 A 
ATOM      8  C   UNL     1      30.326   9.925  34.383  1.00  0.00     0.123 A 
ATOM      9  C   UNL     1      29.177  10.576  33.920  1.00  0.00     0.094 A 
ATOM     10  C   UNL     1      29.182  11.214  32.675  1.00  0.00     0.146 A 
ATOM     11  O   UNL     1      28.077  11.824  32.255  1.00  0.00    -0.456 OA
ENDROOT
BRANCH   1  12
ATOM     12  C   UNL     1      26.703  13.100  30.719  1.00  0.00     0.021 A 
ATOM     13  C   UNL     1      26.551  14.499  30.734  1.00  0.00     0.016 A 
ATOM     14  C   UNL     1      25.333  15.083  30.375  1.00  0.00     0.051 A 
ATOM     15  C   UNL     1      24.252  14.286  29.990  1.00  0.00     0.157 A 
ATOM     16  C   UNL     1      25.615  12.304  30.318  1.00  0.00     0.062 A 
ATOM     17  C   UNL     1      24.393  12.889  29.958  1.00  0.00     0.158 A 
BRANCH  15  18
ATOM     18  O   UNL     1      23.049  14.898  29.638  1.00  0.00    -0.504 OA
ATOM     19  H   UNL     1      22.825  15.133  28.679  1.00  0.00     0.293 HD
ENDBRANCH  15  18
BRANCH  17  20
ATOM     20  O   UNL     1      23.320  12.088  29.571  1.00  0.00    -0.504 OA
ATOM     21  H   UNL     1      22.412  12.166  30.013  1.00  0.00     0.293 HD
ENDBRANCH  17  20
ENDBRANCH   1  12
BRANCH   6  22
ATOM     22  O   UNL     1      32.676  10.516  31.588  1.00  0.00    -0.507 OA
ATOM     23  H   UNL     1      32.711  10.892  30.647  1.00  0.00     0.293 HD
ENDBRANCH   6  22
BRANCH   8  24
ATOM     24  O   UNL     1      30.329   9.288  35.622  1.00  0.00    -0.508 OA
ATOM     25  H   UNL     1      31.130   8.757  35.942  1.00  0.00     0.293 HD
ENDBRANCH   8  24
TORSDOF 5
ENDMDL
MODEL 8
REMARK VINA RESULT:    -4.855      9.075     11.199
REMARK INTER + INTRA:          -5.971
REMARK INTER:                  -5.676
REMARK INTRA:                  -0.295
REMARK UNBOUND:                -0.265
REMARK SMILES O=c1cc(-c2ccc(O)c(O)c2)oc2cc(O)cc(O)c12
REMARK SMILES IDX 4 1 3 2 2 3 1 4 21 5 19 6 18 7 16 8 15 9 14 10 13 11 5 12
REMARK SMILES IDX 6 13 7 14 8 15 12 16 10 17 9 18 11 20 20 22 17 24
REMARK H PARENT 9 19 11 21 20 23 17 25
REMARK Flexibility Score: inf
ROOT
ATOM      1  C   UNL     1      27.162   3.714  30.818  1.00  0.00     0.138 A 
ATOM      2  C   UNL     1      27.381   3.875  32.197  1.00  0.00     0.100 A 
ATOM      3  C   UNL     1      28.687   3.934  32.682  1.00  0.00     0.197 A 
ATOM      4  O   UNL     1      28.874   4.078  33.921  1.00  0.00    -0.289 OA
ATOM      5  C   UNL     1      29.768   3.826  31.785  1.00  0.00     0.107 A 
ATOM      6  C   UNL     1      31.123   3.877  32.194  1.00  0.00     0.134 A 
ATOM      7  C   UNL     1      32.142   3.756  31.238  1.00  0.00     0.093 A 
ATOM      8  C   UNL     1      31.835   3.587  29.885  1.00  0.00     0.123 A 
ATOM      9  C   UNL     1      30.498   3.536  29.475  1.00  0.00     0.094 A 
ATOM     10  C   UNL     1      29.468   3.655  30.413  1.00  0.00     0.146 A 
ATOM     11  O   UNL     1      28.205   3.605  29.999  1.00  0.00    -0.456 OA
ENDROOT
BRANCH   1  12
ATOM     12  C   UNL     1      25.794   3.644  30.245  1.00  0.00     0.021 A 
ATOM     13  C   UNL     1      25.578   3.464  28.865  1.00  0.00     0.016 A 
ATOM     14  C   UNL     1      24.280   3.392  28.355  1.00  0.00     0.051 A 
ATOM     15  C   UNL     1      23.177   3.490  29.208  1.00  0.00     0.157 A 
ATOM     16  C   UNL     1      24.680   3.729  31.099  1.00  0.00     0.062 A 
ATOM     17  C   UNL     1      23.376   3.656  30.588  1.00  0.00     0.158 A 
BRANCH  15  18
ATOM     18  O   UNL     1      21.893   3.415  28.668  1.00  0.00    -0.504 OA
ATOM     19  H   UNL     1      21.506   2.547  28.317  1.00  0.00     0.293 HD
ENDBRANCH  15  18
BRANCH  17  20
ATOM     20  O   UNL     1      22.282   3.751  31.445  1.00  0.00    -0.504 OA
ATOM     21  H   UNL     1      21.336   3.595  31.118  1.00  0.00     0.293 HD
ENDBRANCH  17  20
ENDBRANCH   1  12
BRANCH   6  22
ATOM     22  O   UNL     1      31.461   4.045  33.536  1.00  0.00    -0.507 OA
ATOM     23  H   UNL     1      31.966   4.862  33.862  1.00  0.00     0.293 HD
ENDBRANCH   6  22
BRANCH   8  24
ATOM     24  O   UNL     1      32.866   3.470  28.956  1.00  0.00    -0.508 OA
ATOM     25  H   UNL     1      33.156   2.567  28.597  1.00  0.00     0.293 HD
ENDBRANCH   8  24
TORSDOF 5
ENDMDL
MODEL 9
REMARK VINA RESULT:    -4.832      9.114     12.486
REMARK INTER + INTRA:          -5.944
REMARK INTER:                  -5.656
REMARK INTRA:                  -0.287
REMARK UNBOUND:                -0.265
REMARK SMILES O=c1cc(-c2ccc(O)c(O)c2)oc2cc(O)cc(O)c12
REMARK SMILES IDX 4 1 3 2 2 3 1 4 21 5 19 6 18 7 16 8 15 9 14 10 13 11 5 12
REMARK SMILES IDX 6 13 7 14 8 15 12 16 10 17 9 18 11 20 20 22 17 24
REMARK H PARENT 9 19 11 21 20 23 17 25
REMARK Flexibility Score: inf
ROOT
ATOM      1  C   UNL     1      28.046   2.544  28.917  1.00  0.00     0.138 A 
ATOM      2  C   UNL     1      28.487   1.336  28.351  1.00  0.00     0.100 A 
ATOM      3  C   UNL     1      29.855   1.066  28.288  1.00  0.00     0.197 A 
ATOM      4  O   UNL     1      30.241  -0.020  27.777  1.00  0.00    -0.289 OA
ATOM      5  C   UNL     1      30.774   2.010  28.788  1.00  0.00     0.107 A 
ATOM      6  C   UNL     1      32.175   1.814  28.764  1.00  0.00     0.134 A 
ATOM      7  C   UNL     1      33.024   2.806  29.277  1.00  0.00     0.093 A 
ATOM      8  C   UNL     1      32.501   3.985  29.813  1.00  0.00     0.123 A 
ATOM      9  C   UNL     1      31.116   4.184  29.840  1.00  0.00     0.094 A 
ATOM     10  C   UNL     1      30.253   3.207  29.333  1.00  0.00     0.146 A 
ATOM     11  O   UNL     1      28.941   3.418  29.371  1.00  0.00    -0.456 OA
ENDROOT
BRANCH   1  12
ATOM     12  C   UNL     1      26.604   2.885  29.010  1.00  0.00     0.021 A 
ATOM     13  C   UNL     1      25.747   2.782  27.898  1.00  0.00     0.016 A 
ATOM     14  C   UNL     1      24.391   3.101  28.017  1.00  0.00     0.051 A 
ATOM     15  C   UNL     1      23.867   3.518  29.243  1.00  0.00     0.157 A 
ATOM     16  C   UNL     1      26.067   3.293  30.244  1.00  0.00     0.062 A 
ATOM     17  C   UNL     1      24.707   3.613  30.364  1.00  0.00     0.158 A 
BRANCH  15  18
ATOM     18  O   UNL     1      22.510   3.829  29.330  1.00  0.00    -0.504 OA
ATOM     19  H   UNL     1      21.805   3.310  28.822  1.00  0.00     0.293 HD
ENDBRANCH  15  18
BRANCH  17  20
ATOM     20  O   UNL     1      24.191   4.025  31.591  1.00  0.00    -0.504 OA
ATOM     21  H   UNL     1      23.351   4.589  31.652  1.00  0.00     0.293 HD
ENDBRANCH  17  20
ENDBRANCH   1  12
BRANCH   6  22
ATOM     22  O   UNL     1      32.728   0.648  28.235  1.00  0.00    -0.507 OA
ATOM     23  H   UNL     1      32.700   0.447  27.241  1.00  0.00     0.293 HD
ENDBRANCH   6  22
BRANCH   8  24
ATOM     24  O   UNL     1      33.366   4.954  30.317  1.00  0.00    -0.508 OA
ATOM     25  H   UNL     1      33.311   5.263  31.280  1.00  0.00     0.293 HD
ENDBRANCH   8  24
TORSDOF 5
ENDMDL
