MODEL 1
REMARK VINA RESULT:    -6.247      0.000      0.000
REMARK INTER + INTRA:          -9.873
REMARK INTER:                  -8.620
REMARK INTRA:                  -1.252
REMARK UNBOUND:                -1.252
REMARK SMILES CC[C@@H](CC[C@@H](C)[C@H]1CC[C@H]2C3=CC[C@H]4C[C@@H](O)CC[C@]4(C)[C@@H]3CC[C@]12C)C(C)C
REMARK SMILES IDX 5 1 4 2 3 3 2 4 1 5 28 6 29 7 30 8 6 9 7 10 8 11 9 12 26 13
REMARK SMILES IDX 10 14 11 15 25 16 27 17 12 18 24 19 23 20 13 21 21 22 14 23
REMARK SMILES IDX 15 24 20 25 22 26 16 27 19 28 17 29 18 30
REMARK H PARENT 18 31
REMARK Flexibility Score: inf
ROOT
ATOM      1  C   UNL     1     139.243 130.801 132.655  1.00  0.00     0.004 C 
ENDROOT
BRANCH   1   2
ATOM      2  C   UNL     1     140.461 131.610 132.162  1.00  0.00     0.004 C 
BRANCH   2   3
ATOM      3  C   UNL     1     140.542 131.676 130.603  1.00  0.00    -0.009 C 
BRANCH   3   4
ATOM      4  C   UNL     1     141.923 131.158 130.115  1.00  0.00     0.000 C 
ATOM      5  C   UNL     1     142.984 131.061 131.218  1.00  0.00     0.004 C 
ENDBRANCH   3   4
BRANCH   3   6
ATOM      6  C   UNL     1     140.175 133.092 130.043  1.00  0.00    -0.014 C 
ATOM      7  C   UNL     1     138.671 133.404 130.190  1.00  0.00     0.007 C 
ATOM      8  C   UNL     1     140.975 134.206 130.741  1.00  0.00     0.007 C 
ENDBRANCH   3   6
ENDBRANCH   2   3
ENDBRANCH   1   2
BRANCH   1   9
ATOM      9  C   UNL     1     138.606 131.402 133.940  1.00  0.00    -0.011 C 
ATOM     10  C   UNL     1     139.051 132.867 134.100  1.00  0.00     0.008 C 
BRANCH   9  11
ATOM     11  C   UNL     1     137.043 131.278 133.898  1.00  0.00    -0.002 C 
ATOM     12  C   UNL     1     136.492 131.108 132.451  1.00  0.00     0.005 C 
ATOM     13  C   UNL     1     136.377 130.097 134.675  1.00  0.00    -0.023 C 
ATOM     14  C   UNL     1     135.251 130.204 132.537  1.00  0.00     0.009 C 
ATOM     15  C   UNL     1     134.985 130.104 134.030  1.00  0.00     0.021 C 
ATOM     16  C   UNL     1     136.191 130.333 136.213  1.00  0.00     0.008 C 
ATOM     17  C   UNL     1     137.147 128.761 134.376  1.00  0.00     0.012 C 
ATOM     18  C   UNL     1     134.063 129.016 134.560  1.00  0.00    -0.067 C 
ATOM     19  C   UNL     1     134.884 129.726 136.818  1.00  0.00     0.009 C 
ATOM     20  C   UNL     1     134.330 128.526 136.000  1.00  0.00     0.021 C 
ATOM     21  C   UNL     1     132.871 128.845 133.943  1.00  0.00    -0.027 C 
ATOM     22  C   UNL     1     133.128 127.707 136.641  1.00  0.00    -0.023 C 
ATOM     23  C   UNL     1     131.713 128.129 134.571  1.00  0.00     0.031 C 
ATOM     24  C   UNL     1     131.769 128.250 136.099  1.00  0.00     0.002 C 
ATOM     25  C   UNL     1     133.103 127.808 138.197  1.00  0.00     0.010 C 
ATOM     26  C   UNL     1     133.340 126.210 136.251  1.00  0.00     0.012 C 
ATOM     27  C   UNL     1     130.536 127.573 136.740  1.00  0.00     0.036 C 
ATOM     28  C   UNL     1     131.896 127.094 138.824  1.00  0.00     0.032 C 
ATOM     29  C   UNL     1     130.574 127.653 138.274  1.00  0.00     0.114 C 
BRANCH  29  30
ATOM     30  O   UNL     1     129.492 126.920 138.798  1.00  0.00    -0.393 OA
ATOM     31  H   UNL     1     129.473 126.051 138.315  1.00  0.00     0.210 HD
ENDBRANCH  29  30
ENDBRANCH   9  11
ENDBRANCH   1   9
TORSDOF 7
ENDMDL
MODEL 2
REMARK VINA RESULT:    -6.180      3.311      9.731
REMARK INTER + INTRA:          -9.780
REMARK INTER:                  -8.107
REMARK INTRA:                  -1.673
REMARK UNBOUND:                -1.252
REMARK SMILES CC[C@@H](CC[C@@H](C)[C@H]1CC[C@H]2C3=CC[C@H]4C[C@@H](O)CC[C@]4(C)[C@@H]3CC[C@]12C)C(C)C
REMARK SMILES IDX 5 1 4 2 3 3 2 4 1 5 28 6 29 7 30 8 6 9 7 10 8 11 9 12 26 13
REMARK SMILES IDX 10 14 11 15 25 16 27 17 12 18 24 19 23 20 13 21 21 22 14 23
REMARK SMILES IDX 15 24 20 25 22 26 16 27 19 28 17 29 18 30
REMARK H PARENT 18 31
REMARK Flexibility Score: inf
ROOT
ATOM      1  C   UNL     1     130.220 125.125 137.954  1.00  0.00     0.004 C 
ENDROOT
BRANCH   1   2
ATOM      2  C   UNL     1     131.160 123.903 138.018  1.00  0.00     0.004 C 
BRANCH   2   3
ATOM      3  C   UNL     1     131.191 123.103 136.677  1.00  0.00    -0.009 C 
BRANCH   3   4
ATOM      4  C   UNL     1     129.851 122.343 136.474  1.00  0.00     0.000 C 
ATOM      5  C   UNL     1     129.198 122.573 135.106  1.00  0.00     0.004 C 
ENDBRANCH   3   4
BRANCH   3   6
ATOM      6  C   UNL     1     132.453 122.182 136.557  1.00  0.00    -0.014 C 
ATOM      7  C   UNL     1     132.177 120.750 137.059  1.00  0.00     0.007 C 
ATOM      8  C   UNL     1     132.965 122.102 135.108  1.00  0.00     0.007 C 
ENDBRANCH   3   6
ENDBRANCH   2   3
ENDBRANCH   1   2
BRANCH   1   9
ATOM      9  C   UNL     1     130.424 125.971 136.665  1.00  0.00    -0.011 C 
ATOM     10  C   UNL     1     129.056 126.265 136.021  1.00  0.00     0.008 C 
BRANCH   9  11
ATOM     11  C   UNL     1     131.205 127.293 136.982  1.00  0.00    -0.002 C 
ATOM     12  C   UNL     1     131.635 127.395 138.475  1.00  0.00     0.005 C 
ATOM     13  C   UNL     1     132.535 127.565 136.207  1.00  0.00    -0.023 C 
ATOM     14  C   UNL     1     132.980 128.139 138.515  1.00  0.00     0.009 C 
ATOM     15  C   UNL     1     133.143 128.658 137.096  1.00  0.00     0.021 C 
ATOM     16  C   UNL     1     132.359 128.163 134.769  1.00  0.00     0.008 C 
ATOM     17  C   UNL     1     133.421 126.268 136.197  1.00  0.00     0.012 C 
ATOM     18  C   UNL     1     134.505 129.142 136.622  1.00  0.00    -0.067 C 
ATOM     19  C   UNL     1     133.449 129.201 134.350  1.00  0.00     0.009 C 
ATOM     20  C   UNL     1     134.793 129.018 135.109  1.00  0.00     0.021 C 
ATOM     21  C   UNL     1     135.187 129.991 137.424  1.00  0.00    -0.027 C 
ATOM     22  C   UNL     1     136.029 129.883 134.610  1.00  0.00    -0.023 C 
ATOM     23  C   UNL     1     136.312 130.857 136.942  1.00  0.00     0.031 C 
ATOM     24  C   UNL     1     136.135 131.191 135.456  1.00  0.00     0.002 C 
ATOM     25  C   UNL     1     135.904 130.288 133.109  1.00  0.00     0.010 C 
ATOM     26  C   UNL     1     137.302 128.994 134.774  1.00  0.00     0.012 C 
ATOM     27  C   UNL     1     137.256 132.143 134.980  1.00  0.00     0.036 C 
ATOM     28  C   UNL     1     137.049 131.198 132.637  1.00  0.00     0.032 C 
ATOM     29  C   UNL     1     137.125 132.478 133.486  1.00  0.00     0.114 C 
BRANCH  29  30
ATOM     30  O   UNL     1     138.235 133.247 133.089  1.00  0.00    -0.393 OA
ATOM     31  H   UNL     1     138.042 133.581 132.173  1.00  0.00     0.210 HD
ENDBRANCH  29  30
ENDBRANCH   9  11
ENDBRANCH   1   9
TORSDOF 7
ENDMDL
MODEL 3
REMARK VINA RESULT:    -6.172      7.024      9.055
REMARK INTER + INTRA:          -9.769
REMARK INTER:                  -7.788
REMARK INTRA:                  -1.981
REMARK UNBOUND:                -1.252
REMARK SMILES CC[C@@H](CC[C@@H](C)[C@H]1CC[C@H]2C3=CC[C@H]4C[C@@H](O)CC[C@]4(C)[C@@H]3CC[C@]12C)C(C)C
REMARK SMILES IDX 5 1 4 2 3 3 2 4 1 5 28 6 29 7 30 8 6 9 7 10 8 11 9 12 26 13
REMARK SMILES IDX 10 14 11 15 25 16 27 17 12 18 24 19 23 20 13 21 21 22 14 23
REMARK SMILES IDX 15 24 20 25 22 26 16 27 19 28 17 29 18 30
REMARK H PARENT 18 31
REMARK Flexibility Score: inf
ROOT
ATOM      1  C   UNL     1     139.306 137.661 142.306  1.00  0.00     0.004 C 
ENDROOT
BRANCH   1   2
ATOM      2  C   UNL     1     140.422 137.600 143.369  1.00  0.00     0.004 C 
BRANCH   2   3
ATOM      3  C   UNL     1     141.777 137.089 142.784  1.00  0.00    -0.009 C 
BRANCH   3   4
ATOM      4  C   UNL     1     141.810 137.299 141.245  1.00  0.00     0.000 C 
ATOM      5  C   UNL     1     143.114 137.910 140.721  1.00  0.00     0.004 C 
ENDBRANCH   3   4
BRANCH   3   6
ATOM      6  C   UNL     1     142.101 135.620 143.219  1.00  0.00    -0.014 C 
ATOM      7  C   UNL     1     141.262 135.174 144.434  1.00  0.00     0.007 C 
ATOM      8  C   UNL     1     141.869 134.621 142.072  1.00  0.00     0.007 C 
ENDBRANCH   3   6
ENDBRANCH   2   3
ENDBRANCH   1   2
BRANCH   1   9
ATOM      9  C   UNL     1     138.066 136.803 142.688  1.00  0.00    -0.011 C 
ATOM     10  C   UNL     1     136.932 137.725 143.174  1.00  0.00     0.008 C 
BRANCH   9  11
ATOM     11  C   UNL     1     137.606 135.916 141.479  1.00  0.00    -0.002 C 
ATOM     12  C   UNL     1     138.690 135.810 140.365  1.00  0.00     0.005 C 
ATOM     13  C   UNL     1     137.235 134.425 141.760  1.00  0.00    -0.023 C 
ATOM     14  C   UNL     1     138.572 134.407 139.745  1.00  0.00     0.009 C 
ATOM     15  C   UNL     1     137.281 133.864 140.333  1.00  0.00     0.021 C 
ATOM     16  C   UNL     1     135.788 134.192 142.318  1.00  0.00     0.008 C 
ATOM     17  C   UNL     1     138.328 133.766 142.676  1.00  0.00     0.012 C 
ATOM     18  C   UNL     1     136.984 132.374 140.253  1.00  0.00    -0.067 C 
ATOM     19  C   UNL     1     135.088 132.892 141.807  1.00  0.00     0.009 C 
ATOM     20  C   UNL     1     136.090 131.788 141.369  1.00  0.00     0.021 C 
ATOM     21  C   UNL     1     137.153 131.761 139.060  1.00  0.00    -0.027 C 
ATOM     22  C   UNL     1     135.488 130.356 141.034  1.00  0.00    -0.023 C 
ATOM     23  C   UNL     1     136.533 130.439 138.716  1.00  0.00     0.031 C 
ATOM     24  C   UNL     1     135.230 130.237 139.499  1.00  0.00     0.002 C 
ATOM     25  C   UNL     1     134.142 130.090 141.773  1.00  0.00     0.010 C 
ATOM     26  C   UNL     1     136.531 129.300 141.519  1.00  0.00     0.012 C 
ATOM     27  C   UNL     1     134.556 128.907 139.090  1.00  0.00     0.036 C 
ATOM     28  C   UNL     1     133.504 128.744 141.390  1.00  0.00     0.032 C 
ATOM     29  C   UNL     1     133.258 128.659 139.875  1.00  0.00     0.114 C 
BRANCH  29  30
ATOM     30  O   UNL     1     132.759 127.385 139.545  1.00  0.00    -0.393 OA
ATOM     31  H   UNL     1     131.772 127.425 139.658  1.00  0.00     0.210 HD
ENDBRANCH  29  30
ENDBRANCH   9  11
ENDBRANCH   1   9
TORSDOF 7
ENDMDL
MODEL 4
REMARK VINA RESULT:    -6.144      3.388      9.949
REMARK INTER + INTRA:          -9.730
REMARK INTER:                  -8.409
REMARK INTRA:                  -1.322
REMARK UNBOUND:                -1.252
REMARK SMILES CC[C@@H](CC[C@@H](C)[C@H]1CC[C@H]2C3=CC[C@H]4C[C@@H](O)CC[C@]4(C)[C@@H]3CC[C@]12C)C(C)C
REMARK SMILES IDX 5 1 4 2 3 3 2 4 1 5 28 6 29 7 30 8 6 9 7 10 8 11 9 12 26 13
REMARK SMILES IDX 10 14 11 15 25 16 27 17 12 18 24 19 23 20 13 21 21 22 14 23
REMARK SMILES IDX 15 24 20 25 22 26 16 27 19 28 17 29 18 30
REMARK H PARENT 18 31
REMARK Flexibility Score: inf
ROOT
ATOM      1  C   UNL     1     130.514 125.159 138.131  1.00  0.00     0.004 C 
ENDROOT
BRANCH   1   2
ATOM      2  C   UNL     1     130.253 123.654 137.912  1.00  0.00     0.004 C 
BRANCH   2   3
ATOM      3  C   UNL     1     131.513 122.780 138.213  1.00  0.00    -0.009 C 
BRANCH   3   4
ATOM      4  C   UNL     1     131.915 121.966 136.952  1.00  0.00     0.000 C 
ATOM      5  C   UNL     1     132.777 122.743 135.950  1.00  0.00     0.004 C 
ENDBRANCH   3   4
BRANCH   3   6
ATOM      6  C   UNL     1     131.336 121.896 139.494  1.00  0.00    -0.014 C 
ATOM      7  C   UNL     1     131.944 120.489 139.318  1.00  0.00     0.007 C 
ATOM      8  C   UNL     1     131.974 122.551 140.732  1.00  0.00     0.007 C 
ENDBRANCH   3   6
ENDBRANCH   2   3
ENDBRANCH   1   2
BRANCH   1   9
ATOM      9  C   UNL     1     130.774 125.922 136.801  1.00  0.00    -0.011 C 
ATOM     10  C   UNL     1     129.441 126.131 136.058  1.00  0.00     0.008 C 
BRANCH   9  11
ATOM     11  C   UNL     1     131.499 127.286 137.073  1.00  0.00    -0.002 C 
ATOM     12  C   UNL     1     131.946 127.444 138.557  1.00  0.00     0.005 C 
ATOM     13  C   UNL     1     132.803 127.599 136.271  1.00  0.00    -0.023 C 
ATOM     14  C   UNL     1     133.256 128.250 138.556  1.00  0.00     0.009 C 
ATOM     15  C   UNL     1     133.373 128.740 137.123  1.00  0.00     0.021 C 
ATOM     16  C   UNL     1     132.578 128.152 134.822  1.00  0.00     0.008 C 
ATOM     17  C   UNL     1     133.747 126.343 136.278  1.00  0.00     0.012 C 
ATOM     18  C   UNL     1     134.705 129.273 136.615  1.00  0.00    -0.067 C 
ATOM     19  C   UNL     1     133.613 129.227 134.360  1.00  0.00     0.009 C 
ATOM     20  C   UNL     1     134.975 129.124 135.101  1.00  0.00     0.021 C 
ATOM     21  C   UNL     1     135.359 130.172 137.385  1.00  0.00    -0.027 C 
ATOM     22  C   UNL     1     136.163 130.032 134.561  1.00  0.00    -0.023 C 
ATOM     23  C   UNL     1     136.436 131.076 136.864  1.00  0.00     0.031 C 
ATOM     24  C   UNL     1     136.222 131.364 135.373  1.00  0.00     0.002 C 
ATOM     25  C   UNL     1     135.997 130.392 133.053  1.00  0.00     0.010 C 
ATOM     26  C   UNL     1     137.477 129.205 134.726  1.00  0.00     0.012 C 
ATOM     27  C   UNL     1     137.291 132.353 134.856  1.00  0.00     0.036 C 
ATOM     28  C   UNL     1     137.091 131.342 132.540  1.00  0.00     0.032 C 
ATOM     29  C   UNL     1     137.122 132.644 133.356  1.00  0.00     0.114 C 
BRANCH  29  30
ATOM     30  O   UNL     1     138.190 133.452 132.923  1.00  0.00    -0.393 OA
ATOM     31  H   UNL     1     138.427 133.149 132.006  1.00  0.00     0.210 HD
ENDBRANCH  29  30
ENDBRANCH   9  11
ENDBRANCH   1   9
TORSDOF 7
ENDMDL
MODEL 5
REMARK VINA RESULT:    -6.109      3.271     10.099
REMARK INTER + INTRA:          -9.683
REMARK INTER:                  -8.307
REMARK INTRA:                  -1.375
REMARK UNBOUND:                -1.252
REMARK SMILES CC[C@@H](CC[C@@H](C)[C@H]1CC[C@H]2C3=CC[C@H]4C[C@@H](O)CC[C@]4(C)[C@@H]3CC[C@]12C)C(C)C
REMARK SMILES IDX 5 1 4 2 3 3 2 4 1 5 28 6 29 7 30 8 6 9 7 10 8 11 9 12 26 13
REMARK SMILES IDX 10 14 11 15 25 16 27 17 12 18 24 19 23 20 13 21 21 22 14 23
REMARK SMILES IDX 15 24 20 25 22 26 16 27 19 28 17 29 18 30
REMARK H PARENT 18 31
REMARK Flexibility Score: inf
ROOT
ATOM      1  C   UNL     1     131.203 125.674 138.286  1.00  0.00     0.004 C 
ENDROOT
BRANCH   1   2
ATOM      2  C   UNL     1     130.067 125.622 139.328  1.00  0.00     0.004 C 
BRANCH   2   3
ATOM      3  C   UNL     1     130.603 125.633 140.796  1.00  0.00    -0.009 C 
BRANCH   3   4
ATOM      4  C   UNL     1     130.370 124.248 141.462  1.00  0.00     0.000 C 
ATOM      5  C   UNL     1     131.383 123.174 141.049  1.00  0.00     0.004 C 
ENDBRANCH   3   4
BRANCH   3   6
ATOM      6  C   UNL     1     130.034 126.829 141.632  1.00  0.00    -0.014 C 
ATOM      7  C   UNL     1     131.147 127.783 142.114  1.00  0.00     0.007 C 
ATOM      8  C   UNL     1     129.004 127.646 140.833  1.00  0.00     0.007 C 
ENDBRANCH   3   6
ENDBRANCH   2   3
ENDBRANCH   1   2
BRANCH   1   9
ATOM      9  C   UNL     1     130.920 126.686 137.140  1.00  0.00    -0.011 C 
ATOM     10  C   UNL     1     129.424 127.052 137.135  1.00  0.00     0.008 C 
BRANCH   9  11
ATOM     11  C   UNL     1     131.821 127.961 137.285  1.00  0.00    -0.002 C 
ATOM     12  C   UNL     1     132.484 128.072 138.690  1.00  0.00     0.005 C 
ATOM     13  C   UNL     1     133.028 128.124 136.306  1.00  0.00    -0.023 C 
ATOM     14  C   UNL     1     133.863 128.726 138.495  1.00  0.00     0.009 C 
ATOM     15  C   UNL     1     133.833 129.197 137.051  1.00  0.00     0.021 C 
ATOM     16  C   UNL     1     132.666 128.696 134.892  1.00  0.00     0.008 C 
ATOM     17  C   UNL     1     133.820 126.771 136.206  1.00  0.00     0.012 C 
ATOM     18  C   UNL     1     135.132 129.577 136.356  1.00  0.00    -0.067 C 
ATOM     19  C   UNL     1     133.740 129.648 134.273  1.00  0.00     0.009 C 
ATOM     20  C   UNL     1     135.172 129.395 134.821  1.00  0.00     0.021 C 
ATOM     21  C   UNL     1     135.982 130.399 137.012  1.00  0.00    -0.027 C 
ATOM     22  C   UNL     1     136.366 130.163 134.107  1.00  0.00    -0.023 C 
ATOM     23  C   UNL     1     137.069 131.176 136.332  1.00  0.00     0.031 C 
ATOM     24  C   UNL     1     136.684 131.482 134.880  1.00  0.00     0.002 C 
ATOM     25  C   UNL     1     136.034 130.536 132.630  1.00  0.00     0.010 C 
ATOM     26  C   UNL     1     137.591 129.195 134.105  1.00  0.00     0.012 C 
ATOM     27  C   UNL     1     137.773 132.344 134.203  1.00  0.00     0.036 C 
ATOM     28  C   UNL     1     137.145 131.356 131.955  1.00  0.00     0.032 C 
ATOM     29  C   UNL     1     137.431 132.649 132.735  1.00  0.00     0.114 C 
BRANCH  29  30
ATOM     30  O   UNL     1     138.511 133.332 132.145  1.00  0.00    -0.393 OA
ATOM     31  H   UNL     1     138.148 133.820 131.359  1.00  0.00     0.210 HD
ENDBRANCH  29  30
ENDBRANCH   9  11
ENDBRANCH   1   9
TORSDOF 7
ENDMDL
MODEL 6
REMARK VINA RESULT:    -6.061      5.939      8.006
REMARK INTER + INTRA:          -9.616
REMARK INTER:                  -8.161
REMARK INTRA:                  -1.455
REMARK UNBOUND:                -1.252
REMARK SMILES CC[C@@H](CC[C@@H](C)[C@H]1CC[C@H]2C3=CC[C@H]4C[C@@H](O)CC[C@]4(C)[C@@H]3CC[C@]12C)C(C)C
REMARK SMILES IDX 5 1 4 2 3 3 2 4 1 5 28 6 29 7 30 8 6 9 7 10 8 11 9 12 26 13
REMARK SMILES IDX 10 14 11 15 25 16 27 17 12 18 24 19 23 20 13 21 21 22 14 23
REMARK SMILES IDX 15 24 20 25 22 26 16 27 19 28 17 29 18 30
REMARK H PARENT 18 31
REMARK Flexibility Score: inf
ROOT
ATOM      1  C   UNL     1     138.491 129.773 135.361  1.00  0.00     0.004 C 
ENDROOT
BRANCH   1   2
ATOM      2  C   UNL     1     138.725 130.232 133.907  1.00  0.00     0.004 C 
BRANCH   2   3
ATOM      3  C   UNL     1     137.452 130.064 133.016  1.00  0.00    -0.009 C 
BRANCH   3   4
ATOM      4  C   UNL     1     137.858 129.684 131.566  1.00  0.00     0.000 C 
ATOM      5  C   UNL     1     137.110 128.471 131.001  1.00  0.00     0.004 C 
ENDBRANCH   3   4
BRANCH   3   6
ATOM      6  C   UNL     1     136.500 131.307 133.090  1.00  0.00    -0.014 C 
ATOM      7  C   UNL     1     135.315 131.075 134.050  1.00  0.00     0.007 C 
ATOM      8  C   UNL     1     137.250 132.574 133.538  1.00  0.00     0.007 C 
ENDBRANCH   3   6
ENDBRANCH   2   3
ENDBRANCH   1   2
BRANCH   1   9
ATOM      9  C   UNL     1     139.095 130.756 136.404  1.00  0.00    -0.011 C 
ATOM     10  C   UNL     1     140.151 131.645 135.723  1.00  0.00     0.008 C 
BRANCH   9  11
ATOM     11  C   UNL     1     137.970 131.615 137.078  1.00  0.00    -0.002 C 
ATOM     12  C   UNL     1     136.696 130.783 137.411  1.00  0.00     0.005 C 
ATOM     13  C   UNL     1     138.297 132.325 138.431  1.00  0.00    -0.023 C 
ATOM     14  C   UNL     1     136.093 131.366 138.701  1.00  0.00     0.009 C 
ATOM     15  C   UNL     1     136.877 132.649 138.913  1.00  0.00     0.021 C 
ATOM     16  C   UNL     1     139.078 133.678 138.302  1.00  0.00     0.008 C 
ATOM     17  C   UNL     1     139.021 131.321 139.399  1.00  0.00     0.012 C 
ATOM     18  C   UNL     1     136.836 133.343 140.267  1.00  0.00    -0.067 C 
ATOM     19  C   UNL     1     138.678 134.770 139.346  1.00  0.00     0.009 C 
ATOM     20  C   UNL     1     138.077 134.179 140.652  1.00  0.00     0.021 C 
ATOM     21  C   UNL     1     135.627 133.529 140.844  1.00  0.00    -0.027 C 
ATOM     22  C   UNL     1     137.833 135.187 141.856  1.00  0.00    -0.023 C 
ATOM     23  C   UNL     1     135.379 134.525 141.937  1.00  0.00     0.031 C 
ATOM     24  C   UNL     1     136.359 135.699 141.827  1.00  0.00     0.002 C 
ATOM     25  C   UNL     1     138.777 136.426 141.795  1.00  0.00     0.010 C 
ATOM     26  C   UNL     1     138.138 134.403 143.172  1.00  0.00     0.012 C 
ATOM     27  C   UNL     1     136.055 136.759 142.911  1.00  0.00     0.036 C 
ATOM     28  C   UNL     1     138.493 137.451 142.904  1.00  0.00     0.032 C 
ATOM     29  C   UNL     1     137.036 137.940 142.847  1.00  0.00     0.114 C 
BRANCH  29  30
ATOM     30  O   UNL     1     136.782 138.806 143.926  1.00  0.00    -0.393 OA
ATOM     31  H   UNL     1     137.139 139.698 143.670  1.00  0.00     0.210 HD
ENDBRANCH  29  30
ENDBRANCH   9  11
ENDBRANCH   1   9
TORSDOF 7
ENDMDL
MODEL 7
REMARK VINA RESULT:    -6.042      6.098      8.580
REMARK INTER + INTRA:          -9.591
REMARK INTER:                  -8.152
REMARK INTRA:                  -1.439
REMARK UNBOUND:                -1.252
REMARK SMILES CC[C@@H](CC[C@@H](C)[C@H]1CC[C@H]2C3=CC[C@H]4C[C@@H](O)CC[C@]4(C)[C@@H]3CC[C@]12C)C(C)C
REMARK SMILES IDX 5 1 4 2 3 3 2 4 1 5 28 6 29 7 30 8 6 9 7 10 8 11 9 12 26 13
REMARK SMILES IDX 10 14 11 15 25 16 27 17 12 18 24 19 23 20 13 21 21 22 14 23
REMARK SMILES IDX 15 24 20 25 22 26 16 27 19 28 17 29 18 30
REMARK H PARENT 18 31
REMARK Flexibility Score: inf
ROOT
ATOM      1  C   UNL     1     140.413 134.904 141.779  1.00  0.00     0.004 C 
ENDROOT
BRANCH   1   2
ATOM      2  C   UNL     1     140.055 135.906 142.897  1.00  0.00     0.004 C 
BRANCH   2   3
ATOM      3  C   UNL     1     139.409 137.215 142.340  1.00  0.00    -0.009 C 
BRANCH   3   4
ATOM      4  C   UNL     1     140.502 138.295 142.106  1.00  0.00     0.000 C 
ATOM      5  C   UNL     1     141.843 137.989 142.783  1.00  0.00     0.004 C 
ENDBRANCH   3   4
BRANCH   3   6
ATOM      6  C   UNL     1     138.217 137.718 143.224  1.00  0.00    -0.014 C 
ATOM      7  C   UNL     1     136.850 137.283 142.657  1.00  0.00     0.007 C 
ATOM      8  C   UNL     1     138.328 137.211 144.673  1.00  0.00     0.007 C 
ENDBRANCH   3   6
ENDBRANCH   2   3
ENDBRANCH   1   2
BRANCH   1   9
ATOM      9  C   UNL     1     139.286 133.863 141.524  1.00  0.00    -0.011 C 
ATOM     10  C   UNL     1     138.258 133.926 142.669  1.00  0.00     0.008 C 
BRANCH   9  11
ATOM     11  C   UNL     1     138.608 134.104 140.130  1.00  0.00    -0.002 C 
ATOM     12  C   UNL     1     139.446 135.037 139.207  1.00  0.00     0.005 C 
ATOM     13  C   UNL     1     138.328 132.862 139.224  1.00  0.00    -0.023 C 
ATOM     14  C   UNL     1     139.231 134.563 137.760  1.00  0.00     0.009 C 
ATOM     15  C   UNL     1     138.095 133.561 137.878  1.00  0.00     0.021 C 
ATOM     16  C   UNL     1     137.028 132.060 139.576  1.00  0.00     0.008 C 
ATOM     17  C   UNL     1     139.595 131.935 139.184  1.00  0.00     0.012 C 
ATOM     18  C   UNL     1     137.816 132.600 136.733  1.00  0.00    -0.067 C 
ATOM     19  C   UNL     1     136.263 131.474 138.346  1.00  0.00     0.009 C 
ATOM     20  C   UNL     1     137.177 131.244 137.109  1.00  0.00     0.021 C 
ATOM     21  C   UNL     1     137.752 133.110 135.482  1.00  0.00    -0.027 C 
ATOM     22  C   UNL     1     136.546 130.459 135.880  1.00  0.00    -0.023 C 
ATOM     23  C   UNL     1     137.099 132.401 134.333  1.00  0.00     0.031 C 
ATOM     24  C   UNL     1     135.985 131.475 134.836  1.00  0.00     0.002 C 
ATOM     25  C   UNL     1     135.381 129.517 136.311  1.00  0.00     0.010 C 
ATOM     26  C   UNL     1     137.684 129.583 135.268  1.00  0.00     0.012 C 
ATOM     27  C   UNL     1     135.267 130.800 133.645  1.00  0.00     0.036 C 
ATOM     28  C   UNL     1     134.704 128.818 135.122  1.00  0.00     0.032 C 
ATOM     29  C   UNL     1     134.159 129.843 134.114  1.00  0.00     0.114 C 
BRANCH  29  30
ATOM     30  O   UNL     1     133.626 129.175 132.996  1.00  0.00    -0.393 OA
ATOM     31  H   UNL     1     134.388 128.979 132.388  1.00  0.00     0.210 HD
ENDBRANCH  29  30
ENDBRANCH   9  11
ENDBRANCH   1   9
TORSDOF 7
ENDMDL
MODEL 8
REMARK VINA RESULT:    -6.035      5.626     12.382
REMARK INTER + INTRA:          -9.580
REMARK INTER:                  -7.732
REMARK INTRA:                  -1.848
REMARK UNBOUND:                -1.252
REMARK SMILES CC[C@@H](CC[C@@H](C)[C@H]1CC[C@H]2C3=CC[C@H]4C[C@@H](O)CC[C@]4(C)[C@@H]3CC[C@]12C)C(C)C
REMARK SMILES IDX 5 1 4 2 3 3 2 4 1 5 28 6 29 7 30 8 6 9 7 10 8 11 9 12 26 13
REMARK SMILES IDX 10 14 11 15 25 16 27 17 12 18 24 19 23 20 13 21 21 22 14 23
REMARK SMILES IDX 15 24 20 25 22 26 16 27 19 28 17 29 18 30
REMARK H PARENT 18 31
REMARK Flexibility Score: inf
ROOT
ATOM      1  C   UNL     1     128.047 126.686 144.240  1.00  0.00     0.004 C 
ENDROOT
BRANCH   1   2
ATOM      2  C   UNL     1     128.186 125.312 144.929  1.00  0.00     0.004 C 
BRANCH   2   3
ATOM      3  C   UNL     1     129.417 124.505 144.408  1.00  0.00    -0.009 C 
BRANCH   3   4
ATOM      4  C   UNL     1     128.957 123.138 143.831  1.00  0.00     0.000 C 
ATOM      5  C   UNL     1     127.453 123.049 143.548  1.00  0.00     0.004 C 
ENDBRANCH   3   4
BRANCH   3   6
ATOM      6  C   UNL     1     130.549 124.377 145.484  1.00  0.00    -0.014 C 
ATOM      7  C   UNL     1     131.085 125.753 145.930  1.00  0.00     0.007 C 
ATOM      8  C   UNL     1     130.068 123.613 146.730  1.00  0.00     0.007 C 
ENDBRANCH   3   6
ENDBRANCH   2   3
ENDBRANCH   1   2
BRANCH   1   9
ATOM      9  C   UNL     1     127.935 126.572 142.693  1.00  0.00    -0.011 C 
ATOM     10  C   UNL     1     126.521 126.989 142.247  1.00  0.00     0.008 C 
BRANCH   9  11
ATOM     11  C   UNL     1     129.037 127.438 141.989  1.00  0.00    -0.002 C 
ATOM     12  C   UNL     1     130.292 127.659 142.885  1.00  0.00     0.005 C 
ATOM     13  C   UNL     1     129.643 126.909 140.649  1.00  0.00    -0.023 C 
ATOM     14  C   UNL     1     131.516 127.710 141.954  1.00  0.00     0.009 C 
ATOM     15  C   UNL     1     130.904 127.778 140.565  1.00  0.00     0.021 C 
ATOM     16  C   UNL     1     128.782 127.193 139.371  1.00  0.00     0.008 C 
ATOM     17  C   UNL     1     129.998 125.385 140.789  1.00  0.00     0.012 C 
ATOM     18  C   UNL     1     131.767 127.484 139.347  1.00  0.00    -0.067 C 
ATOM     19  C   UNL     1     129.604 127.514 138.081  1.00  0.00     0.009 C 
ATOM     20  C   UNL     1     131.040 126.918 138.106  1.00  0.00     0.021 C 
ATOM     21  C   UNL     1     132.974 128.089 139.267  1.00  0.00    -0.027 C 
ATOM     22  C   UNL     1     131.883 127.005 136.762  1.00  0.00    -0.023 C 
ATOM     23  C   UNL     1     133.744 128.231 137.988  1.00  0.00     0.031 C 
ATOM     24  C   UNL     1     132.790 128.276 136.789  1.00  0.00     0.002 C 
ATOM     25  C   UNL     1     130.977 127.085 135.496  1.00  0.00     0.010 C 
ATOM     26  C   UNL     1     132.735 125.699 136.674  1.00  0.00     0.012 C 
ATOM     27  C   UNL     1     133.580 128.495 135.479  1.00  0.00     0.036 C 
ATOM     28  C   UNL     1     131.778 127.258 134.196  1.00  0.00     0.032 C 
ATOM     29  C   UNL     1     132.656 128.518 134.251  1.00  0.00     0.114 C 
BRANCH  29  30
ATOM     30  O   UNL     1     133.443 128.601 133.086  1.00  0.00    -0.393 OA
ATOM     31  H   UNL     1     133.248 127.788 132.549  1.00  0.00     0.210 HD
ENDBRANCH  29  30
ENDBRANCH   9  11
ENDBRANCH   1   9
TORSDOF 7
ENDMDL
MODEL 9
REMARK VINA RESULT:    -5.902      5.166      9.812
REMARK INTER + INTRA:          -9.397
REMARK INTER:                  -8.055
REMARK INTRA:                  -1.342
REMARK UNBOUND:                -1.252
REMARK SMILES CC[C@@H](CC[C@@H](C)[C@H]1CC[C@H]2C3=CC[C@H]4C[C@@H](O)CC[C@]4(C)[C@@H]3CC[C@]12C)C(C)C
REMARK SMILES IDX 5 1 4 2 3 3 2 4 1 5 28 6 29 7 30 8 6 9 7 10 8 11 9 12 26 13
REMARK SMILES IDX 10 14 11 15 25 16 27 17 12 18 24 19 23 20 13 21 21 22 14 23
REMARK SMILES IDX 15 24 20 25 22 26 16 27 19 28 17 29 18 30
REMARK H PARENT 18 31
REMARK Flexibility Score: inf
ROOT
ATOM      1  C   UNL     1     131.569 128.007 137.338  1.00  0.00     0.004 C 
ENDROOT
BRANCH   1   2
ATOM      2  C   UNL     1     132.590 127.990 136.181  1.00  0.00     0.004 C 
BRANCH   2   3
ATOM      3  C   UNL     1     133.932 128.695 136.559  1.00  0.00    -0.009 C 
BRANCH   3   4
ATOM      4  C   UNL     1     133.752 129.532 137.855  1.00  0.00     0.000 C 
ATOM      5  C   UNL     1     134.732 129.171 138.978  1.00  0.00     0.004 C 
ENDBRANCH   3   4
BRANCH   3   6
ATOM      6  C   UNL     1     134.535 129.515 135.368  1.00  0.00    -0.014 C 
ATOM      7  C   UNL     1     136.013 129.160 135.106  1.00  0.00     0.007 C 
ATOM      8  C   UNL     1     133.742 129.297 134.066  1.00  0.00     0.007 C 
ENDBRANCH   3   6
ENDBRANCH   2   3
ENDBRANCH   1   2
BRANCH   1   9
ATOM      9  C   UNL     1     131.184 126.579 137.819  1.00  0.00    -0.011 C 
ATOM     10  C   UNL     1     131.980 125.534 137.015  1.00  0.00     0.008 C 
BRANCH   9  11
ATOM     11  C   UNL     1     131.428 126.425 139.360  1.00  0.00    -0.002 C 
ATOM     12  C   UNL     1     131.568 127.795 140.087  1.00  0.00     0.005 C 
ATOM     13  C   UNL     1     130.344 125.681 140.205  1.00  0.00    -0.023 C 
ATOM     14  C   UNL     1     130.969 127.631 141.494  1.00  0.00     0.009 C 
ATOM     15  C   UNL     1     130.749 126.132 141.615  1.00  0.00     0.021 C 
ATOM     16  C   UNL     1     130.425 124.116 140.164  1.00  0.00     0.008 C 
ATOM     17  C   UNL     1     128.914 126.204 139.818  1.00  0.00     0.012 C 
ATOM     18  C   UNL     1     129.845 125.590 142.711  1.00  0.00    -0.067 C 
ATOM     19  C   UNL     1     130.064 123.403 141.506  1.00  0.00     0.009 C 
ATOM     20  C   UNL     1     129.132 124.250 142.419  1.00  0.00     0.021 C 
ATOM     21  C   UNL     1     130.027 126.055 143.968  1.00  0.00    -0.027 C 
ATOM     22  C   UNL     1     128.537 123.535 143.707  1.00  0.00    -0.023 C 
ATOM     23  C   UNL     1     129.524 125.350 145.191  1.00  0.00     0.031 C 
ATOM     24  C   UNL     1     129.440 123.838 144.944  1.00  0.00     0.002 C 
ATOM     25  C   UNL     1     128.450 121.987 143.541  1.00  0.00     0.010 C 
ATOM     26  C   UNL     1     127.091 124.089 143.907  1.00  0.00     0.012 C 
ATOM     27  C   UNL     1     128.989 123.106 146.229  1.00  0.00     0.036 C 
ATOM     28  C   UNL     1     127.958 121.275 144.811  1.00  0.00     0.032 C 
ATOM     29  C   UNL     1     128.868 121.590 146.010  1.00  0.00     0.114 C 
BRANCH  29  30
ATOM     30  O   UNL     1     128.344 120.999 147.174  1.00  0.00    -0.393 OA
ATOM     31  H   UNL     1     128.754 121.471 147.947  1.00  0.00     0.210 HD
ENDBRANCH  29  30
ENDBRANCH   9  11
ENDBRANCH   1   9
TORSDOF 7
ENDMDL
