MODEL 1
REMARK VINA RESULT:    -5.631      0.000      0.000
REMARK INTER + INTRA:         -10.471
REMARK INTER:                  -9.581
REMARK INTRA:                  -0.890
REMARK UNBOUND:                -0.890
REMARK SMILES CCCCCCCCCCCCCC(=O)[O-]
REMARK SMILES IDX 8 1 9 2 10 3 11 4 12 5 13 6 14 7 15 8 16 9 7 10 6 11 5 12
REMARK SMILES IDX 4 13 3 14 2 15 1 16
REMARK H PARENT
REMARK Flexibility Score: inf
ROOT
ATOM      1  C   UNL     1     -24.351 -32.612  25.704  1.00  0.00     0.000 C 
ENDROOT
BRANCH   1   2
ATOM      2  C   UNL     1     -25.725 -33.172  26.117  1.00  0.00     0.000 C 
BRANCH   2   3
ATOM      3  C   UNL     1     -26.883 -32.224  25.772  1.00  0.00     0.000 C 
BRANCH   3   4
ATOM      4  C   UNL     1     -27.924 -32.930  24.890  1.00  0.00     0.000 C 
BRANCH   4   5
ATOM      5  C   UNL     1     -27.373 -33.312  23.504  1.00  0.00     0.006 C 
BRANCH   5   6
ATOM      6  C   UNL     1     -28.288 -32.925  22.331  1.00  0.00     0.053 C 
BRANCH   6   7
ATOM      7  C   UNL     1     -28.766 -31.509  22.434  1.00  0.00     0.041 C 
ATOM      8  O   UNL     1     -29.998 -31.264  22.527  1.00  0.00    -0.550 OA
ATOM      9  O   UNL     1     -27.856 -30.461  22.393  1.00  0.00    -0.550 OA
ENDBRANCH   6   7
ENDBRANCH   5   6
ENDBRANCH   4   5
ENDBRANCH   3   4
ENDBRANCH   2   3
ENDBRANCH   1   2
BRANCH   1  10
ATOM     10  C   UNL     1     -24.388 -31.214  25.056  1.00  0.00     0.000 C 
BRANCH  10  11
ATOM     11  C   UNL     1     -23.076 -30.771  24.377  1.00  0.00    -0.000 C 
BRANCH  11  12
ATOM     12  C   UNL     1     -22.364 -31.862  23.555  1.00  0.00    -0.000 C 
BRANCH  12  13
ATOM     13  C   UNL     1     -20.843 -31.649  23.473  1.00  0.00    -0.000 C 
BRANCH  13  14
ATOM     14  C   UNL     1     -20.389 -30.362  24.181  1.00  0.00    -0.000 C 
BRANCH  14  15
ATOM     15  C   UNL     1     -18.862 -30.258  24.300  1.00  0.00    -0.003 C 
ATOM     16  C   UNL     1     -18.170 -31.297  23.419  1.00  0.00     0.004 C 
ENDBRANCH  14  15
ENDBRANCH  13  14
ENDBRANCH  12  13
ENDBRANCH  11  12
ENDBRANCH  10  11
ENDBRANCH   1  10
TORSDOF 12
ENDMDL
MODEL 2
REMARK VINA RESULT:    -5.605      1.869      3.344
REMARK INTER + INTRA:         -10.427
REMARK INTER:                  -9.424
REMARK INTRA:                  -1.003
REMARK UNBOUND:                -0.890
REMARK SMILES CCCCCCCCCCCCCC(=O)[O-]
REMARK SMILES IDX 8 1 9 2 10 3 11 4 12 5 13 6 14 7 15 8 16 9 7 10 6 11 5 12
REMARK SMILES IDX 4 13 3 14 2 15 1 16
REMARK H PARENT
REMARK Flexibility Score: inf
ROOT
ATOM      1  C   UNL     1     -22.790 -31.214  22.345  1.00  0.00     0.000 C 
ENDROOT
BRANCH   1   2
ATOM      2  C   UNL     1     -24.265 -31.442  22.723  1.00  0.00     0.000 C 
BRANCH   2   3
ATOM      3  C   UNL     1     -24.824 -30.340  23.635  1.00  0.00     0.000 C 
BRANCH   3   4
ATOM      4  C   UNL     1     -24.729 -30.751  25.111  1.00  0.00     0.000 C 
BRANCH   4   5
ATOM      5  C   UNL     1     -24.637 -32.277  25.302  1.00  0.00     0.006 C 
BRANCH   5   6
ATOM      6  C   UNL     1     -25.881 -32.910  25.945  1.00  0.00     0.053 C 
BRANCH   6   7
ATOM      7  C   UNL     1     -27.099 -32.754  25.087  1.00  0.00     0.041 C 
ATOM      8  O   UNL     1     -27.144 -33.293  23.950  1.00  0.00    -0.550 OA
ATOM      9  O   UNL     1     -28.168 -31.986  25.528  1.00  0.00    -0.550 OA
ENDBRANCH   6   7
ENDBRANCH   5   6
ENDBRANCH   4   5
ENDBRANCH   3   4
ENDBRANCH   2   3
ENDBRANCH   1   2
BRANCH   1  10
ATOM     10  C   UNL     1     -21.801 -32.234  22.944  1.00  0.00     0.000 C 
BRANCH  10  11
ATOM     11  C   UNL     1     -20.423 -31.660  23.331  1.00  0.00    -0.000 C 
BRANCH  11  12
ATOM     12  C   UNL     1     -20.461 -30.462  24.296  1.00  0.00    -0.000 C 
BRANCH  12  13
ATOM     13  C   UNL     1     -19.059 -30.003  24.732  1.00  0.00    -0.000 C 
BRANCH  13  14
ATOM     14  C   UNL     1     -18.092 -29.855  23.546  1.00  0.00    -0.000 C 
BRANCH  14  15
ATOM     15  C   UNL     1     -16.917 -30.841  23.613  1.00  0.00    -0.003 C 
ATOM     16  C   UNL     1     -16.166 -30.892  22.284  1.00  0.00     0.004 C 
ENDBRANCH  14  15
ENDBRANCH  13  14
ENDBRANCH  12  13
ENDBRANCH  11  12
ENDBRANCH  10  11
ENDBRANCH   1  10
TORSDOF 12
ENDMDL
MODEL 3
REMARK VINA RESULT:    -5.585      1.110      2.584
REMARK INTER + INTRA:         -10.392
REMARK INTER:                  -9.541
REMARK INTRA:                  -0.851
REMARK UNBOUND:                -0.890
REMARK SMILES CCCCCCCCCCCCCC(=O)[O-]
REMARK SMILES IDX 8 1 9 2 10 3 11 4 12 5 13 6 14 7 15 8 16 9 7 10 6 11 5 12
REMARK SMILES IDX 4 13 3 14 2 15 1 16
REMARK H PARENT
REMARK Flexibility Score: inf
ROOT
ATOM      1  C   UNL     1     -23.221 -30.504  23.497  1.00  0.00     0.000 C 
ENDROOT
BRANCH   1   2
ATOM      2  C   UNL     1     -24.049 -30.727  24.776  1.00  0.00     0.000 C 
BRANCH   2   3
ATOM      3  C   UNL     1     -24.012 -32.183  25.263  1.00  0.00     0.000 C 
BRANCH   3   4
ATOM      4  C   UNL     1     -25.426 -32.687  25.588  1.00  0.00     0.000 C 
BRANCH   4   5
ATOM      5  C   UNL     1     -26.508 -32.048  24.698  1.00  0.00     0.006 C 
BRANCH   5   6
ATOM      6  C   UNL     1     -26.746 -32.781  23.368  1.00  0.00     0.053 C 
BRANCH   6   7
ATOM      7  C   UNL     1     -27.489 -31.931  22.383  1.00  0.00     0.041 C 
ATOM      8  O   UNL     1     -27.036 -30.804  22.052  1.00  0.00    -0.550 OA
ATOM      9  O   UNL     1     -28.698 -32.369  21.858  1.00  0.00    -0.550 OA
ENDBRANCH   6   7
ENDBRANCH   5   6
ENDBRANCH   4   5
ENDBRANCH   3   4
ENDBRANCH   2   3
ENDBRANCH   1   2
BRANCH   1  10
ATOM     10  C   UNL     1     -22.357 -31.705  23.065  1.00  0.00     0.000 C 
BRANCH  10  11
ATOM     11  C   UNL     1     -20.878 -31.638  23.499  1.00  0.00    -0.000 C 
BRANCH  11  12
ATOM     12  C   UNL     1     -20.376 -30.238  23.897  1.00  0.00    -0.000 C 
BRANCH  12  13
ATOM     13  C   UNL     1     -18.878 -30.220  24.249  1.00  0.00    -0.000 C 
BRANCH  13  14
ATOM     14  C   UNL     1     -18.087 -31.313  23.513  1.00  0.00    -0.000 C 
BRANCH  14  15
ATOM     15  C   UNL     1     -16.583 -31.012  23.445  1.00  0.00    -0.003 C 
ATOM     16  C   UNL     1     -16.167 -30.608  22.033  1.00  0.00     0.004 C 
ENDBRANCH  14  15
ENDBRANCH  13  14
ENDBRANCH  12  13
ENDBRANCH  11  12
ENDBRANCH  10  11
ENDBRANCH   1  10
TORSDOF 12
ENDMDL
MODEL 4
REMARK VINA RESULT:    -5.530      4.549      8.393
REMARK INTER + INTRA:         -10.299
REMARK INTER:                  -9.423
REMARK INTRA:                  -0.876
REMARK UNBOUND:                -0.890
REMARK SMILES CCCCCCCCCCCCCC(=O)[O-]
REMARK SMILES IDX 8 1 9 2 10 3 11 4 12 5 13 6 14 7 15 8 16 9 7 10 6 11 5 12
REMARK SMILES IDX 4 13 3 14 2 15 1 16
REMARK H PARENT
REMARK Flexibility Score: inf
ROOT
ATOM      1  C   UNL     1     -22.577 -31.146  22.864  1.00  0.00     0.000 C 
ENDROOT
BRANCH   1   2
ATOM      2  C   UNL     1     -21.595 -32.331  22.832  1.00  0.00     0.000 C 
BRANCH   2   3
ATOM      3  C   UNL     1     -20.178 -31.943  23.283  1.00  0.00     0.000 C 
BRANCH   3   4
ATOM      4  C   UNL     1     -20.189 -30.598  24.022  1.00  0.00     0.000 C 
BRANCH   4   5
ATOM      5  C   UNL     1     -18.773 -30.076  24.333  1.00  0.00     0.006 C 
BRANCH   5   6
ATOM      6  C   UNL     1     -17.984 -29.614  23.097  1.00  0.00     0.053 C 
BRANCH   6   7
ATOM      7  C   UNL     1     -16.746 -30.429  22.883  1.00  0.00     0.041 C 
ATOM      8  O   UNL     1     -16.476 -31.384  23.659  1.00  0.00    -0.550 OA
ATOM      9  O   UNL     1     -15.875 -30.115  21.848  1.00  0.00    -0.550 OA
ENDBRANCH   6   7
ENDBRANCH   5   6
ENDBRANCH   4   5
ENDBRANCH   3   4
ENDBRANCH   2   3
ENDBRANCH   1   2
BRANCH   1  10
ATOM     10  C   UNL     1     -23.896 -31.415  23.615  1.00  0.00     0.000 C 
BRANCH  10  11
ATOM     11  C   UNL     1     -23.740 -31.745  25.114  1.00  0.00    -0.000 C 
BRANCH  11  12
ATOM     12  C   UNL     1     -24.788 -32.720  25.682  1.00  0.00    -0.000 C 
BRANCH  12  13
ATOM     13  C   UNL     1     -26.188 -32.093  25.790  1.00  0.00    -0.000 C 
BRANCH  13  14
ATOM     14  C   UNL     1     -27.269 -32.942  25.102  1.00  0.00    -0.000 C 
BRANCH  14  15
ATOM     15  C   UNL     1     -27.452 -32.583  23.621  1.00  0.00    -0.003 C 
ATOM     16  C   UNL     1     -28.222 -33.675  22.882  1.00  0.00     0.004 C 
ENDBRANCH  14  15
ENDBRANCH  13  14
ENDBRANCH  12  13
ENDBRANCH  11  12
ENDBRANCH  10  11
ENDBRANCH   1  10
TORSDOF 12
ENDMDL
MODEL 5
REMARK VINA RESULT:    -5.457      3.163      6.750
REMARK INTER + INTRA:         -10.176
REMARK INTER:                  -8.913
REMARK INTRA:                  -1.263
REMARK UNBOUND:                -0.890
REMARK SMILES CCCCCCCCCCCCCC(=O)[O-]
REMARK SMILES IDX 8 1 9 2 10 3 11 4 12 5 13 6 14 7 15 8 16 9 7 10 6 11 5 12
REMARK SMILES IDX 4 13 3 14 2 15 1 16
REMARK H PARENT
REMARK Flexibility Score: inf
ROOT
ATOM      1  C   UNL     1     -26.715 -32.458  26.383  1.00  0.00     0.000 C 
ENDROOT
BRANCH   1   2
ATOM      2  C   UNL     1     -25.357 -32.940  25.840  1.00  0.00     0.000 C 
BRANCH   2   3
ATOM      3  C   UNL     1     -24.571 -31.829  25.128  1.00  0.00     0.000 C 
BRANCH   3   4
ATOM      4  C   UNL     1     -24.843 -31.850  23.617  1.00  0.00     0.000 C 
BRANCH   4   5
ATOM      5  C   UNL     1     -23.602 -31.482  22.781  1.00  0.00     0.006 C 
BRANCH   5   6
ATOM      6  C   UNL     1     -22.418 -30.953  23.606  1.00  0.00     0.053 C 
BRANCH   6   7
ATOM      7  C   UNL     1     -21.172 -31.751  23.377  1.00  0.00     0.041 C 
ATOM      8  O   UNL     1     -21.231 -32.857  22.777  1.00  0.00    -0.550 OA
ATOM      9  O   UNL     1     -19.952 -31.292  23.856  1.00  0.00    -0.550 OA
ENDBRANCH   6   7
ENDBRANCH   5   6
ENDBRANCH   4   5
ENDBRANCH   3   4
ENDBRANCH   2   3
ENDBRANCH   1   2
BRANCH   1  10
ATOM     10  C   UNL     1     -27.030 -30.973  26.118  1.00  0.00     0.000 C 
BRANCH  10  11
ATOM     11  C   UNL     1     -28.424 -30.695  25.520  1.00  0.00    -0.000 C 
BRANCH  11  12
ATOM     12  C   UNL     1     -28.439 -30.379  24.013  1.00  0.00    -0.000 C 
BRANCH  12  13
ATOM     13  C   UNL     1     -29.727 -30.849  23.318  1.00  0.00    -0.000 C 
BRANCH  13  14
ATOM     14  C   UNL     1     -29.449 -31.786  22.131  1.00  0.00    -0.000 C 
BRANCH  14  15
ATOM     15  C   UNL     1     -28.052 -32.420  22.192  1.00  0.00    -0.003 C 
ATOM     16  C   UNL     1     -28.075 -33.726  22.982  1.00  0.00     0.004 C 
ENDBRANCH  14  15
ENDBRANCH  13  14
ENDBRANCH  12  13
ENDBRANCH  11  12
ENDBRANCH  10  11
ENDBRANCH   1  10
TORSDOF 12
ENDMDL
MODEL 6
REMARK VINA RESULT:    -5.408      1.657      3.194
REMARK INTER + INTRA:         -10.092
REMARK INTER:                  -9.354
REMARK INTRA:                  -0.738
REMARK UNBOUND:                -0.890
REMARK SMILES CCCCCCCCCCCCCC(=O)[O-]
REMARK SMILES IDX 8 1 9 2 10 3 11 4 12 5 13 6 14 7 15 8 16 9 7 10 6 11 5 12
REMARK SMILES IDX 4 13 3 14 2 15 1 16
REMARK H PARENT
REMARK Flexibility Score: inf
ROOT
ATOM      1  C   UNL     1     -21.839 -30.629  23.748  1.00  0.00     0.000 C 
ENDROOT
BRANCH   1   2
ATOM      2  C   UNL     1     -22.815 -31.815  23.859  1.00  0.00     0.000 C 
BRANCH   2   3
ATOM      3  C   UNL     1     -24.043 -31.497  24.724  1.00  0.00     0.000 C 
BRANCH   3   4
ATOM      4  C   UNL     1     -24.472 -32.727  25.538  1.00  0.00     0.000 C 
BRANCH   4   5
ATOM      5  C   UNL     1     -25.868 -32.569  26.168  1.00  0.00     0.006 C 
BRANCH   5   6
ATOM      6  C   UNL     1     -27.032 -32.741  25.179  1.00  0.00     0.053 C 
BRANCH   6   7
ATOM      7  C   UNL     1     -27.805 -31.472  24.993  1.00  0.00     0.041 C 
ATOM      8  O   UNL     1     -28.917 -31.320  25.563  1.00  0.00    -0.550 OA
ATOM      9  O   UNL     1     -27.313 -30.471  24.165  1.00  0.00    -0.550 OA
ENDBRANCH   6   7
ENDBRANCH   5   6
ENDBRANCH   4   5
ENDBRANCH   3   4
ENDBRANCH   2   3
ENDBRANCH   1   2
BRANCH   1  10
ATOM     10  C   UNL     1     -21.576 -29.879  25.068  1.00  0.00     0.000 C 
BRANCH  10  11
ATOM     11  C   UNL     1     -20.097 -29.537  25.345  1.00  0.00    -0.000 C 
BRANCH  11  12
ATOM     12  C   UNL     1     -19.446 -28.581  24.329  1.00  0.00    -0.000 C 
BRANCH  12  13
ATOM     13  C   UNL     1     -18.379 -29.270  23.461  1.00  0.00    -0.000 C 
BRANCH  13  14
ATOM     14  C   UNL     1     -18.034 -30.681  23.962  1.00  0.00    -0.000 C 
BRANCH  14  15
ATOM     15  C   UNL     1     -16.629 -31.133  23.538  1.00  0.00    -0.003 C 
ATOM     16  C   UNL     1     -16.172 -30.399  22.280  1.00  0.00     0.004 C 
ENDBRANCH  14  15
ENDBRANCH  13  14
ENDBRANCH  12  13
ENDBRANCH  11  12
ENDBRANCH  10  11
ENDBRANCH   1  10
TORSDOF 12
ENDMDL
MODEL 7
REMARK VINA RESULT:    -5.374      4.161      8.078
REMARK INTER + INTRA:         -10.035
REMARK INTER:                  -9.256
REMARK INTRA:                  -0.779
REMARK UNBOUND:                -0.890
REMARK SMILES CCCCCCCCCCCCCC(=O)[O-]
REMARK SMILES IDX 8 1 9 2 10 3 11 4 12 5 13 6 14 7 15 8 16 9 7 10 6 11 5 12
REMARK SMILES IDX 4 13 3 14 2 15 1 16
REMARK H PARENT
REMARK Flexibility Score: inf
ROOT
ATOM      1  C   UNL     1     -23.948 -31.312  24.684  1.00  0.00     0.000 C 
ENDROOT
BRANCH   1   2
ATOM      2  C   UNL     1     -23.248 -31.890  23.440  1.00  0.00     0.000 C 
BRANCH   2   3
ATOM      3  C   UNL     1     -21.779 -31.458  23.328  1.00  0.00     0.000 C 
BRANCH   3   4
ATOM      4  C   UNL     1     -21.412 -30.470  24.444  1.00  0.00     0.000 C 
BRANCH   4   5
ATOM      5  C   UNL     1     -19.904 -30.158  24.495  1.00  0.00     0.006 C 
BRANCH   5   6
ATOM      6  C   UNL     1     -19.032 -31.115  23.667  1.00  0.00     0.053 C 
BRANCH   6   7
ATOM      7  C   UNL     1     -17.676 -30.542  23.388  1.00  0.00     0.041 C 
ATOM      8  O   UNL     1     -16.642 -31.212  23.647  1.00  0.00    -0.550 OA
ATOM      9  O   UNL     1     -17.555 -29.257  22.876  1.00  0.00    -0.550 OA
ENDBRANCH   6   7
ENDBRANCH   5   6
ENDBRANCH   4   5
ENDBRANCH   3   4
ENDBRANCH   2   3
ENDBRANCH   1   2
BRANCH   1  10
ATOM     10  C   UNL     1     -24.903 -32.284  25.403  1.00  0.00     0.000 C 
BRANCH  10  11
ATOM     11  C   UNL     1     -26.261 -31.681  25.818  1.00  0.00    -0.000 C 
BRANCH  11  12
ATOM     12  C   UNL     1     -27.496 -32.372  25.213  1.00  0.00    -0.000 C 
BRANCH  12  13
ATOM     13  C   UNL     1     -27.152 -33.254  24.001  1.00  0.00    -0.000 C 
BRANCH  13  14
ATOM     14  C   UNL     1     -27.206 -32.479  22.675  1.00  0.00    -0.000 C 
BRANCH  14  15
ATOM     15  C   UNL     1     -28.504 -32.730  21.894  1.00  0.00    -0.003 C 
ATOM     16  C   UNL     1     -29.520 -31.619  22.145  1.00  0.00     0.004 C 
ENDBRANCH  14  15
ENDBRANCH  13  14
ENDBRANCH  12  13
ENDBRANCH  11  12
ENDBRANCH  10  11
ENDBRANCH   1  10
TORSDOF 12
ENDMDL
MODEL 8
REMARK VINA RESULT:    -5.352      4.392      8.084
REMARK INTER + INTRA:          -9.997
REMARK INTER:                  -8.989
REMARK INTRA:                  -1.007
REMARK UNBOUND:                -0.890
REMARK SMILES CCCCCCCCCCCCCC(=O)[O-]
REMARK SMILES IDX 8 1 9 2 10 3 11 4 12 5 13 6 14 7 15 8 16 9 7 10 6 11 5 12
REMARK SMILES IDX 4 13 3 14 2 15 1 16
REMARK H PARENT
REMARK Flexibility Score: inf
ROOT
ATOM      1  C   UNL     1     -22.895 -30.890  24.560  1.00  0.00     0.000 C 
ENDROOT
BRANCH   1   2
ATOM      2  C   UNL     1     -22.085 -31.461  23.381  1.00  0.00     0.000 C 
BRANCH   2   3
ATOM      3  C   UNL     1     -20.573 -31.479  23.649  1.00  0.00     0.000 C 
BRANCH   3   4
ATOM      4  C   UNL     1     -20.087 -30.106  24.136  1.00  0.00     0.000 C 
BRANCH   4   5
ATOM      5  C   UNL     1     -18.607 -30.112  24.560  1.00  0.00     0.006 C 
BRANCH   5   6
ATOM      6  C   UNL     1     -17.720 -31.068  23.747  1.00  0.00     0.053 C 
BRANCH   6   7
ATOM      7  C   UNL     1     -16.975 -30.357  22.659  1.00  0.00     0.041 C 
ATOM      8  O   UNL     1     -17.087 -29.110  22.528  1.00  0.00    -0.550 OA
ATOM      9  O   UNL     1     -16.186 -31.076  21.770  1.00  0.00    -0.550 OA
ENDBRANCH   6   7
ENDBRANCH   5   6
ENDBRANCH   4   5
ENDBRANCH   3   4
ENDBRANCH   2   3
ENDBRANCH   1   2
BRANCH   1  10
ATOM     10  C   UNL     1     -24.368 -30.568  24.241  1.00  0.00     0.000 C 
BRANCH  10  11
ATOM     11  C   UNL     1     -24.868 -31.072  22.871  1.00  0.00    -0.000 C 
BRANCH  11  12
ATOM     12  C   UNL     1     -26.109 -31.981  22.922  1.00  0.00    -0.000 C 
BRANCH  12  13
ATOM     13  C   UNL     1     -27.041 -31.652  24.100  1.00  0.00    -0.000 C 
BRANCH  13  14
ATOM     14  C   UNL     1     -27.305 -32.870  25.000  1.00  0.00    -0.000 C 
BRANCH  14  15
ATOM     15  C   UNL     1     -26.585 -32.775  26.353  1.00  0.00    -0.003 C 
ATOM     16  C   UNL     1     -25.187 -33.383  26.276  1.00  0.00     0.004 C 
ENDBRANCH  14  15
ENDBRANCH  13  14
ENDBRANCH  12  13
ENDBRANCH  11  12
ENDBRANCH  10  11
ENDBRANCH   1  10
TORSDOF 12
ENDMDL
MODEL 9
REMARK VINA RESULT:    -5.343      2.523      5.783
REMARK INTER + INTRA:          -9.981
REMARK INTER:                  -8.025
REMARK INTRA:                  -1.956
REMARK UNBOUND:                -0.890
REMARK SMILES CCCCCCCCCCCCCC(=O)[O-]
REMARK SMILES IDX 8 1 9 2 10 3 11 4 12 5 13 6 14 7 15 8 16 9 7 10 6 11 5 12
REMARK SMILES IDX 4 13 3 14 2 15 1 16
REMARK H PARENT
REMARK Flexibility Score: inf
ROOT
ATOM      1  C   UNL     1     -24.104 -31.544  25.000  1.00  0.00     0.000 C 
ENDROOT
BRANCH   1   2
ATOM      2  C   UNL     1     -22.953 -31.767  24.002  1.00  0.00     0.000 C 
BRANCH   2   3
ATOM      3  C   UNL     1     -23.328 -31.381  22.564  1.00  0.00     0.000 C 
BRANCH   3   4
ATOM      4  C   UNL     1     -24.838 -31.533  22.333  1.00  0.00     0.000 C 
BRANCH   4   5
ATOM      5  C   UNL     1     -25.472 -30.287  21.686  1.00  0.00     0.006 C 
BRANCH   5   6
ATOM      6  C   UNL     1     -26.461 -29.537  22.592  1.00  0.00     0.053 C 
BRANCH   6   7
ATOM      7  C   UNL     1     -25.863 -28.289  23.165  1.00  0.00     0.041 C 
ATOM      8  O   UNL     1     -24.626 -28.225  23.389  1.00  0.00    -0.550 OA
ATOM      9  O   UNL     1     -26.677 -27.209  23.482  1.00  0.00    -0.550 OA
ENDBRANCH   6   7
ENDBRANCH   5   6
ENDBRANCH   4   5
ENDBRANCH   3   4
ENDBRANCH   2   3
ENDBRANCH   1   2
BRANCH   1  10
ATOM     10  C   UNL     1     -24.489 -32.781  25.836  1.00  0.00     0.000 C 
BRANCH  10  11
ATOM     11  C   UNL     1     -26.001 -32.960  26.083  1.00  0.00    -0.000 C 
BRANCH  11  12
ATOM     12  C   UNL     1     -26.866 -31.726  25.770  1.00  0.00    -0.000 C 
BRANCH  12  13
ATOM     13  C   UNL     1     -27.932 -32.003  24.696  1.00  0.00    -0.000 C 
BRANCH  13  14
ATOM     14  C   UNL     1     -27.717 -33.349  23.985  1.00  0.00    -0.000 C 
BRANCH  14  15
ATOM     15  C   UNL     1     -27.984 -33.271  22.475  1.00  0.00    -0.003 C 
ATOM     16  C   UNL     1     -29.042 -32.217  22.158  1.00  0.00     0.004 C 
ENDBRANCH  14  15
ENDBRANCH  13  14
ENDBRANCH  12  13
ENDBRANCH  11  12
ENDBRANCH  10  11
ENDBRANCH   1  10
TORSDOF 12
ENDMDL
