MODEL 1
REMARK VINA RESULT:    -4.457      0.000      0.000
REMARK INTER + INTRA:          -9.894
REMARK INTER:                  -8.105
REMARK INTRA:                  -1.788
REMARK UNBOUND:                -1.788
REMARK SMILES CCCCCCCCCCCCCCCC(=O)[O-]
REMARK SMILES IDX 9 1 10 2 11 3 12 4 13 5 14 6 15 7 16 8 17 9 18 10 8 11 7 12
REMARK SMILES IDX 6 13 5 14 4 15 3 16 2 17 1 18
REMARK H PARENT
REMARK Flexibility Score: inf
ROOT
ATOM      1  C   UNL     1      32.052  10.010  48.448  1.00  0.00     0.000 C 
ENDROOT
BRANCH   1   2
ATOM      2  C   UNL     1      32.023   9.161  49.732  1.00  0.00     0.000 C 
BRANCH   2   3
ATOM      3  C   UNL     1      30.772   8.275  49.914  1.00  0.00     0.000 C 
BRANCH   3   4
ATOM      4  C   UNL     1      30.180   7.702  48.612  1.00  0.00     0.000 C 
BRANCH   4   5
ATOM      5  C   UNL     1      30.051   6.161  48.611  1.00  0.00     0.000 C 
BRANCH   5   6
ATOM      6  C   UNL     1      31.315   5.445  48.103  1.00  0.00     0.006 C 
BRANCH   6   7
ATOM      7  C   UNL     1      32.205   6.327  47.215  1.00  0.00     0.053 C 
BRANCH   7   8
ATOM      8  C   UNL     1      33.661   6.117  47.501  1.00  0.00     0.041 C 
ATOM      9  O   UNL     1      34.138   6.435  48.622  1.00  0.00    -0.550 OA
ATOM     10  O   UNL     1      34.486   5.546  46.540  1.00  0.00    -0.550 OA
ENDBRANCH   7   8
ENDBRANCH   6   7
ENDBRANCH   5   6
ENDBRANCH   4   5
ENDBRANCH   3   4
ENDBRANCH   2   3
ENDBRANCH   1   2
BRANCH   1  11
ATOM     11  C   UNL     1      33.269   9.705  47.557  1.00  0.00     0.000 C 
BRANCH  11  12
ATOM     12  C   UNL     1      34.586  10.219  48.162  1.00  0.00    -0.000 C 
BRANCH  12  13
ATOM     13  C   UNL     1      35.042  11.549  47.535  1.00  0.00    -0.000 C 
BRANCH  13  14
ATOM     14  C   UNL     1      35.753  11.351  46.186  1.00  0.00    -0.000 C 
BRANCH  14  15
ATOM     15  C   UNL     1      34.920  11.861  44.996  1.00  0.00    -0.000 C 
BRANCH  15  16
ATOM     16  C   UNL     1      34.195  10.727  44.254  1.00  0.00    -0.000 C 
BRANCH  16  17
ATOM     17  C   UNL     1      35.075   9.480  44.079  1.00  0.00    -0.003 C 
ATOM     18  C   UNL     1      34.243   8.204  44.172  1.00  0.00     0.004 C 
ENDBRANCH  16  17
ENDBRANCH  15  16
ENDBRANCH  14  15
ENDBRANCH  13  14
ENDBRANCH  12  13
ENDBRANCH  11  12
ENDBRANCH   1  11
TORSDOF 14
ENDMDL
MODEL 2
REMARK VINA RESULT:    -4.242      2.095      4.304
REMARK INTER + INTRA:          -9.503
REMARK INTER:                  -7.903
REMARK INTRA:                  -1.600
REMARK UNBOUND:                -1.788
REMARK SMILES CCCCCCCCCCCCCCCC(=O)[O-]
REMARK SMILES IDX 9 1 10 2 11 3 12 4 13 5 14 6 15 7 16 8 17 9 18 10 8 11 7 12
REMARK SMILES IDX 6 13 5 14 4 15 3 16 2 17 1 18
REMARK H PARENT
REMARK Flexibility Score: inf
ROOT
ATOM      1  C   UNL     1      30.971   6.351  47.551  1.00  0.00     0.000 C 
ENDROOT
BRANCH   1   2
ATOM      2  C   UNL     1      29.799   6.590  48.519  1.00  0.00     0.000 C 
BRANCH   2   3
ATOM      3  C   UNL     1      29.839   7.924  49.295  1.00  0.00     0.000 C 
BRANCH   3   4
ATOM      4  C   UNL     1      31.249   8.437  49.644  1.00  0.00     0.000 C 
BRANCH   4   5
ATOM      5  C   UNL     1      31.759   9.551  48.700  1.00  0.00     0.000 C 
BRANCH   5   6
ATOM      6  C   UNL     1      33.253   9.871  48.888  1.00  0.00     0.006 C 
BRANCH   6   7
ATOM      7  C   UNL     1      33.938  10.378  47.610  1.00  0.00     0.053 C 
BRANCH   7   8
ATOM      8  C   UNL     1      35.040  11.347  47.915  1.00  0.00     0.041 C 
ATOM      9  O   UNL     1      36.156  11.236  47.342  1.00  0.00    -0.550 OA
ATOM     10  O   UNL     1      34.828  12.386  48.812  1.00  0.00    -0.550 OA
ENDBRANCH   7   8
ENDBRANCH   6   7
ENDBRANCH   5   6
ENDBRANCH   4   5
ENDBRANCH   3   4
ENDBRANCH   2   3
ENDBRANCH   1   2
BRANCH   1  11
ATOM     11  C   UNL     1      31.914   5.228  48.018  1.00  0.00     0.000 C 
BRANCH  11  12
ATOM     12  C   UNL     1      33.398   5.599  47.855  1.00  0.00    -0.000 C 
BRANCH  12  13
ATOM     13  C   UNL     1      33.602   6.831  46.956  1.00  0.00    -0.000 C 
BRANCH  13  14
ATOM     14  C   UNL     1      34.048   6.455  45.533  1.00  0.00    -0.000 C 
BRANCH  14  15
ATOM     15  C   UNL     1      33.617   7.494  44.482  1.00  0.00    -0.000 C 
BRANCH  15  16
ATOM     16  C   UNL     1      34.611   8.660  44.364  1.00  0.00    -0.000 C 
BRANCH  16  17
ATOM     17  C   UNL     1      34.061   9.820  43.521  1.00  0.00    -0.003 C 
ATOM     18  C   UNL     1      34.490  11.168  44.095  1.00  0.00     0.004 C 
ENDBRANCH  16  17
ENDBRANCH  15  16
ENDBRANCH  14  15
ENDBRANCH  13  14
ENDBRANCH  12  13
ENDBRANCH  11  12
ENDBRANCH   1  11
TORSDOF 14
ENDMDL
MODEL 3
REMARK VINA RESULT:    -4.235      2.141      5.302
REMARK INTER + INTRA:          -9.490
REMARK INTER:                  -7.725
REMARK INTRA:                  -1.765
REMARK UNBOUND:                -1.788
REMARK SMILES CCCCCCCCCCCCCCCC(=O)[O-]
REMARK SMILES IDX 9 1 10 2 11 3 12 4 13 5 14 6 15 7 16 8 17 9 18 10 8 11 7 12
REMARK SMILES IDX 6 13 5 14 4 15 3 16 2 17 1 18
REMARK H PARENT
REMARK Flexibility Score: inf
ROOT
ATOM      1  C   UNL     1      31.487   9.056  48.403  1.00  0.00     0.000 C 
ENDROOT
BRANCH   1   2
ATOM      2  C   UNL     1      31.985  10.382  49.004  1.00  0.00     0.000 C 
BRANCH   2   3
ATOM      3  C   UNL     1      33.360  10.320  49.703  1.00  0.00     0.000 C 
BRANCH   3   4
ATOM      4  C   UNL     1      34.540   9.926  48.795  1.00  0.00     0.000 C 
BRANCH   4   5
ATOM      5  C   UNL     1      35.314  11.134  48.218  1.00  0.00     0.000 C 
BRANCH   5   6
ATOM      6  C   UNL     1      35.369  11.144  46.680  1.00  0.00     0.006 C 
BRANCH   6   7
ATOM      7  C   UNL     1      34.382  10.165  46.025  1.00  0.00     0.053 C 
BRANCH   7   8
ATOM      8  C   UNL     1      34.562  10.104  44.538  1.00  0.00     0.041 C 
ATOM      9  O   UNL     1      34.882   9.019  43.984  1.00  0.00    -0.550 OA
ATOM     10  O   UNL     1      34.352  11.237  43.762  1.00  0.00    -0.550 OA
ENDBRANCH   7   8
ENDBRANCH   6   7
ENDBRANCH   5   6
ENDBRANCH   4   5
ENDBRANCH   3   4
ENDBRANCH   2   3
ENDBRANCH   1   2
BRANCH   1  11
ATOM     11  C   UNL     1      30.686   8.209  49.406  1.00  0.00     0.000 C 
BRANCH  11  12
ATOM     12  C   UNL     1      30.107   6.933  48.770  1.00  0.00    -0.000 C 
BRANCH  12  13
ATOM     13  C   UNL     1      30.961   6.420  47.598  1.00  0.00    -0.000 C 
BRANCH  13  14
ATOM     14  C   UNL     1      31.941   5.314  48.022  1.00  0.00    -0.000 C 
BRANCH  14  15
ATOM     15  C   UNL     1      33.383   5.828  48.183  1.00  0.00    -0.000 C 
BRANCH  15  16
ATOM     16  C   UNL     1      33.849   6.662  46.980  1.00  0.00    -0.000 C 
BRANCH  16  17
ATOM     17  C   UNL     1      34.357   5.791  45.821  1.00  0.00    -0.003 C 
ATOM     18  C   UNL     1      35.266   4.676  46.329  1.00  0.00     0.004 C 
ENDBRANCH  16  17
ENDBRANCH  15  16
ENDBRANCH  14  15
ENDBRANCH  13  14
ENDBRANCH  12  13
ENDBRANCH  11  12
ENDBRANCH   1  11
TORSDOF 14
ENDMDL
MODEL 4
REMARK VINA RESULT:    -4.175      1.241      4.652
REMARK INTER + INTRA:          -9.381
REMARK INTER:                  -7.260
REMARK INTRA:                  -2.121
REMARK UNBOUND:                -1.788
REMARK SMILES CCCCCCCCCCCCCCCC(=O)[O-]
REMARK SMILES IDX 9 1 10 2 11 3 12 4 13 5 14 6 15 7 16 8 17 9 18 10 8 11 7 12
REMARK SMILES IDX 6 13 5 14 4 15 3 16 2 17 1 18
REMARK H PARENT
REMARK Flexibility Score: inf
ROOT
ATOM      1  C   UNL     1      34.125  10.279  45.172  1.00  0.00     0.000 C 
ENDROOT
BRANCH   1   2
ATOM      2  C   UNL     1      34.774   9.088  44.445  1.00  0.00     0.000 C 
BRANCH   2   3
ATOM      3  C   UNL     1      33.893   7.827  44.318  1.00  0.00     0.000 C 
BRANCH   3   4
ATOM      4  C   UNL     1      34.068   6.790  45.442  1.00  0.00     0.000 C 
BRANCH   4   5
ATOM      5  C   UNL     1      32.807   6.600  46.318  1.00  0.00     0.000 C 
BRANCH   5   6
ATOM      6  C   UNL     1      33.090   5.864  47.641  1.00  0.00     0.006 C 
BRANCH   6   7
ATOM      7  C   UNL     1      34.160   6.547  48.507  1.00  0.00     0.053 C 
BRANCH   7   8
ATOM      8  C   UNL     1      35.266   5.603  48.873  1.00  0.00     0.041 C 
ATOM      9  O   UNL     1      35.896   5.757  49.952  1.00  0.00    -0.550 OA
ATOM     10  O   UNL     1      35.584   4.542  48.036  1.00  0.00    -0.550 OA
ENDBRANCH   7   8
ENDBRANCH   6   7
ENDBRANCH   5   6
ENDBRANCH   4   5
ENDBRANCH   3   4
ENDBRANCH   2   3
ENDBRANCH   1   2
BRANCH   1  11
ATOM     11  C   UNL     1      34.901  10.707  46.430  1.00  0.00     0.000 C 
BRANCH  11  12
ATOM     12  C   UNL     1      34.214  10.252  47.729  1.00  0.00    -0.000 C 
BRANCH  12  13
ATOM     13  C   UNL     1      32.750   9.835  47.507  1.00  0.00    -0.000 C 
BRANCH  13  14
ATOM     14  C   UNL     1      31.864  10.121  48.731  1.00  0.00    -0.000 C 
BRANCH  14  15
ATOM     15  C   UNL     1      31.460   8.840  49.484  1.00  0.00    -0.000 C 
BRANCH  15  16
ATOM     16  C   UNL     1      30.241   8.146  48.856  1.00  0.00    -0.000 C 
BRANCH  16  17
ATOM     17  C   UNL     1      29.904   6.813  49.541  1.00  0.00    -0.003 C 
ATOM     18  C   UNL     1      29.215   5.857  48.572  1.00  0.00     0.004 C 
ENDBRANCH  16  17
ENDBRANCH  15  16
ENDBRANCH  14  15
ENDBRANCH  13  14
ENDBRANCH  12  13
ENDBRANCH  11  12
ENDBRANCH   1  11
TORSDOF 14
ENDMDL
MODEL 5
REMARK VINA RESULT:    -4.149      2.357      5.546
REMARK INTER + INTRA:          -9.334
REMARK INTER:                  -7.386
REMARK INTRA:                  -1.947
REMARK UNBOUND:                -1.788
REMARK SMILES CCCCCCCCCCCCCCCC(=O)[O-]
REMARK SMILES IDX 9 1 10 2 11 3 12 4 13 5 14 6 15 7 16 8 17 9 18 10 8 11 7 12
REMARK SMILES IDX 6 13 5 14 4 15 3 16 2 17 1 18
REMARK H PARENT
REMARK Flexibility Score: inf
ROOT
ATOM      1  C   UNL     1      32.758  10.084  49.290  1.00  0.00     0.000 C 
ENDROOT
BRANCH   1   2
ATOM      2  C   UNL     1      34.010   9.205  49.457  1.00  0.00     0.000 C 
BRANCH   2   3
ATOM      3  C   UNL     1      35.308   9.958  49.819  1.00  0.00     0.000 C 
BRANCH   3   4
ATOM      4  C   UNL     1      35.467  11.341  49.162  1.00  0.00     0.000 C 
BRANCH   4   5
ATOM      5  C   UNL     1      36.209  11.306  47.805  1.00  0.00     0.000 C 
BRANCH   5   6
ATOM      6  C   UNL     1      35.313  11.686  46.612  1.00  0.00     0.006 C 
BRANCH   6   7
ATOM      7  C   UNL     1      34.828  10.475  45.800  1.00  0.00     0.053 C 
BRANCH   7   8
ATOM      8  C   UNL     1      34.462  10.856  44.397  1.00  0.00     0.041 C 
ATOM      9  O   UNL     1      34.486  12.064  44.043  1.00  0.00    -0.550 OA
ATOM     10  O   UNL     1      34.119   9.876  43.474  1.00  0.00    -0.550 OA
ENDBRANCH   7   8
ENDBRANCH   6   7
ENDBRANCH   5   6
ENDBRANCH   4   5
ENDBRANCH   3   4
ENDBRANCH   2   3
ENDBRANCH   1   2
BRANCH   1  11
ATOM     11  C   UNL     1      31.615   9.365  48.553  1.00  0.00     0.000 C 
BRANCH  11  12
ATOM     12  C   UNL     1      30.920   8.310  49.431  1.00  0.00    -0.000 C 
BRANCH  12  13
ATOM     13  C   UNL     1      30.154   7.265  48.601  1.00  0.00    -0.000 C 
BRANCH  13  14
ATOM     14  C   UNL     1      31.053   6.551  47.577  1.00  0.00    -0.000 C 
BRANCH  14  15
ATOM     15  C   UNL     1      32.173   5.731  48.241  1.00  0.00    -0.000 C 
BRANCH  15  16
ATOM     16  C   UNL     1      33.498   5.805  47.466  1.00  0.00    -0.000 C 
BRANCH  16  17
ATOM     17  C   UNL     1      33.583   7.045  46.562  1.00  0.00    -0.003 C 
ATOM     18  C   UNL     1      33.966   6.659  45.136  1.00  0.00     0.004 C 
ENDBRANCH  16  17
ENDBRANCH  15  16
ENDBRANCH  14  15
ENDBRANCH  13  14
ENDBRANCH  12  13
ENDBRANCH  11  12
ENDBRANCH   1  11
TORSDOF 14
ENDMDL
MODEL 6
REMARK VINA RESULT:    -4.073     17.809     19.802
REMARK INTER + INTRA:          -9.195
REMARK INTER:                  -7.778
REMARK INTRA:                  -1.417
REMARK UNBOUND:                -1.788
REMARK SMILES CCCCCCCCCCCCCCCC(=O)[O-]
REMARK SMILES IDX 9 1 10 2 11 3 12 4 13 5 14 6 15 7 16 8 17 9 18 10 8 11 7 12
REMARK SMILES IDX 6 13 5 14 4 15 3 16 2 17 1 18
REMARK H PARENT
REMARK Flexibility Score: inf
ROOT
ATOM      1  C   UNL     1      20.747  14.479  34.467  1.00  0.00     0.000 C 
ENDROOT
BRANCH   1   2
ATOM      2  C   UNL     1      21.000  14.795  32.982  1.00  0.00     0.000 C 
BRANCH   2   3
ATOM      3  C   UNL     1      21.583  13.635  32.146  1.00  0.00     0.000 C 
BRANCH   3   4
ATOM      4  C   UNL     1      21.722  13.920  30.639  1.00  0.00     0.000 C 
BRANCH   4   5
ATOM      5  C   UNL     1      23.188  13.981  30.149  1.00  0.00     0.000 C 
BRANCH   5   6
ATOM      6  C   UNL     1      23.852  15.350  30.385  1.00  0.00     0.006 C 
BRANCH   6   7
ATOM      7  C   UNL     1      22.878  16.533  30.267  1.00  0.00     0.053 C 
BRANCH   7   8
ATOM      8  C   UNL     1      23.361  17.731  31.028  1.00  0.00     0.041 C 
ATOM      9  O   UNL     1      22.534  18.547  31.514  1.00  0.00    -0.550 OA
ATOM     10  O   UNL     1      24.721  17.932  31.222  1.00  0.00    -0.550 OA
ENDBRANCH   7   8
ENDBRANCH   6   7
ENDBRANCH   5   6
ENDBRANCH   4   5
ENDBRANCH   3   4
ENDBRANCH   2   3
ENDBRANCH   1   2
BRANCH   1  11
ATOM     11  C   UNL     1      19.466  13.658  34.694  1.00  0.00     0.000 C 
BRANCH  11  12
ATOM     12  C   UNL     1      19.376  13.090  36.121  1.00  0.00    -0.000 C 
BRANCH  12  13
ATOM     13  C   UNL     1      19.449  11.553  36.149  1.00  0.00    -0.000 C 
BRANCH  13  14
ATOM     14  C   UNL     1      19.565  10.944  34.741  1.00  0.00    -0.000 C 
BRANCH  14  15
ATOM     15  C   UNL     1      20.963  10.362  34.460  1.00  0.00    -0.000 C 
BRANCH  15  16
ATOM     16  C   UNL     1      21.881  10.413  35.691  1.00  0.00    -0.000 C 
BRANCH  16  17
ATOM     17  C   UNL     1      22.973  11.487  35.568  1.00  0.00    -0.003 C 
ATOM     18  C   UNL     1      24.361  10.882  35.757  1.00  0.00     0.004 C 
ENDBRANCH  16  17
ENDBRANCH  15  16
ENDBRANCH  14  15
ENDBRANCH  13  14
ENDBRANCH  12  13
ENDBRANCH  11  12
ENDBRANCH   1  11
TORSDOF 14
ENDMDL
MODEL 7
REMARK VINA RESULT:    -3.953      3.679      7.425
REMARK INTER + INTRA:          -8.977
REMARK INTER:                  -7.982
REMARK INTRA:                  -0.994
REMARK UNBOUND:                -1.788
REMARK SMILES CCCCCCCCCCCCCCCC(=O)[O-]
REMARK SMILES IDX 9 1 10 2 11 3 12 4 13 5 14 6 15 7 16 8 17 9 18 10 8 11 7 12
REMARK SMILES IDX 6 13 5 14 4 15 3 16 2 17 1 18
REMARK H PARENT
REMARK Flexibility Score: inf
ROOT
ATOM      1  C   UNL     1      33.803   8.162  44.089  1.00  0.00     0.000 C 
ENDROOT
BRANCH   1   2
ATOM      2  C   UNL     1      34.888   9.254  44.069  1.00  0.00     0.000 C 
BRANCH   2   3
ATOM      3  C   UNL     1      34.506  10.584  44.752  1.00  0.00     0.000 C 
BRANCH   3   4
ATOM      4  C   UNL     1      34.951  10.718  46.220  1.00  0.00     0.000 C 
BRANCH   4   5
ATOM      5  C   UNL     1      36.151  11.672  46.424  1.00  0.00     0.000 C 
BRANCH   5   6
ATOM      6  C   UNL     1      35.731  13.107  46.795  1.00  0.00     0.006 C 
BRANCH   6   7
ATOM      7  C   UNL     1      35.721  14.072  45.600  1.00  0.00     0.053 C 
BRANCH   7   8
ATOM      8  C   UNL     1      36.487  15.327  45.891  1.00  0.00     0.041 C 
ATOM      9  O   UNL     1      36.218  16.390  45.272  1.00  0.00    -0.550 OA
ATOM     10  O   UNL     1      37.480  15.330  46.862  1.00  0.00    -0.550 OA
ENDBRANCH   7   8
ENDBRANCH   6   7
ENDBRANCH   5   6
ENDBRANCH   4   5
ENDBRANCH   3   4
ENDBRANCH   2   3
ENDBRANCH   1   2
BRANCH   1  11
ATOM     11  C   UNL     1      34.158   6.984  45.013  1.00  0.00     0.000 C 
BRANCH  11  12
ATOM     12  C   UNL     1      33.473   7.086  46.387  1.00  0.00    -0.000 C 
BRANCH  12  13
ATOM     13  C   UNL     1      33.702   5.835  47.253  1.00  0.00    -0.000 C 
BRANCH  13  14
ATOM     14  C   UNL     1      32.466   5.464  48.090  1.00  0.00    -0.000 C 
BRANCH  14  15
ATOM     15  C   UNL     1      31.218   6.276  47.698  1.00  0.00    -0.000 C 
BRANCH  15  16
ATOM     16  C   UNL     1      30.301   6.565  48.897  1.00  0.00    -0.000 C 
BRANCH  16  17
ATOM     17  C   UNL     1      30.066   8.068  49.110  1.00  0.00    -0.003 C 
ATOM     18  C   UNL     1      31.309   8.875  48.743  1.00  0.00     0.004 C 
ENDBRANCH  16  17
ENDBRANCH  15  16
ENDBRANCH  14  15
ENDBRANCH  13  14
ENDBRANCH  12  13
ENDBRANCH  11  12
ENDBRANCH   1  11
TORSDOF 14
ENDMDL
MODEL 8
REMARK VINA RESULT:    -3.926      1.502      2.906
REMARK INTER + INTRA:          -8.927
REMARK INTER:                  -7.661
REMARK INTRA:                  -1.266
REMARK UNBOUND:                -1.788
REMARK SMILES CCCCCCCCCCCCCCCC(=O)[O-]
REMARK SMILES IDX 9 1 10 2 11 3 12 4 13 5 14 6 15 7 16 8 17 9 18 10 8 11 7 12
REMARK SMILES IDX 6 13 5 14 4 15 3 16 2 17 1 18
REMARK H PARENT
REMARK Flexibility Score: inf
ROOT
ATOM      1  C   UNL     1      31.266   9.029  48.695  1.00  0.00     0.000 C 
ENDROOT
BRANCH   1   2
ATOM      2  C   UNL     1      30.239   8.075  49.331  1.00  0.00     0.000 C 
BRANCH   2   3
ATOM      3  C   UNL     1      30.105   6.694  48.654  1.00  0.00     0.000 C 
BRANCH   3   4
ATOM      4  C   UNL     1      31.086   6.436  47.495  1.00  0.00     0.000 C 
BRANCH   4   5
ATOM      5  C   UNL     1      32.383   5.711  47.926  1.00  0.00     0.000 C 
BRANCH   5   6
ATOM      6  C   UNL     1      33.664   6.440  47.479  1.00  0.00     0.006 C 
BRANCH   6   7
ATOM      7  C   UNL     1      34.216   5.943  46.134  1.00  0.00     0.053 C 
BRANCH   7   8
ATOM      8  C   UNL     1      35.183   4.812  46.312  1.00  0.00     0.041 C 
ATOM      9  O   UNL     1      35.435   4.038  45.351  1.00  0.00    -0.550 OA
ATOM     10  O   UNL     1      35.824   4.627  47.530  1.00  0.00    -0.550 OA
ENDBRANCH   7   8
ENDBRANCH   6   7
ENDBRANCH   5   6
ENDBRANCH   4   5
ENDBRANCH   3   4
ENDBRANCH   2   3
ENDBRANCH   1   2
BRANCH   1  11
ATOM     11  C   UNL     1      32.275   9.586  49.713  1.00  0.00     0.000 C 
BRANCH  11  12
ATOM     12  C   UNL     1      33.721   9.557  49.187  1.00  0.00    -0.000 C 
BRANCH  12  13
ATOM     13  C   UNL     1      33.979  10.629  48.115  1.00  0.00    -0.000 C 
BRANCH  13  14
ATOM     14  C   UNL     1      34.254  10.022  46.729  1.00  0.00    -0.000 C 
BRANCH  14  15
ATOM     15  C   UNL     1      35.061  10.964  45.817  1.00  0.00    -0.000 C 
BRANCH  15  16
ATOM     16  C   UNL     1      36.204  11.670  46.564  1.00  0.00    -0.000 C 
BRANCH  16  17
ATOM     17  C   UNL     1      35.997  13.189  46.659  1.00  0.00    -0.003 C 
ATOM     18  C   UNL     1      37.140  13.942  45.983  1.00  0.00     0.004 C 
ENDBRANCH  16  17
ENDBRANCH  15  16
ENDBRANCH  14  15
ENDBRANCH  13  14
ENDBRANCH  12  13
ENDBRANCH  11  12
ENDBRANCH   1  11
TORSDOF 14
ENDMDL
MODEL 9
REMARK VINA RESULT:    -2.607      1.195      2.723
REMARK INTER + INTRA:          -6.530
REMARK INTER:                  -4.894
REMARK INTRA:                  -1.636
REMARK UNBOUND:                -1.788
REMARK SMILES CCCCCCCCCCCCCCCC(=O)[O-]
REMARK SMILES IDX 9 1 10 2 11 3 12 4 13 5 14 6 15 7 16 8 17 9 18 10 8 11 7 12
REMARK SMILES IDX 6 13 5 14 4 15 3 16 2 17 1 18
REMARK H PARENT
REMARK Flexibility Score: inf
ROOT
ATOM      1  C   UNL     1      30.141   8.169  49.120  1.00  0.00     0.000 C 
ENDROOT
BRANCH   1   2
ATOM      2  C   UNL     1      29.570   6.770  49.414  1.00  0.00     0.000 C 
BRANCH   2   3
ATOM      3  C   UNL     1      29.845   5.699  48.337  1.00  0.00     0.000 C 
BRANCH   3   4
ATOM      4  C   UNL     1      31.125   5.918  47.508  1.00  0.00     0.000 C 
BRANCH   4   5
ATOM      5  C   UNL     1      32.297   4.995  47.916  1.00  0.00     0.000 C 
BRANCH   5   6
ATOM      6  C   UNL     1      33.571   5.766  48.308  1.00  0.00     0.006 C 
BRANCH   6   7
ATOM      7  C   UNL     1      34.861   5.143  47.751  1.00  0.00     0.053 C 
BRANCH   7   8
ATOM      8  C   UNL     1      34.865   5.116  46.253  1.00  0.00     0.041 C 
ATOM      9  O   UNL     1      34.419   6.097  45.601  1.00  0.00    -0.550 OA
ATOM     10  O   UNL     1      35.382   4.019  45.576  1.00  0.00    -0.550 OA
ENDBRANCH   7   8
ENDBRANCH   6   7
ENDBRANCH   5   6
ENDBRANCH   4   5
ENDBRANCH   3   4
ENDBRANCH   2   3
ENDBRANCH   1   2
BRANCH   1  11
ATOM     11  C   UNL     1      31.225   8.595  50.125  1.00  0.00     0.000 C 
BRANCH  11  12
ATOM     12  C   UNL     1      32.281   9.519  49.495  1.00  0.00    -0.000 C 
BRANCH  12  13
ATOM     13  C   UNL     1      32.316   9.414  47.961  1.00  0.00    -0.000 C 
BRANCH  13  14
ATOM     14  C   UNL     1      33.739   9.204  47.417  1.00  0.00    -0.000 C 
BRANCH  14  15
ATOM     15  C   UNL     1      34.584  10.491  47.450  1.00  0.00    -0.000 C 
BRANCH  15  16
ATOM     16  C   UNL     1      34.970  10.979  46.045  1.00  0.00    -0.000 C 
BRANCH  16  17
ATOM     17  C   UNL     1      34.750   9.906  44.967  1.00  0.00    -0.003 C 
ATOM     18  C   UNL     1      34.256  10.530  43.665  1.00  0.00     0.004 C 
ENDBRANCH  16  17
ENDBRANCH  15  16
ENDBRANCH  14  15
ENDBRANCH  13  14
ENDBRANCH  12  13
ENDBRANCH  11  12
ENDBRANCH   1  11
TORSDOF 14
ENDMDL
