MODEL 1
REMARK VINA RESULT:    89.343      0.000      0.000
REMARK INTER + INTRA:          99.428
REMARK INTER:                  97.177
REMARK INTRA:                   2.251
REMARK UNBOUND:                 2.251
REMARK SMILES C[C@@H]1[C@@H](C)CC[C@]2(C(=O)[O-])CC[C@]3(C)C(=CC[C@@H]4[C@@]5(C)CC[C@@H](O)C(C)(C)[C@@H]5CC[C@@]43C)[C@@H]12
REMARK SMILES IDX 7 1 6 2 11 3 33 4 5 5 12 6 15 7 2 8 3 9 13 10 16 11 1 12
REMARK SMILES IDX 4 13 14 14 31 15 17 16 18 17 30 18 32 19 19 20 29 21 28 22
REMARK SMILES IDX 21 23 20 24 25 25 22 26 23 27 26 28 27 29 8 30 9 31 10 32
REMARK SMILES IDX 24 33
REMARK H PARENT 24 34
REMARK Flexibility Score: inf
ROOT
ATOM      1  C   UNL     1      12.373  -8.844   4.072  1.00  0.00     0.017 C 
ATOM      2  C   UNL     1      13.410  -8.286   5.077  1.00  0.00     0.014 C 
ATOM      3  C   UNL     1      10.961  -8.281   4.449  1.00  0.00     0.014 C 
ATOM      4  C   UNL     1      12.321 -10.405   4.211  1.00  0.00     0.030 C 
ATOM      5  C   UNL     1      14.786  -8.947   4.929  1.00  0.00     0.004 C 
ATOM      6  C   UNL     1       9.778  -8.925   3.665  1.00  0.00     0.013 C 
ATOM      7  C   UNL     1      11.208 -10.917   3.292  1.00  0.00    -0.063 C 
ATOM      8  C   UNL     1      13.708 -11.122   4.119  1.00  0.00    -0.003 C 
ATOM      9  C   UNL     1      14.710 -10.475   5.125  1.00  0.00    -0.011 C 
ATOM     10  C   UNL     1       9.772 -10.495   3.659  1.00  0.00    -0.006 C 
ATOM     11  C   UNL     1      11.514 -11.174   2.006  1.00  0.00    -0.027 C 
ATOM     12  C   UNL     1      13.541 -12.629   4.401  1.00  0.00     0.008 C 
ATOM     13  C   UNL     1      16.123 -11.070   5.001  1.00  0.00     0.008 C 
ATOM     14  C   UNL     1       9.455 -10.957   5.125  1.00  0.00     0.017 C 
ATOM     15  C   UNL     1       8.682 -11.153   2.634  1.00  0.00    -0.020 C 
ATOM     16  C   UNL     1      10.613 -10.704   0.917  1.00  0.00     0.032 C 
ATOM     17  C   UNL     1       9.187 -11.234   1.115  1.00  0.00     0.006 C 
ATOM     18  C   UNL     1       7.331 -10.383   2.722  1.00  0.00     0.008 C 
ATOM     19  C   UNL     1       8.386 -12.628   3.084  1.00  0.00     0.012 C 
ATOM     20  C   UNL     1       8.179 -10.777  -0.036  1.00  0.00    -0.025 C 
ATOM     21  C   UNL     1       6.240 -10.841   1.744  1.00  0.00     0.005 C 
ATOM     22  C   UNL     1       6.737 -11.290   0.337  1.00  0.00     0.003 C 
ATOM     23  C   UNL     1       8.652 -11.436  -1.399  1.00  0.00     0.010 C 
ATOM     24  C   UNL     1       8.190  -9.230  -0.245  1.00  0.00     0.012 C 
ATOM     25  C   UNL     1       5.622 -11.191  -0.802  1.00  0.00    -0.006 C 
ATOM     26  C   UNL     1       7.552 -12.111  -2.228  1.00  0.00     0.033 C 
ATOM     27  C   UNL     1       6.271 -11.271  -2.229  1.00  0.00     0.120 C 
ATOM     28  C   UNL     1       4.627 -12.370  -0.604  1.00  0.00     0.014 C 
ATOM     29  C   UNL     1       4.783  -9.883  -0.738  1.00  0.00     0.014 C 
ENDROOT
BRANCH   1  30
ATOM     30  C   UNL     1      12.747  -8.357   2.667  1.00  0.00     0.048 C 
ATOM     31  O   UNL     1      11.983  -8.580   1.690  1.00  0.00    -0.550 OA
ATOM     32  O   UNL     1      13.875  -7.577   2.446  1.00  0.00    -0.550 OA
ENDBRANCH   1  30
BRANCH  27  33
ATOM     33  O   UNL     1       5.362 -11.725  -3.207  1.00  0.00    -0.393 OA
ATOM     34  H   UNL     1       4.749 -10.979  -3.436  1.00  0.00     0.210 HD
ENDBRANCH  27  33
TORSDOF 2
ENDMDL
MODEL 2
REMARK VINA RESULT:    90.071      2.597      4.883
REMARK INTER + INTRA:         100.220
REMARK INTER:                  99.722
REMARK INTRA:                   0.498
REMARK UNBOUND:                 2.251
REMARK SMILES C[C@@H]1[C@@H](C)CC[C@]2(C(=O)[O-])CC[C@]3(C)C(=CC[C@@H]4[C@@]5(C)CC[C@@H](O)C(C)(C)[C@@H]5CC[C@@]43C)[C@@H]12
REMARK SMILES IDX 7 1 6 2 11 3 33 4 5 5 12 6 15 7 2 8 3 9 13 10 16 11 1 12
REMARK SMILES IDX 4 13 14 14 31 15 17 16 18 17 30 18 32 19 19 20 29 21 28 22
REMARK SMILES IDX 21 23 20 24 25 25 22 26 23 27 26 28 27 29 8 30 9 31 10 32
REMARK SMILES IDX 24 33
REMARK H PARENT 24 34
REMARK Flexibility Score: inf
ROOT
ATOM      1  C   UNL     1       9.842  -9.874   0.759  1.00  0.00     0.017 C 
ATOM      2  C   UNL     1      11.101  -9.258   1.417  1.00  0.00     0.014 C 
ATOM      3  C   UNL     1       9.465  -9.014  -0.495  1.00  0.00     0.014 C 
ATOM      4  C   UNL     1       8.648  -9.793   1.773  1.00  0.00     0.030 C 
ATOM      5  C   UNL     1      11.423  -9.894   2.775  1.00  0.00     0.004 C 
ATOM      6  C   UNL     1       8.092  -9.377  -1.138  1.00  0.00     0.013 C 
ATOM      7  C   UNL     1       7.393 -10.301   1.055  1.00  0.00    -0.063 C 
ATOM      8  C   UNL     1       8.947 -10.383   3.191  1.00  0.00    -0.003 C 
ATOM      9  C   UNL     1      10.251  -9.751   3.767  1.00  0.00    -0.011 C 
ATOM     10  C   UNL     1       6.893  -9.449  -0.127  1.00  0.00    -0.006 C 
ATOM     11  C   UNL     1       7.144 -11.624   1.070  1.00  0.00    -0.027 C 
ATOM     12  C   UNL     1       7.750 -10.128   4.129  1.00  0.00     0.008 C 
ATOM     13  C   UNL     1      10.652 -10.375   5.115  1.00  0.00     0.008 C 
ATOM     14  C   UNL     1       6.622  -7.985   0.368  1.00  0.00     0.017 C 
ATOM     15  C   UNL     1       5.521 -10.069  -0.764  1.00  0.00    -0.020 C 
ATOM     16  C   UNL     1       6.736 -12.320  -0.182  1.00  0.00     0.032 C 
ATOM     17  C   UNL     1       5.485 -11.671  -0.789  1.00  0.00     0.006 C 
ATOM     18  C   UNL     1       5.285  -9.493  -2.191  1.00  0.00     0.008 C 
ATOM     19  C   UNL     1       4.301  -9.610   0.111  1.00  0.00     0.012 C 
ATOM     20  C   UNL     1       4.989 -12.389  -2.126  1.00  0.00    -0.025 C 
ATOM     21  C   UNL     1       4.074 -10.061  -2.945  1.00  0.00     0.005 C 
ATOM     22  C   UNL     1       3.774 -11.571  -2.706  1.00  0.00     0.003 C 
ATOM     23  C   UNL     1       4.523 -13.860  -1.755  1.00  0.00     0.010 C 
ATOM     24  C   UNL     1       6.133 -12.522  -3.180  1.00  0.00     0.012 C 
ATOM     25  C   UNL     1       2.942 -12.257  -3.883  1.00  0.00    -0.006 C 
ATOM     26  C   UNL     1       3.170 -14.293  -2.332  1.00  0.00     0.033 C 
ATOM     27  C   UNL     1       3.014 -13.822  -3.781  1.00  0.00     0.120 C 
ATOM     28  C   UNL     1       1.465 -11.785  -3.766  1.00  0.00     0.014 C 
ATOM     29  C   UNL     1       3.428 -11.855  -5.305  1.00  0.00     0.014 C 
ENDROOT
BRANCH   1  30
ATOM     30  C   UNL     1      10.179 -11.299   0.306  1.00  0.00     0.048 C 
ATOM     31  O   UNL     1      10.084 -12.264   1.112  1.00  0.00    -0.550 OA
ATOM     32  O   UNL     1      10.498 -11.585  -1.014  1.00  0.00    -0.550 OA
ENDBRANCH   1  30
BRANCH  27  33
ATOM     33  O   UNL     1       1.918 -14.452  -4.409  1.00  0.00    -0.393 OA
ATOM     34  H   UNL     1       1.106 -14.287  -3.861  1.00  0.00     0.210 HD
ENDBRANCH  27  33
TORSDOF 2
ENDMDL
