MODEL 1
REMARK VINA RESULT:    -3.945      0.000      0.000
REMARK INTER + INTRA:         -16.706
REMARK INTER:                 -10.403
REMARK INTRA:                  -6.303
REMARK UNBOUND:                -6.303
REMARK SMILES CCCCCCCCCCCCCCCCCCCCCCCCCCCCCC(=O)[O-]
REMARK SMILES IDX 16 1 17 2 18 3 19 4 20 5 21 6 22 7 23 8 24 9 25 10 26 11
REMARK SMILES IDX 27 12 28 13 29 14 30 15 31 16 32 17 15 18 14 19 13 20 12 21
REMARK SMILES IDX 11 22 10 23 9 24 8 25 7 26 6 27 5 28 4 29 3 30 2 31 1 32
REMARK H PARENT
REMARK Flexibility Score: inf
ROOT
ATOM      1  C   UNL     1      18.118  47.092  36.594  1.00  0.00     0.000 C 
ENDROOT
BRANCH   1   2
ATOM      2  C   UNL     1      17.439  48.195  37.434  1.00  0.00     0.000 C 
BRANCH   2   3
ATOM      3  C   UNL     1      16.317  48.921  36.667  1.00  0.00     0.000 C 
BRANCH   3   4
ATOM      4  C   UNL     1      16.211  50.408  37.042  1.00  0.00     0.000 C 
BRANCH   4   5
ATOM      5  C   UNL     1      16.833  50.721  38.414  1.00  0.00     0.000 C 
BRANCH   5   6
ATOM      6  C   UNL     1      17.984  51.736  38.326  1.00  0.00     0.000 C 
BRANCH   6   7
ATOM      7  C   UNL     1      18.473  51.951  36.882  1.00  0.00     0.000 C 
BRANCH   7   8
ATOM      8  C   UNL     1      19.719  52.850  36.813  1.00  0.00     0.000 C 
BRANCH   8   9
ATOM      9  C   UNL     1      19.988  53.584  38.138  1.00  0.00     0.000 C 
BRANCH   9  10
ATOM     10  C   UNL     1      21.402  53.324  38.682  1.00  0.00     0.000 C 
BRANCH  10  11
ATOM     11  C   UNL     1      22.080  52.111  38.025  1.00  0.00     0.000 C 
BRANCH  11  12
ATOM     12  C   UNL     1      22.894  51.313  39.056  1.00  0.00     0.000 C 
BRANCH  12  13
ATOM     13  C   UNL     1      22.035  50.799  40.226  1.00  0.00     0.006 C 
BRANCH  13  14
ATOM     14  C   UNL     1      20.825  49.953  39.801  1.00  0.00     0.053 C 
BRANCH  14  15
ATOM     15  C   UNL     1      19.875  49.721  40.935  1.00  0.00     0.041 C 
ATOM     16  O   UNL     1      18.801  49.093  40.744  1.00  0.00    -0.550 OA
ATOM     17  O   UNL     1      20.158  50.235  42.194  1.00  0.00    -0.550 OA
ENDBRANCH  14  15
ENDBRANCH  13  14
ENDBRANCH  12  13
ENDBRANCH  11  12
ENDBRANCH  10  11
ENDBRANCH   9  10
ENDBRANCH   8   9
ENDBRANCH   7   8
ENDBRANCH   6   7
ENDBRANCH   5   6
ENDBRANCH   4   5
ENDBRANCH   3   4
ENDBRANCH   2   3
ENDBRANCH   1   2
BRANCH   1  18
ATOM     18  C   UNL     1      19.596  47.374  36.257  1.00  0.00     0.000 C 
BRANCH  18  19
ATOM     19  C   UNL     1      20.049  48.832  36.446  1.00  0.00     0.000 C 
BRANCH  19  20
ATOM     20  C   UNL     1      21.337  49.224  35.697  1.00  0.00     0.000 C 
BRANCH  20  21
ATOM     21  C   UNL     1      21.614  48.381  34.434  1.00  0.00     0.000 C 
BRANCH  21  22
ATOM     22  C   UNL     1      22.975  47.667  34.493  1.00  0.00     0.000 C 
BRANCH  22  23
ATOM     23  C   UNL     1      23.013  46.394  33.634  1.00  0.00     0.000 C 
BRANCH  23  24
ATOM     24  C   UNL     1      21.884  45.408  33.986  1.00  0.00    -0.000 C 
BRANCH  24  25
ATOM     25  C   UNL     1      21.036  45.022  32.763  1.00  0.00    -0.000 C 
BRANCH  25  26
ATOM     26  C   UNL     1      19.544  44.883  33.100  1.00  0.00    -0.000 C 
BRANCH  26  27
ATOM     27  C   UNL     1      18.775  46.210  32.965  1.00  0.00    -0.000 C 
BRANCH  27  28
ATOM     28  C   UNL     1      19.243  47.081  31.780  1.00  0.00    -0.000 C 
BRANCH  28  29
ATOM     29  C   UNL     1      18.977  48.579  32.025  1.00  0.00    -0.000 C 
BRANCH  29  30
ATOM     30  C   UNL     1      18.045  48.834  33.223  1.00  0.00    -0.000 C 
BRANCH  30  31
ATOM     31  C   UNL     1      17.894  50.316  33.611  1.00  0.00    -0.003 C 
ATOM     32  C   UNL     1      19.130  51.152  33.275  1.00  0.00     0.004 C 
ENDBRANCH  30  31
ENDBRANCH  29  30
ENDBRANCH  28  29
ENDBRANCH  27  28
ENDBRANCH  26  27
ENDBRANCH  25  26
ENDBRANCH  24  25
ENDBRANCH  23  24
ENDBRANCH  22  23
ENDBRANCH  21  22
ENDBRANCH  20  21
ENDBRANCH  19  20
ENDBRANCH  18  19
ENDBRANCH   1  18
TORSDOF 28
ENDMDL
MODEL 2
REMARK VINA RESULT:    -3.911     10.494     13.403
REMARK INTER + INTRA:         -16.615
REMARK INTER:                 -13.228
REMARK INTRA:                  -3.388
REMARK UNBOUND:                -6.303
REMARK SMILES CCCCCCCCCCCCCCCCCCCCCCCCCCCCCC(=O)[O-]
REMARK SMILES IDX 16 1 17 2 18 3 19 4 20 5 21 6 22 7 23 8 24 9 25 10 26 11
REMARK SMILES IDX 27 12 28 13 29 14 30 15 31 16 32 17 15 18 14 19 13 20 12 21
REMARK SMILES IDX 11 22 10 23 9 24 8 25 7 26 6 27 5 28 4 29 3 30 2 31 1 32
REMARK H PARENT
REMARK Flexibility Score: inf
ROOT
ATOM      1  C   UNL     1      20.125  53.238  24.745  1.00  0.00     0.000 C 
ENDROOT
BRANCH   1   2
ATOM      2  C   UNL     1      20.951  54.003  25.800  1.00  0.00     0.000 C 
BRANCH   2   3
ATOM      3  C   UNL     1      21.699  55.212  25.206  1.00  0.00     0.000 C 
BRANCH   3   4
ATOM      4  C   UNL     1      22.611  55.905  26.232  1.00  0.00     0.000 C 
BRANCH   4   5
ATOM      5  C   UNL     1      24.088  55.925  25.798  1.00  0.00     0.000 C 
BRANCH   5   6
ATOM      6  C   UNL     1      24.279  56.455  24.368  1.00  0.00     0.000 C 
BRANCH   6   7
ATOM      7  C   UNL     1      25.729  56.885  24.086  1.00  0.00     0.000 C 
BRANCH   7   8
ATOM      8  C   UNL     1      26.664  56.612  25.276  1.00  0.00     0.000 C 
BRANCH   8   9
ATOM      9  C   UNL     1      27.359  57.888  25.782  1.00  0.00     0.000 C 
BRANCH   9  10
ATOM     10  C   UNL     1      26.433  59.115  25.760  1.00  0.00     0.000 C 
BRANCH  10  11
ATOM     11  C   UNL     1      27.067  60.354  26.409  1.00  0.00     0.000 C 
BRANCH  11  12
ATOM     12  C   UNL     1      25.991  61.380  26.800  1.00  0.00     0.000 C 
BRANCH  12  13
ATOM     13  C   UNL     1      25.095  60.895  27.954  1.00  0.00     0.006 C 
BRANCH  13  14
ATOM     14  C   UNL     1      23.589  61.064  27.700  1.00  0.00     0.053 C 
BRANCH  14  15
ATOM     15  C   UNL     1      22.948  59.786  27.254  1.00  0.00     0.041 C 
ATOM     16  O   UNL     1      22.405  59.021  28.094  1.00  0.00    -0.550 OA
ATOM     17  O   UNL     1      22.985  59.422  25.914  1.00  0.00    -0.550 OA
ENDBRANCH  14  15
ENDBRANCH  13  14
ENDBRANCH  12  13
ENDBRANCH  11  12
ENDBRANCH  10  11
ENDBRANCH   9  10
ENDBRANCH   8   9
ENDBRANCH   7   8
ENDBRANCH   6   7
ENDBRANCH   5   6
ENDBRANCH   4   5
ENDBRANCH   3   4
ENDBRANCH   2   3
ENDBRANCH   1   2
BRANCH   1  18
ATOM     18  C   UNL     1      19.067  54.097  24.024  1.00  0.00     0.000 C 
BRANCH  18  19
ATOM     19  C   UNL     1      18.000  53.311  23.243  1.00  0.00     0.000 C 
BRANCH  19  20
ATOM     20  C   UNL     1      16.543  53.735  23.508  1.00  0.00     0.000 C 
BRANCH  20  21
ATOM     21  C   UNL     1      15.710  52.686  24.276  1.00  0.00     0.000 C 
BRANCH  21  22
ATOM     22  C   UNL     1      16.510  51.408  24.577  1.00  0.00     0.000 C 
BRANCH  22  23
ATOM     23  C   UNL     1      15.839  50.524  25.639  1.00  0.00     0.000 C 
BRANCH  23  24
ATOM     24  C   UNL     1      16.370  50.797  27.058  1.00  0.00    -0.000 C 
BRANCH  24  25
ATOM     25  C   UNL     1      17.603  51.715  27.059  1.00  0.00    -0.000 C 
BRANCH  25  26
ATOM     26  C   UNL     1      17.964  52.217  28.465  1.00  0.00    -0.000 C 
BRANCH  26  27
ATOM     27  C   UNL     1      16.831  52.002  29.485  1.00  0.00    -0.000 C 
BRANCH  27  28
ATOM     28  C   UNL     1      16.409  53.289  30.226  1.00  0.00    -0.000 C 
BRANCH  28  29
ATOM     29  C   UNL     1      15.600  54.238  29.321  1.00  0.00    -0.000 C 
BRANCH  29  30
ATOM     30  C   UNL     1      14.273  53.623  28.843  1.00  0.00    -0.000 C 
BRANCH  30  31
ATOM     31  C   UNL     1      14.059  53.670  27.319  1.00  0.00    -0.003 C 
ATOM     32  C   UNL     1      12.795  52.935  26.869  1.00  0.00     0.004 C 
ENDBRANCH  30  31
ENDBRANCH  29  30
ENDBRANCH  28  29
ENDBRANCH  27  28
ENDBRANCH  26  27
ENDBRANCH  25  26
ENDBRANCH  24  25
ENDBRANCH  23  24
ENDBRANCH  22  23
ENDBRANCH  21  22
ENDBRANCH  20  21
ENDBRANCH  19  20
ENDBRANCH  18  19
ENDBRANCH   1  18
TORSDOF 28
ENDMDL
MODEL 3
REMARK VINA RESULT:    -3.863      4.081      8.364
REMARK INTER + INTRA:         -16.489
REMARK INTER:                 -11.143
REMARK INTRA:                  -5.347
REMARK UNBOUND:                -6.303
REMARK SMILES CCCCCCCCCCCCCCCCCCCCCCCCCCCCCC(=O)[O-]
REMARK SMILES IDX 16 1 17 2 18 3 19 4 20 5 21 6 22 7 23 8 24 9 25 10 26 11
REMARK SMILES IDX 27 12 28 13 29 14 30 15 31 16 32 17 15 18 14 19 13 20 12 21
REMARK SMILES IDX 11 22 10 23 9 24 8 25 7 26 6 27 5 28 4 29 3 30 2 31 1 32
REMARK H PARENT
REMARK Flexibility Score: inf
ROOT
ATOM      1  C   UNL     1      19.748  50.015  31.334  1.00  0.00     0.000 C 
ENDROOT
BRANCH   1   2
ATOM      2  C   UNL     1      18.975  49.104  30.357  1.00  0.00     0.000 C 
BRANCH   2   3
ATOM      3  C   UNL     1      19.126  49.545  28.888  1.00  0.00     0.000 C 
BRANCH   3   4
ATOM      4  C   UNL     1      18.912  51.055  28.700  1.00  0.00     0.000 C 
BRANCH   4   5
ATOM      5  C   UNL     1      18.074  51.387  27.452  1.00  0.00     0.000 C 
BRANCH   5   6
ATOM      6  C   UNL     1      16.561  51.312  27.717  1.00  0.00     0.000 C 
BRANCH   6   7
ATOM      7  C   UNL     1      15.860  52.668  27.527  1.00  0.00     0.000 C 
BRANCH   7   8
ATOM      8  C   UNL     1      14.548  52.767  28.323  1.00  0.00     0.000 C 
BRANCH   8   9
ATOM      9  C   UNL     1      14.493  54.023  29.210  1.00  0.00     0.000 C 
BRANCH   9  10
ATOM     10  C   UNL     1      15.799  54.257  29.987  1.00  0.00     0.000 C 
BRANCH  10  11
ATOM     11  C   UNL     1      15.816  53.551  31.352  1.00  0.00     0.000 C 
BRANCH  11  12
ATOM     12  C   UNL     1      16.841  52.405  31.363  1.00  0.00     0.000 C 
BRANCH  12  13
ATOM     13  C   UNL     1      16.321  51.147  32.082  1.00  0.00     0.006 C 
BRANCH  13  14
ATOM     14  C   UNL     1      15.244  50.372  31.306  1.00  0.00     0.053 C 
BRANCH  14  15
ATOM     15  C   UNL     1      14.598  49.314  32.146  1.00  0.00     0.041 C 
ATOM     16  O   UNL     1      13.596  48.685  31.714  1.00  0.00    -0.550 OA
ATOM     17  O   UNL     1      15.078  49.050  33.422  1.00  0.00    -0.550 OA
ENDBRANCH  14  15
ENDBRANCH  13  14
ENDBRANCH  12  13
ENDBRANCH  11  12
ENDBRANCH  10  11
ENDBRANCH   9  10
ENDBRANCH   8   9
ENDBRANCH   7   8
ENDBRANCH   6   7
ENDBRANCH   5   6
ENDBRANCH   4   5
ENDBRANCH   3   4
ENDBRANCH   2   3
ENDBRANCH   1   2
BRANCH   1  18
ATOM     18  C   UNL     1      20.145  49.331  32.658  1.00  0.00     0.000 C 
BRANCH  18  19
ATOM     19  C   UNL     1      18.995  48.647  33.417  1.00  0.00     0.000 C 
BRANCH  19  20
ATOM     20  C   UNL     1      18.740  49.174  34.842  1.00  0.00     0.000 C 
BRANCH  20  21
ATOM     21  C   UNL     1      19.259  50.607  35.087  1.00  0.00     0.000 C 
BRANCH  21  22
ATOM     22  C   UNL     1      18.118  51.619  35.281  1.00  0.00     0.000 C 
BRANCH  22  23
ATOM     23  C   UNL     1      16.847  50.977  35.856  1.00  0.00     0.000 C 
BRANCH  23  24
ATOM     24  C   UNL     1      16.362  51.671  37.142  1.00  0.00    -0.000 C 
BRANCH  24  25
ATOM     25  C   UNL     1      16.336  50.722  38.350  1.00  0.00    -0.000 C 
BRANCH  25  26
ATOM     26  C   UNL     1      16.966  49.355  38.042  1.00  0.00    -0.000 C 
BRANCH  26  27
ATOM     27  C   UNL     1      18.086  48.978  39.028  1.00  0.00    -0.000 C 
BRANCH  27  28
ATOM     28  C   UNL     1      19.412  49.728  38.779  1.00  0.00    -0.000 C 
BRANCH  28  29
ATOM     29  C   UNL     1      19.793  50.635  39.965  1.00  0.00    -0.000 C 
BRANCH  29  30
ATOM     30  C   UNL     1      20.429  51.965  39.521  1.00  0.00    -0.000 C 
BRANCH  30  31
ATOM     31  C   UNL     1      19.587  52.772  38.516  1.00  0.00    -0.003 C 
ATOM     32  C   UNL     1      20.438  53.523  37.491  1.00  0.00     0.004 C 
ENDBRANCH  30  31
ENDBRANCH  29  30
ENDBRANCH  28  29
ENDBRANCH  27  28
ENDBRANCH  26  27
ENDBRANCH  25  26
ENDBRANCH  24  25
ENDBRANCH  23  24
ENDBRANCH  22  23
ENDBRANCH  21  22
ENDBRANCH  20  21
ENDBRANCH  19  20
ENDBRANCH  18  19
ENDBRANCH   1  18
TORSDOF 28
ENDMDL
MODEL 4
REMARK VINA RESULT:    -3.847      3.734      8.099
REMARK INTER + INTRA:         -16.447
REMARK INTER:                 -10.672
REMARK INTRA:                  -5.775
REMARK UNBOUND:                -6.303
REMARK SMILES CCCCCCCCCCCCCCCCCCCCCCCCCCCCCC(=O)[O-]
REMARK SMILES IDX 16 1 17 2 18 3 19 4 20 5 21 6 22 7 23 8 24 9 25 10 26 11
REMARK SMILES IDX 27 12 28 13 29 14 30 15 31 16 32 17 15 18 14 19 13 20 12 21
REMARK SMILES IDX 11 22 10 23 9 24 8 25 7 26 6 27 5 28 4 29 3 30 2 31 1 32
REMARK H PARENT
REMARK Flexibility Score: inf
ROOT
ATOM      1  C   UNL     1      17.516  51.313  35.590  1.00  0.00     0.000 C 
ENDROOT
BRANCH   1   2
ATOM      2  C   UNL     1      16.912  50.734  34.293  1.00  0.00     0.000 C 
BRANCH   2   3
ATOM      3  C   UNL     1      16.174  49.402  34.523  1.00  0.00     0.000 C 
BRANCH   3   4
ATOM      4  C   UNL     1      17.019  48.181  34.123  1.00  0.00     0.000 C 
BRANCH   4   5
ATOM      5  C   UNL     1      17.717  47.521  35.326  1.00  0.00     0.000 C 
BRANCH   5   6
ATOM      6  C   UNL     1      19.152  48.031  35.531  1.00  0.00     0.000 C 
BRANCH   6   7
ATOM      7  C   UNL     1      19.954  48.089  34.219  1.00  0.00     0.000 C 
BRANCH   7   8
ATOM      8  C   UNL     1      20.529  49.488  33.944  1.00  0.00     0.000 C 
BRANCH   8   9
ATOM      9  C   UNL     1      20.128  50.026  32.559  1.00  0.00     0.000 C 
BRANCH   9  10
ATOM     10  C   UNL     1      19.562  48.931  31.640  1.00  0.00     0.000 C 
BRANCH  10  11
ATOM     11  C   UNL     1      18.480  49.455  30.683  1.00  0.00     0.000 C 
BRANCH  11  12
ATOM     12  C   UNL     1      18.150  50.927  30.982  1.00  0.00     0.000 C 
BRANCH  12  13
ATOM     13  C   UNL     1      16.740  51.330  30.513  1.00  0.00     0.006 C 
BRANCH  13  14
ATOM     14  C   UNL     1      16.343  52.772  30.865  1.00  0.00     0.053 C 
BRANCH  14  15
ATOM     15  C   UNL     1      15.072  53.185  30.192  1.00  0.00     0.041 C 
ATOM     16  O   UNL     1      14.991  54.304  29.620  1.00  0.00    -0.550 OA
ATOM     17  O   UNL     1      13.962  52.350  30.230  1.00  0.00    -0.550 OA
ENDBRANCH  14  15
ENDBRANCH  13  14
ENDBRANCH  12  13
ENDBRANCH  11  12
ENDBRANCH  10  11
ENDBRANCH   9  10
ENDBRANCH   8   9
ENDBRANCH   7   8
ENDBRANCH   6   7
ENDBRANCH   5   6
ENDBRANCH   4   5
ENDBRANCH   3   4
ENDBRANCH   2   3
ENDBRANCH   1   2
BRANCH   1  18
ATOM     18  C   UNL     1      16.477  51.627  36.686  1.00  0.00     0.000 C 
BRANCH  18  19
ATOM     19  C   UNL     1      16.826  51.110  38.093  1.00  0.00     0.000 C 
BRANCH  19  20
ATOM     20  C   UNL     1      16.817  49.578  38.253  1.00  0.00     0.000 C 
BRANCH  20  21
ATOM     21  C   UNL     1      18.026  49.019  39.033  1.00  0.00     0.000 C 
BRANCH  21  22
ATOM     22  C   UNL     1      18.501  49.972  40.143  1.00  0.00     0.000 C 
BRANCH  22  23
ATOM     23  C   UNL     1      19.372  49.270  41.195  1.00  0.00     0.000 C 
BRANCH  23  24
ATOM     24  C   UNL     1      20.221  50.258  42.015  1.00  0.00    -0.000 C 
BRANCH  24  25
ATOM     25  C   UNL     1      21.180  51.080  41.140  1.00  0.00    -0.000 C 
BRANCH  25  26
ATOM     26  C   UNL     1      21.385  52.508  41.667  1.00  0.00    -0.000 C 
BRANCH  26  27
ATOM     27  C   UNL     1      20.969  53.586  40.650  1.00  0.00    -0.000 C 
BRANCH  27  28
ATOM     28  C   UNL     1      20.215  53.026  39.425  1.00  0.00    -0.000 C 
BRANCH  28  29
ATOM     29  C   UNL     1      20.886  53.432  38.099  1.00  0.00    -0.000 C 
BRANCH  29  30
ATOM     30  C   UNL     1      21.575  52.251  37.391  1.00  0.00    -0.000 C 
BRANCH  30  31
ATOM     31  C   UNL     1      20.738  50.960  37.341  1.00  0.00    -0.003 C 
ATOM     32  C   UNL     1      21.498  49.735  37.851  1.00  0.00     0.004 C 
ENDBRANCH  30  31
ENDBRANCH  29  30
ENDBRANCH  28  29
ENDBRANCH  27  28
ENDBRANCH  26  27
ENDBRANCH  25  26
ENDBRANCH  24  25
ENDBRANCH  23  24
ENDBRANCH  22  23
ENDBRANCH  21  22
ENDBRANCH  20  21
ENDBRANCH  19  20
ENDBRANCH  18  19
ENDBRANCH   1  18
TORSDOF 28
ENDMDL
MODEL 5
REMARK VINA RESULT:    -3.840      4.508      8.620
REMARK INTER + INTRA:         -16.430
REMARK INTER:                 -11.378
REMARK INTRA:                  -5.052
REMARK UNBOUND:                -6.303
REMARK SMILES CCCCCCCCCCCCCCCCCCCCCCCCCCCCCC(=O)[O-]
REMARK SMILES IDX 16 1 17 2 18 3 19 4 20 5 21 6 22 7 23 8 24 9 25 10 26 11
REMARK SMILES IDX 27 12 28 13 29 14 30 15 31 16 32 17 15 18 14 19 13 20 12 21
REMARK SMILES IDX 11 22 10 23 9 24 8 25 7 26 6 27 5 28 4 29 3 30 2 31 1 32
REMARK H PARENT
REMARK Flexibility Score: inf
ROOT
ATOM      1  C   UNL     1      17.279  49.007  36.046  1.00  0.00     0.000 C 
ENDROOT
BRANCH   1   2
ATOM      2  C   UNL     1      18.207  48.237  37.009  1.00  0.00     0.000 C 
BRANCH   2   3
ATOM      3  C   UNL     1      19.140  47.253  36.276  1.00  0.00     0.000 C 
BRANCH   3   4
ATOM      4  C   UNL     1      20.408  47.933  35.735  1.00  0.00     0.000 C 
BRANCH   4   5
ATOM      5  C   UNL     1      20.423  48.027  34.199  1.00  0.00     0.000 C 
BRANCH   5   6
ATOM      6  C   UNL     1      20.593  49.470  33.695  1.00  0.00     0.000 C 
BRANCH   6   7
ATOM      7  C   UNL     1      19.312  50.023  33.044  1.00  0.00     0.000 C 
BRANCH   7   8
ATOM      8  C   UNL     1      18.815  51.307  33.728  1.00  0.00     0.000 C 
BRANCH   8   9
ATOM      9  C   UNL     1      17.490  51.814  33.133  1.00  0.00     0.000 C 
BRANCH   9  10
ATOM     10  C   UNL     1      17.130  51.117  31.811  1.00  0.00     0.000 C 
BRANCH  10  11
ATOM     11  C   UNL     1      15.800  51.608  31.219  1.00  0.00     0.000 C 
BRANCH  11  12
ATOM     12  C   UNL     1      15.737  53.144  31.212  1.00  0.00     0.000 C 
BRANCH  12  13
ATOM     13  C   UNL     1      16.136  53.751  29.854  1.00  0.00     0.006 C 
BRANCH  13  14
ATOM     14  C   UNL     1      14.979  54.416  29.093  1.00  0.00     0.053 C 
BRANCH  14  15
ATOM     15  C   UNL     1      14.855  53.896  27.694  1.00  0.00     0.041 C 
ATOM     16  O   UNL     1      14.282  54.586  26.809  1.00  0.00    -0.550 OA
ATOM     17  O   UNL     1      15.337  52.632  27.377  1.00  0.00    -0.550 OA
ENDBRANCH  14  15
ENDBRANCH  13  14
ENDBRANCH  12  13
ENDBRANCH  11  12
ENDBRANCH  10  11
ENDBRANCH   9  10
ENDBRANCH   8   9
ENDBRANCH   7   8
ENDBRANCH   6   7
ENDBRANCH   5   6
ENDBRANCH   4   5
ENDBRANCH   3   4
ENDBRANCH   2   3
ENDBRANCH   1   2
BRANCH   1  18
ATOM     18  C   UNL     1      16.404  50.076  36.730  1.00  0.00     0.000 C 
BRANCH  18  19
ATOM     19  C   UNL     1      16.465  50.093  38.267  1.00  0.00     0.000 C 
BRANCH  19  20
ATOM     20  C   UNL     1      17.057  51.372  38.889  1.00  0.00     0.000 C 
BRANCH  20  21
ATOM     21  C   UNL     1      17.866  51.129  40.182  1.00  0.00     0.000 C 
BRANCH  21  22
ATOM     22  C   UNL     1      18.654  49.809  40.141  1.00  0.00     0.000 C 
BRANCH  22  23
ATOM     23  C   UNL     1      19.475  49.570  41.417  1.00  0.00     0.000 C 
BRANCH  23  24
ATOM     24  C   UNL     1      19.854  50.880  42.131  1.00  0.00    -0.000 C 
BRANCH  24  25
ATOM     25  C   UNL     1      21.314  51.288  41.879  1.00  0.00    -0.000 C 
BRANCH  25  26
ATOM     26  C   UNL     1      21.457  52.287  40.722  1.00  0.00    -0.000 C 
BRANCH  26  27
ATOM     27  C   UNL     1      22.610  51.933  39.765  1.00  0.00    -0.000 C 
BRANCH  27  28
ATOM     28  C   UNL     1      22.710  50.426  39.444  1.00  0.00    -0.000 C 
BRANCH  28  29
ATOM     29  C   UNL     1      21.723  50.005  38.338  1.00  0.00    -0.000 C 
BRANCH  29  30
ATOM     30  C   UNL     1      21.516  51.096  37.273  1.00  0.00    -0.000 C 
BRANCH  30  31
ATOM     31  C   UNL     1      20.047  51.499  37.048  1.00  0.00    -0.003 C 
ATOM     32  C   UNL     1      19.849  53.012  36.953  1.00  0.00     0.004 C 
ENDBRANCH  30  31
ENDBRANCH  29  30
ENDBRANCH  28  29
ENDBRANCH  27  28
ENDBRANCH  26  27
ENDBRANCH  25  26
ENDBRANCH  24  25
ENDBRANCH  23  24
ENDBRANCH  22  23
ENDBRANCH  21  22
ENDBRANCH  20  21
ENDBRANCH  19  20
ENDBRANCH  18  19
ENDBRANCH   1  18
TORSDOF 28
ENDMDL
MODEL 6
REMARK VINA RESULT:    -3.831      2.508      7.682
REMARK INTER + INTRA:         -16.405
REMARK INTER:                 -10.703
REMARK INTRA:                  -5.702
REMARK UNBOUND:                -6.303
REMARK SMILES CCCCCCCCCCCCCCCCCCCCCCCCCCCCCC(=O)[O-]
REMARK SMILES IDX 16 1 17 2 18 3 19 4 20 5 21 6 22 7 23 8 24 9 25 10 26 11
REMARK SMILES IDX 27 12 28 13 29 14 30 15 31 16 32 17 15 18 14 19 13 20 12 21
REMARK SMILES IDX 11 22 10 23 9 24 8 25 7 26 6 27 5 28 4 29 3 30 2 31 1 32
REMARK H PARENT
REMARK Flexibility Score: inf
ROOT
ATOM      1  C   UNL     1      18.244  48.627  35.750  1.00  0.00     0.000 C 
ENDROOT
BRANCH   1   2
ATOM      2  C   UNL     1      18.755  47.171  35.731  1.00  0.00     0.000 C 
BRANCH   2   3
ATOM      3  C   UNL     1      20.278  47.072  35.939  1.00  0.00     0.000 C 
BRANCH   3   4
ATOM      4  C   UNL     1      21.014  48.362  35.545  1.00  0.00     0.000 C 
BRANCH   4   5
ATOM      5  C   UNL     1      22.276  48.096  34.705  1.00  0.00     0.000 C 
BRANCH   5   6
ATOM      6  C   UNL     1      22.491  46.601  34.416  1.00  0.00     0.000 C 
BRANCH   6   7
ATOM      7  C   UNL     1      22.766  46.320  32.929  1.00  0.00     0.000 C 
BRANCH   7   8
ATOM      8  C   UNL     1      21.809  45.267  32.345  1.00  0.00     0.000 C 
BRANCH   8   9
ATOM      9  C   UNL     1      20.332  45.676  32.481  1.00  0.00     0.000 C 
BRANCH   9  10
ATOM     10  C   UNL     1      19.943  46.814  31.524  1.00  0.00     0.000 C 
BRANCH  10  11
ATOM     11  C   UNL     1      19.225  47.973  32.234  1.00  0.00     0.000 C 
BRANCH  11  12
ATOM     12  C   UNL     1      19.880  49.319  31.885  1.00  0.00     0.000 C 
BRANCH  12  13
ATOM     13  C   UNL     1      19.639  50.396  32.958  1.00  0.00     0.006 C 
BRANCH  13  14
ATOM     14  C   UNL     1      18.933  51.659  32.441  1.00  0.00     0.053 C 
BRANCH  14  15
ATOM     15  C   UNL     1      17.509  51.734  32.899  1.00  0.00     0.041 C 
ATOM     16  O   UNL     1      16.877  50.683  33.183  1.00  0.00    -0.550 OA
ATOM     17  O   UNL     1      16.868  52.965  32.974  1.00  0.00    -0.550 OA
ENDBRANCH  14  15
ENDBRANCH  13  14
ENDBRANCH  12  13
ENDBRANCH  11  12
ENDBRANCH  10  11
ENDBRANCH   9  10
ENDBRANCH   8   9
ENDBRANCH   7   8
ENDBRANCH   6   7
ENDBRANCH   5   6
ENDBRANCH   4   5
ENDBRANCH   3   4
ENDBRANCH   2   3
ENDBRANCH   1   2
BRANCH   1  18
ATOM     18  C   UNL     1      16.779  48.778  36.206  1.00  0.00     0.000 C 
BRANCH  18  19
ATOM     19  C   UNL     1      16.583  49.428  37.587  1.00  0.00     0.000 C 
BRANCH  19  20
ATOM     20  C   UNL     1      17.330  48.745  38.749  1.00  0.00     0.000 C 
BRANCH  20  21
ATOM     21  C   UNL     1      18.430  49.617  39.390  1.00  0.00     0.000 C 
BRANCH  21  22
ATOM     22  C   UNL     1      17.862  50.879  40.060  1.00  0.00     0.000 C 
BRANCH  22  23
ATOM     23  C   UNL     1      18.737  51.381  41.218  1.00  0.00     0.000 C 
BRANCH  23  24
ATOM     24  C   UNL     1      19.763  50.331  41.683  1.00  0.00    -0.000 C 
BRANCH  24  25
ATOM     25  C   UNL     1      21.157  50.933  41.920  1.00  0.00    -0.000 C 
BRANCH  25  26
ATOM     26  C   UNL     1      21.438  52.145  41.020  1.00  0.00    -0.000 C 
BRANCH  26  27
ATOM     27  C   UNL     1      22.679  51.953  40.130  1.00  0.00    -0.000 C 
BRANCH  27  28
ATOM     28  C   UNL     1      22.762  50.559  39.472  1.00  0.00    -0.000 C 
BRANCH  28  29
ATOM     29  C   UNL     1      21.644  50.342  38.435  1.00  0.00    -0.000 C 
BRANCH  29  30
ATOM     30  C   UNL     1      21.575  51.465  37.385  1.00  0.00    -0.000 C 
BRANCH  30  31
ATOM     31  C   UNL     1      20.154  51.980  37.093  1.00  0.00    -0.003 C 
ATOM     32  C   UNL     1      19.775  53.200  37.933  1.00  0.00     0.004 C 
ENDBRANCH  30  31
ENDBRANCH  29  30
ENDBRANCH  28  29
ENDBRANCH  27  28
ENDBRANCH  26  27
ENDBRANCH  25  26
ENDBRANCH  24  25
ENDBRANCH  23  24
ENDBRANCH  22  23
ENDBRANCH  21  22
ENDBRANCH  20  21
ENDBRANCH  19  20
ENDBRANCH  18  19
ENDBRANCH   1  18
TORSDOF 28
ENDMDL
MODEL 7
REMARK VINA RESULT:    -3.822      3.961      6.204
REMARK INTER + INTRA:         -16.382
REMARK INTER:                 -11.580
REMARK INTRA:                  -4.802
REMARK UNBOUND:                -6.303
REMARK SMILES CCCCCCCCCCCCCCCCCCCCCCCCCCCCCC(=O)[O-]
REMARK SMILES IDX 16 1 17 2 18 3 19 4 20 5 21 6 22 7 23 8 24 9 25 10 26 11
REMARK SMILES IDX 27 12 28 13 29 14 30 15 31 16 32 17 15 18 14 19 13 20 12 21
REMARK SMILES IDX 11 22 10 23 9 24 8 25 7 26 6 27 5 28 4 29 3 30 2 31 1 32
REMARK H PARENT
REMARK Flexibility Score: inf
ROOT
ATOM      1  C   UNL     1      18.758  51.817  34.469  1.00  0.00     0.000 C 
ENDROOT
BRANCH   1   2
ATOM      2  C   UNL     1      19.103  51.297  35.880  1.00  0.00     0.000 C 
BRANCH   2   3
ATOM      3  C   UNL     1      19.963  50.018  35.849  1.00  0.00     0.000 C 
BRANCH   3   4
ATOM      4  C   UNL     1      19.696  49.097  37.049  1.00  0.00     0.000 C 
BRANCH   4   5
ATOM      5  C   UNL     1      18.869  47.854  36.673  1.00  0.00     0.000 C 
BRANCH   5   6
ATOM      6  C   UNL     1      17.388  47.987  37.062  1.00  0.00     0.000 C 
BRANCH   6   7
ATOM      7  C   UNL     1      17.179  48.882  38.296  1.00  0.00     0.000 C 
BRANCH   7   8
ATOM      8  C   UNL     1      16.209  50.043  38.021  1.00  0.00     0.000 C 
BRANCH   8   9
ATOM      9  C   UNL     1      16.687  51.368  38.641  1.00  0.00     0.000 C 
BRANCH   9  10
ATOM     10  C   UNL     1      17.791  51.164  39.691  1.00  0.00     0.000 C 
BRANCH  10  11
ATOM     11  C   UNL     1      19.040  52.017  39.416  1.00  0.00     0.000 C 
BRANCH  11  12
ATOM     12  C   UNL     1      20.108  51.788  40.498  1.00  0.00     0.000 C 
BRANCH  12  13
ATOM     13  C   UNL     1      20.857  50.454  40.325  1.00  0.00     0.006 C 
BRANCH  13  14
ATOM     14  C   UNL     1      22.049  50.517  39.357  1.00  0.00     0.053 C 
BRANCH  14  15
ATOM     15  C   UNL     1      22.982  51.641  39.686  1.00  0.00     0.041 C 
ATOM     16  O   UNL     1      23.290  52.489  38.808  1.00  0.00    -0.550 OA
ATOM     17  O   UNL     1      23.543  51.728  40.955  1.00  0.00    -0.550 OA
ENDBRANCH  14  15
ENDBRANCH  13  14
ENDBRANCH  12  13
ENDBRANCH  11  12
ENDBRANCH  10  11
ENDBRANCH   9  10
ENDBRANCH   8   9
ENDBRANCH   7   8
ENDBRANCH   6   7
ENDBRANCH   5   6
ENDBRANCH   4   5
ENDBRANCH   3   4
ENDBRANCH   2   3
ENDBRANCH   1   2
BRANCH   1  18
ATOM     18  C   UNL     1      17.279  51.637  34.072  1.00  0.00     0.000 C 
BRANCH  18  19
ATOM     19  C   UNL     1      16.695  50.236  34.321  1.00  0.00     0.000 C 
BRANCH  19  20
ATOM     20  C   UNL     1      17.169  49.141  33.346  1.00  0.00     0.000 C 
BRANCH  20  21
ATOM     21  C   UNL     1      16.419  49.130  31.997  1.00  0.00     0.000 C 
BRANCH  21  22
ATOM     22  C   UNL     1      17.271  49.693  30.847  1.00  0.00     0.000 C 
BRANCH  22  23
ATOM     23  C   UNL     1      16.508  50.710  29.986  1.00  0.00     0.000 C 
BRANCH  23  24
ATOM     24  C   UNL     1      15.506  51.545  30.805  1.00  0.00    -0.000 C 
BRANCH  24  25
ATOM     25  C   UNL     1      15.970  52.997  31.001  1.00  0.00    -0.000 C 
BRANCH  25  26
ATOM     26  C   UNL     1      15.091  54.005  30.246  1.00  0.00    -0.000 C 
BRANCH  26  27
ATOM     27  C   UNL     1      15.397  54.053  28.738  1.00  0.00    -0.000 C 
BRANCH  27  28
ATOM     28  C   UNL     1      14.153  54.303  27.859  1.00  0.00    -0.000 C 
BRANCH  28  29
ATOM     29  C   UNL     1      13.013  53.317  28.177  1.00  0.00    -0.000 C 
BRANCH  29  30
ATOM     30  C   UNL     1      13.323  51.878  27.727  1.00  0.00    -0.000 C 
BRANCH  30  31
ATOM     31  C   UNL     1      14.002  51.771  26.350  1.00  0.00    -0.003 C 
ATOM     32  C   UNL     1      15.335  51.023  26.396  1.00  0.00     0.004 C 
ENDBRANCH  30  31
ENDBRANCH  29  30
ENDBRANCH  28  29
ENDBRANCH  27  28
ENDBRANCH  26  27
ENDBRANCH  25  26
ENDBRANCH  24  25
ENDBRANCH  23  24
ENDBRANCH  22  23
ENDBRANCH  21  22
ENDBRANCH  20  21
ENDBRANCH  19  20
ENDBRANCH  18  19
ENDBRANCH   1  18
TORSDOF 28
ENDMDL
MODEL 8
REMARK VINA RESULT:    -3.821      3.722      8.470
REMARK INTER + INTRA:         -16.380
REMARK INTER:                 -10.846
REMARK INTRA:                  -5.534
REMARK UNBOUND:                -6.303
REMARK SMILES CCCCCCCCCCCCCCCCCCCCCCCCCCCCCC(=O)[O-]
REMARK SMILES IDX 16 1 17 2 18 3 19 4 20 5 21 6 22 7 23 8 24 9 25 10 26 11
REMARK SMILES IDX 27 12 28 13 29 14 30 15 31 16 32 17 15 18 14 19 13 20 12 21
REMARK SMILES IDX 11 22 10 23 9 24 8 25 7 26 6 27 5 28 4 29 3 30 2 31 1 32
REMARK H PARENT
REMARK Flexibility Score: inf
ROOT
ATOM      1  C   UNL     1      17.888  48.527  36.300  1.00  0.00     0.000 C 
ENDROOT
BRANCH   1   2
ATOM      2  C   UNL     1      19.352  48.201  36.666  1.00  0.00     0.000 C 
BRANCH   2   3
ATOM      3  C   UNL     1      20.220  49.464  36.826  1.00  0.00     0.000 C 
BRANCH   3   4
ATOM      4  C   UNL     1      21.356  49.536  35.794  1.00  0.00     0.000 C 
BRANCH   4   5
ATOM      5  C   UNL     1      21.066  48.705  34.531  1.00  0.00     0.000 C 
BRANCH   5   6
ATOM      6  C   UNL     1      20.571  49.565  33.356  1.00  0.00     0.000 C 
BRANCH   6   7
ATOM      7  C   UNL     1      19.858  48.735  32.274  1.00  0.00     0.000 C 
BRANCH   7   8
ATOM      8  C   UNL     1      18.984  47.620  32.872  1.00  0.00     0.000 C 
BRANCH   8   9
ATOM      9  C   UNL     1      17.480  47.889  32.686  1.00  0.00     0.000 C 
BRANCH   9  10
ATOM     10  C   UNL     1      17.204  49.079  31.753  1.00  0.00     0.000 C 
BRANCH  10  11
ATOM     11  C   UNL     1      16.382  50.188  32.429  1.00  0.00     0.000 C 
BRANCH  11  12
ATOM     12  C   UNL     1      17.129  51.531  32.380  1.00  0.00     0.000 C 
BRANCH  12  13
ATOM     13  C   UNL     1      17.153  52.149  30.970  1.00  0.00     0.006 C 
BRANCH  13  14
ATOM     14  C   UNL     1      16.023  53.153  30.698  1.00  0.00     0.053 C 
BRANCH  14  15
ATOM     15  C   UNL     1      14.940  52.565  29.848  1.00  0.00     0.041 C 
ATOM     16  O   UNL     1      15.231  51.819  28.875  1.00  0.00    -0.550 OA
ATOM     17  O   UNL     1      13.610  52.872  30.106  1.00  0.00    -0.550 OA
ENDBRANCH  14  15
ENDBRANCH  13  14
ENDBRANCH  12  13
ENDBRANCH  11  12
ENDBRANCH  10  11
ENDBRANCH   9  10
ENDBRANCH   8   9
ENDBRANCH   7   8
ENDBRANCH   6   7
ENDBRANCH   5   6
ENDBRANCH   4   5
ENDBRANCH   3   4
ENDBRANCH   2   3
ENDBRANCH   1   2
BRANCH   1  18
ATOM     18  C   UNL     1      17.660  49.981  35.840  1.00  0.00     0.000 C 
BRANCH  18  19
ATOM     19  C   UNL     1      16.443  50.685  36.465  1.00  0.00     0.000 C 
BRANCH  19  20
ATOM     20  C   UNL     1      16.123  50.286  37.918  1.00  0.00     0.000 C 
BRANCH  20  21
ATOM     21  C   UNL     1      16.490  51.361  38.963  1.00  0.00     0.000 C 
BRANCH  21  22
ATOM     22  C   UNL     1      17.911  51.175  39.521  1.00  0.00     0.000 C 
BRANCH  22  23
ATOM     23  C   UNL     1      18.230  49.710  39.856  1.00  0.00     0.000 C 
BRANCH  23  24
ATOM     24  C   UNL     1      19.595  49.544  40.549  1.00  0.00    -0.000 C 
BRANCH  24  25
ATOM     25  C   UNL     1      19.561  49.964  42.027  1.00  0.00    -0.000 C 
BRANCH  25  26
ATOM     26  C   UNL     1      20.661  50.977  42.378  1.00  0.00    -0.000 C 
BRANCH  26  27
ATOM     27  C   UNL     1      20.266  52.427  42.043  1.00  0.00    -0.000 C 
BRANCH  27  28
ATOM     28  C   UNL     1      21.360  53.209  41.284  1.00  0.00    -0.000 C 
BRANCH  28  29
ATOM     29  C   UNL     1      20.923  53.569  39.851  1.00  0.00    -0.000 C 
BRANCH  29  30
ATOM     30  C   UNL     1      21.217  52.451  38.836  1.00  0.00    -0.000 C 
BRANCH  30  31
ATOM     31  C   UNL     1      22.670  51.942  38.849  1.00  0.00    -0.003 C 
ATOM     32  C   UNL     1      22.788  50.481  39.286  1.00  0.00     0.004 C 
ENDBRANCH  30  31
ENDBRANCH  29  30
ENDBRANCH  28  29
ENDBRANCH  27  28
ENDBRANCH  26  27
ENDBRANCH  25  26
ENDBRANCH  24  25
ENDBRANCH  23  24
ENDBRANCH  22  23
ENDBRANCH  21  22
ENDBRANCH  20  21
ENDBRANCH  19  20
ENDBRANCH  18  19
ENDBRANCH   1  18
TORSDOF 28
ENDMDL
MODEL 9
REMARK VINA RESULT:    -3.813      2.809      7.714
REMARK INTER + INTRA:         -16.357
REMARK INTER:                 -10.426
REMARK INTRA:                  -5.931
REMARK UNBOUND:                -6.303
REMARK SMILES CCCCCCCCCCCCCCCCCCCCCCCCCCCCCC(=O)[O-]
REMARK SMILES IDX 16 1 17 2 18 3 19 4 20 5 21 6 22 7 23 8 24 9 25 10 26 11
REMARK SMILES IDX 27 12 28 13 29 14 30 15 31 16 32 17 15 18 14 19 13 20 12 21
REMARK SMILES IDX 11 22 10 23 9 24 8 25 7 26 6 27 5 28 4 29 3 30 2 31 1 32
REMARK H PARENT
REMARK Flexibility Score: inf
ROOT
ATOM      1  C   UNL     1      20.755  48.905  33.480  1.00  0.00     0.000 C 
ENDROOT
BRANCH   1   2
ATOM      2  C   UNL     1      21.367  48.550  34.851  1.00  0.00     0.000 C 
BRANCH   2   3
ATOM      3  C   UNL     1      22.796  47.983  34.734  1.00  0.00     0.000 C 
BRANCH   3   4
ATOM      4  C   UNL     1      22.811  46.485  34.392  1.00  0.00     0.000 C 
BRANCH   4   5
ATOM      5  C   UNL     1      23.233  46.212  32.936  1.00  0.00     0.000 C 
BRANCH   5   6
ATOM      6  C   UNL     1      22.310  45.206  32.230  1.00  0.00     0.000 C 
BRANCH   6   7
ATOM      7  C   UNL     1      20.856  45.288  32.729  1.00  0.00     0.000 C 
BRANCH   7   8
ATOM      8  C   UNL     1      20.420  44.016  33.475  1.00  0.00     0.000 C 
BRANCH   8   9
ATOM      9  C   UNL     1      19.490  44.321  34.662  1.00  0.00     0.000 C 
BRANCH   9  10
ATOM     10  C   UNL     1      19.145  45.815  34.774  1.00  0.00     0.000 C 
BRANCH  10  11
ATOM     11  C   UNL     1      18.633  46.206  36.169  1.00  0.00     0.000 C 
BRANCH  11  12
ATOM     12  C   UNL     1      17.725  47.443  36.093  1.00  0.00     0.000 C 
BRANCH  12  13
ATOM     13  C   UNL     1      16.306  47.113  35.595  1.00  0.00     0.006 C 
BRANCH  13  14
ATOM     14  C   UNL     1      15.876  47.889  34.341  1.00  0.00     0.053 C 
BRANCH  14  15
ATOM     15  C   UNL     1      14.938  47.098  33.483  1.00  0.00     0.041 C 
ATOM     16  O   UNL     1      14.462  46.009  33.900  1.00  0.00    -0.550 OA
ATOM     17  O   UNL     1      14.621  47.544  32.206  1.00  0.00    -0.550 OA
ENDBRANCH  14  15
ENDBRANCH  13  14
ENDBRANCH  12  13
ENDBRANCH  11  12
ENDBRANCH  10  11
ENDBRANCH   9  10
ENDBRANCH   8   9
ENDBRANCH   7   8
ENDBRANCH   6   7
ENDBRANCH   5   6
ENDBRANCH   4   5
ENDBRANCH   3   4
ENDBRANCH   2   3
ENDBRANCH   1   2
BRANCH   1  18
ATOM     18  C   UNL     1      19.342  49.518  33.558  1.00  0.00     0.000 C 
BRANCH  18  19
ATOM     19  C   UNL     1      19.152  50.602  34.633  1.00  0.00     0.000 C 
BRANCH  19  20
ATOM     20  C   UNL     1      17.721  51.155  34.767  1.00  0.00     0.000 C 
BRANCH  20  21
ATOM     21  C   UNL     1      17.326  51.543  36.209  1.00  0.00     0.000 C 
BRANCH  21  22
ATOM     22  C   UNL     1      16.151  50.706  36.741  1.00  0.00     0.000 C 
BRANCH  22  23
ATOM     23  C   UNL     1      16.230  50.469  38.256  1.00  0.00     0.000 C 
BRANCH  23  24
ATOM     24  C   UNL     1      17.328  51.312  38.931  1.00  0.00    -0.000 C 
BRANCH  24  25
ATOM     25  C   UNL     1      18.159  50.501  39.938  1.00  0.00    -0.000 C 
BRANCH  25  26
ATOM     26  C   UNL     1      18.830  49.275  39.300  1.00  0.00    -0.000 C 
BRANCH  26  27
ATOM     27  C   UNL     1      19.710  49.639  38.090  1.00  0.00    -0.000 C 
BRANCH  27  28
ATOM     28  C   UNL     1      21.190  49.889  38.452  1.00  0.00    -0.000 C 
BRANCH  28  29
ATOM     29  C   UNL     1      21.735  51.172  37.796  1.00  0.00    -0.000 C 
BRANCH  29  30
ATOM     30  C   UNL     1      21.645  52.401  38.719  1.00  0.00    -0.000 C 
BRANCH  30  31
ATOM     31  C   UNL     1      20.375  53.250  38.528  1.00  0.00    -0.003 C 
ATOM     32  C   UNL     1      20.160  53.689  37.079  1.00  0.00     0.004 C 
ENDBRANCH  30  31
ENDBRANCH  29  30
ENDBRANCH  28  29
ENDBRANCH  27  28
ENDBRANCH  26  27
ENDBRANCH  25  26
ENDBRANCH  24  25
ENDBRANCH  23  24
ENDBRANCH  22  23
ENDBRANCH  21  22
ENDBRANCH  20  21
ENDBRANCH  19  20
ENDBRANCH  18  19
ENDBRANCH   1  18
TORSDOF 28
ENDMDL
