MODEL 1
REMARK VINA RESULT:    -4.516      0.000      0.000
REMARK INTER + INTRA:         -11.684
REMARK INTER:                 -10.324
REMARK INTRA:                  -1.360
REMARK UNBOUND:                -1.360
REMARK SMILES CCCCCCCCCCCCCCCCCCCCCCCC(=O)[O-]
REMARK SMILES IDX 13 1 14 2 15 3 16 4 17 5 18 6 19 7 20 8 21 9 22 10 23 11
REMARK SMILES IDX 24 12 25 13 26 14 12 15 11 16 10 17 9 18 8 19 7 20 6 21 5 22
REMARK SMILES IDX 4 23 3 24 2 25 1 26
REMARK H PARENT
REMARK Flexibility Score: inf
ROOT
ATOM      1  C   UNL     1     -22.591 -13.049  33.444  1.00  0.00     0.000 C 
ENDROOT
BRANCH   1   2
ATOM      2  C   UNL     1     -21.261 -13.811  33.343  1.00  0.00     0.000 C 
BRANCH   2   3
ATOM      3  C   UNL     1     -20.336 -13.457  34.514  1.00  0.00     0.000 C 
BRANCH   3   4
ATOM      4  C   UNL     1     -21.091 -13.508  35.847  1.00  0.00     0.000 C 
BRANCH   4   5
ATOM      5  C   UNL     1     -20.285 -12.835  36.965  1.00  0.00     0.000 C 
BRANCH   5   6
ATOM      6  C   UNL     1     -19.874 -13.812  38.080  1.00  0.00     0.000 C 
BRANCH   6   7
ATOM      7  C   UNL     1     -21.054 -14.612  38.672  1.00  0.00     0.000 C 
BRANCH   7   8
ATOM      8  C   UNL     1     -20.777 -15.082  40.109  1.00  0.00     0.000 C 
BRANCH   8   9
ATOM      9  C   UNL     1     -21.984 -14.815  41.020  1.00  0.00     0.000 C 
BRANCH   9  10
ATOM     10  C   UNL     1     -22.970 -13.789  40.431  1.00  0.00     0.006 C 
BRANCH  10  11
ATOM     11  C   UNL     1     -22.523 -12.325  40.597  1.00  0.00     0.053 C 
BRANCH  11  12
ATOM     12  C   UNL     1     -23.007 -11.441  39.487  1.00  0.00     0.041 C 
ATOM     13  O   UNL     1     -23.391 -11.941  38.396  1.00  0.00    -0.550 OA
ATOM     14  O   UNL     1     -23.070 -10.065  39.671  1.00  0.00    -0.550 OA
ENDBRANCH  11  12
ENDBRANCH  10  11
ENDBRANCH   9  10
ENDBRANCH   8   9
ENDBRANCH   7   8
ENDBRANCH   6   7
ENDBRANCH   5   6
ENDBRANCH   4   5
ENDBRANCH   3   4
ENDBRANCH   2   3
ENDBRANCH   1   2
BRANCH   1  15
ATOM     15  C   UNL     1     -23.094 -12.542  32.078  1.00  0.00     0.000 C 
BRANCH  15  16
ATOM     16  C   UNL     1     -24.621 -12.359  31.993  1.00  0.00     0.000 C 
BRANCH  16  17
ATOM     17  C   UNL     1     -25.179 -11.493  33.138  1.00  0.00     0.000 C 
BRANCH  17  18
ATOM     18  C   UNL     1     -26.676 -11.730  33.383  1.00  0.00    -0.000 C 
BRANCH  18  19
ATOM     19  C   UNL     1     -27.045 -11.728  34.875  1.00  0.00    -0.000 C 
BRANCH  19  20
ATOM     20  C   UNL     1     -28.262 -10.832  35.135  1.00  0.00    -0.000 C 
BRANCH  20  21
ATOM     21  C   UNL     1     -27.984  -9.385  34.710  1.00  0.00    -0.000 C 
BRANCH  21  22
ATOM     22  C   UNL     1     -28.927  -8.952  33.579  1.00  0.00    -0.000 C 
BRANCH  22  23
ATOM     23  C   UNL     1     -30.330  -8.569  34.099  1.00  0.00    -0.000 C 
BRANCH  23  24
ATOM     24  C   UNL     1     -31.139  -7.702  33.116  1.00  0.00    -0.000 C 
BRANCH  24  25
ATOM     25  C   UNL     1     -32.279  -6.894  33.759  1.00  0.00    -0.003 C 
ATOM     26  C   UNL     1     -33.519  -7.741  34.044  1.00  0.00     0.004 C 
ENDBRANCH  24  25
ENDBRANCH  23  24
ENDBRANCH  22  23
ENDBRANCH  21  22
ENDBRANCH  20  21
ENDBRANCH  19  20
ENDBRANCH  18  19
ENDBRANCH  17  18
ENDBRANCH  16  17
ENDBRANCH  15  16
ENDBRANCH   1  15
TORSDOF 22
ENDMDL
MODEL 2
REMARK VINA RESULT:    -4.457      3.585     10.269
REMARK INTER + INTRA:         -11.548
REMARK INTER:                  -9.193
REMARK INTRA:                  -2.356
REMARK UNBOUND:                -1.360
REMARK SMILES CCCCCCCCCCCCCCCCCCCCCCCC(=O)[O-]
REMARK SMILES IDX 13 1 14 2 15 3 16 4 17 5 18 6 19 7 20 8 21 9 22 10 23 11
REMARK SMILES IDX 24 12 25 13 26 14 12 15 11 16 10 17 9 18 8 19 7 20 6 21 5 22
REMARK SMILES IDX 4 23 3 24 2 25 1 26
REMARK H PARENT
REMARK Flexibility Score: inf
ROOT
ATOM      1  C   UNL     1     -22.923 -12.863  36.767  1.00  0.00     0.000 C 
ENDROOT
BRANCH   1   2
ATOM      2  C   UNL     1     -23.347 -11.632  35.952  1.00  0.00     0.000 C 
BRANCH   2   3
ATOM      3  C   UNL     1     -23.606 -12.006  34.487  1.00  0.00     0.000 C 
BRANCH   3   4
ATOM      4  C   UNL     1     -25.028 -11.618  34.064  1.00  0.00     0.000 C 
BRANCH   4   5
ATOM      5  C   UNL     1     -26.006 -11.730  35.242  1.00  0.00     0.000 C 
BRANCH   5   6
ATOM      6  C   UNL     1     -27.478 -11.777  34.797  1.00  0.00     0.000 C 
BRANCH   6   7
ATOM      7  C   UNL     1     -28.217 -10.430  34.948  1.00  0.00     0.000 C 
BRANCH   7   8
ATOM      8  C   UNL     1     -28.208  -9.612  33.647  1.00  0.00     0.000 C 
BRANCH   8   9
ATOM      9  C   UNL     1     -29.238  -8.474  33.704  1.00  0.00     0.000 C 
BRANCH   9  10
ATOM     10  C   UNL     1     -30.658  -8.960  34.046  1.00  0.00     0.006 C 
BRANCH  10  11
ATOM     11  C   UNL     1     -31.728  -8.533  33.025  1.00  0.00     0.053 C 
BRANCH  11  12
ATOM     12  C   UNL     1     -32.520  -7.343  33.478  1.00  0.00     0.041 C 
ATOM     13  O   UNL     1     -31.976  -6.209  33.562  1.00  0.00    -0.550 OA
ATOM     14  O   UNL     1     -33.873  -7.478  33.768  1.00  0.00    -0.550 OA
ENDBRANCH  11  12
ENDBRANCH  10  11
ENDBRANCH   9  10
ENDBRANCH   8   9
ENDBRANCH   7   8
ENDBRANCH   6   7
ENDBRANCH   5   6
ENDBRANCH   4   5
ENDBRANCH   3   4
ENDBRANCH   2   3
ENDBRANCH   1   2
BRANCH   1  15
ATOM     15  C   UNL     1     -23.001 -12.628  38.288  1.00  0.00     0.000 C 
BRANCH  15  16
ATOM     16  C   UNL     1     -22.562 -11.220  38.734  1.00  0.00     0.000 C 
BRANCH  16  17
ATOM     17  C   UNL     1     -21.883 -11.221  40.116  1.00  0.00     0.000 C 
BRANCH  17  18
ATOM     18  C   UNL     1     -20.416 -10.772  40.055  1.00  0.00    -0.000 C 
BRANCH  18  19
ATOM     19  C   UNL     1     -19.436 -11.950  39.938  1.00  0.00    -0.000 C 
BRANCH  19  20
ATOM     20  C   UNL     1     -19.234 -12.349  38.471  1.00  0.00    -0.000 C 
BRANCH  20  21
ATOM     21  C   UNL     1     -19.423 -13.858  38.278  1.00  0.00    -0.000 C 
BRANCH  21  22
ATOM     22  C   UNL     1     -19.601 -14.568  39.627  1.00  0.00    -0.000 C 
BRANCH  22  23
ATOM     23  C   UNL     1     -20.949 -15.317  39.722  1.00  0.00    -0.000 C 
BRANCH  23  24
ATOM     24  C   UNL     1     -21.480 -15.454  41.162  1.00  0.00    -0.000 C 
BRANCH  24  25
ATOM     25  C   UNL     1     -22.428 -14.328  41.607  1.00  0.00    -0.003 C 
ATOM     26  C   UNL     1     -23.207 -14.676  42.875  1.00  0.00     0.004 C 
ENDBRANCH  24  25
ENDBRANCH  23  24
ENDBRANCH  22  23
ENDBRANCH  21  22
ENDBRANCH  20  21
ENDBRANCH  19  20
ENDBRANCH  18  19
ENDBRANCH  17  18
ENDBRANCH  16  17
ENDBRANCH  15  16
ENDBRANCH   1  15
TORSDOF 22
ENDMDL
MODEL 3
REMARK VINA RESULT:    -4.430      1.577      2.591
REMARK INTER + INTRA:         -11.488
REMARK INTER:                  -9.829
REMARK INTRA:                  -1.659
REMARK UNBOUND:                -1.360
REMARK SMILES CCCCCCCCCCCCCCCCCCCCCCCC(=O)[O-]
REMARK SMILES IDX 13 1 14 2 15 3 16 4 17 5 18 6 19 7 20 8 21 9 22 10 23 11
REMARK SMILES IDX 24 12 25 13 26 14 12 15 11 16 10 17 9 18 8 19 7 20 6 21 5 22
REMARK SMILES IDX 4 23 3 24 2 25 1 26
REMARK H PARENT
REMARK Flexibility Score: inf
ROOT
ATOM      1  C   UNL     1     -22.963 -12.927  32.716  1.00  0.00     0.000 C 
ENDROOT
BRANCH   1   2
ATOM      2  C   UNL     1     -22.387 -14.095  31.901  1.00  0.00     0.000 C 
BRANCH   2   3
ATOM      3  C   UNL     1     -20.884 -14.257  32.160  1.00  0.00     0.000 C 
BRANCH   3   4
ATOM      4  C   UNL     1     -20.162 -12.907  32.079  1.00  0.00     0.000 C 
BRANCH   4   5
ATOM      5  C   UNL     1     -19.280 -12.676  33.313  1.00  0.00     0.000 C 
BRANCH   5   6
ATOM      6  C   UNL     1     -19.423 -13.786  34.368  1.00  0.00     0.000 C 
BRANCH   6   7
ATOM      7  C   UNL     1     -20.064 -13.311  35.689  1.00  0.00     0.000 C 
BRANCH   7   8
ATOM      8  C   UNL     1     -21.580 -13.563  35.726  1.00  0.00     0.000 C 
BRANCH   8   9
ATOM      9  C   UNL     1     -22.303 -12.467  36.521  1.00  0.00     0.000 C 
BRANCH   9  10
ATOM     10  C   UNL     1     -21.748 -12.288  37.946  1.00  0.00     0.006 C 
BRANCH  10  11
ATOM     11  C   UNL     1     -22.834 -12.205  39.034  1.00  0.00     0.053 C 
BRANCH  11  12
ATOM     12  C   UNL     1     -23.200 -13.547  39.593  1.00  0.00     0.041 C 
ATOM     13  O   UNL     1     -23.804 -14.391  38.878  1.00  0.00    -0.550 OA
ATOM     14  O   UNL     1     -22.839 -13.882  40.892  1.00  0.00    -0.550 OA
ENDBRANCH  11  12
ENDBRANCH  10  11
ENDBRANCH   9  10
ENDBRANCH   8   9
ENDBRANCH   7   8
ENDBRANCH   6   7
ENDBRANCH   5   6
ENDBRANCH   4   5
ENDBRANCH   3   4
ENDBRANCH   2   3
ENDBRANCH   1   2
BRANCH   1  15
ATOM     15  C   UNL     1     -23.860 -11.998  31.875  1.00  0.00     0.000 C 
BRANCH  15  16
ATOM     16  C   UNL     1     -25.370 -12.196  32.106  1.00  0.00     0.000 C 
BRANCH  16  17
ATOM     17  C   UNL     1     -25.848 -11.605  33.445  1.00  0.00     0.000 C 
BRANCH  17  18
ATOM     18  C   UNL     1     -27.378 -11.573  33.565  1.00  0.00    -0.000 C 
BRANCH  18  19
ATOM     19  C   UNL     1     -27.861 -10.909  34.864  1.00  0.00    -0.000 C 
BRANCH  19  20
ATOM     20  C   UNL     1     -28.255  -9.448  34.616  1.00  0.00    -0.000 C 
BRANCH  20  21
ATOM     21  C   UNL     1     -29.694  -9.344  34.094  1.00  0.00    -0.000 C 
BRANCH  21  22
ATOM     22  C   UNL     1     -29.900  -8.044  33.304  1.00  0.00    -0.000 C 
BRANCH  22  23
ATOM     23  C   UNL     1     -31.281  -7.991  32.613  1.00  0.00    -0.000 C 
BRANCH  23  24
ATOM     24  C   UNL     1     -32.288  -7.063  33.317  1.00  0.00    -0.000 C 
BRANCH  24  25
ATOM     25  C   UNL     1     -33.502  -7.780  33.932  1.00  0.00    -0.003 C 
ATOM     26  C   UNL     1     -33.105  -8.880  34.916  1.00  0.00     0.004 C 
ENDBRANCH  24  25
ENDBRANCH  23  24
ENDBRANCH  22  23
ENDBRANCH  21  22
ENDBRANCH  20  21
ENDBRANCH  19  20
ENDBRANCH  18  19
ENDBRANCH  17  18
ENDBRANCH  16  17
ENDBRANCH  15  16
ENDBRANCH   1  15
TORSDOF 22
ENDMDL
MODEL 4
REMARK VINA RESULT:    -4.408      5.463     10.047
REMARK INTER + INTRA:         -11.437
REMARK INTER:                  -9.128
REMARK INTRA:                  -2.309
REMARK UNBOUND:                -1.360
REMARK SMILES CCCCCCCCCCCCCCCCCCCCCCCC(=O)[O-]
REMARK SMILES IDX 13 1 14 2 15 3 16 4 17 5 18 6 19 7 20 8 21 9 22 10 23 11
REMARK SMILES IDX 24 12 25 13 26 14 12 15 11 16 10 17 9 18 8 19 7 20 6 21 5 22
REMARK SMILES IDX 4 23 3 24 2 25 1 26
REMARK H PARENT
REMARK Flexibility Score: inf
ROOT
ATOM      1  C   UNL     1     -23.182 -14.495  42.872  1.00  0.00     0.000 C 
ENDROOT
BRANCH   1   2
ATOM      2  C   UNL     1     -22.901 -14.324  41.372  1.00  0.00     0.000 C 
BRANCH   2   3
ATOM      3  C   UNL     1     -21.457 -14.716  41.035  1.00  0.00     0.000 C 
BRANCH   3   4
ATOM      4  C   UNL     1     -20.731 -13.576  40.313  1.00  0.00     0.000 C 
BRANCH   4   5
ATOM      5  C   UNL     1     -21.138 -12.211  40.884  1.00  0.00     0.000 C 
BRANCH   5   6
ATOM      6  C   UNL     1     -21.543 -11.202  39.796  1.00  0.00     0.000 C 
BRANCH   6   7
ATOM      7  C   UNL     1     -23.069 -11.083  39.594  1.00  0.00     0.000 C 
BRANCH   7   8
ATOM      8  C   UNL     1     -23.595 -12.064  38.535  1.00  0.00     0.000 C 
BRANCH   8   9
ATOM      9  C   UNL     1     -22.758 -11.991  37.250  1.00  0.00     0.000 C 
BRANCH   9  10
ATOM     10  C   UNL     1     -22.122 -13.338  36.864  1.00  0.00     0.006 C 
BRANCH  10  11
ATOM     11  C   UNL     1     -20.856 -13.208  35.998  1.00  0.00     0.053 C 
BRANCH  11  12
ATOM     12  C   UNL     1     -21.110 -13.507  34.550  1.00  0.00     0.041 C 
ATOM     13  O   UNL     1     -20.258 -14.142  33.872  1.00  0.00    -0.550 OA
ATOM     14  O   UNL     1     -22.306 -13.118  33.959  1.00  0.00    -0.550 OA
ENDBRANCH  11  12
ENDBRANCH  10  11
ENDBRANCH   9  10
ENDBRANCH   8   9
ENDBRANCH   7   8
ENDBRANCH   6   7
ENDBRANCH   5   6
ENDBRANCH   4   5
ENDBRANCH   3   4
ENDBRANCH   2   3
ENDBRANCH   1   2
BRANCH   1  15
ATOM     15  C   UNL     1     -22.471 -15.721  43.476  1.00  0.00     0.000 C 
BRANCH  15  16
ATOM     16  C   UNL     1     -21.533 -15.394  44.653  1.00  0.00     0.000 C 
BRANCH  16  17
ATOM     17  C   UNL     1     -22.106 -15.842  46.010  1.00  0.00     0.000 C 
BRANCH  17  18
ATOM     18  C   UNL     1     -22.172 -14.696  47.031  1.00  0.00    -0.000 C 
BRANCH  18  19
ATOM     19  C   UNL     1     -23.528 -14.613  47.748  1.00  0.00    -0.000 C 
BRANCH  19  20
ATOM     20  C   UNL     1     -23.751 -13.214  48.334  1.00  0.00    -0.000 C 
BRANCH  20  21
ATOM     21  C   UNL     1     -24.508 -12.316  47.349  1.00  0.00    -0.000 C 
BRANCH  21  22
ATOM     22  C   UNL     1     -25.724 -13.046  46.762  1.00  0.00    -0.000 C 
BRANCH  22  23
ATOM     23  C   UNL     1     -25.719 -13.044  45.217  1.00  0.00    -0.000 C 
BRANCH  23  24
ATOM     24  C   UNL     1     -27.057 -12.601  44.595  1.00  0.00    -0.000 C 
BRANCH  24  25
ATOM     25  C   UNL     1     -28.176 -13.654  44.661  1.00  0.00    -0.003 C 
ATOM     26  C   UNL     1     -29.532 -13.107  44.215  1.00  0.00     0.004 C 
ENDBRANCH  24  25
ENDBRANCH  23  24
ENDBRANCH  22  23
ENDBRANCH  21  22
ENDBRANCH  20  21
ENDBRANCH  19  20
ENDBRANCH  18  19
ENDBRANCH  17  18
ENDBRANCH  16  17
ENDBRANCH  15  16
ENDBRANCH   1  15
TORSDOF 22
ENDMDL
MODEL 5
REMARK VINA RESULT:    -4.331      7.189     12.064
REMARK INTER + INTRA:         -11.262
REMARK INTER:                  -8.508
REMARK INTRA:                  -2.754
REMARK UNBOUND:                -1.360
REMARK SMILES CCCCCCCCCCCCCCCCCCCCCCCC(=O)[O-]
REMARK SMILES IDX 13 1 14 2 15 3 16 4 17 5 18 6 19 7 20 8 21 9 22 10 23 11
REMARK SMILES IDX 24 12 25 13 26 14 12 15 11 16 10 17 9 18 8 19 7 20 6 21 5 22
REMARK SMILES IDX 4 23 3 24 2 25 1 26
REMARK H PARENT
REMARK Flexibility Score: inf
ROOT
ATOM      1  C   UNL     1     -25.576 -13.136  46.845  1.00  0.00     0.000 C 
ENDROOT
BRANCH   1   2
ATOM      2  C   UNL     1     -25.889 -12.486  45.489  1.00  0.00     0.000 C 
BRANCH   2   3
ATOM      3  C   UNL     1     -26.783 -13.396  44.638  1.00  0.00     0.000 C 
BRANCH   3   4
ATOM      4  C   UNL     1     -28.127 -12.721  44.336  1.00  0.00     0.000 C 
BRANCH   4   5
ATOM      5  C   UNL     1     -29.300 -13.660  44.648  1.00  0.00     0.000 C 
BRANCH   5   6
ATOM      6  C   UNL     1     -28.992 -14.645  45.789  1.00  0.00     0.000 C 
BRANCH   6   7
ATOM      7  C   UNL     1     -30.007 -14.590  46.950  1.00  0.00     0.000 C 
BRANCH   7   8
ATOM      8  C   UNL     1     -29.513 -15.348  48.193  1.00  0.00     0.000 C 
BRANCH   8   9
ATOM      9  C   UNL     1     -27.988 -15.532  48.157  1.00  0.00     0.000 C 
BRANCH   9  10
ATOM     10  C   UNL     1     -27.383 -15.832  49.540  1.00  0.00     0.006 C 
BRANCH  10  11
ATOM     11  C   UNL     1     -26.414 -14.748  50.047  1.00  0.00     0.053 C 
BRANCH  11  12
ATOM     12  C   UNL     1     -27.115 -13.490  50.463  1.00  0.00     0.041 C 
ATOM     13  O   UNL     1     -28.204 -13.547  51.095  1.00  0.00    -0.550 OA
ATOM     14  O   UNL     1     -26.546 -12.253  50.188  1.00  0.00    -0.550 OA
ENDBRANCH  11  12
ENDBRANCH  10  11
ENDBRANCH   9  10
ENDBRANCH   8   9
ENDBRANCH   7   8
ENDBRANCH   6   7
ENDBRANCH   5   6
ENDBRANCH   4   5
ENDBRANCH   3   4
ENDBRANCH   2   3
ENDBRANCH   1   2
BRANCH   1  15
ATOM     15  C   UNL     1     -24.082 -13.055  47.214  1.00  0.00     0.000 C 
BRANCH  15  16
ATOM     16  C   UNL     1     -23.334 -14.399  47.127  1.00  0.00     0.000 C 
BRANCH  16  17
ATOM     17  C   UNL     1     -22.346 -14.452  45.947  1.00  0.00     0.000 C 
BRANCH  17  18
ATOM     18  C   UNL     1     -22.258 -15.847  45.311  1.00  0.00    -0.000 C 
BRANCH  18  19
ATOM     19  C   UNL     1     -22.510 -15.829  43.795  1.00  0.00    -0.000 C 
BRANCH  19  20
ATOM     20  C   UNL     1     -23.463 -14.691  43.414  1.00  0.00    -0.000 C 
BRANCH  20  21
ATOM     21  C   UNL     1     -22.914 -13.883  42.231  1.00  0.00    -0.000 C 
BRANCH  21  22
ATOM     22  C   UNL     1     -22.228 -14.800  41.210  1.00  0.00    -0.000 C 
BRANCH  22  23
ATOM     23  C   UNL     1     -22.179 -14.174  39.799  1.00  0.00    -0.000 C 
BRANCH  23  24
ATOM     24  C   UNL     1     -23.531 -14.207  39.060  1.00  0.00    -0.000 C 
BRANCH  24  25
ATOM     25  C   UNL     1     -23.897 -12.903  38.332  1.00  0.00    -0.003 C 
ATOM     26  C   UNL     1     -23.452 -11.654  39.091  1.00  0.00     0.004 C 
ENDBRANCH  24  25
ENDBRANCH  23  24
ENDBRANCH  22  23
ENDBRANCH  21  22
ENDBRANCH  20  21
ENDBRANCH  19  20
ENDBRANCH  18  19
ENDBRANCH  17  18
ENDBRANCH  16  17
ENDBRANCH  15  16
ENDBRANCH   1  15
TORSDOF 22
ENDMDL
MODEL 6
REMARK VINA RESULT:    -4.302      5.933     10.277
REMARK INTER + INTRA:         -11.194
REMARK INTER:                  -8.570
REMARK INTRA:                  -2.624
REMARK UNBOUND:                -1.360
REMARK SMILES CCCCCCCCCCCCCCCCCCCCCCCC(=O)[O-]
REMARK SMILES IDX 13 1 14 2 15 3 16 4 17 5 18 6 19 7 20 8 21 9 22 10 23 11
REMARK SMILES IDX 24 12 25 13 26 14 12 15 11 16 10 17 9 18 8 19 7 20 6 21 5 22
REMARK SMILES IDX 4 23 3 24 2 25 1 26
REMARK H PARENT
REMARK Flexibility Score: inf
ROOT
ATOM      1  C   UNL     1     -22.521 -16.117  43.950  1.00  0.00     0.000 C 
ENDROOT
BRANCH   1   2
ATOM      2  C   UNL     1     -23.051 -14.746  43.502  1.00  0.00     0.000 C 
BRANCH   2   3
ATOM      3  C   UNL     1     -22.486 -14.361  42.129  1.00  0.00     0.000 C 
BRANCH   3   4
ATOM      4  C   UNL     1     -20.980 -14.643  42.055  1.00  0.00     0.000 C 
BRANCH   4   5
ATOM      5  C   UNL     1     -20.169 -13.458  42.595  1.00  0.00     0.000 C 
BRANCH   5   6
ATOM      6  C   UNL     1     -19.588 -12.570  41.481  1.00  0.00     0.000 C 
BRANCH   6   7
ATOM      7  C   UNL     1     -19.676 -13.200  40.075  1.00  0.00     0.000 C 
BRANCH   7   8
ATOM      8  C   UNL     1     -19.775 -12.139  38.967  1.00  0.00     0.000 C 
BRANCH   8   9
ATOM      9  C   UNL     1     -21.178 -12.123  38.343  1.00  0.00     0.000 C 
BRANCH   9  10
ATOM     10  C   UNL     1     -22.161 -11.202  39.088  1.00  0.00     0.006 C 
BRANCH  10  11
ATOM     11  C   UNL     1     -23.428 -11.917  39.593  1.00  0.00     0.053 C 
BRANCH  11  12
ATOM     12  C   UNL     1     -23.918 -12.970  38.645  1.00  0.00     0.041 C 
ATOM     13  O   UNL     1     -24.619 -12.653  37.648  1.00  0.00    -0.550 OA
ATOM     14  O   UNL     1     -23.566 -14.300  38.841  1.00  0.00    -0.550 OA
ENDBRANCH  11  12
ENDBRANCH  10  11
ENDBRANCH   9  10
ENDBRANCH   8   9
ENDBRANCH   7   8
ENDBRANCH   6   7
ENDBRANCH   5   6
ENDBRANCH   4   5
ENDBRANCH   3   4
ENDBRANCH   2   3
ENDBRANCH   1   2
BRANCH   1  15
ATOM     15  C   UNL     1     -21.931 -16.092  45.374  1.00  0.00     0.000 C 
BRANCH  15  16
ATOM     16  C   UNL     1     -22.449 -14.939  46.254  1.00  0.00     0.000 C 
BRANCH  16  17
ATOM     17  C   UNL     1     -22.871 -15.409  47.658  1.00  0.00     0.000 C 
BRANCH  17  18
ATOM     18  C   UNL     1     -23.685 -14.350  48.416  1.00  0.00    -0.000 C 
BRANCH  18  19
ATOM     19  C   UNL     1     -25.194 -14.641  48.412  1.00  0.00    -0.000 C 
BRANCH  19  20
ATOM     20  C   UNL     1     -25.979 -13.440  47.870  1.00  0.00    -0.000 C 
BRANCH  20  21
ATOM     21  C   UNL     1     -25.077 -12.517  47.043  1.00  0.00    -0.000 C 
BRANCH  21  22
ATOM     22  C   UNL     1     -25.665 -12.280  45.645  1.00  0.00    -0.000 C 
BRANCH  22  23
ATOM     23  C   UNL     1     -26.568 -13.445  45.184  1.00  0.00    -0.000 C 
BRANCH  23  24
ATOM     24  C   UNL     1     -27.837 -12.986  44.440  1.00  0.00    -0.000 C 
BRANCH  24  25
ATOM     25  C   UNL     1     -29.069 -13.879  44.660  1.00  0.00    -0.003 C 
ATOM     26  C   UNL     1     -28.991 -14.689  45.953  1.00  0.00     0.004 C 
ENDBRANCH  24  25
ENDBRANCH  23  24
ENDBRANCH  22  23
ENDBRANCH  21  22
ENDBRANCH  20  21
ENDBRANCH  19  20
ENDBRANCH  18  19
ENDBRANCH  17  18
ENDBRANCH  16  17
ENDBRANCH  15  16
ENDBRANCH   1  15
TORSDOF 22
ENDMDL
MODEL 7
REMARK VINA RESULT:    -4.282      6.382     10.539
REMARK INTER + INTRA:         -11.150
REMARK INTER:                  -9.032
REMARK INTRA:                  -2.118
REMARK UNBOUND:                -1.360
REMARK SMILES CCCCCCCCCCCCCCCCCCCCCCCC(=O)[O-]
REMARK SMILES IDX 13 1 14 2 15 3 16 4 17 5 18 6 19 7 20 8 21 9 22 10 23 11
REMARK SMILES IDX 24 12 25 13 26 14 12 15 11 16 10 17 9 18 8 19 7 20 6 21 5 22
REMARK SMILES IDX 4 23 3 24 2 25 1 26
REMARK H PARENT
REMARK Flexibility Score: inf
ROOT
ATOM      1  C   UNL     1     -25.431 -10.342  42.294  1.00  0.00     0.000 C 
ENDROOT
BRANCH   1   2
ATOM      2  C   UNL     1     -26.019  -9.723  43.571  1.00  0.00     0.000 C 
BRANCH   2   3
ATOM      3  C   UNL     1     -25.938 -10.707  44.745  1.00  0.00     0.000 C 
BRANCH   3   4
ATOM      4  C   UNL     1     -25.732 -12.142  44.247  1.00  0.00     0.000 C 
BRANCH   4   5
ATOM      5  C   UNL     1     -26.683 -13.116  44.956  1.00  0.00     0.000 C 
BRANCH   5   6
ATOM      6  C   UNL     1     -28.143 -12.969  44.495  1.00  0.00     0.000 C 
BRANCH   6   7
ATOM      7  C   UNL     1     -28.998 -14.233  44.724  1.00  0.00     0.000 C 
BRANCH   7   8
ATOM      8  C   UNL     1     -29.610 -14.276  46.134  1.00  0.00     0.000 C 
BRANCH   8   9
ATOM      9  C   UNL     1     -29.058 -15.461  46.939  1.00  0.00     0.000 C 
BRANCH   9  10
ATOM     10  C   UNL     1     -28.559 -15.061  48.339  1.00  0.00     0.006 C 
BRANCH  10  11
ATOM     11  C   UNL     1     -27.105 -14.556  48.364  1.00  0.00     0.053 C 
BRANCH  11  12
ATOM     12  C   UNL     1     -26.750 -13.873  49.651  1.00  0.00     0.041 C 
ATOM     13  O   UNL     1     -25.974 -14.428  50.474  1.00  0.00    -0.550 OA
ATOM     14  O   UNL     1     -27.244 -12.603  49.923  1.00  0.00    -0.550 OA
ENDBRANCH  11  12
ENDBRANCH  10  11
ENDBRANCH   9  10
ENDBRANCH   8   9
ENDBRANCH   7   8
ENDBRANCH   6   7
ENDBRANCH   5   6
ENDBRANCH   4   5
ENDBRANCH   3   4
ENDBRANCH   2   3
ENDBRANCH   1   2
BRANCH   1  15
ATOM     15  C   UNL     1     -25.572  -9.421  41.066  1.00  0.00     0.000 C 
BRANCH  15  16
ATOM     16  C   UNL     1     -24.385  -9.485  40.087  1.00  0.00     0.000 C 
BRANCH  16  17
ATOM     17  C   UNL     1     -23.735 -10.879  40.033  1.00  0.00     0.000 C 
BRANCH  17  18
ATOM     18  C   UNL     1     -22.608 -10.968  38.993  1.00  0.00    -0.000 C 
BRANCH  18  19
ATOM     19  C   UNL     1     -22.813 -12.110  37.986  1.00  0.00    -0.000 C 
BRANCH  19  20
ATOM     20  C   UNL     1     -24.082 -12.906  38.315  1.00  0.00    -0.000 C 
BRANCH  20  21
ATOM     21  C   UNL     1     -23.747 -14.183  39.095  1.00  0.00    -0.000 C 
BRANCH  21  22
ATOM     22  C   UNL     1     -22.348 -14.700  38.732  1.00  0.00    -0.000 C 
BRANCH  22  23
ATOM     23  C   UNL     1     -21.343 -14.539  39.894  1.00  0.00    -0.000 C 
BRANCH  23  24
ATOM     24  C   UNL     1     -21.976 -13.989  41.187  1.00  0.00    -0.000 C 
BRANCH  24  25
ATOM     25  C   UNL     1     -22.222 -15.042  42.280  1.00  0.00    -0.003 C 
ATOM     26  C   UNL     1     -23.419 -14.706  43.169  1.00  0.00     0.004 C 
ENDBRANCH  24  25
ENDBRANCH  23  24
ENDBRANCH  22  23
ENDBRANCH  21  22
ENDBRANCH  20  21
ENDBRANCH  19  20
ENDBRANCH  18  19
ENDBRANCH  17  18
ENDBRANCH  16  17
ENDBRANCH  15  16
ENDBRANCH   1  15
TORSDOF 22
ENDMDL
MODEL 8
REMARK VINA RESULT:    -4.232     10.764     14.634
REMARK INTER + INTRA:         -11.035
REMARK INTER:                  -7.027
REMARK INTRA:                  -4.008
REMARK UNBOUND:                -1.360
REMARK SMILES CCCCCCCCCCCCCCCCCCCCCCCC(=O)[O-]
REMARK SMILES IDX 13 1 14 2 15 3 16 4 17 5 18 6 19 7 20 8 21 9 22 10 23 11
REMARK SMILES IDX 24 12 25 13 26 14 12 15 11 16 10 17 9 18 8 19 7 20 6 21 5 22
REMARK SMILES IDX 4 23 3 24 2 25 1 26
REMARK H PARENT
REMARK Flexibility Score: inf
ROOT
ATOM      1  C   UNL     1     -26.004 -12.338  45.385  1.00  0.00     0.000 C 
ENDROOT
BRANCH   1   2
ATOM      2  C   UNL     1     -26.901 -13.313  44.608  1.00  0.00     0.000 C 
BRANCH   2   3
ATOM      3  C   UNL     1     -28.312 -12.737  44.429  1.00  0.00     0.000 C 
BRANCH   3   4
ATOM      4  C   UNL     1     -29.376 -13.831  44.578  1.00  0.00     0.000 C 
BRANCH   4   5
ATOM      5  C   UNL     1     -29.035 -14.781  45.735  1.00  0.00     0.000 C 
BRANCH   5   6
ATOM      6  C   UNL     1     -29.848 -14.490  47.008  1.00  0.00     0.000 C 
BRANCH   6   7
ATOM      7  C   UNL     1     -29.812 -15.635  48.043  1.00  0.00     0.000 C 
BRANCH   7   8
ATOM      8  C   UNL     1     -28.775 -15.388  49.150  1.00  0.00     0.000 C 
BRANCH   8   9
ATOM      9  C   UNL     1     -29.457 -15.157  50.505  1.00  0.00     0.000 C 
BRANCH   9  10
ATOM     10  C   UNL     1     -29.107 -13.797  51.135  1.00  0.00     0.006 C 
BRANCH  10  11
ATOM     11  C   UNL     1     -29.393 -12.592  50.220  1.00  0.00     0.053 C 
BRANCH  11  12
ATOM     12  C   UNL     1     -29.127 -11.277  50.891  1.00  0.00     0.041 C 
ATOM     13  O   UNL     1     -27.945 -10.909  51.125  1.00  0.00    -0.550 OA
ATOM     14  O   UNL     1     -30.185 -10.440  51.223  1.00  0.00    -0.550 OA
ENDBRANCH  11  12
ENDBRANCH  10  11
ENDBRANCH   9  10
ENDBRANCH   8   9
ENDBRANCH   7   8
ENDBRANCH   6   7
ENDBRANCH   5   6
ENDBRANCH   4   5
ENDBRANCH   3   4
ENDBRANCH   2   3
ENDBRANCH   1   2
BRANCH   1  15
ATOM     15  C   UNL     1     -25.227 -13.023  46.526  1.00  0.00     0.000 C 
BRANCH  15  16
ATOM     16  C   UNL     1     -26.115 -13.561  47.664  1.00  0.00     0.000 C 
BRANCH  16  17
ATOM     17  C   UNL     1     -25.830 -12.877  49.013  1.00  0.00     0.000 C 
BRANCH  17  18
ATOM     18  C   UNL     1     -25.168 -13.822  50.027  1.00  0.00    -0.000 C 
BRANCH  18  19
ATOM     19  C   UNL     1     -25.155 -15.285  49.559  1.00  0.00    -0.000 C 
BRANCH  19  20
ATOM     20  C   UNL     1     -23.728 -15.739  49.226  1.00  0.00    -0.000 C 
BRANCH  20  21
ATOM     21  C   UNL     1     -22.723 -14.601  49.438  1.00  0.00    -0.000 C 
BRANCH  21  22
ATOM     22  C   UNL     1     -22.110 -14.152  48.104  1.00  0.00    -0.000 C 
BRANCH  22  23
ATOM     23  C   UNL     1     -21.773 -12.645  48.091  1.00  0.00    -0.000 C 
BRANCH  23  24
ATOM     24  C   UNL     1     -22.146 -11.916  49.396  1.00  0.00    -0.000 C 
BRANCH  24  25
ATOM     25  C   UNL     1     -22.911 -10.597  49.200  1.00  0.00    -0.003 C 
ATOM     26  C   UNL     1     -22.994 -10.172  47.734  1.00  0.00     0.004 C 
ENDBRANCH  24  25
ENDBRANCH  23  24
ENDBRANCH  22  23
ENDBRANCH  21  22
ENDBRANCH  20  21
ENDBRANCH  19  20
ENDBRANCH  18  19
ENDBRANCH  17  18
ENDBRANCH  16  17
ENDBRANCH  15  16
ENDBRANCH   1  15
TORSDOF 22
ENDMDL
MODEL 9
REMARK VINA RESULT:    -4.161     10.688     14.797
REMARK INTER + INTRA:         -10.871
REMARK INTER:                  -7.362
REMARK INTRA:                  -3.509
REMARK UNBOUND:                -1.360
REMARK SMILES CCCCCCCCCCCCCCCCCCCCCCCC(=O)[O-]
REMARK SMILES IDX 13 1 14 2 15 3 16 4 17 5 18 6 19 7 20 8 21 9 22 10 23 11
REMARK SMILES IDX 24 12 25 13 26 14 12 15 11 16 10 17 9 18 8 19 7 20 6 21 5 22
REMARK SMILES IDX 4 23 3 24 2 25 1 26
REMARK H PARENT
REMARK Flexibility Score: inf
ROOT
ATOM      1  C   UNL     1     -28.216 -12.528  44.254  1.00  0.00     0.000 C 
ENDROOT
BRANCH   1   2
ATOM      2  C   UNL     1     -29.424 -13.403  44.624  1.00  0.00     0.000 C 
BRANCH   2   3
ATOM      3  C   UNL     1     -28.978 -14.667  45.369  1.00  0.00     0.000 C 
BRANCH   3   4
ATOM      4  C   UNL     1     -29.496 -14.667  46.812  1.00  0.00     0.000 C 
BRANCH   4   5
ATOM      5  C   UNL     1     -28.627 -15.555  47.712  1.00  0.00     0.000 C 
BRANCH   5   6
ATOM      6  C   UNL     1     -27.529 -14.770  48.450  1.00  0.00     0.000 C 
BRANCH   6   7
ATOM      7  C   UNL     1     -26.564 -15.661  49.260  1.00  0.00     0.000 C 
BRANCH   7   8
ATOM      8  C   UNL     1     -26.436 -15.203  50.721  1.00  0.00     0.000 C 
BRANCH   8   9
ATOM      9  C   UNL     1     -27.336 -13.990  51.001  1.00  0.00     0.000 C 
BRANCH   9  10
ATOM     10  C   UNL     1     -28.605 -14.349  51.794  1.00  0.00     0.006 C 
BRANCH  10  11
ATOM     11  C   UNL     1     -29.554 -13.159  52.028  1.00  0.00     0.053 C 
BRANCH  11  12
ATOM     12  C   UNL     1     -29.909 -12.441  50.761  1.00  0.00     0.041 C 
ATOM     13  O   UNL     1     -30.519 -13.043  49.837  1.00  0.00    -0.550 OA
ATOM     14  O   UNL     1     -29.601 -11.094  50.615  1.00  0.00    -0.550 OA
ENDBRANCH  11  12
ENDBRANCH  10  11
ENDBRANCH   9  10
ENDBRANCH   8   9
ENDBRANCH   7   8
ENDBRANCH   6   7
ENDBRANCH   5   6
ENDBRANCH   4   5
ENDBRANCH   3   4
ENDBRANCH   2   3
ENDBRANCH   1   2
BRANCH   1  15
ATOM     15  C   UNL     1     -26.870 -13.186  44.617  1.00  0.00     0.000 C 
BRANCH  15  16
ATOM     16  C   UNL     1     -25.955 -12.312  45.494  1.00  0.00     0.000 C 
BRANCH  16  17
ATOM     17  C   UNL     1     -25.060 -13.144  46.430  1.00  0.00     0.000 C 
BRANCH  17  18
ATOM     18  C   UNL     1     -24.612 -12.360  47.673  1.00  0.00    -0.000 C 
BRANCH  18  19
ATOM     19  C   UNL     1     -23.736 -13.194  48.621  1.00  0.00    -0.000 C 
BRANCH  19  20
ATOM     20  C   UNL     1     -23.902 -12.724  50.071  1.00  0.00    -0.000 C 
BRANCH  20  21
ATOM     21  C   UNL     1     -24.792 -11.478  50.151  1.00  0.00    -0.000 C 
BRANCH  21  22
ATOM     22  C   UNL     1     -24.520 -10.687  51.438  1.00  0.00    -0.000 C 
BRANCH  22  23
ATOM     23  C   UNL     1     -23.013 -10.597  51.763  1.00  0.00    -0.000 C 
BRANCH  23  24
ATOM     24  C   UNL     1     -22.321  -9.364  51.152  1.00  0.00    -0.000 C 
BRANCH  24  25
ATOM     25  C   UNL     1     -21.189  -9.686  50.163  1.00  0.00    -0.003 C 
ATOM     26  C   UNL     1     -21.698  -9.972  48.750  1.00  0.00     0.004 C 
ENDBRANCH  24  25
ENDBRANCH  23  24
ENDBRANCH  22  23
ENDBRANCH  21  22
ENDBRANCH  20  21
ENDBRANCH  19  20
ENDBRANCH  18  19
ENDBRANCH  17  18
ENDBRANCH  16  17
ENDBRANCH  15  16
ENDBRANCH   1  15
TORSDOF 22
ENDMDL
