MODEL 1
REMARK VINA RESULT:    97.855      0.000      0.000
REMARK INTER + INTRA:         106.180
REMARK INTER:                 106.436
REMARK INTRA:                  -0.256
REMARK UNBOUND:                -0.256
REMARK SMILES C[C@H]1[C@H](C)CC[C@]2(C(=O)[O-])CC[C@@]3(C)C(=CC[C@H]4[C@]5(C)CC[C@H](O)C(C)(C)[C@@H]5CC[C@]43C)[C@H]12
REMARK SMILES IDX 7 1 6 2 11 3 33 4 5 5 12 6 15 7 2 8 3 9 13 10 16 11 1 12
REMARK SMILES IDX 4 13 14 14 31 15 17 16 18 17 30 18 32 19 19 20 29 21 28 22
REMARK SMILES IDX 21 23 20 24 25 25 22 26 23 27 26 28 27 29 8 30 9 31 10 32
REMARK SMILES IDX 24 33
REMARK H PARENT 24 34
REMARK Flexibility Score: inf
ROOT
ATOM      1  C   UNL     1     -15.872   2.544 -17.898  1.00  0.00     0.017 C 
ATOM      2  C   UNL     1     -17.156   3.358 -18.269  1.00  0.00     0.014 C 
ATOM      3  C   UNL     1     -15.849   1.246 -18.791  1.00  0.00     0.014 C 
ATOM      4  C   UNL     1     -15.839   2.218 -16.337  1.00  0.00     0.030 C 
ATOM      5  C   UNL     1     -17.588   4.281 -17.134  1.00  0.00     0.004 C 
ATOM      6  C   UNL     1     -15.752  -0.079 -18.016  1.00  0.00     0.013 C 
ATOM      7  C   UNL     1     -14.868   1.056 -15.995  1.00  0.00    -0.063 C 
ATOM      8  C   UNL     1     -17.299   2.094 -15.764  1.00  0.00    -0.003 C 
ATOM      9  C   UNL     1     -18.073   3.451 -15.920  1.00  0.00    -0.011 C 
ATOM     10  C   UNL     1     -14.588  -0.076 -16.974  1.00  0.00    -0.006 C 
ATOM     11  C   UNL     1     -14.127   1.105 -14.871  1.00  0.00    -0.027 C 
ATOM     12  C   UNL     1     -17.354   1.643 -14.292  1.00  0.00     0.008 C 
ATOM     13  C   UNL     1     -19.593   3.217 -16.015  1.00  0.00     0.008 C 
ATOM     14  C   UNL     1     -13.260   0.254 -17.745  1.00  0.00     0.017 C 
ATOM     15  C   UNL     1     -14.430  -1.466 -16.164  1.00  0.00    -0.020 C 
ATOM     16  C   UNL     1     -13.040   0.103 -14.555  1.00  0.00     0.032 C 
ATOM     17  C   UNL     1     -13.232  -1.362 -15.119  1.00  0.00     0.006 C 
ATOM     18  C   UNL     1     -15.733  -1.853 -15.353  1.00  0.00     0.008 C 
ATOM     19  C   UNL     1     -14.116  -2.600 -17.225  1.00  0.00     0.012 C 
ATOM     20  C   UNL     1     -13.230  -2.456 -13.948  1.00  0.00    -0.025 C 
ATOM     21  C   UNL     1     -15.698  -1.652 -13.816  1.00  0.00     0.005 C 
ATOM     22  C   UNL     1     -14.479  -2.228 -13.014  1.00  0.00     0.003 C 
ATOM     23  C   UNL     1     -13.264  -3.915 -14.515  1.00  0.00     0.010 C 
ATOM     24  C   UNL     1     -11.876  -2.283 -13.172  1.00  0.00     0.012 C 
ATOM     25  C   UNL     1     -14.793  -3.400 -11.968  1.00  0.00    -0.006 C 
ATOM     26  C   UNL     1     -13.437  -5.018 -13.461  1.00  0.00     0.033 C 
ATOM     27  C   UNL     1     -14.701  -4.825 -12.608  1.00  0.00     0.120 C 
ATOM     28  C   UNL     1     -13.781  -3.333 -10.784  1.00  0.00     0.014 C 
ATOM     29  C   UNL     1     -16.186  -3.226 -11.293  1.00  0.00     0.014 C 
ENDROOT
BRANCH   1  30
ATOM     30  C   UNL     1     -14.678   3.421 -18.283  1.00  0.00     0.048 C 
ATOM     31  O   UNL     1     -14.108   3.313 -19.402  1.00  0.00    -0.550 OA
ATOM     32  O   UNL     1     -14.197   4.368 -17.384  1.00  0.00    -0.550 OA
ENDBRANCH   1  30
BRANCH  27  33
ATOM     33  O   UNL     1     -15.847  -5.181 -13.340  1.00  0.00    -0.393 OA
ATOM     34  H   UNL     1     -16.408  -5.757 -12.768  1.00  0.00     0.210 HD
ENDBRANCH  27  33
TORSDOF 2
ENDMDL
MODEL 2
REMARK VINA RESULT:   100.572      1.873      3.235
REMARK INTER + INTRA:         109.135
REMARK INTER:                 108.732
REMARK INTRA:                   0.403
REMARK UNBOUND:                -0.256
REMARK SMILES C[C@H]1[C@H](C)CC[C@]2(C(=O)[O-])CC[C@@]3(C)C(=CC[C@H]4[C@]5(C)CC[C@H](O)C(C)(C)[C@@H]5CC[C@]43C)[C@H]12
REMARK SMILES IDX 7 1 6 2 11 3 33 4 5 5 12 6 15 7 2 8 3 9 13 10 16 11 1 12
REMARK SMILES IDX 4 13 14 14 31 15 17 16 18 17 30 18 32 19 19 20 29 21 28 22
REMARK SMILES IDX 21 23 20 24 25 25 22 26 23 27 26 28 27 29 8 30 9 31 10 32
REMARK SMILES IDX 24 33
REMARK H PARENT 24 34
REMARK Flexibility Score: inf
ROOT
ATOM      1  C   UNL     1     -14.150  -0.603 -17.954  1.00  0.00     0.017 C 
ATOM      2  C   UNL     1     -14.914   0.562 -18.667  1.00  0.00     0.014 C 
ATOM      3  C   UNL     1     -15.024  -1.907 -18.090  1.00  0.00     0.014 C 
ATOM      4  C   UNL     1     -13.836  -0.228 -16.436  1.00  0.00     0.030 C 
ATOM      5  C   UNL     1     -14.492   1.926 -18.132  1.00  0.00     0.004 C 
ATOM      6  C   UNL     1     -15.371  -2.602 -16.762  1.00  0.00     0.013 C 
ATOM      7  C   UNL     1     -13.509  -1.477 -15.573  1.00  0.00    -0.063 C 
ATOM      8  C   UNL     1     -14.935   0.743 -15.864  1.00  0.00    -0.003 C 
ATOM      9  C   UNL     1     -14.950   2.094 -16.663  1.00  0.00    -0.011 C 
ATOM     10  C   UNL     1     -14.114  -2.842 -15.868  1.00  0.00    -0.006 C 
ATOM     11  C   UNL     1     -12.553  -1.410 -14.626  1.00  0.00    -0.027 C 
ATOM     12  C   UNL     1     -14.780   1.042 -14.361  1.00  0.00     0.008 C 
ATOM     13  C   UNL     1     -16.344   2.751 -16.618  1.00  0.00     0.008 C 
ATOM     14  C   UNL     1     -13.079  -3.669 -16.713  1.00  0.00     0.017 C 
ATOM     15  C   UNL     1     -14.434  -3.604 -14.479  1.00  0.00    -0.020 C 
ATOM     16  C   UNL     1     -12.060  -2.620 -13.866  1.00  0.00     0.032 C 
ATOM     17  C   UNL     1     -13.097  -3.790 -13.631  1.00  0.00     0.006 C 
ATOM     18  C   UNL     1     -15.464  -2.816 -13.571  1.00  0.00     0.008 C 
ATOM     19  C   UNL     1     -15.035  -5.024 -14.844  1.00  0.00     0.012 C 
ATOM     20  C   UNL     1     -13.298  -4.106 -12.073  1.00  0.00    -0.025 C 
ATOM     21  C   UNL     1     -14.896  -2.073 -12.334  1.00  0.00     0.005 C 
ATOM     22  C   UNL     1     -13.946  -2.857 -11.363  1.00  0.00     0.003 C 
ATOM     23  C   UNL     1     -14.203  -5.362 -11.845  1.00  0.00     0.010 C 
ATOM     24  C   UNL     1     -11.876  -4.438 -11.495  1.00  0.00     0.012 C 
ATOM     25  C   UNL     1     -14.479  -3.099  -9.872  1.00  0.00    -0.006 C 
ATOM     26  C   UNL     1     -14.585  -5.632 -10.383  1.00  0.00     0.033 C 
ATOM     27  C   UNL     1     -15.286  -4.432  -9.726  1.00  0.00     0.120 C 
ATOM     28  C   UNL     1     -13.275  -3.150  -8.883  1.00  0.00     0.014 C 
ATOM     29  C   UNL     1     -15.348  -1.912  -9.359  1.00  0.00     0.014 C 
ENDROOT
BRANCH   1  30
ATOM     30  C   UNL     1     -12.847  -0.806 -18.731  1.00  0.00     0.048 C 
ATOM     31  O   UNL     1     -12.385  -1.956 -18.964  1.00  0.00    -0.550 OA
ATOM     32  O   UNL     1     -12.142   0.298 -19.200  1.00  0.00    -0.550 OA
ENDBRANCH   1  30
BRANCH  27  33
ATOM     33  O   UNL     1     -16.615  -4.332 -10.177  1.00  0.00    -0.393 OA
ATOM     34  H   UNL     1     -16.600  -4.288 -11.163  1.00  0.00     0.210 HD
ENDBRANCH  27  33
TORSDOF 2
ENDMDL
