MODEL 1
REMARK VINA RESULT:    -6.720      0.000      0.000
REMARK INTER + INTRA:          -7.959
REMARK INTER:                  -8.095
REMARK INTRA:                   0.136
REMARK UNBOUND:                 0.136
REMARK SMILES O=c1c(O)c(-c2ccc(O)c(O)c2)oc2cc(O)cc(O)c12
REMARK SMILES IDX 5 1 3 2 2 3 1 4 22 5 20 6 19 7 17 8 16 9 15 10 14 11 6 12
REMARK SMILES IDX 7 13 8 14 9 15 13 16 11 17 10 18 12 20 4 22 21 24 18 26
REMARK H PARENT 10 19 12 21 4 23 21 25 18 27
REMARK Flexibility Score: inf
ROOT
ATOM      1  C   UNL     1      88.934  94.681  69.859  1.00  0.00     0.180 A 
ATOM      2  C   UNL     1      88.772  96.010  70.290  1.00  0.00     0.208 A 
ATOM      3  C   UNL     1      88.073  96.910  69.471  1.00  0.00     0.238 A 
ATOM      4  O   UNL     1      87.978  98.112  69.837  1.00  0.00    -0.285 OA
ATOM      5  C   UNL     1      87.530  96.469  68.240  1.00  0.00     0.111 A 
ATOM      6  C   UNL     1      86.769  97.285  67.351  1.00  0.00     0.134 A 
ATOM      7  C   UNL     1      86.394  96.780  66.100  1.00  0.00     0.093 A 
ATOM      8  C   UNL     1      86.695  95.465  65.734  1.00  0.00     0.123 A 
ATOM      9  C   UNL     1      87.386  94.642  66.620  1.00  0.00     0.094 A 
ATOM     10  C   UNL     1      87.805  95.130  67.860  1.00  0.00     0.146 A 
ATOM     11  O   UNL     1      88.470  94.314  68.671  1.00  0.00    -0.452 OA
ENDROOT
BRANCH   1  12
ATOM     12  C   UNL     1      89.637  93.668  70.679  1.00  0.00     0.025 A 
ATOM     13  C   UNL     1      89.081  92.386  70.818  1.00  0.00     0.016 A 
ATOM     14  C   UNL     1      89.716  91.420  71.604  1.00  0.00     0.051 A 
ATOM     15  C   UNL     1      90.907  91.728  72.274  1.00  0.00     0.157 A 
ATOM     16  C   UNL     1      90.821  93.978  71.370  1.00  0.00     0.062 A 
ATOM     17  C   UNL     1      91.458  93.011  72.160  1.00  0.00     0.158 A 
BRANCH  15  18
ATOM     18  O   UNL     1      91.546  90.768  73.056  1.00  0.00    -0.504 OA
ATOM     19  H   UNL     1      91.624  90.870  74.061  1.00  0.00     0.293 HD
ENDBRANCH  15  18
BRANCH  17  20
ATOM     20  O   UNL     1      92.636  93.318  72.839  1.00  0.00    -0.504 OA
ATOM     21  H   UNL     1      93.087  92.647  73.450  1.00  0.00     0.293 HD
ENDBRANCH  17  20
ENDBRANCH   1  12
BRANCH   2  22
ATOM     22  O   UNL     1      89.335  96.430  71.498  1.00  0.00    -0.502 OA
ATOM     23  H   UNL     1      88.871  96.298  72.389  1.00  0.00     0.293 HD
ENDBRANCH   2  22
BRANCH   6  24
ATOM     24  O   UNL     1      86.336  98.579  67.656  1.00  0.00    -0.507 OA
ATOM     25  H   UNL     1      85.386  98.828  67.885  1.00  0.00     0.293 HD
ENDBRANCH   6  24
BRANCH   8  26
ATOM     26  O   UNL     1      86.304  94.965  64.494  1.00  0.00    -0.508 OA
ATOM     27  H   UNL     1      86.983  94.694  63.793  1.00  0.00     0.293 HD
ENDBRANCH   8  26
TORSDOF 6
ENDMDL
MODEL 2
REMARK VINA RESULT:    -6.627      1.398      6.682
REMARK INTER + INTRA:          -7.847
REMARK INTER:                  -7.579
REMARK INTRA:                  -0.268
REMARK UNBOUND:                 0.136
REMARK SMILES O=c1c(O)c(-c2ccc(O)c(O)c2)oc2cc(O)cc(O)c12
REMARK SMILES IDX 5 1 3 2 2 3 1 4 22 5 20 6 19 7 17 8 16 9 15 10 14 11 6 12
REMARK SMILES IDX 7 13 8 14 9 15 13 16 11 17 10 18 12 20 4 22 21 24 18 26
REMARK H PARENT 10 19 12 21 4 23 21 25 18 27
REMARK Flexibility Score: inf
ROOT
ATOM      1  C   UNL     1      87.774  94.603  69.103  1.00  0.00     0.180 A 
ATOM      2  C   UNL     1      88.096  95.624  70.014  1.00  0.00     0.208 A 
ATOM      3  C   UNL     1      89.050  95.370  71.012  1.00  0.00     0.238 A 
ATOM      4  O   UNL     1      89.295  96.271  71.857  1.00  0.00    -0.285 OA
ATOM      5  C   UNL     1      89.683  94.106  71.076  1.00  0.00     0.111 A 
ATOM      6  C   UNL     1      90.694  93.752  72.020  1.00  0.00     0.134 A 
ATOM      7  C   UNL     1      91.155  92.431  72.076  1.00  0.00     0.093 A 
ATOM      8  C   UNL     1      90.689  91.467  71.178  1.00  0.00     0.123 A 
ATOM      9  C   UNL     1      89.747  91.817  70.215  1.00  0.00     0.094 A 
ATOM     10  C   UNL     1      89.241  93.118  70.158  1.00  0.00     0.146 A 
ATOM     11  O   UNL     1      88.336  93.407  69.231  1.00  0.00    -0.452 OA
ENDROOT
BRANCH   1  12
ATOM     12  C   UNL     1      86.796  94.803  68.009  1.00  0.00     0.025 A 
ATOM     13  C   UNL     1      85.422  94.767  68.296  1.00  0.00     0.016 A 
ATOM     14  C   UNL     1      84.481  94.932  67.276  1.00  0.00     0.051 A 
ATOM     15  C   UNL     1      84.901  95.119  65.953  1.00  0.00     0.157 A 
ATOM     16  C   UNL     1      87.212  94.971  66.676  1.00  0.00     0.062 A 
ATOM     17  C   UNL     1      86.269  95.135  65.652  1.00  0.00     0.158 A 
BRANCH  15  18
ATOM     18  O   UNL     1      83.966  95.287  64.932  1.00  0.00    -0.504 OA
ATOM     19  H   UNL     1      83.253  94.592  64.748  1.00  0.00     0.293 HD
ENDBRANCH  15  18
BRANCH  17  20
ATOM     20  O   UNL     1      86.683  95.308  64.332  1.00  0.00    -0.504 OA
ATOM     21  H   UNL     1      86.996  94.527  63.768  1.00  0.00     0.293 HD
ENDBRANCH  17  20
ENDBRANCH   1  12
BRANCH   2  22
ATOM     22  O   UNL     1      87.444  96.858  69.945  1.00  0.00    -0.502 OA
ATOM     23  H   UNL     1      87.862  97.714  70.290  1.00  0.00     0.293 HD
ENDBRANCH   2  22
BRANCH   6  24
ATOM     24  O   UNL     1      91.292  94.660  72.900  1.00  0.00    -0.507 OA
ATOM     25  H   UNL     1      91.453  95.635  72.697  1.00  0.00     0.293 HD
ENDBRANCH   6  24
BRANCH   8  26
ATOM     26  O   UNL     1      91.166  90.159  71.231  1.00  0.00    -0.508 OA
ATOM     27  H   UNL     1      91.472  89.740  72.101  1.00  0.00     0.293 HD
ENDBRANCH   8  26
TORSDOF 6
ENDMDL
MODEL 3
REMARK VINA RESULT:    -6.524      3.118      5.953
REMARK INTER + INTRA:          -7.724
REMARK INTER:                  -7.411
REMARK INTRA:                  -0.313
REMARK UNBOUND:                 0.136
REMARK SMILES O=c1c(O)c(-c2ccc(O)c(O)c2)oc2cc(O)cc(O)c12
REMARK SMILES IDX 5 1 3 2 2 3 1 4 22 5 20 6 19 7 17 8 16 9 15 10 14 11 6 12
REMARK SMILES IDX 7 13 8 14 9 15 13 16 11 17 10 18 12 20 4 22 21 24 18 26
REMARK H PARENT 10 19 12 21 4 23 21 25 18 27
REMARK Flexibility Score: inf
ROOT
ATOM      1  C   UNL     1      91.093  90.499  72.869  1.00  0.00     0.180 A 
ATOM      2  C   UNL     1      91.744  91.521  73.584  1.00  0.00     0.208 A 
ATOM      3  C   UNL     1      91.501  92.858  73.233  1.00  0.00     0.238 A 
ATOM      4  O   UNL     1      92.128  93.766  73.840  1.00  0.00    -0.285 OA
ATOM      5  C   UNL     1      90.598  93.159  72.185  1.00  0.00     0.111 A 
ATOM      6  C   UNL     1      90.246  94.479  71.773  1.00  0.00     0.134 A 
ATOM      7  C   UNL     1      89.444  94.657  70.639  1.00  0.00     0.093 A 
ATOM      8  C   UNL     1      88.927  93.562  69.942  1.00  0.00     0.123 A 
ATOM      9  C   UNL     1      89.217  92.270  70.372  1.00  0.00     0.094 A 
ATOM     10  C   UNL     1      90.044  92.060  71.479  1.00  0.00     0.146 A 
ATOM     11  O   UNL     1      90.303  90.811  71.849  1.00  0.00    -0.452 OA
ENDROOT
BRANCH   1  12
ATOM     12  C   UNL     1      91.279  89.067  73.197  1.00  0.00     0.025 A 
ATOM     13  C   UNL     1      90.528  88.493  74.235  1.00  0.00     0.016 A 
ATOM     14  C   UNL     1      90.703  87.148  74.575  1.00  0.00     0.051 A 
ATOM     15  C   UNL     1      91.643  86.365  73.893  1.00  0.00     0.157 A 
ATOM     16  C   UNL     1      92.236  88.282  72.529  1.00  0.00     0.062 A 
ATOM     17  C   UNL     1      92.413  86.934  72.871  1.00  0.00     0.158 A 
BRANCH  15  18
ATOM     18  O   UNL     1      91.819  85.023  74.227  1.00  0.00    -0.504 OA
ATOM     19  H   UNL     1      91.495  84.279  73.621  1.00  0.00     0.293 HD
ENDBRANCH  15  18
BRANCH  17  20
ATOM     20  O   UNL     1      93.357  86.154  72.204  1.00  0.00    -0.504 OA
ATOM     21  H   UNL     1      94.342  86.391  72.214  1.00  0.00     0.293 HD
ENDBRANCH  17  20
ENDBRANCH   1  12
BRANCH   2  22
ATOM     22  O   UNL     1      92.648  91.200  74.600  1.00  0.00    -0.502 OA
ATOM     23  H   UNL     1      92.378  90.671  75.421  1.00  0.00     0.293 HD
ENDBRANCH   2  22
BRANCH   6  24
ATOM     24  O   UNL     1      90.632  95.638  72.452  1.00  0.00    -0.507 OA
ATOM     25  H   UNL     1      90.016  96.406  72.673  1.00  0.00     0.293 HD
ENDBRANCH   6  24
BRANCH   8  26
ATOM     26  O   UNL     1      88.117  93.749  68.825  1.00  0.00    -0.508 OA
ATOM     27  H   UNL     1      88.057  94.646  68.356  1.00  0.00     0.293 HD
ENDBRANCH   8  26
TORSDOF 6
ENDMDL
MODEL 4
REMARK VINA RESULT:    -6.512      2.052      2.444
REMARK INTER + INTRA:          -7.709
REMARK INTER:                  -7.406
REMARK INTRA:                  -0.303
REMARK UNBOUND:                 0.136
REMARK SMILES O=c1c(O)c(-c2ccc(O)c(O)c2)oc2cc(O)cc(O)c12
REMARK SMILES IDX 5 1 3 2 2 3 1 4 22 5 20 6 19 7 17 8 16 9 15 10 14 11 6 12
REMARK SMILES IDX 7 13 8 14 9 15 13 16 11 17 10 18 12 20 4 22 21 24 18 26
REMARK H PARENT 10 19 12 21 4 23 21 25 18 27
REMARK Flexibility Score: inf
ROOT
ATOM      1  C   UNL     1      88.039  94.189  69.955  1.00  0.00     0.180 A 
ATOM      2  C   UNL     1      86.754  94.227  70.526  1.00  0.00     0.208 A 
ATOM      3  C   UNL     1      85.644  94.435  69.692  1.00  0.00     0.238 A 
ATOM      4  O   UNL     1      84.503  94.522  70.215  1.00  0.00    -0.285 OA
ATOM      5  C   UNL     1      85.830  94.585  68.296  1.00  0.00     0.111 A 
ATOM      6  C   UNL     1      84.774  94.760  67.353  1.00  0.00     0.134 A 
ATOM      7  C   UNL     1      85.082  95.030  66.014  1.00  0.00     0.093 A 
ATOM      8  C   UNL     1      86.407  95.066  65.572  1.00  0.00     0.123 A 
ATOM      9  C   UNL     1      87.443  94.838  66.475  1.00  0.00     0.094 A 
ATOM     10  C   UNL     1      87.168  94.602  67.824  1.00  0.00     0.146 A 
ATOM     11  O   UNL     1      88.186  94.399  68.653  1.00  0.00    -0.452 OA
ENDROOT
BRANCH   1  12
ATOM     12  C   UNL     1      89.254  93.950  70.767  1.00  0.00     0.025 A 
ATOM     13  C   UNL     1      89.768  92.647  70.873  1.00  0.00     0.016 A 
ATOM     14  C   UNL     1      90.902  92.395  71.651  1.00  0.00     0.051 A 
ATOM     15  C   UNL     1      91.527  93.438  72.345  1.00  0.00     0.157 A 
ATOM     16  C   UNL     1      89.873  94.990  71.482  1.00  0.00     0.062 A 
ATOM     17  C   UNL     1      91.010  94.737  72.263  1.00  0.00     0.158 A 
BRANCH  15  18
ATOM     18  O   UNL     1      92.659  93.192  73.119  1.00  0.00    -0.504 OA
ATOM     19  H   UNL     1      93.447  92.668  72.755  1.00  0.00     0.293 HD
ENDBRANCH  15  18
BRANCH  17  20
ATOM     20  O   UNL     1      91.627  95.771  72.967  1.00  0.00    -0.504 OA
ATOM     21  H   UNL     1      92.620  95.951  72.882  1.00  0.00     0.293 HD
ENDBRANCH  17  20
ENDBRANCH   1  12
BRANCH   2  22
ATOM     22  O   UNL     1      86.596  94.098  71.909  1.00  0.00    -0.502 OA
ATOM     23  H   UNL     1      86.724  94.876  72.545  1.00  0.00     0.293 HD
ENDBRANCH   2  22
BRANCH   6  24
ATOM     24  O   UNL     1      83.416  94.652  67.671  1.00  0.00    -0.507 OA
ATOM     25  H   UNL     1      82.682  94.475  67.002  1.00  0.00     0.293 HD
ENDBRANCH   6  24
BRANCH   8  26
ATOM     26  O   UNL     1      86.704  95.320  64.235  1.00  0.00    -0.508 OA
ATOM     27  H   UNL     1      87.432  95.972  63.967  1.00  0.00     0.293 HD
ENDBRANCH   8  26
TORSDOF 6
ENDMDL
MODEL 5
REMARK VINA RESULT:    -6.326      4.407      7.710
REMARK INTER + INTRA:          -7.484
REMARK INTER:                  -7.247
REMARK INTRA:                  -0.237
REMARK UNBOUND:                 0.136
REMARK SMILES O=c1c(O)c(-c2ccc(O)c(O)c2)oc2cc(O)cc(O)c12
REMARK SMILES IDX 5 1 3 2 2 3 1 4 22 5 20 6 19 7 17 8 16 9 15 10 14 11 6 12
REMARK SMILES IDX 7 13 8 14 9 15 13 16 11 17 10 18 12 20 4 22 21 24 18 26
REMARK H PARENT 10 19 12 21 4 23 21 25 18 27
REMARK Flexibility Score: inf
ROOT
ATOM      1  C   UNL     1      92.251  89.217  73.505  1.00  0.00     0.180 A 
ATOM      2  C   UNL     1      92.404  90.119  74.573  1.00  0.00     0.208 A 
ATOM      3  C   UNL     1      91.776  91.372  74.502  1.00  0.00     0.238 A 
ATOM      4  O   UNL     1      91.961  92.195  75.437  1.00  0.00    -0.285 OA
ATOM      5  C   UNL     1      90.988  91.702  73.373  1.00  0.00     0.111 A 
ATOM      6  C   UNL     1      90.274  92.928  73.214  1.00  0.00     0.134 A 
ATOM      7  C   UNL     1      89.635  93.201  71.999  1.00  0.00     0.093 A 
ATOM      8  C   UNL     1      89.628  92.265  70.961  1.00  0.00     0.123 A 
ATOM      9  C   UNL     1      90.273  91.043  71.129  1.00  0.00     0.094 A 
ATOM     10  C   UNL     1      90.950  90.756  72.317  1.00  0.00     0.146 A 
ATOM     11  O   UNL     1      91.561  89.582  72.431  1.00  0.00    -0.452 OA
ENDROOT
BRANCH   1  12
ATOM     12  C   UNL     1      92.862  87.869  73.518  1.00  0.00     0.025 A 
ATOM     13  C   UNL     1      94.245  87.736  73.313  1.00  0.00     0.016 A 
ATOM     14  C   UNL     1      94.841  86.471  73.300  1.00  0.00     0.051 A 
ATOM     15  C   UNL     1      94.059  85.322  73.477  1.00  0.00     0.157 A 
ATOM     16  C   UNL     1      92.080  86.711  73.674  1.00  0.00     0.062 A 
ATOM     17  C   UNL     1      92.676  85.442  73.660  1.00  0.00     0.158 A 
BRANCH  15  18
ATOM     18  O   UNL     1      94.649  84.059  73.468  1.00  0.00    -0.504 OA
ATOM     19  H   UNL     1      94.151  83.244  73.130  1.00  0.00     0.293 HD
ENDBRANCH  15  18
BRANCH  17  20
ATOM     20  O   UNL     1      91.900  84.296  73.822  1.00  0.00    -0.504 OA
ATOM     21  H   UNL     1      90.943  84.253  73.492  1.00  0.00     0.293 HD
ENDBRANCH  17  20
ENDBRANCH   1  12
BRANCH   2  22
ATOM     22  O   UNL     1      93.204  89.780  75.668  1.00  0.00    -0.502 OA
ATOM     23  H   UNL     1      92.826  89.356  76.507  1.00  0.00     0.293 HD
ENDBRANCH   2  22
BRANCH   6  24
ATOM     24  O   UNL     1      90.140  93.889  74.220  1.00  0.00    -0.507 OA
ATOM     25  H   UNL     1      90.880  94.499  74.534  1.00  0.00     0.293 HD
ENDBRANCH   6  24
BRANCH   8  26
ATOM     26  O   UNL     1      88.976  92.540  69.761  1.00  0.00    -0.508 OA
ATOM     27  H   UNL     1      88.692  91.800  69.130  1.00  0.00     0.293 HD
ENDBRANCH   8  26
TORSDOF 6
ENDMDL
MODEL 6
REMARK VINA RESULT:    -6.281      5.372      8.894
REMARK INTER + INTRA:          -7.431
REMARK INTER:                  -7.151
REMARK INTRA:                  -0.280
REMARK UNBOUND:                 0.136
REMARK SMILES O=c1c(O)c(-c2ccc(O)c(O)c2)oc2cc(O)cc(O)c12
REMARK SMILES IDX 5 1 3 2 2 3 1 4 22 5 20 6 19 7 17 8 16 9 15 10 14 11 6 12
REMARK SMILES IDX 7 13 8 14 9 15 13 16 11 17 10 18 12 20 4 22 21 24 18 26
REMARK H PARENT 10 19 12 21 4 23 21 25 18 27
REMARK Flexibility Score: inf
ROOT
ATOM      1  C   UNL     1      92.675  88.249  74.402  1.00  0.00     0.180 A 
ATOM      2  C   UNL     1      92.985  89.244  75.347  1.00  0.00     0.208 A 
ATOM      3  C   UNL     1      92.579  90.565  75.104  1.00  0.00     0.238 A 
ATOM      4  O   UNL     1      92.906  91.460  75.927  1.00  0.00    -0.285 OA
ATOM      5  C   UNL     1      91.854  90.874  73.928  1.00  0.00     0.111 A 
ATOM      6  C   UNL     1      91.357  92.171  73.599  1.00  0.00     0.134 A 
ATOM      7  C   UNL     1      90.768  92.388  72.347  1.00  0.00     0.093 A 
ATOM      8  C   UNL     1      90.598  91.339  71.439  1.00  0.00     0.123 A 
ATOM      9  C   UNL     1      91.026  90.058  71.776  1.00  0.00     0.094 A 
ATOM     10  C   UNL     1      91.650  89.818  73.002  1.00  0.00     0.146 A 
ATOM     11  O   UNL     1      92.052  88.583  73.278  1.00  0.00    -0.452 OA
ENDROOT
BRANCH   1  12
ATOM     12  C   UNL     1      93.048  86.830  74.601  1.00  0.00     0.025 A 
ATOM     13  C   UNL     1      92.311  86.042  75.499  1.00  0.00     0.016 A 
ATOM     14  C   UNL     1      92.659  84.706  75.718  1.00  0.00     0.051 A 
ATOM     15  C   UNL     1      93.757  84.145  75.054  1.00  0.00     0.157 A 
ATOM     16  C   UNL     1      94.162  86.268  73.953  1.00  0.00     0.062 A 
ATOM     17  C   UNL     1      94.512  84.929  74.173  1.00  0.00     0.158 A 
BRANCH  15  18
ATOM     18  O   UNL     1      94.106  82.812  75.268  1.00  0.00    -0.504 OA
ATOM     19  H   UNL     1      93.835  82.323  76.112  1.00  0.00     0.293 HD
ENDBRANCH  15  18
BRANCH  17  20
ATOM     20  O   UNL     1      95.613  84.371  73.524  1.00  0.00    -0.504 OA
ATOM     21  H   UNL     1      95.517  83.572  72.909  1.00  0.00     0.293 HD
ENDBRANCH  17  20
ENDBRANCH   1  12
BRANCH   2  22
ATOM     22  O   UNL     1      93.721  88.920  76.491  1.00  0.00    -0.502 OA
ATOM     23  H   UNL     1      94.698  88.655  76.451  1.00  0.00     0.293 HD
ENDBRANCH   2  22
BRANCH   6  24
ATOM     24  O   UNL     1      91.394  93.265  74.469  1.00  0.00    -0.507 OA
ATOM     25  H   UNL     1      91.655  93.215  75.442  1.00  0.00     0.293 HD
ENDBRANCH   6  24
BRANCH   8  26
ATOM     26  O   UNL     1      89.996  91.561  70.203  1.00  0.00    -0.508 OA
ATOM     27  H   UNL     1      89.050  91.253  70.010  1.00  0.00     0.293 HD
ENDBRANCH   8  26
TORSDOF 6
ENDMDL
MODEL 7
REMARK VINA RESULT:    -6.269      5.125     10.464
REMARK INTER + INTRA:          -7.417
REMARK INTER:                  -7.083
REMARK INTRA:                  -0.334
REMARK UNBOUND:                 0.136
REMARK SMILES O=c1c(O)c(-c2ccc(O)c(O)c2)oc2cc(O)cc(O)c12
REMARK SMILES IDX 5 1 3 2 2 3 1 4 22 5 20 6 19 7 17 8 16 9 15 10 14 11 6 12
REMARK SMILES IDX 7 13 8 14 9 15 13 16 11 17 10 18 12 20 4 22 21 24 18 26
REMARK H PARENT 10 19 12 21 4 23 21 25 18 27
REMARK Flexibility Score: inf
ROOT
ATOM      1  C   UNL     1      91.581  88.825  73.378  1.00  0.00     0.180 A 
ATOM      2  C   UNL     1      90.515  88.175  74.025  1.00  0.00     0.208 A 
ATOM      3  C   UNL     1      90.701  86.865  74.494  1.00  0.00     0.238 A 
ATOM      4  O   UNL     1      89.727  86.269  75.024  1.00  0.00    -0.285 OA
ATOM      5  C   UNL     1      91.954  86.228  74.328  1.00  0.00     0.111 A 
ATOM      6  C   UNL     1      92.266  84.918  74.800  1.00  0.00     0.134 A 
ATOM      7  C   UNL     1      93.495  84.337  74.464  1.00  0.00     0.093 A 
ATOM      8  C   UNL     1      94.449  85.045  73.728  1.00  0.00     0.123 A 
ATOM      9  C   UNL     1      94.176  86.346  73.313  1.00  0.00     0.094 A 
ATOM     10  C   UNL     1      92.945  86.938  73.602  1.00  0.00     0.146 A 
ATOM     11  O   UNL     1      92.722  88.177  73.179  1.00  0.00    -0.452 OA
ENDROOT
BRANCH   1  12
ATOM     12  C   UNL     1      91.469  90.214  72.878  1.00  0.00     0.025 A 
ATOM     13  C   UNL     1      91.121  90.439  71.536  1.00  0.00     0.016 A 
ATOM     14  C   UNL     1      91.030  91.741  71.037  1.00  0.00     0.051 A 
ATOM     15  C   UNL     1      91.301  92.836  71.868  1.00  0.00     0.157 A 
ATOM     16  C   UNL     1      91.760  91.316  73.702  1.00  0.00     0.062 A 
ATOM     17  C   UNL     1      91.670  92.622  73.202  1.00  0.00     0.158 A 
BRANCH  15  18
ATOM     18  O   UNL     1      91.209  94.136  71.375  1.00  0.00    -0.504 OA
ATOM     19  H   UNL     1      91.106  94.932  71.994  1.00  0.00     0.293 HD
ENDBRANCH  15  18
BRANCH  17  20
ATOM     20  O   UNL     1      91.952  93.713  74.023  1.00  0.00    -0.504 OA
ATOM     21  H   UNL     1      92.802  94.253  73.913  1.00  0.00     0.293 HD
ENDBRANCH  17  20
ENDBRANCH   1  12
BRANCH   2  22
ATOM     22  O   UNL     1      89.280  88.815  74.159  1.00  0.00    -0.502 OA
ATOM     23  H   UNL     1      88.884  89.047  75.062  1.00  0.00     0.293 HD
ENDBRANCH   2  22
BRANCH   6  24
ATOM     24  O   UNL     1      91.422  84.162  75.619  1.00  0.00    -0.507 OA
ATOM     25  H   UNL     1      91.575  83.996  76.603  1.00  0.00     0.293 HD
ENDBRANCH   6  24
BRANCH   8  26
ATOM     26  O   UNL     1      95.675  84.465  73.411  1.00  0.00    -0.508 OA
ATOM     27  H   UNL     1      95.965  83.581  73.815  1.00  0.00     0.293 HD
ENDBRANCH   8  26
TORSDOF 6
ENDMDL
MODEL 8
REMARK VINA RESULT:    -6.264      4.303      9.508
REMARK INTER + INTRA:          -7.410
REMARK INTER:                  -7.168
REMARK INTRA:                  -0.242
REMARK UNBOUND:                 0.136
REMARK SMILES O=c1c(O)c(-c2ccc(O)c(O)c2)oc2cc(O)cc(O)c12
REMARK SMILES IDX 5 1 3 2 2 3 1 4 22 5 20 6 19 7 17 8 16 9 15 10 14 11 6 12
REMARK SMILES IDX 7 13 8 14 9 15 13 16 11 17 10 18 12 20 4 22 21 24 18 26
REMARK H PARENT 10 19 12 21 4 23 21 25 18 27
REMARK Flexibility Score: inf
ROOT
ATOM      1  C   UNL     1      91.612  90.865  74.053  1.00  0.00     0.180 A 
ATOM      2  C   UNL     1      91.584  90.721  75.452  1.00  0.00     0.208 A 
ATOM      3  C   UNL     1      92.022  89.516  76.021  1.00  0.00     0.238 A 
ATOM      4  O   UNL     1      91.943  89.373  77.270  1.00  0.00    -0.285 OA
ATOM      5  C   UNL     1      92.498  88.475  75.188  1.00  0.00     0.111 A 
ATOM      6  C   UNL     1      93.004  87.226  75.660  1.00  0.00     0.134 A 
ATOM      7  C   UNL     1      93.325  86.220  74.741  1.00  0.00     0.093 A 
ATOM      8  C   UNL     1      93.221  86.441  73.365  1.00  0.00     0.123 A 
ATOM      9  C   UNL     1      92.785  87.676  72.894  1.00  0.00     0.094 A 
ATOM     10  C   UNL     1      92.423  88.687  73.787  1.00  0.00     0.146 A 
ATOM     11  O   UNL     1      92.002  89.847  73.296  1.00  0.00    -0.452 OA
ENDROOT
BRANCH   1  12
ATOM     12  C   UNL     1      91.190  92.115  73.382  1.00  0.00     0.025 A 
ATOM     13  C   UNL     1      90.035  92.114  72.583  1.00  0.00     0.016 A 
ATOM     14  C   UNL     1      89.630  93.277  71.922  1.00  0.00     0.051 A 
ATOM     15  C   UNL     1      90.382  94.453  72.038  1.00  0.00     0.157 A 
ATOM     16  C   UNL     1      91.953  93.293  73.479  1.00  0.00     0.062 A 
ATOM     17  C   UNL     1      91.547  94.460  72.815  1.00  0.00     0.158 A 
BRANCH  15  18
ATOM     18  O   UNL     1      89.980  95.616  71.384  1.00  0.00    -0.504 OA
ATOM     19  H   UNL     1      90.517  96.473  71.448  1.00  0.00     0.293 HD
ENDBRANCH  15  18
BRANCH  17  20
ATOM     20  O   UNL     1      92.301  95.628  72.918  1.00  0.00    -0.504 OA
ATOM     21  H   UNL     1      92.185  96.393  72.264  1.00  0.00     0.293 HD
ENDBRANCH  17  20
ENDBRANCH   1  12
BRANCH   2  22
ATOM     22  O   UNL     1      91.089  91.754  76.254  1.00  0.00    -0.502 OA
ATOM     23  H   UNL     1      91.064  92.718  75.945  1.00  0.00     0.293 HD
ENDBRANCH   2  22
BRANCH   6  24
ATOM     24  O   UNL     1      93.233  86.936  77.008  1.00  0.00    -0.507 OA
ATOM     25  H   UNL     1      93.288  86.005  77.394  1.00  0.00     0.293 HD
ENDBRANCH   6  24
BRANCH   8  26
ATOM     26  O   UNL     1      93.559  85.439  72.457  1.00  0.00    -0.508 OA
ATOM     27  H   UNL     1      92.979  84.617  72.335  1.00  0.00     0.293 HD
ENDBRANCH   8  26
TORSDOF 6
ENDMDL
MODEL 9
REMARK VINA RESULT:    -6.209      4.982      9.661
REMARK INTER + INTRA:          -7.344
REMARK INTER:                  -7.035
REMARK INTRA:                  -0.308
REMARK UNBOUND:                 0.136
REMARK SMILES O=c1c(O)c(-c2ccc(O)c(O)c2)oc2cc(O)cc(O)c12
REMARK SMILES IDX 5 1 3 2 2 3 1 4 22 5 20 6 19 7 17 8 16 9 15 10 14 11 6 12
REMARK SMILES IDX 7 13 8 14 9 15 13 16 11 17 10 18 12 20 4 22 21 24 18 26
REMARK H PARENT 10 19 12 21 4 23 21 25 18 27
REMARK Flexibility Score: inf
ROOT
ATOM      1  C   UNL     1      91.506  90.277  73.700  1.00  0.00     0.180 A 
ATOM      2  C   UNL     1      90.290  89.638  74.001  1.00  0.00     0.208 A 
ATOM      3  C   UNL     1      90.287  88.252  74.226  1.00  0.00     0.238 A 
ATOM      4  O   UNL     1      89.188  87.677  74.441  1.00  0.00    -0.285 OA
ATOM      5  C   UNL     1      91.501  87.526  74.166  1.00  0.00     0.111 A 
ATOM      6  C   UNL     1      91.620  86.126  74.418  1.00  0.00     0.134 A 
ATOM      7  C   UNL     1      92.848  85.489  74.201  1.00  0.00     0.093 A 
ATOM      8  C   UNL     1      93.976  86.212  73.806  1.00  0.00     0.123 A 
ATOM      9  C   UNL     1      93.883  87.588  73.615  1.00  0.00     0.094 A 
ATOM     10  C   UNL     1      92.663  88.246  73.788  1.00  0.00     0.146 A 
ATOM     11  O   UNL     1      92.616  89.558  73.586  1.00  0.00    -0.452 OA
ENDROOT
BRANCH   1  12
ATOM     12  C   UNL     1      91.592  91.738  73.474  1.00  0.00     0.025 A 
ATOM     13  C   UNL     1      91.917  92.585  74.547  1.00  0.00     0.016 A 
ATOM     14  C   UNL     1      91.984  93.968  74.362  1.00  0.00     0.051 A 
ATOM     15  C   UNL     1      91.710  94.526  73.106  1.00  0.00     0.157 A 
ATOM     16  C   UNL     1      91.299  92.304  72.221  1.00  0.00     0.062 A 
ATOM     17  C   UNL     1      91.364  93.692  72.035  1.00  0.00     0.158 A 
BRANCH  15  18
ATOM     18  O   UNL     1      91.778  95.905  72.915  1.00  0.00    -0.504 OA
ATOM     19  H   UNL     1      91.101  96.395  72.343  1.00  0.00     0.293 HD
ENDBRANCH  15  18
BRANCH  17  20
ATOM     20  O   UNL     1      91.079  94.251  70.790  1.00  0.00    -0.504 OA
ATOM     21  H   UNL     1      91.383  93.812  69.929  1.00  0.00     0.293 HD
ENDBRANCH  17  20
ENDBRANCH   1  12
BRANCH   2  22
ATOM     22  O   UNL     1      89.100  90.371  74.033  1.00  0.00    -0.502 OA
ATOM     23  H   UNL     1      89.083  91.374  74.174  1.00  0.00     0.293 HD
ENDBRANCH   2  22
BRANCH   6  24
ATOM     24  O   UNL     1      90.580  85.328  74.903  1.00  0.00    -0.507 OA
ATOM     25  H   UNL     1      89.956  85.591  75.651  1.00  0.00     0.293 HD
ENDBRANCH   6  24
BRANCH   8  26
ATOM     26  O   UNL     1      95.197  85.572  73.608  1.00  0.00    -0.508 OA
ATOM     27  H   UNL     1      95.629  85.522  72.693  1.00  0.00     0.293 HD
ENDBRANCH   8  26
TORSDOF 6
ENDMDL
