MODEL 1
REMARK VINA RESULT:    -5.791      0.000      0.000
REMARK INTER + INTRA:          -5.960
REMARK INTER:                  -5.960
REMARK INTRA:                   0.000
REMARK UNBOUND:                 0.000
REMARK SMILES O=c1ccc2ccc(O)cc2o1
REMARK SMILES IDX 6 1 7 2 8 3 10 4 11 5 5 6 4 7 3 8 2 9 1 10 12 11 9 12
REMARK H PARENT 9 13
REMARK Flexibility Score: inf
ROOT
ATOM      1  C   UNL     1     -16.512 -11.215 -16.712  1.00  0.00     0.016 A 
ATOM      2  C   UNL     1     -17.840 -11.354 -16.297  1.00  0.00     0.047 A 
ATOM      3  C   UNL     1     -18.262 -10.802 -15.080  1.00  0.00     0.119 A 
ATOM      4  C   UNL     1     -17.349 -10.107 -14.274  1.00  0.00     0.094 A 
ATOM      5  C   UNL     1     -16.019  -9.963 -14.682  1.00  0.00     0.142 A 
ATOM      6  C   UNL     1     -15.596 -10.521 -15.909  1.00  0.00     0.018 A 
ATOM      7  C   UNL     1     -14.261 -10.360 -16.289  1.00  0.00     0.019 A 
ATOM      8  C   UNL     1     -13.391  -9.661 -15.454  1.00  0.00     0.094 A 
ATOM      9  C   UNL     1     -13.879  -9.136 -14.253  1.00  0.00     0.336 A 
ATOM     10  O   UNL     1     -13.109  -8.501 -13.485  1.00  0.00    -0.246 OA
ATOM     11  O   UNL     1     -15.155  -9.303 -13.914  1.00  0.00    -0.423 OA
ENDROOT
BRANCH   3  12
ATOM     12  O   UNL     1     -19.589 -10.952 -14.683  1.00  0.00    -0.508 OA
ATOM     13  H   UNL     1     -19.840 -11.064 -13.708  1.00  0.00     0.293 HD
ENDBRANCH   3  12
TORSDOF 1
ENDMDL
MODEL 2
REMARK VINA RESULT:    -5.723     13.807     14.233
REMARK INTER + INTRA:          -5.891
REMARK INTER:                  -5.891
REMARK INTRA:                   0.000
REMARK UNBOUND:                 0.000
REMARK SMILES O=c1ccc2ccc(O)cc2o1
REMARK SMILES IDX 6 1 7 2 8 3 10 4 11 5 5 6 4 7 3 8 2 9 1 10 12 11 9 12
REMARK H PARENT 9 13
REMARK Flexibility Score: inf
ROOT
ATOM      1  C   UNL     1     -11.836 -18.489  -6.766  1.00  0.00     0.016 A 
ATOM      2  C   UNL     1     -12.748 -19.256  -6.035  1.00  0.00     0.047 A 
ATOM      3  C   UNL     1     -12.320 -20.396  -5.343  1.00  0.00     0.119 A 
ATOM      4  C   UNL     1     -10.969 -20.771  -5.382  1.00  0.00     0.094 A 
ATOM      5  C   UNL     1     -10.049 -20.009  -6.110  1.00  0.00     0.142 A 
ATOM      6  C   UNL     1     -10.484 -18.860  -6.807  1.00  0.00     0.018 A 
ATOM      7  C   UNL     1      -9.541 -18.120  -7.525  1.00  0.00     0.019 A 
ATOM      8  C   UNL     1      -8.209 -18.532  -7.534  1.00  0.00     0.094 A 
ATOM      9  C   UNL     1      -7.850 -19.681  -6.821  1.00  0.00     0.336 A 
ATOM     10  O   UNL     1      -6.653 -20.069  -6.816  1.00  0.00    -0.246 OA
ATOM     11  O   UNL     1      -8.768 -20.368  -6.144  1.00  0.00    -0.423 OA
ENDROOT
BRANCH   3  12
ATOM     12  O   UNL     1     -13.244 -21.148  -4.621  1.00  0.00    -0.508 OA
ATOM     13  H   UNL     1     -14.191 -21.285  -4.955  1.00  0.00     0.293 HD
ENDBRANCH   3  12
TORSDOF 1
ENDMDL
MODEL 3
REMARK VINA RESULT:    -5.636      1.074      4.227
REMARK INTER + INTRA:          -5.801
REMARK INTER:                  -5.801
REMARK INTRA:                   0.000
REMARK UNBOUND:                 0.000
REMARK SMILES O=c1ccc2ccc(O)cc2o1
REMARK SMILES IDX 6 1 7 2 8 3 10 4 11 5 5 6 4 7 3 8 2 9 1 10 12 11 9 12
REMARK H PARENT 9 13
REMARK Flexibility Score: inf
ROOT
ATOM      1  C   UNL     1     -14.153  -9.635 -16.175  1.00  0.00     0.016 A 
ATOM      2  C   UNL     1     -13.508  -8.683 -15.379  1.00  0.00     0.047 A 
ATOM      3  C   UNL     1     -14.155  -8.137 -14.263  1.00  0.00     0.119 A 
ATOM      4  C   UNL     1     -15.457  -8.547 -13.941  1.00  0.00     0.094 A 
ATOM      5  C   UNL     1     -16.110  -9.499 -14.731  1.00  0.00     0.142 A 
ATOM      6  C   UNL     1     -15.454 -10.047 -15.856  1.00  0.00     0.018 A 
ATOM      7  C   UNL     1     -16.133 -10.995 -16.626  1.00  0.00     0.019 A 
ATOM      8  C   UNL     1     -17.427 -11.371 -16.266  1.00  0.00     0.094 A 
ATOM      9  C   UNL     1     -18.014 -10.786 -15.139  1.00  0.00     0.336 A 
ATOM     10  O   UNL     1     -19.181 -11.113 -14.797  1.00  0.00    -0.246 OA
ATOM     11  O   UNL     1     -17.346  -9.885 -14.422  1.00  0.00    -0.423 OA
ENDROOT
BRANCH   3  12
ATOM     12  O   UNL     1     -13.496  -7.190 -13.483  1.00  0.00    -0.508 OA
ATOM     13  H   UNL     1     -13.776  -6.217 -13.484  1.00  0.00     0.293 HD
ENDBRANCH   3  12
TORSDOF 1
ENDMDL
MODEL 4
REMARK VINA RESULT:    -5.486     13.660     13.980
REMARK INTER + INTRA:          -5.647
REMARK INTER:                  -5.647
REMARK INTRA:                   0.000
REMARK UNBOUND:                 0.000
REMARK SMILES O=c1ccc2ccc(O)cc2o1
REMARK SMILES IDX 6 1 7 2 8 3 10 4 11 5 5 6 4 7 3 8 2 9 1 10 12 11 9 12
REMARK H PARENT 9 13
REMARK Flexibility Score: inf
ROOT
ATOM      1  C   UNL     1     -11.708 -21.064  -4.976  1.00  0.00     0.016 A 
ATOM      2  C   UNL     1     -13.070 -20.832  -5.195  1.00  0.00     0.047 A 
ATOM      3  C   UNL     1     -13.485 -19.957  -6.207  1.00  0.00     0.119 A 
ATOM      4  C   UNL     1     -12.531 -19.308  -7.005  1.00  0.00     0.094 A 
ATOM      5  C   UNL     1     -11.167 -19.533  -6.793  1.00  0.00     0.142 A 
ATOM      6  C   UNL     1     -10.752 -20.417  -5.772  1.00  0.00     0.018 A 
ATOM      7  C   UNL     1      -9.382 -20.622  -5.585  1.00  0.00     0.019 A 
ATOM      8  C   UNL     1      -8.472 -19.955  -6.403  1.00  0.00     0.094 A 
ATOM      9  C   UNL     1      -8.955 -19.094  -7.394  1.00  0.00     0.336 A 
ATOM     10  O   UNL     1      -8.149 -18.482  -8.143  1.00  0.00    -0.246 OA
ATOM     11  O   UNL     1     -10.265 -18.916  -7.552  1.00  0.00    -0.423 OA
ENDROOT
BRANCH   3  12
ATOM     12  O   UNL     1     -14.846 -19.739  -6.409  1.00  0.00    -0.508 OA
ATOM     13  H   UNL     1     -15.194 -19.324  -7.266  1.00  0.00     0.293 HD
ENDBRANCH   3  12
TORSDOF 1
ENDMDL
MODEL 5
REMARK VINA RESULT:    -5.374      1.567      2.300
REMARK INTER + INTRA:          -5.531
REMARK INTER:                  -5.531
REMARK INTRA:                   0.000
REMARK UNBOUND:                 0.000
REMARK SMILES O=c1ccc2ccc(O)cc2o1
REMARK SMILES IDX 6 1 7 2 8 3 10 4 11 5 5 6 4 7 3 8 2 9 1 10 12 11 9 12
REMARK H PARENT 9 13
REMARK Flexibility Score: inf
ROOT
ATOM      1  C   UNL     1     -16.709  -9.965 -14.105  1.00  0.00     0.016 A 
ATOM      2  C   UNL     1     -17.682 -10.601 -14.881  1.00  0.00     0.047 A 
ATOM      3  C   UNL     1     -17.369 -11.077 -16.161  1.00  0.00     0.119 A 
ATOM      4  C   UNL     1     -16.071 -10.915 -16.667  1.00  0.00     0.094 A 
ATOM      5  C   UNL     1     -15.090 -10.280 -15.898  1.00  0.00     0.142 A 
ATOM      6  C   UNL     1     -15.410  -9.801 -14.608  1.00  0.00     0.018 A 
ATOM      7  C   UNL     1     -14.409  -9.171 -13.864  1.00  0.00     0.019 A 
ATOM      8  C   UNL     1     -13.133  -9.034 -14.411  1.00  0.00     0.094 A 
ATOM      9  C   UNL     1     -12.888  -9.532 -15.694  1.00  0.00     0.336 A 
ATOM     10  O   UNL     1     -11.743  -9.418 -16.205  1.00  0.00    -0.246 OA
ATOM     11  O   UNL     1     -13.859 -10.128 -16.383  1.00  0.00    -0.423 OA
ENDROOT
BRANCH   3  12
ATOM     12  O   UNL     1     -18.352 -11.708 -16.918  1.00  0.00    -0.508 OA
ATOM     13  H   UNL     1     -18.700 -11.300 -17.778  1.00  0.00     0.293 HD
ENDBRANCH   3  12
TORSDOF 1
ENDMDL
MODEL 6
REMARK VINA RESULT:    -5.312     13.845     14.818
REMARK INTER + INTRA:          -5.467
REMARK INTER:                  -5.467
REMARK INTRA:                   0.000
REMARK UNBOUND:                 0.000
REMARK SMILES O=c1ccc2ccc(O)cc2o1
REMARK SMILES IDX 6 1 7 2 8 3 10 4 11 5 5 6 4 7 3 8 2 9 1 10 12 11 9 12
REMARK H PARENT 9 13
REMARK Flexibility Score: inf
ROOT
ATOM      1  C   UNL     1      -9.394 -18.080  -7.519  1.00  0.00     0.016 A 
ATOM      2  C   UNL     1      -8.057 -18.485  -7.593  1.00  0.00     0.047 A 
ATOM      3  C   UNL     1      -7.642 -19.670  -6.972  1.00  0.00     0.119 A 
ATOM      4  C   UNL     1      -8.570 -20.455  -6.273  1.00  0.00     0.094 A 
ATOM      5  C   UNL     1      -9.909 -20.057  -6.194  1.00  0.00     0.142 A 
ATOM      6  C   UNL     1     -10.325 -18.862  -6.821  1.00  0.00     0.018 A 
ATOM      7  C   UNL     1     -11.669 -18.491  -6.725  1.00  0.00     0.019 A 
ATOM      8  C   UNL     1     -12.554 -19.305  -6.018  1.00  0.00     0.094 A 
ATOM      9  C   UNL     1     -12.072 -20.474  -5.422  1.00  0.00     0.336 A 
ATOM     10  O   UNL     1     -12.856 -21.222  -4.781  1.00  0.00    -0.246 OA
ATOM     11  O   UNL     1     -10.787 -20.805  -5.529  1.00  0.00    -0.423 OA
ENDROOT
BRANCH   3  12
ATOM     12  O   UNL     1      -6.306 -20.056  -7.056  1.00  0.00    -0.508 OA
ATOM     13  H   UNL     1      -5.581 -19.399  -7.317  1.00  0.00     0.293 HD
ENDBRANCH   3  12
TORSDOF 1
ENDMDL
MODEL 7
REMARK VINA RESULT:    -5.286      1.954      2.624
REMARK INTER + INTRA:          -5.441
REMARK INTER:                  -5.441
REMARK INTRA:                   0.000
REMARK UNBOUND:                 0.000
REMARK SMILES O=c1ccc2ccc(O)cc2o1
REMARK SMILES IDX 6 1 7 2 8 3 10 4 11 5 5 6 4 7 3 8 2 9 1 10 12 11 9 12
REMARK H PARENT 9 13
REMARK Flexibility Score: inf
ROOT
ATOM      1  C   UNL     1     -16.648 -11.066 -15.299  1.00  0.00     0.016 A 
ATOM      2  C   UNL     1     -16.882 -10.979 -13.923  1.00  0.00     0.047 A 
ATOM      3  C   UNL     1     -16.002 -10.265 -13.100  1.00  0.00     0.119 A 
ATOM      4  C   UNL     1     -14.879  -9.635 -13.657  1.00  0.00     0.094 A 
ATOM      5  C   UNL     1     -14.637  -9.718 -15.032  1.00  0.00     0.142 A 
ATOM      6  C   UNL     1     -15.527 -10.438 -15.860  1.00  0.00     0.018 A 
ATOM      7  C   UNL     1     -15.258 -10.502 -17.230  1.00  0.00     0.019 A 
ATOM      8  C   UNL     1     -14.130  -9.859 -17.737  1.00  0.00     0.094 A 
ATOM      9  C   UNL     1     -13.292  -9.164 -16.858  1.00  0.00     0.336 A 
ATOM     10  O   UNL     1     -12.269  -8.577 -17.297  1.00  0.00    -0.246 OA
ATOM     11  O   UNL     1     -13.571  -9.118 -15.557  1.00  0.00    -0.423 OA
ENDROOT
BRANCH   3  12
ATOM     12  O   UNL     1     -16.252 -10.190 -11.732  1.00  0.00    -0.508 OA
ATOM     13  H   UNL     1     -15.617  -9.712 -11.103  1.00  0.00     0.293 HD
ENDBRANCH   3  12
TORSDOF 1
ENDMDL
MODEL 8
REMARK VINA RESULT:    -5.197     15.780     16.066
REMARK INTER + INTRA:          -5.349
REMARK INTER:                  -5.349
REMARK INTRA:                   0.000
REMARK UNBOUND:                 0.000
REMARK SMILES O=c1ccc2ccc(O)cc2o1
REMARK SMILES IDX 6 1 7 2 8 3 10 4 11 5 5 6 4 7 3 8 2 9 1 10 12 11 9 12
REMARK H PARENT 9 13
REMARK Flexibility Score: inf
ROOT
ATOM      1  C   UNL     1     -10.616 -26.737 -13.859  1.00  0.00     0.016 A 
ATOM      2  C   UNL     1     -11.859 -26.308 -14.335  1.00  0.00     0.047 A 
ATOM      3  C   UNL     1     -12.268 -24.981 -14.151  1.00  0.00     0.119 A 
ATOM      4  C   UNL     1     -11.428 -24.077 -13.484  1.00  0.00     0.094 A 
ATOM      5  C   UNL     1     -10.183 -24.498 -13.004  1.00  0.00     0.142 A 
ATOM      6  C   UNL     1      -9.773 -25.837 -13.192  1.00  0.00     0.018 A 
ATOM      7  C   UNL     1      -8.524 -26.226 -12.701  1.00  0.00     0.019 A 
ATOM      8  C   UNL     1      -7.724 -25.292 -12.045  1.00  0.00     0.094 A 
ATOM      9  C   UNL     1      -8.195 -23.983 -11.894  1.00  0.00     0.336 A 
ATOM     10  O   UNL     1      -7.487 -23.125 -11.305  1.00  0.00    -0.246 OA
ATOM     11  O   UNL     1      -9.388 -23.637 -12.372  1.00  0.00    -0.423 OA
ENDROOT
BRANCH   3  12
ATOM     12  O   UNL     1     -13.509 -24.573 -14.632  1.00  0.00    -0.508 OA
ATOM     13  H   UNL     1     -14.268 -24.335 -14.005  1.00  0.00     0.293 HD
ENDBRANCH   3  12
TORSDOF 1
ENDMDL
MODEL 9
REMARK VINA RESULT:    -5.117      1.669      4.826
REMARK INTER + INTRA:          -5.266
REMARK INTER:                  -5.266
REMARK INTRA:                   0.000
REMARK UNBOUND:                 0.000
REMARK SMILES O=c1ccc2ccc(O)cc2o1
REMARK SMILES IDX 6 1 7 2 8 3 10 4 11 5 5 6 4 7 3 8 2 9 1 10 12 11 9 12
REMARK H PARENT 9 13
REMARK Flexibility Score: inf
ROOT
ATOM      1  C   UNL     1     -14.320  -9.140 -13.876  1.00  0.00     0.016 A 
ATOM      2  C   UNL     1     -13.021  -9.060 -14.387  1.00  0.00     0.047 A 
ATOM      3  C   UNL     1     -12.714  -9.623 -15.632  1.00  0.00     0.119 A 
ATOM      4  C   UNL     1     -13.714 -10.271 -16.372  1.00  0.00     0.094 A 
ATOM      5  C   UNL     1     -15.017 -10.355 -15.870  1.00  0.00     0.142 A 
ATOM      6  C   UNL     1     -15.323  -9.786 -14.613  1.00  0.00     0.018 A 
ATOM      7  C   UNL     1     -16.634  -9.887 -14.138  1.00  0.00     0.019 A 
ATOM      8  C   UNL     1     -17.594 -10.540 -14.910  1.00  0.00     0.094 A 
ATOM      9  C   UNL     1     -17.218 -11.080 -16.145  1.00  0.00     0.336 A 
ATOM     10  O   UNL     1     -18.071 -11.673 -16.856  1.00  0.00    -0.246 OA
ATOM     11  O   UNL     1     -15.963 -10.970 -16.575  1.00  0.00    -0.423 OA
ENDROOT
BRANCH   3  12
ATOM     12  O   UNL     1     -11.414  -9.534 -16.123  1.00  0.00    -0.508 OA
ATOM     13  H   UNL     1     -10.765  -8.836 -15.779  1.00  0.00     0.293 HD
ENDBRANCH   3  12
TORSDOF 1
ENDMDL
