MODEL 1
REMARK VINA RESULT:    -3.083      0.000      0.000
REMARK INTER + INTRA:         -12.435
REMARK INTER:                  -7.769
REMARK INTRA:                  -4.666
REMARK UNBOUND:                -4.666
REMARK SMILES CCCCCCCCCCCCCCCCCCCCCCCCCCCC(=O)[O-]
REMARK SMILES IDX 15 1 16 2 17 3 18 4 19 5 20 6 21 7 22 8 23 9 24 10 25 11
REMARK SMILES IDX 26 12 27 13 28 14 29 15 30 16 14 17 13 18 12 19 11 20 10 21
REMARK SMILES IDX 9 22 8 23 7 24 6 25 5 26 4 27 3 28 2 29 1 30
REMARK H PARENT
REMARK Flexibility Score: inf
ROOT
ATOM      1  C   UNL     1     -17.999 -25.036  24.371  1.00  0.00     0.000 C 
ENDROOT
BRANCH   1   2
ATOM      2  C   UNL     1     -18.260 -24.920  25.883  1.00  0.00     0.000 C 
BRANCH   2   3
ATOM      3  C   UNL     1     -18.542 -23.474  26.324  1.00  0.00     0.000 C 
BRANCH   3   4
ATOM      4  C   UNL     1     -17.681 -22.451  25.565  1.00  0.00     0.000 C 
BRANCH   4   5
ATOM      5  C   UNL     1     -16.350 -22.205  26.289  1.00  0.00     0.000 C 
BRANCH   5   6
ATOM      6  C   UNL     1     -15.123 -22.372  25.373  1.00  0.00     0.000 C 
BRANCH   6   7
ATOM      7  C   UNL     1     -15.435 -22.483  23.869  1.00  0.00     0.000 C 
BRANCH   7   8
ATOM      8  C   UNL     1     -14.238 -22.111  22.977  1.00  0.00     0.000 C 
BRANCH   8   9
ATOM      9  C   UNL     1     -12.907 -22.061  23.750  1.00  0.00     0.000 C 
BRANCH   9  10
ATOM     10  C   UNL     1     -12.025 -20.835  23.456  1.00  0.00     0.000 C 
BRANCH  10  11
ATOM     11  C   UNL     1     -12.714 -19.505  23.806  1.00  0.00     0.000 C 
BRANCH  11  12
ATOM     12  C   UNL     1     -12.837 -19.284  25.321  1.00  0.00     0.006 C 
BRANCH  12  13
ATOM     13  C   UNL     1     -13.068 -17.811  25.684  1.00  0.00     0.053 C 
BRANCH  13  14
ATOM     14  C   UNL     1     -13.872 -17.703  26.942  1.00  0.00     0.041 C 
ATOM     15  O   UNL     1     -14.229 -16.576  27.372  1.00  0.00    -0.550 OA
ATOM     16  O   UNL     1     -14.270 -18.854  27.611  1.00  0.00    -0.550 OA
ENDBRANCH  13  14
ENDBRANCH  12  13
ENDBRANCH  11  12
ENDBRANCH  10  11
ENDBRANCH   9  10
ENDBRANCH   8   9
ENDBRANCH   7   8
ENDBRANCH   6   7
ENDBRANCH   5   6
ENDBRANCH   4   5
ENDBRANCH   3   4
ENDBRANCH   2   3
ENDBRANCH   1   2
BRANCH   1  17
ATOM     17  C   UNL     1     -16.787 -25.923  24.045  1.00  0.00     0.000 C 
BRANCH  17  18
ATOM     18  C   UNL     1     -15.778 -26.005  25.202  1.00  0.00     0.000 C 
BRANCH  18  19
ATOM     19  C   UNL     1     -14.322 -25.978  24.712  1.00  0.00     0.000 C 
BRANCH  19  20
ATOM     20  C   UNL     1     -14.210 -26.044  23.179  1.00  0.00     0.000 C 
BRANCH  20  21
ATOM     21  C   UNL     1     -12.890 -25.454  22.648  1.00  0.00     0.000 C 
BRANCH  21  22
ATOM     22  C   UNL     1     -12.907 -25.049  21.162  1.00  0.00    -0.000 C 
BRANCH  22  23
ATOM     23  C   UNL     1     -11.607 -24.360  20.712  1.00  0.00    -0.000 C 
BRANCH  23  24
ATOM     24  C   UNL     1     -11.828 -22.897  20.296  1.00  0.00    -0.000 C 
BRANCH  24  25
ATOM     25  C   UNL     1     -13.134 -22.698  19.506  1.00  0.00    -0.000 C 
BRANCH  25  26
ATOM     26  C   UNL     1     -13.276 -21.275  18.935  1.00  0.00    -0.000 C 
BRANCH  26  27
ATOM     27  C   UNL     1     -13.248 -20.147  19.982  1.00  0.00    -0.000 C 
BRANCH  27  28
ATOM     28  C   UNL     1     -12.860 -18.784  19.384  1.00  0.00    -0.000 C 
BRANCH  28  29
ATOM     29  C   UNL     1     -11.858 -18.914  18.226  1.00  0.00    -0.003 C 
ATOM     30  C   UNL     1     -11.785 -17.654  17.365  1.00  0.00     0.004 C 
ENDBRANCH  28  29
ENDBRANCH  27  28
ENDBRANCH  26  27
ENDBRANCH  25  26
ENDBRANCH  24  25
ENDBRANCH  23  24
ENDBRANCH  22  23
ENDBRANCH  21  22
ENDBRANCH  20  21
ENDBRANCH  19  20
ENDBRANCH  18  19
ENDBRANCH  17  18
ENDBRANCH   1  17
TORSDOF 26
ENDMDL
MODEL 2
REMARK VINA RESULT:    -2.961      1.890      6.290
REMARK INTER + INTRA:         -12.128
REMARK INTER:                  -7.112
REMARK INTRA:                  -5.016
REMARK UNBOUND:                -4.666
REMARK SMILES CCCCCCCCCCCCCCCCCCCCCCCCCCCC(=O)[O-]
REMARK SMILES IDX 15 1 16 2 17 3 18 4 19 5 20 6 21 7 22 8 23 9 24 10 25 11
REMARK SMILES IDX 26 12 27 13 28 14 29 15 30 16 14 17 13 18 12 19 11 20 10 21
REMARK SMILES IDX 9 22 8 23 7 24 6 25 5 26 4 27 3 28 2 29 1 30
REMARK H PARENT
REMARK Flexibility Score: inf
ROOT
ATOM      1  C   UNL     1     -15.398 -22.487  24.397  1.00  0.00     0.000 C 
ENDROOT
BRANCH   1   2
ATOM      2  C   UNL     1     -14.550 -22.912  23.185  1.00  0.00     0.000 C 
BRANCH   2   3
ATOM      3  C   UNL     1     -13.043 -22.717  23.422  1.00  0.00     0.000 C 
BRANCH   3   4
ATOM      4  C   UNL     1     -12.192 -23.760  22.679  1.00  0.00     0.000 C 
BRANCH   4   5
ATOM      5  C   UNL     1     -13.070 -24.658  21.795  1.00  0.00     0.000 C 
BRANCH   5   6
ATOM      6  C   UNL     1     -12.823 -24.450  20.289  1.00  0.00     0.000 C 
BRANCH   6   7
ATOM      7  C   UNL     1     -12.027 -23.184  19.921  1.00  0.00     0.000 C 
BRANCH   7   8
ATOM      8  C   UNL     1     -12.913 -22.052  19.374  1.00  0.00     0.000 C 
BRANCH   8   9
ATOM      9  C   UNL     1     -12.918 -20.806  20.278  1.00  0.00     0.000 C 
BRANCH   9  10
ATOM     10  C   UNL     1     -13.562 -19.552  19.661  1.00  0.00     0.000 C 
BRANCH  10  11
ATOM     11  C   UNL     1     -12.561 -18.398  19.470  1.00  0.00     0.000 C 
BRANCH  11  12
ATOM     12  C   UNL     1     -11.691 -18.160  20.714  1.00  0.00     0.006 C 
BRANCH  12  13
ATOM     13  C   UNL     1     -12.412 -17.333  21.787  1.00  0.00     0.053 C 
BRANCH  13  14
ATOM     14  C   UNL     1     -12.341 -18.023  23.113  1.00  0.00     0.041 C 
ATOM     15  O   UNL     1     -11.636 -17.544  24.040  1.00  0.00    -0.550 OA
ATOM     16  O   UNL     1     -13.094 -19.167  23.341  1.00  0.00    -0.550 OA
ENDBRANCH  13  14
ENDBRANCH  12  13
ENDBRANCH  11  12
ENDBRANCH  10  11
ENDBRANCH   9  10
ENDBRANCH   8   9
ENDBRANCH   7   8
ENDBRANCH   6   7
ENDBRANCH   5   6
ENDBRANCH   4   5
ENDBRANCH   3   4
ENDBRANCH   2   3
ENDBRANCH   1   2
BRANCH   1  17
ATOM     17  C   UNL     1     -14.598 -21.665  25.420  1.00  0.00     0.000 C 
BRANCH  17  18
ATOM     18  C   UNL     1     -14.523 -22.340  26.801  1.00  0.00     0.000 C 
BRANCH  18  19
ATOM     19  C   UNL     1     -13.219 -23.128  26.996  1.00  0.00     0.000 C 
BRANCH  19  20
ATOM     20  C   UNL     1     -13.387 -24.632  26.722  1.00  0.00     0.000 C 
BRANCH  20  21
ATOM     21  C   UNL     1     -14.718 -25.193  27.257  1.00  0.00     0.000 C 
BRANCH  21  22
ATOM     22  C   UNL     1     -15.379 -26.265  26.368  1.00  0.00    -0.000 C 
BRANCH  22  23
ATOM     23  C   UNL     1     -14.902 -26.209  24.906  1.00  0.00    -0.000 C 
BRANCH  23  24
ATOM     24  C   UNL     1     -16.069 -26.214  23.906  1.00  0.00    -0.000 C 
BRANCH  24  25
ATOM     25  C   UNL     1     -17.432 -25.992  24.585  1.00  0.00    -0.000 C 
BRANCH  25  26
ATOM     26  C   UNL     1     -18.089 -24.657  24.186  1.00  0.00    -0.000 C 
BRANCH  26  27
ATOM     27  C   UNL     1     -18.929 -23.990  25.291  1.00  0.00    -0.000 C 
BRANCH  27  28
ATOM     28  C   UNL     1     -18.478 -24.384  26.708  1.00  0.00    -0.000 C 
BRANCH  28  29
ATOM     29  C   UNL     1     -17.886 -23.199  27.487  1.00  0.00    -0.003 C 
ATOM     30  C   UNL     1     -18.333 -21.846  26.933  1.00  0.00     0.004 C 
ENDBRANCH  28  29
ENDBRANCH  27  28
ENDBRANCH  26  27
ENDBRANCH  25  26
ENDBRANCH  24  25
ENDBRANCH  23  24
ENDBRANCH  22  23
ENDBRANCH  21  22
ENDBRANCH  20  21
ENDBRANCH  19  20
ENDBRANCH  18  19
ENDBRANCH  17  18
ENDBRANCH   1  17
TORSDOF 26
ENDMDL
MODEL 3
REMARK VINA RESULT:    -2.960      5.067      9.932
REMARK INTER + INTRA:         -12.126
REMARK INTER:                  -9.694
REMARK INTRA:                  -2.432
REMARK UNBOUND:                -4.666
REMARK SMILES CCCCCCCCCCCCCCCCCCCCCCCCCCCC(=O)[O-]
REMARK SMILES IDX 15 1 16 2 17 3 18 4 19 5 20 6 21 7 22 8 23 9 24 10 25 11
REMARK SMILES IDX 26 12 27 13 28 14 29 15 30 16 14 17 13 18 12 19 11 20 10 21
REMARK SMILES IDX 9 22 8 23 7 24 6 25 5 26 4 27 3 28 2 29 1 30
REMARK H PARENT
REMARK Flexibility Score: inf
ROOT
ATOM      1  C   UNL     1     -11.159 -17.571  18.534  1.00  0.00     0.000 C 
ENDROOT
BRANCH   1   2
ATOM      2  C   UNL     1     -11.634 -18.593  19.581  1.00  0.00     0.000 C 
BRANCH   2   3
ATOM      3  C   UNL     1     -13.167 -18.684  19.663  1.00  0.00     0.000 C 
BRANCH   3   4
ATOM      4  C   UNL     1     -13.645 -20.017  20.262  1.00  0.00     0.000 C 
BRANCH   4   5
ATOM      5  C   UNL     1     -13.620 -21.134  19.209  1.00  0.00     0.000 C 
BRANCH   5   6
ATOM      6  C   UNL     1     -12.774 -22.349  19.637  1.00  0.00     0.000 C 
BRANCH   6   7
ATOM      7  C   UNL     1     -12.517 -22.472  21.151  1.00  0.00     0.000 C 
BRANCH   7   8
ATOM      8  C   UNL     1     -13.417 -23.518  21.831  1.00  0.00     0.000 C 
BRANCH   8   9
ATOM      9  C   UNL     1     -14.448 -22.890  22.787  1.00  0.00     0.000 C 
BRANCH   9  10
ATOM     10  C   UNL     1     -13.961 -22.686  24.233  1.00  0.00     0.000 C 
BRANCH  10  11
ATOM     11  C   UNL     1     -13.970 -21.209  24.664  1.00  0.00     0.000 C 
BRANCH  11  12
ATOM     12  C   UNL     1     -12.557 -20.654  24.900  1.00  0.00     0.006 C 
BRANCH  12  13
ATOM     13  C   UNL     1     -12.069 -19.775  23.741  1.00  0.00     0.053 C 
BRANCH  13  14
ATOM     14  C   UNL     1     -12.564 -18.372  23.905  1.00  0.00     0.041 C 
ATOM     15  O   UNL     1     -12.915 -17.953  25.039  1.00  0.00    -0.550 OA
ATOM     16  O   UNL     1     -12.589 -17.513  22.814  1.00  0.00    -0.550 OA
ENDBRANCH  13  14
ENDBRANCH  12  13
ENDBRANCH  11  12
ENDBRANCH  10  11
ENDBRANCH   9  10
ENDBRANCH   8   9
ENDBRANCH   7   8
ENDBRANCH   6   7
ENDBRANCH   5   6
ENDBRANCH   4   5
ENDBRANCH   3   4
ENDBRANCH   2   3
ENDBRANCH   1   2
BRANCH   1  17
ATOM     17  C   UNL     1     -11.998 -17.607  17.247  1.00  0.00     0.000 C 
BRANCH  17  18
ATOM     18  C   UNL     1     -11.167 -17.329  15.983  1.00  0.00     0.000 C 
BRANCH  18  19
ATOM     19  C   UNL     1     -11.380 -15.906  15.444  1.00  0.00     0.000 C 
BRANCH  19  20
ATOM     20  C   UNL     1     -12.273 -15.872  14.191  1.00  0.00     0.000 C 
BRANCH  20  21
ATOM     21  C   UNL     1     -12.676 -14.443  13.782  1.00  0.00     0.000 C 
BRANCH  21  22
ATOM     22  C   UNL     1     -12.712 -13.420  14.935  1.00  0.00    -0.000 C 
BRANCH  22  23
ATOM     23  C   UNL     1     -11.927 -12.135  14.621  1.00  0.00    -0.000 C 
BRANCH  23  24
ATOM     24  C   UNL     1     -11.282 -12.163  13.227  1.00  0.00    -0.000 C 
BRANCH  24  25
ATOM     25  C   UNL     1     -11.404 -10.816  12.492  1.00  0.00    -0.000 C 
BRANCH  25  26
ATOM     26  C   UNL     1     -11.589 -10.979  10.972  1.00  0.00    -0.000 C 
BRANCH  26  27
ATOM     27  C   UNL     1     -12.224 -12.311  10.532  1.00  0.00    -0.000 C 
BRANCH  27  28
ATOM     28  C   UNL     1     -12.339 -12.444   9.004  1.00  0.00    -0.000 C 
BRANCH  28  29
ATOM     29  C   UNL     1     -13.790 -12.334   8.512  1.00  0.00    -0.003 C 
ATOM     30  C   UNL     1     -14.452 -11.016   8.915  1.00  0.00     0.004 C 
ENDBRANCH  28  29
ENDBRANCH  27  28
ENDBRANCH  26  27
ENDBRANCH  25  26
ENDBRANCH  24  25
ENDBRANCH  23  24
ENDBRANCH  22  23
ENDBRANCH  21  22
ENDBRANCH  20  21
ENDBRANCH  19  20
ENDBRANCH  18  19
ENDBRANCH  17  18
ENDBRANCH   1  17
TORSDOF 26
ENDMDL
MODEL 4
REMARK VINA RESULT:    -2.941      4.346      8.814
REMARK INTER + INTRA:         -12.078
REMARK INTER:                  -8.398
REMARK INTRA:                  -3.680
REMARK UNBOUND:                -4.666
REMARK SMILES CCCCCCCCCCCCCCCCCCCCCCCCCCCC(=O)[O-]
REMARK SMILES IDX 15 1 16 2 17 3 18 4 19 5 20 6 21 7 22 8 23 9 24 10 25 11
REMARK SMILES IDX 26 12 27 13 28 14 29 15 30 16 14 17 13 18 12 19 11 20 10 21
REMARK SMILES IDX 9 22 8 23 7 24 6 25 5 26 4 27 3 28 2 29 1 30
REMARK H PARENT
REMARK Flexibility Score: inf
ROOT
ATOM      1  C   UNL     1     -13.492 -20.985  23.731  1.00  0.00     0.000 C 
ENDROOT
BRANCH   1   2
ATOM      2  C   UNL     1     -12.936 -22.295  23.144  1.00  0.00     0.000 C 
BRANCH   2   3
ATOM      3  C   UNL     1     -13.445 -22.565  21.718  1.00  0.00     0.000 C 
BRANCH   3   4
ATOM      4  C   UNL     1     -12.400 -22.218  20.646  1.00  0.00     0.000 C 
BRANCH   4   5
ATOM      5  C   UNL     1     -13.005 -21.321  19.556  1.00  0.00     0.000 C 
BRANCH   5   6
ATOM      6  C   UNL     1     -13.827 -20.149  20.124  1.00  0.00     0.000 C 
BRANCH   6   7
ATOM      7  C   UNL     1     -13.101 -18.791  20.159  1.00  0.00     0.000 C 
BRANCH   7   8
ATOM      8  C   UNL     1     -11.705 -18.838  19.516  1.00  0.00     0.000 C 
BRANCH   8   9
ATOM      9  C   UNL     1     -11.415 -17.618  18.623  1.00  0.00     0.000 C 
BRANCH   9  10
ATOM     10  C   UNL     1     -11.774 -17.794  17.137  1.00  0.00     0.000 C 
BRANCH  10  11
ATOM     11  C   UNL     1     -11.402 -16.570  16.283  1.00  0.00     0.000 C 
BRANCH  11  12
ATOM     12  C   UNL     1     -12.213 -16.491  14.980  1.00  0.00     0.006 C 
BRANCH  12  13
ATOM     13  C   UNL     1     -12.172 -15.094  14.345  1.00  0.00     0.053 C 
BRANCH  13  14
ATOM     14  C   UNL     1     -11.854 -15.194  12.886  1.00  0.00     0.041 C 
ATOM     15  O   UNL     1     -11.372 -16.256  12.413  1.00  0.00    -0.550 OA
ATOM     16  O   UNL     1     -12.140 -14.130  12.039  1.00  0.00    -0.550 OA
ENDBRANCH  13  14
ENDBRANCH  12  13
ENDBRANCH  11  12
ENDBRANCH  10  11
ENDBRANCH   9  10
ENDBRANCH   8   9
ENDBRANCH   7   8
ENDBRANCH   6   7
ENDBRANCH   5   6
ENDBRANCH   4   5
ENDBRANCH   3   4
ENDBRANCH   2   3
ENDBRANCH   1   2
BRANCH   1  17
ATOM     17  C   UNL     1     -13.678 -21.051  25.255  1.00  0.00     0.000 C 
BRANCH  17  18
ATOM     18  C   UNL     1     -13.740 -22.492  25.789  1.00  0.00     0.000 C 
BRANCH  18  19
ATOM     19  C   UNL     1     -14.507 -22.592  27.116  1.00  0.00     0.000 C 
BRANCH  19  20
ATOM     20  C   UNL     1     -15.364 -21.347  27.402  1.00  0.00     0.000 C 
BRANCH  20  21
ATOM     21  C   UNL     1     -16.761 -21.694  27.951  1.00  0.00     0.000 C 
BRANCH  21  22
ATOM     22  C   UNL     1     -17.868 -21.816  26.887  1.00  0.00    -0.000 C 
BRANCH  22  23
ATOM     23  C   UNL     1     -18.401 -23.252  26.736  1.00  0.00    -0.000 C 
BRANCH  23  24
ATOM     24  C   UNL     1     -18.285 -23.775  25.295  1.00  0.00    -0.000 C 
BRANCH  24  25
ATOM     25  C   UNL     1     -17.330 -22.929  24.434  1.00  0.00    -0.000 C 
BRANCH  25  26
ATOM     26  C   UNL     1     -16.297 -23.782  23.673  1.00  0.00    -0.000 C 
BRANCH  26  27
ATOM     27  C   UNL     1     -16.110 -25.212  24.213  1.00  0.00    -0.000 C 
BRANCH  27  28
ATOM     28  C   UNL     1     -14.653 -25.699  24.125  1.00  0.00    -0.000 C 
BRANCH  28  29
ATOM     29  C   UNL     1     -14.123 -26.216  25.471  1.00  0.00    -0.003 C 
ATOM     30  C   UNL     1     -15.179 -26.173  26.576  1.00  0.00     0.004 C 
ENDBRANCH  28  29
ENDBRANCH  27  28
ENDBRANCH  26  27
ENDBRANCH  25  26
ENDBRANCH  24  25
ENDBRANCH  23  24
ENDBRANCH  22  23
ENDBRANCH  21  22
ENDBRANCH  20  21
ENDBRANCH  19  20
ENDBRANCH  18  19
ENDBRANCH  17  18
ENDBRANCH   1  17
TORSDOF 26
ENDMDL
MODEL 5
REMARK VINA RESULT:    -2.929      1.515      6.471
REMARK INTER + INTRA:         -12.048
REMARK INTER:                  -6.813
REMARK INTRA:                  -5.235
REMARK UNBOUND:                -4.666
REMARK SMILES CCCCCCCCCCCCCCCCCCCCCCCCCCCC(=O)[O-]
REMARK SMILES IDX 15 1 16 2 17 3 18 4 19 5 20 6 21 7 22 8 23 9 24 10 25 11
REMARK SMILES IDX 26 12 27 13 28 14 29 15 30 16 14 17 13 18 12 19 11 20 10 21
REMARK SMILES IDX 9 22 8 23 7 24 6 25 5 26 4 27 3 28 2 29 1 30
REMARK H PARENT
REMARK Flexibility Score: inf
ROOT
ATOM      1  C   UNL     1     -13.959 -22.302  21.787  1.00  0.00     0.000 C 
ENDROOT
BRANCH   1   2
ATOM      2  C   UNL     1     -12.671 -22.742  21.068  1.00  0.00     0.000 C 
BRANCH   2   3
ATOM      3  C   UNL     1     -12.743 -22.529  19.547  1.00  0.00     0.000 C 
BRANCH   3   4
ATOM      4  C   UNL     1     -13.434 -21.208  19.171  1.00  0.00     0.000 C 
BRANCH   4   5
ATOM      5  C   UNL     1     -12.402 -20.109  18.881  1.00  0.00     0.000 C 
BRANCH   5   6
ATOM      6  C   UNL     1     -12.788 -18.743  19.479  1.00  0.00     0.000 C 
BRANCH   6   7
ATOM      7  C   UNL     1     -13.212 -18.769  20.960  1.00  0.00     0.000 C 
BRANCH   7   8
ATOM      8  C   UNL     1     -12.493 -17.708  21.810  1.00  0.00     0.000 C 
BRANCH   8   9
ATOM      9  C   UNL     1     -11.375 -18.301  22.688  1.00  0.00     0.000 C 
BRANCH   9  10
ATOM     10  C   UNL     1     -11.403 -19.832  22.838  1.00  0.00     0.000 C 
BRANCH  10  11
ATOM     11  C   UNL     1     -11.649 -20.287  24.287  1.00  0.00     0.000 C 
BRANCH  11  12
ATOM     12  C   UNL     1     -13.088 -20.016  24.755  1.00  0.00     0.006 C 
BRANCH  12  13
ATOM     13  C   UNL     1     -13.161 -19.635  26.240  1.00  0.00     0.053 C 
BRANCH  13  14
ATOM     14  C   UNL     1     -12.958 -18.162  26.411  1.00  0.00     0.041 C 
ATOM     15  O   UNL     1     -11.800 -17.672  26.359  1.00  0.00    -0.550 OA
ATOM     16  O   UNL     1     -14.054 -17.326  26.577  1.00  0.00    -0.550 OA
ENDBRANCH  13  14
ENDBRANCH  12  13
ENDBRANCH  11  12
ENDBRANCH  10  11
ENDBRANCH   9  10
ENDBRANCH   8   9
ENDBRANCH   7   8
ENDBRANCH   6   7
ENDBRANCH   5   6
ENDBRANCH   4   5
ENDBRANCH   3   4
ENDBRANCH   2   3
ENDBRANCH   1   2
BRANCH   1  17
ATOM     17  C   UNL     1     -14.187 -23.054  23.108  1.00  0.00     0.000 C 
BRANCH  17  18
ATOM     18  C   UNL     1     -12.982 -23.918  23.520  1.00  0.00     0.000 C 
BRANCH  18  19
ATOM     19  C   UNL     1     -13.104 -24.442  24.960  1.00  0.00     0.000 C 
BRANCH  19  20
ATOM     20  C   UNL     1     -12.296 -23.605  25.966  1.00  0.00     0.000 C 
BRANCH  20  21
ATOM     21  C   UNL     1     -13.113 -23.216  27.213  1.00  0.00     0.000 C 
BRANCH  21  22
ATOM     22  C   UNL     1     -14.575 -23.704  27.213  1.00  0.00    -0.000 C 
BRANCH  22  23
ATOM     23  C   UNL     1     -15.591 -22.557  27.349  1.00  0.00    -0.000 C 
BRANCH  23  24
ATOM     24  C   UNL     1     -16.112 -22.067  25.988  1.00  0.00    -0.000 C 
BRANCH  24  25
ATOM     25  C   UNL     1     -17.646 -21.953  25.949  1.00  0.00    -0.000 C 
BRANCH  25  26
ATOM     26  C   UNL     1     -18.348 -23.031  26.796  1.00  0.00    -0.000 C 
BRANCH  26  27
ATOM     27  C   UNL     1     -18.503 -24.400  26.107  1.00  0.00    -0.000 C 
BRANCH  27  28
ATOM     28  C   UNL     1     -18.432 -24.311  24.573  1.00  0.00    -0.000 C 
BRANCH  28  29
ATOM     29  C   UNL     1     -17.195 -25.017  24.000  1.00  0.00    -0.003 C 
ATOM     30  C   UNL     1     -16.540 -25.967  25.003  1.00  0.00     0.004 C 
ENDBRANCH  28  29
ENDBRANCH  27  28
ENDBRANCH  26  27
ENDBRANCH  25  26
ENDBRANCH  24  25
ENDBRANCH  23  24
ENDBRANCH  22  23
ENDBRANCH  21  22
ENDBRANCH  20  21
ENDBRANCH  19  20
ENDBRANCH  18  19
ENDBRANCH  17  18
ENDBRANCH   1  17
TORSDOF 26
ENDMDL
MODEL 6
REMARK VINA RESULT:    -2.900      2.524      6.366
REMARK INTER + INTRA:         -11.974
REMARK INTER:                  -6.322
REMARK INTRA:                  -5.652
REMARK UNBOUND:                -4.666
REMARK SMILES CCCCCCCCCCCCCCCCCCCCCCCCCCCC(=O)[O-]
REMARK SMILES IDX 15 1 16 2 17 3 18 4 19 5 20 6 21 7 22 8 23 9 24 10 25 11
REMARK SMILES IDX 26 12 27 13 28 14 29 15 30 16 14 17 13 18 12 19 11 20 10 21
REMARK SMILES IDX 9 22 8 23 7 24 6 25 5 26 4 27 3 28 2 29 1 30
REMARK H PARENT
REMARK Flexibility Score: inf
ROOT
ATOM      1  C   UNL     1     -14.192 -22.367  22.378  1.00  0.00     0.000 C 
ENDROOT
BRANCH   1   2
ATOM      2  C   UNL     1     -13.478 -21.390  23.329  1.00  0.00     0.000 C 
BRANCH   2   3
ATOM      3  C   UNL     1     -11.972 -21.282  23.041  1.00  0.00     0.000 C 
BRANCH   3   4
ATOM      4  C   UNL     1     -11.116 -21.512  24.296  1.00  0.00     0.000 C 
BRANCH   4   5
ATOM      5  C   UNL     1     -11.998 -21.784  25.523  1.00  0.00     0.000 C 
BRANCH   5   6
ATOM      6  C   UNL     1     -11.513 -21.055  26.790  1.00  0.00     0.000 C 
BRANCH   6   7
ATOM      7  C   UNL     1     -12.589 -20.244  27.536  1.00  0.00     0.000 C 
BRANCH   7   8
ATOM      8  C   UNL     1     -13.471 -19.406  26.595  1.00  0.00     0.000 C 
BRANCH   8   9
ATOM      9  C   UNL     1     -12.761 -18.144  26.072  1.00  0.00     0.000 C 
BRANCH   9  10
ATOM     10  C   UNL     1     -12.739 -17.992  24.541  1.00  0.00     0.000 C 
BRANCH  10  11
ATOM     11  C   UNL     1     -11.318 -17.826  23.976  1.00  0.00     0.000 C 
BRANCH  11  12
ATOM     12  C   UNL     1     -11.305 -17.658  22.449  1.00  0.00     0.006 C 
BRANCH  12  13
ATOM     13  C   UNL     1     -12.717 -17.627  21.849  1.00  0.00     0.053 C 
BRANCH  13  14
ATOM     14  C   UNL     1     -12.754 -18.393  20.564  1.00  0.00     0.041 C 
ATOM     15  O   UNL     1     -13.558 -19.351  20.421  1.00  0.00    -0.550 OA
ATOM     16  O   UNL     1     -11.937 -18.015  19.507  1.00  0.00    -0.550 OA
ENDBRANCH  13  14
ENDBRANCH  12  13
ENDBRANCH  11  12
ENDBRANCH  10  11
ENDBRANCH   9  10
ENDBRANCH   8   9
ENDBRANCH   7   8
ENDBRANCH   6   7
ENDBRANCH   5   6
ENDBRANCH   4   5
ENDBRANCH   3   4
ENDBRANCH   2   3
ENDBRANCH   1   2
BRANCH   1  17
ATOM     17  C   UNL     1     -13.213 -23.169  21.507  1.00  0.00     0.000 C 
BRANCH  17  18
ATOM     18  C   UNL     1     -13.099 -24.642  21.936  1.00  0.00     0.000 C 
BRANCH  18  19
ATOM     19  C   UNL     1     -11.817 -24.920  22.738  1.00  0.00     0.000 C 
BRANCH  19  20
ATOM     20  C   UNL     1     -12.105 -25.339  24.190  1.00  0.00     0.000 C 
BRANCH  20  21
ATOM     21  C   UNL     1     -13.576 -25.126  24.595  1.00  0.00     0.000 C 
BRANCH  21  22
ATOM     22  C   UNL     1     -13.805 -24.832  26.090  1.00  0.00    -0.000 C 
BRANCH  22  23
ATOM     23  C   UNL     1     -15.290 -24.646  26.444  1.00  0.00    -0.000 C 
BRANCH  23  24
ATOM     24  C   UNL     1     -15.570 -23.297  27.126  1.00  0.00    -0.000 C 
BRANCH  24  25
ATOM     25  C   UNL     1     -15.725 -22.146  26.117  1.00  0.00    -0.000 C 
BRANCH  25  26
ATOM     26  C   UNL     1     -17.019 -22.247  25.287  1.00  0.00    -0.000 C 
BRANCH  26  27
ATOM     27  C   UNL     1     -18.241 -22.790  26.052  1.00  0.00    -0.000 C 
BRANCH  27  28
ATOM     28  C   UNL     1     -18.852 -24.039  25.394  1.00  0.00    -0.000 C 
BRANCH  28  29
ATOM     29  C   UNL     1     -18.182 -24.386  24.056  1.00  0.00    -0.003 C 
ATOM     30  C   UNL     1     -17.794 -25.861  23.955  1.00  0.00     0.004 C 
ENDBRANCH  28  29
ENDBRANCH  27  28
ENDBRANCH  26  27
ENDBRANCH  25  26
ENDBRANCH  24  25
ENDBRANCH  23  24
ENDBRANCH  22  23
ENDBRANCH  21  22
ENDBRANCH  20  21
ENDBRANCH  19  20
ENDBRANCH  18  19
ENDBRANCH  17  18
ENDBRANCH   1  17
TORSDOF 26
ENDMDL
MODEL 7
REMARK VINA RESULT:    -2.896      2.782      5.818
REMARK INTER + INTRA:         -11.965
REMARK INTER:                  -6.396
REMARK INTRA:                  -5.569
REMARK UNBOUND:                -4.666
REMARK SMILES CCCCCCCCCCCCCCCCCCCCCCCCCCCC(=O)[O-]
REMARK SMILES IDX 15 1 16 2 17 3 18 4 19 5 20 6 21 7 22 8 23 9 24 10 25 11
REMARK SMILES IDX 26 12 27 13 28 14 29 15 30 16 14 17 13 18 12 19 11 20 10 21
REMARK SMILES IDX 9 22 8 23 7 24 6 25 5 26 4 27 3 28 2 29 1 30
REMARK H PARENT
REMARK Flexibility Score: inf
ROOT
ATOM      1  C   UNL     1     -17.056 -23.389  23.843  1.00  0.00     0.000 C 
ENDROOT
BRANCH   1   2
ATOM      2  C   UNL     1     -18.229 -24.343  24.130  1.00  0.00     0.000 C 
BRANCH   2   3
ATOM      3  C   UNL     1     -17.918 -25.796  23.732  1.00  0.00     0.000 C 
BRANCH   3   4
ATOM      4  C   UNL     1     -18.145 -26.783  24.888  1.00  0.00     0.000 C 
BRANCH   4   5
ATOM      5  C   UNL     1     -18.884 -26.107  26.053  1.00  0.00     0.000 C 
BRANCH   5   6
ATOM      6  C   UNL     1     -18.222 -26.365  27.420  1.00  0.00     0.000 C 
BRANCH   6   7
ATOM      7  C   UNL     1     -17.015 -25.466  27.748  1.00  0.00     0.000 C 
BRANCH   7   8
ATOM      8  C   UNL     1     -15.691 -26.244  27.836  1.00  0.00     0.000 C 
BRANCH   8   9
ATOM      9  C   UNL     1     -14.501 -25.471  27.238  1.00  0.00     0.000 C 
BRANCH   9  10
ATOM     10  C   UNL     1     -14.568 -25.239  25.718  1.00  0.00     0.000 C 
BRANCH  10  11
ATOM     11  C   UNL     1     -14.459 -26.543  24.909  1.00  0.00     0.000 C 
BRANCH  11  12
ATOM     12  C   UNL     1     -14.327 -26.292  23.399  1.00  0.00     0.006 C 
BRANCH  12  13
ATOM     13  C   UNL     1     -13.874 -24.861  23.078  1.00  0.00     0.053 C 
BRANCH  13  14
ATOM     14  C   UNL     1     -12.762 -24.878  22.077  1.00  0.00     0.041 C 
ATOM     15  O   UNL     1     -11.775 -24.110  22.213  1.00  0.00    -0.550 OA
ATOM     16  O   UNL     1     -12.793 -25.780  21.021  1.00  0.00    -0.550 OA
ENDBRANCH  13  14
ENDBRANCH  12  13
ENDBRANCH  11  12
ENDBRANCH  10  11
ENDBRANCH   9  10
ENDBRANCH   8   9
ENDBRANCH   7   8
ENDBRANCH   6   7
ENDBRANCH   5   6
ENDBRANCH   4   5
ENDBRANCH   3   4
ENDBRANCH   2   3
ENDBRANCH   1   2
BRANCH   1  17
ATOM     17  C   UNL     1     -16.743 -22.461  25.027  1.00  0.00     0.000 C 
BRANCH  17  18
ATOM     18  C   UNL     1     -17.921 -22.321  26.005  1.00  0.00     0.000 C 
BRANCH  18  19
ATOM     19  C   UNL     1     -17.496 -21.708  27.349  1.00  0.00     0.000 C 
BRANCH  19  20
ATOM     20  C   UNL     1     -16.043 -22.046  27.723  1.00  0.00     0.000 C 
BRANCH  20  21
ATOM     21  C   UNL     1     -15.177 -20.793  27.954  1.00  0.00     0.000 C 
BRANCH  21  22
ATOM     22  C   UNL     1     -14.105 -20.535  26.878  1.00  0.00    -0.000 C 
BRANCH  22  23
ATOM     23  C   UNL     1     -13.257 -21.779  26.565  1.00  0.00    -0.000 C 
BRANCH  23  24
ATOM     24  C   UNL     1     -12.983 -21.944  25.061  1.00  0.00    -0.000 C 
BRANCH  24  25
ATOM     25  C   UNL     1     -13.021 -20.604  24.304  1.00  0.00    -0.000 C 
BRANCH  25  26
ATOM     26  C   UNL     1     -12.713 -20.757  22.803  1.00  0.00    -0.000 C 
BRANCH  26  27
ATOM     27  C   UNL     1     -13.927 -21.102  21.921  1.00  0.00    -0.000 C 
BRANCH  27  28
ATOM     28  C   UNL     1     -13.968 -20.291  20.614  1.00  0.00    -0.000 C 
BRANCH  28  29
ATOM     29  C   UNL     1     -13.000 -20.837  19.553  1.00  0.00    -0.003 C 
ATOM     30  C   UNL     1     -13.104 -22.352  19.384  1.00  0.00     0.004 C 
ENDBRANCH  28  29
ENDBRANCH  27  28
ENDBRANCH  26  27
ENDBRANCH  25  26
ENDBRANCH  24  25
ENDBRANCH  23  24
ENDBRANCH  22  23
ENDBRANCH  21  22
ENDBRANCH  20  21
ENDBRANCH  19  20
ENDBRANCH  18  19
ENDBRANCH  17  18
ENDBRANCH   1  17
TORSDOF 26
ENDMDL
MODEL 8
REMARK VINA RESULT:    -2.889      2.831      8.298
REMARK INTER + INTRA:         -11.945
REMARK INTER:                  -6.981
REMARK INTRA:                  -4.964
REMARK UNBOUND:                -4.666
REMARK SMILES CCCCCCCCCCCCCCCCCCCCCCCCCCCC(=O)[O-]
REMARK SMILES IDX 15 1 16 2 17 3 18 4 19 5 20 6 21 7 22 8 23 9 24 10 25 11
REMARK SMILES IDX 26 12 27 13 28 14 29 15 30 16 14 17 13 18 12 19 11 20 10 21
REMARK SMILES IDX 9 22 8 23 7 24 6 25 5 26 4 27 3 28 2 29 1 30
REMARK H PARENT
REMARK Flexibility Score: inf
ROOT
ATOM      1  C   UNL     1     -12.748 -18.033  20.822  1.00  0.00     0.000 C 
ENDROOT
BRANCH   1   2
ATOM      2  C   UNL     1     -11.674 -18.055  19.721  1.00  0.00     0.000 C 
BRANCH   2   3
ATOM      3  C   UNL     1     -12.220 -18.556  18.374  1.00  0.00     0.000 C 
BRANCH   3   4
ATOM      4  C   UNL     1     -11.232 -19.482  17.648  1.00  0.00     0.000 C 
BRANCH   4   5
ATOM      5  C   UNL     1     -11.473 -20.951  18.025  1.00  0.00     0.000 C 
BRANCH   5   6
ATOM      6  C   UNL     1     -12.937 -21.246  18.403  1.00  0.00     0.000 C 
BRANCH   6   7
ATOM      7  C   UNL     1     -13.131 -22.125  19.652  1.00  0.00     0.000 C 
BRANCH   7   8
ATOM      8  C   UNL     1     -11.929 -22.083  20.611  1.00  0.00     0.000 C 
BRANCH   8   9
ATOM      9  C   UNL     1     -12.296 -21.554  22.010  1.00  0.00     0.000 C 
BRANCH   9  10
ATOM     10  C   UNL     1     -13.791 -21.258  22.226  1.00  0.00     0.000 C 
BRANCH  10  11
ATOM     11  C   UNL     1     -14.365 -21.956  23.471  1.00  0.00     0.000 C 
BRANCH  11  12
ATOM     12  C   UNL     1     -14.738 -23.423  23.205  1.00  0.00     0.006 C 
BRANCH  12  13
ATOM     13  C   UNL     1     -13.799 -24.406  23.917  1.00  0.00     0.053 C 
BRANCH  13  14
ATOM     14  C   UNL     1     -13.333 -25.464  22.966  1.00  0.00     0.041 C 
ATOM     15  O   UNL     1     -13.166 -26.646  23.365  1.00  0.00    -0.550 OA
ATOM     16  O   UNL     1     -13.133 -25.154  21.627  1.00  0.00    -0.550 OA
ENDBRANCH  13  14
ENDBRANCH  12  13
ENDBRANCH  11  12
ENDBRANCH  10  11
ENDBRANCH   9  10
ENDBRANCH   8   9
ENDBRANCH   7   8
ENDBRANCH   6   7
ENDBRANCH   5   6
ENDBRANCH   4   5
ENDBRANCH   3   4
ENDBRANCH   2   3
ENDBRANCH   1   2
BRANCH   1  17
ATOM     17  C   UNL     1     -12.243 -17.406  22.131  1.00  0.00     0.000 C 
BRANCH  17  18
ATOM     18  C   UNL     1     -11.049 -18.165  22.735  1.00  0.00     0.000 C 
BRANCH  18  19
ATOM     19  C   UNL     1     -11.337 -18.670  24.158  1.00  0.00     0.000 C 
BRANCH  19  20
ATOM     20  C   UNL     1     -12.730 -18.257  24.664  1.00  0.00     0.000 C 
BRANCH  20  21
ATOM     21  C   UNL     1     -13.151 -19.012  25.939  1.00  0.00     0.000 C 
BRANCH  21  22
ATOM     22  C   UNL     1     -12.520 -20.408  26.109  1.00  0.00    -0.000 C 
BRANCH  22  23
ATOM     23  C   UNL     1     -13.366 -21.346  26.988  1.00  0.00    -0.000 C 
BRANCH  23  24
ATOM     24  C   UNL     1     -14.648 -20.674  27.504  1.00  0.00    -0.000 C 
BRANCH  24  25
ATOM     25  C   UNL     1     -15.903 -21.532  27.264  1.00  0.00    -0.000 C 
BRANCH  25  26
ATOM     26  C   UNL     1     -15.570 -22.999  26.934  1.00  0.00    -0.000 C 
BRANCH  26  27
ATOM     27  C   UNL     1     -16.792 -23.922  26.763  1.00  0.00    -0.000 C 
BRANCH  27  28
ATOM     28  C   UNL     1     -17.656 -23.551  25.545  1.00  0.00    -0.000 C 
BRANCH  28  29
ATOM     29  C   UNL     1     -17.983 -24.767  24.665  1.00  0.00    -0.003 C 
ATOM     30  C   UNL     1     -18.365 -24.377  23.238  1.00  0.00     0.004 C 
ENDBRANCH  28  29
ENDBRANCH  27  28
ENDBRANCH  26  27
ENDBRANCH  25  26
ENDBRANCH  24  25
ENDBRANCH  23  24
ENDBRANCH  22  23
ENDBRANCH  21  22
ENDBRANCH  20  21
ENDBRANCH  19  20
ENDBRANCH  18  19
ENDBRANCH  17  18
ENDBRANCH   1  17
TORSDOF 26
ENDMDL
MODEL 9
REMARK VINA RESULT:    -2.883      2.802      6.315
REMARK INTER + INTRA:         -11.931
REMARK INTER:                  -6.528
REMARK INTRA:                  -5.402
REMARK UNBOUND:                -4.666
REMARK SMILES CCCCCCCCCCCCCCCCCCCCCCCCCCCC(=O)[O-]
REMARK SMILES IDX 15 1 16 2 17 3 18 4 19 5 20 6 21 7 22 8 23 9 24 10 25 11
REMARK SMILES IDX 26 12 27 13 28 14 29 15 30 16 14 17 13 18 12 19 11 20 10 21
REMARK SMILES IDX 9 22 8 23 7 24 6 25 5 26 4 27 3 28 2 29 1 30
REMARK H PARENT
REMARK Flexibility Score: inf
ROOT
ATOM      1  C   UNL     1     -17.124 -24.447  24.099  1.00  0.00     0.000 C 
ENDROOT
BRANCH   1   2
ATOM      2  C   UNL     1     -16.237 -23.273  23.649  1.00  0.00     0.000 C 
BRANCH   2   3
ATOM      3  C   UNL     1     -14.977 -23.119  24.517  1.00  0.00     0.000 C 
BRANCH   3   4
ATOM      4  C   UNL     1     -14.934 -21.772  25.256  1.00  0.00     0.000 C 
BRANCH   4   5
ATOM      5  C   UNL     1     -13.489 -21.278  25.419  1.00  0.00     0.000 C 
BRANCH   5   6
ATOM      6  C   UNL     1     -13.101 -20.196  24.394  1.00  0.00     0.000 C 
BRANCH   6   7
ATOM      7  C   UNL     1     -12.652 -20.722  23.018  1.00  0.00     0.000 C 
BRANCH   7   8
ATOM      8  C   UNL     1     -11.666 -21.898  23.116  1.00  0.00     0.000 C 
BRANCH   8   9
ATOM      9  C   UNL     1     -12.101 -23.116  22.280  1.00  0.00     0.000 C 
BRANCH   9  10
ATOM     10  C   UNL     1     -13.259 -22.857  21.300  1.00  0.00     0.000 C 
BRANCH  10  11
ATOM     11  C   UNL     1     -12.798 -22.790  19.833  1.00  0.00     0.000 C 
BRANCH  11  12
ATOM     12  C   UNL     1     -13.407 -21.600  19.077  1.00  0.00     0.006 C 
BRANCH  12  13
ATOM     13  C   UNL     1     -12.359 -20.545  18.698  1.00  0.00     0.053 C 
BRANCH  13  14
ATOM     14  C   UNL     1     -12.820 -19.181  19.107  1.00  0.00     0.041 C 
ATOM     15  O   UNL     1     -13.542 -19.035  20.127  1.00  0.00    -0.550 OA
ATOM     16  O   UNL     1     -12.409 -18.066  18.388  1.00  0.00    -0.550 OA
ENDBRANCH  13  14
ENDBRANCH  12  13
ENDBRANCH  11  12
ENDBRANCH  10  11
ENDBRANCH   9  10
ENDBRANCH   8   9
ENDBRANCH   7   8
ENDBRANCH   6   7
ENDBRANCH   5   6
ENDBRANCH   4   5
ENDBRANCH   3   4
ENDBRANCH   2   3
ENDBRANCH   1   2
BRANCH   1  17
ATOM     17  C   UNL     1     -18.574 -24.020  24.378  1.00  0.00     0.000 C 
BRANCH  17  18
ATOM     18  C   UNL     1     -18.923 -24.032  25.877  1.00  0.00     0.000 C 
BRANCH  18  19
ATOM     19  C   UNL     1     -18.393 -22.790  26.611  1.00  0.00     0.000 C 
BRANCH  19  20
ATOM     20  C   UNL     1     -17.377 -23.140  27.712  1.00  0.00     0.000 C 
BRANCH  20  21
ATOM     21  C   UNL     1     -17.177 -24.658  27.881  1.00  0.00     0.000 C 
BRANCH  21  22
ATOM     22  C   UNL     1     -15.797 -25.187  27.444  1.00  0.00    -0.000 C 
BRANCH  22  23
ATOM     23  C   UNL     1     -14.630 -24.368  28.024  1.00  0.00    -0.000 C 
BRANCH  23  24
ATOM     24  C   UNL     1     -13.263 -25.017  27.753  1.00  0.00    -0.000 C 
BRANCH  24  25
ATOM     25  C   UNL     1     -12.257 -24.036  27.125  1.00  0.00    -0.000 C 
BRANCH  25  26
ATOM     26  C   UNL     1     -11.647 -24.564  25.813  1.00  0.00    -0.000 C 
BRANCH  26  27
ATOM     27  C   UNL     1     -12.441 -25.696  25.135  1.00  0.00    -0.000 C 
BRANCH  27  28
ATOM     28  C   UNL     1     -11.678 -26.346  23.968  1.00  0.00    -0.000 C 
BRANCH  28  29
ATOM     29  C   UNL     1     -12.615 -26.842  22.856  1.00  0.00    -0.003 C 
ATOM     30  C   UNL     1     -14.053 -26.355  23.036  1.00  0.00     0.004 C 
ENDBRANCH  28  29
ENDBRANCH  27  28
ENDBRANCH  26  27
ENDBRANCH  25  26
ENDBRANCH  24  25
ENDBRANCH  23  24
ENDBRANCH  22  23
ENDBRANCH  21  22
ENDBRANCH  20  21
ENDBRANCH  19  20
ENDBRANCH  18  19
ENDBRANCH  17  18
ENDBRANCH   1  17
TORSDOF 26
ENDMDL
