MODEL 1
REMARK VINA RESULT:     0.000      0.000      0.000
REMARK INTER + INTRA:          -3.680
REMARK INTER:                   0.000
REMARK INTRA:                  -3.680
REMARK UNBOUND:                -3.680
REMARK SMILES CCCCCCCCCCCCCCCCCC(=O)[O-]
REMARK SMILES IDX 10 1 11 2 12 3 13 4 14 5 15 6 16 7 17 8 18 9 19 10 20 11
REMARK SMILES IDX 9 12 8 13 7 14 6 15 5 16 4 17 3 18 2 19 1 20
REMARK H PARENT
REMARK Flexibility Score: inf
ROOT
ATOM      1  C   UNL     1     179.725 181.574 189.781  1.00  0.00     0.000 C 
ENDROOT
BRANCH   1   2
ATOM      2  C   UNL     1     179.906 180.058 189.966  1.00  0.00     0.000 C 
BRANCH   2   3
ATOM      3  C   UNL     1     180.852 179.441 188.923  1.00  0.00     0.000 C 
BRANCH   3   4
ATOM      4  C   UNL     1     181.850 180.430 188.288  1.00  0.00     0.000 C 
BRANCH   4   5
ATOM      5  C   UNL     1     182.013 180.254 186.763  1.00  0.00     0.000 C 
BRANCH   5   6
ATOM      6  C   UNL     1     181.635 178.836 186.299  1.00  0.00     0.000 C 
BRANCH   6   7
ATOM      7  C   UNL     1     181.248 178.787 184.812  1.00  0.00     0.006 C 
BRANCH   7   8
ATOM      8  C   UNL     1     181.352 180.159 184.135  1.00  0.00     0.053 C 
BRANCH   8   9
ATOM      9  C   UNL     1     180.281 180.314 183.101  1.00  0.00     0.041 C 
ATOM     10  O   UNL     1     180.421 181.141 182.163  1.00  0.00    -0.550 OA
ATOM     11  O   UNL     1     179.106 179.580 183.202  1.00  0.00    -0.550 OA
ENDBRANCH   8   9
ENDBRANCH   7   8
ENDBRANCH   6   7
ENDBRANCH   5   6
ENDBRANCH   4   5
ENDBRANCH   3   4
ENDBRANCH   2   3
ENDBRANCH   1   2
BRANCH   1  12
ATOM     12  C   UNL     1     178.242 181.958 189.845  1.00  0.00     0.000 C 
BRANCH  12  13
ATOM     13  C   UNL     1     177.729 182.401 188.465  1.00  0.00    -0.000 C 
BRANCH  13  14
ATOM     14  C   UNL     1     178.847 182.486 187.414  1.00  0.00    -0.000 C 
BRANCH  14  15
ATOM     15  C   UNL     1     178.593 181.569 186.204  1.00  0.00    -0.000 C 
BRANCH  15  16
ATOM     16  C   UNL     1     177.493 180.525 186.469  1.00  0.00    -0.000 C 
BRANCH  16  17
ATOM     17  C   UNL     1     177.979 179.062 186.537  1.00  0.00    -0.000 C 
BRANCH  17  18
ATOM     18  C   UNL     1     177.504 178.273 187.770  1.00  0.00    -0.000 C 
BRANCH  18  19
ATOM     19  C   UNL     1     176.344 178.958 188.505  1.00  0.00    -0.003 C 
ATOM     20  C   UNL     1     176.420 178.706 190.008  1.00  0.00     0.004 C 
ENDBRANCH  18  19
ENDBRANCH  17  18
ENDBRANCH  16  17
ENDBRANCH  15  16
ENDBRANCH  14  15
ENDBRANCH  13  14
ENDBRANCH  12  13
ENDBRANCH   1  12
TORSDOF 16
ENDMDL
MODEL 2
REMARK VINA RESULT:     0.013      7.137      9.701
REMARK INTER + INTRA:          -3.655
REMARK INTER:                   0.000
REMARK INTRA:                  -3.655
REMARK UNBOUND:                -3.680
REMARK SMILES CCCCCCCCCCCCCCCCCC(=O)[O-]
REMARK SMILES IDX 10 1 11 2 12 3 13 4 14 5 15 6 16 7 17 8 18 9 19 10 20 11
REMARK SMILES IDX 9 12 8 13 7 14 6 15 5 16 4 17 3 18 2 19 1 20
REMARK H PARENT
REMARK Flexibility Score: inf
ROOT
ATOM      1  C   UNL     1     180.302 179.040 176.823  1.00  0.00     0.000 C 
ENDROOT
BRANCH   1   2
ATOM      2  C   UNL     1     179.659 178.015 177.772  1.00  0.00     0.000 C 
BRANCH   2   3
ATOM      3  C   UNL     1     178.300 178.481 178.318  1.00  0.00     0.000 C 
BRANCH   3   4
ATOM      4  C   UNL     1     178.172 178.442 179.854  1.00  0.00     0.000 C 
BRANCH   4   5
ATOM      5  C   UNL     1     177.329 179.597 180.437  1.00  0.00     0.000 C 
BRANCH   5   6
ATOM      6  C   UNL     1     176.855 180.576 179.349  1.00  0.00     0.000 C 
BRANCH   6   7
ATOM      7  C   UNL     1     177.285 182.024 179.631  1.00  0.00     0.006 C 
BRANCH   7   8
ATOM      8  C   UNL     1     177.364 182.870 178.354  1.00  0.00     0.053 C 
BRANCH   8   9
ATOM      9  C   UNL     1     178.560 183.768 178.396  1.00  0.00     0.041 C 
ATOM     10  O   UNL     1     179.000 184.187 179.498  1.00  0.00    -0.550 OA
ATOM     11  O   UNL     1     179.159 184.183 177.213  1.00  0.00    -0.550 OA
ENDBRANCH   8   9
ENDBRANCH   7   8
ENDBRANCH   6   7
ENDBRANCH   5   6
ENDBRANCH   4   5
ENDBRANCH   3   4
ENDBRANCH   2   3
ENDBRANCH   1   2
BRANCH   1  12
ATOM     12  C   UNL     1     179.998 180.472 177.282  1.00  0.00     0.000 C 
BRANCH  12  13
ATOM     13  C   UNL     1     181.278 181.324 177.308  1.00  0.00    -0.000 C 
BRANCH  13  14
ATOM     14  C   UNL     1     181.759 181.628 178.735  1.00  0.00    -0.000 C 
BRANCH  14  15
ATOM     15  C   UNL     1     180.789 181.107 179.810  1.00  0.00    -0.000 C 
BRANCH  15  16
ATOM     16  C   UNL     1     181.408 180.003 180.688  1.00  0.00    -0.000 C 
BRANCH  16  17
ATOM     17  C   UNL     1     182.731 179.410 180.162  1.00  0.00    -0.000 C 
BRANCH  17  18
ATOM     18  C   UNL     1     182.709 177.893 179.902  1.00  0.00    -0.000 C 
BRANCH  18  19
ATOM     19  C   UNL     1     183.277 177.517 178.526  1.00  0.00    -0.003 C 
ATOM     20  C   UNL     1     183.922 178.722 177.849  1.00  0.00     0.004 C 
ENDBRANCH  18  19
ENDBRANCH  17  18
ENDBRANCH  16  17
ENDBRANCH  15  16
ENDBRANCH  14  15
ENDBRANCH  13  14
ENDBRANCH  12  13
ENDBRANCH   1  12
TORSDOF 16
ENDMDL
MODEL 3
REMARK VINA RESULT:     0.018      9.203     11.039
REMARK INTER + INTRA:          -3.644
REMARK INTER:                   0.000
REMARK INTRA:                  -3.644
REMARK UNBOUND:                -3.680
REMARK SMILES CCCCCCCCCCCCCCCCCC(=O)[O-]
REMARK SMILES IDX 10 1 11 2 12 3 13 4 14 5 15 6 16 7 17 8 18 9 19 10 20 11
REMARK SMILES IDX 9 12 8 13 7 14 6 15 5 16 4 17 3 18 2 19 1 20
REMARK H PARENT
REMARK Flexibility Score: inf
ROOT
ATOM      1  C   UNL     1     175.863 177.862 179.458  1.00  0.00     0.000 C 
ENDROOT
BRANCH   1   2
ATOM      2  C   UNL     1     177.379 177.621 179.374  1.00  0.00     0.000 C 
BRANCH   2   3
ATOM      3  C   UNL     1     177.863 177.368 177.937  1.00  0.00     0.000 C 
BRANCH   3   4
ATOM      4  C   UNL     1     178.872 176.213 177.787  1.00  0.00     0.000 C 
BRANCH   4   5
ATOM      5  C   UNL     1     179.422 175.690 179.132  1.00  0.00     0.000 C 
BRANCH   5   6
ATOM      6  C   UNL     1     179.812 174.203 179.061  1.00  0.00     0.000 C 
BRANCH   6   7
ATOM      7  C   UNL     1     180.153 173.751 177.632  1.00  0.00     0.006 C 
BRANCH   7   8
ATOM      8  C   UNL     1     179.401 172.476 177.227  1.00  0.00     0.053 C 
BRANCH   8   9
ATOM      9  C   UNL     1     178.771 172.646 175.881  1.00  0.00     0.041 C 
ATOM     10  O   UNL     1     179.153 173.568 175.114  1.00  0.00    -0.550 OA
ATOM     11  O   UNL     1     177.727 171.816 175.492  1.00  0.00    -0.550 OA
ENDBRANCH   8   9
ENDBRANCH   7   8
ENDBRANCH   6   7
ENDBRANCH   5   6
ENDBRANCH   4   5
ENDBRANCH   3   4
ENDBRANCH   2   3
ENDBRANCH   1   2
BRANCH   1  12
ATOM     12  C   UNL     1     175.247 177.948 178.056  1.00  0.00     0.000 C 
BRANCH  12  13
ATOM     13  C   UNL     1     173.860 177.286 178.024  1.00  0.00    -0.000 C 
BRANCH  13  14
ATOM     14  C   UNL     1     173.758 176.172 176.970  1.00  0.00    -0.000 C 
BRANCH  14  15
ATOM     15  C   UNL     1     174.966 176.149 176.016  1.00  0.00    -0.000 C 
BRANCH  15  16
ATOM     16  C   UNL     1     175.776 174.843 176.111  1.00  0.00    -0.000 C 
BRANCH  16  17
ATOM     17  C   UNL     1     175.299 173.851 177.192  1.00  0.00    -0.000 C 
BRANCH  17  18
ATOM     18  C   UNL     1     176.198 173.762 178.438  1.00  0.00    -0.000 C 
BRANCH  18  19
ATOM     19  C   UNL     1     175.487 174.224 179.718  1.00  0.00    -0.003 C 
ATOM     20  C   UNL     1     176.468 174.330 180.883  1.00  0.00     0.004 C 
ENDBRANCH  18  19
ENDBRANCH  17  18
ENDBRANCH  16  17
ENDBRANCH  15  16
ENDBRANCH  14  15
ENDBRANCH  13  14
ENDBRANCH  12  13
ENDBRANCH   1  12
TORSDOF 16
ENDMDL
MODEL 4
REMARK VINA RESULT:     0.036      5.093      7.128
REMARK INTER + INTRA:          -3.609
REMARK INTER:                   0.000
REMARK INTRA:                  -3.609
REMARK UNBOUND:                -3.680
REMARK SMILES CCCCCCCCCCCCCCCCCC(=O)[O-]
REMARK SMILES IDX 10 1 11 2 12 3 13 4 14 5 15 6 16 7 17 8 18 9 19 10 20 11
REMARK SMILES IDX 9 12 8 13 7 14 6 15 5 16 4 17 3 18 2 19 1 20
REMARK H PARENT
REMARK Flexibility Score: inf
ROOT
ATOM      1  C   UNL     1     180.419 179.002 182.878  1.00  0.00     0.000 C 
ENDROOT
BRANCH   1   2
ATOM      2  C   UNL     1     179.415 180.165 182.891  1.00  0.00     0.000 C 
BRANCH   2   3
ATOM      3  C   UNL     1     178.695 180.344 181.544  1.00  0.00     0.000 C 
BRANCH   3   4
ATOM      4  C   UNL     1     179.237 179.466 180.398  1.00  0.00     0.000 C 
BRANCH   4   5
ATOM      5  C   UNL     1     179.702 180.271 179.166  1.00  0.00     0.000 C 
BRANCH   5   6
ATOM      6  C   UNL     1     181.231 180.436 179.123  1.00  0.00     0.000 C 
BRANCH   6   7
ATOM      7  C   UNL     1     181.669 181.905 179.228  1.00  0.00     0.006 C 
BRANCH   7   8
ATOM      8  C   UNL     1     182.294 182.233 180.590  1.00  0.00     0.053 C 
BRANCH   8   9
ATOM      9  C   UNL     1     181.321 182.980 181.446  1.00  0.00     0.041 C 
ATOM     10  O   UNL     1     181.512 183.079 182.686  1.00  0.00    -0.550 OA
ATOM     11  O   UNL     1     180.176 183.528 180.881  1.00  0.00    -0.550 OA
ENDBRANCH   8   9
ENDBRANCH   7   8
ENDBRANCH   6   7
ENDBRANCH   5   6
ENDBRANCH   4   5
ENDBRANCH   3   4
ENDBRANCH   2   3
ENDBRANCH   1   2
BRANCH   1  12
ATOM     12  C   UNL     1     181.853 179.517 183.055  1.00  0.00     0.000 C 
BRANCH  12  13
ATOM     13  C   UNL     1     182.809 178.834 182.064  1.00  0.00    -0.000 C 
BRANCH  13  14
ATOM     14  C   UNL     1     182.409 177.384 181.755  1.00  0.00    -0.000 C 
BRANCH  14  15
ATOM     15  C   UNL     1     182.283 177.114 180.245  1.00  0.00    -0.000 C 
BRANCH  15  16
ATOM     16  C   UNL     1     181.045 176.269 179.891  1.00  0.00    -0.000 C 
BRANCH  16  17
ATOM     17  C   UNL     1     180.266 175.707 181.098  1.00  0.00    -0.000 C 
BRANCH  17  18
ATOM     18  C   UNL     1     178.741 175.905 181.041  1.00  0.00    -0.000 C 
BRANCH  18  19
ATOM     19  C   UNL     1     178.125 176.180 182.419  1.00  0.00    -0.003 C 
ATOM     20  C   UNL     1     176.935 177.129 182.310  1.00  0.00     0.004 C 
ENDBRANCH  18  19
ENDBRANCH  17  18
ENDBRANCH  16  17
ENDBRANCH  15  16
ENDBRANCH  14  15
ENDBRANCH  13  14
ENDBRANCH  12  13
ENDBRANCH   1  12
TORSDOF 16
ENDMDL
MODEL 5
REMARK VINA RESULT:     0.043      6.233      8.941
REMARK INTER + INTRA:          -3.597
REMARK INTER:                   0.000
REMARK INTRA:                  -3.597
REMARK UNBOUND:                -3.680
REMARK SMILES CCCCCCCCCCCCCCCCCC(=O)[O-]
REMARK SMILES IDX 10 1 11 2 12 3 13 4 14 5 15 6 16 7 17 8 18 9 19 10 20 11
REMARK SMILES IDX 9 12 8 13 7 14 6 15 5 16 4 17 3 18 2 19 1 20
REMARK H PARENT
REMARK Flexibility Score: inf
ROOT
ATOM      1  C   UNL     1     182.563 181.647 181.704  1.00  0.00     0.000 C 
ENDROOT
BRANCH   1   2
ATOM      2  C   UNL     1     183.759 182.496 181.245  1.00  0.00     0.000 C 
BRANCH   2   3
ATOM      3  C   UNL     1     184.061 183.662 182.201  1.00  0.00     0.000 C 
BRANCH   3   4
ATOM      4  C   UNL     1     185.560 183.914 182.461  1.00  0.00     0.000 C 
BRANCH   4   5
ATOM      5  C   UNL     1     186.474 182.760 181.995  1.00  0.00     0.000 C 
BRANCH   5   6
ATOM      6  C   UNL     1     187.616 183.254 181.090  1.00  0.00     0.000 C 
BRANCH   6   7
ATOM      7  C   UNL     1     187.742 182.430 179.799  1.00  0.00     0.006 C 
BRANCH   7   8
ATOM      8  C   UNL     1     186.513 182.571 178.892  1.00  0.00     0.053 C 
BRANCH   8   9
ATOM      9  C   UNL     1     186.338 183.994 178.466  1.00  0.00     0.041 C 
ATOM     10  O   UNL     1     187.211 184.554 177.753  1.00  0.00    -0.550 OA
ATOM     11  O   UNL     1     185.234 184.719 178.898  1.00  0.00    -0.550 OA
ENDBRANCH   8   9
ENDBRANCH   7   8
ENDBRANCH   6   7
ENDBRANCH   5   6
ENDBRANCH   4   5
ENDBRANCH   3   4
ENDBRANCH   2   3
ENDBRANCH   1   2
BRANCH   1  12
ATOM     12  C   UNL     1     182.466 180.354 180.885  1.00  0.00     0.000 C 
BRANCH  12  13
ATOM     13  C   UNL     1     183.671 180.209 179.941  1.00  0.00    -0.000 C 
BRANCH  13  14
ATOM     14  C   UNL     1     184.514 178.961 180.243  1.00  0.00    -0.000 C 
BRANCH  14  15
ATOM     15  C   UNL     1     185.926 179.310 180.749  1.00  0.00    -0.000 C 
BRANCH  15  16
ATOM     16  C   UNL     1     186.083 179.106 182.267  1.00  0.00    -0.000 C 
BRANCH  16  17
ATOM     17  C   UNL     1     184.917 178.366 182.955  1.00  0.00    -0.000 C 
BRANCH  17  18
ATOM     18  C   UNL     1     184.172 179.178 184.029  1.00  0.00    -0.000 C 
BRANCH  18  19
ATOM     19  C   UNL     1     184.897 180.478 184.402  1.00  0.00    -0.003 C 
ATOM     20  C   UNL     1     183.978 181.416 185.180  1.00  0.00     0.004 C 
ENDBRANCH  18  19
ENDBRANCH  17  18
ENDBRANCH  16  17
ENDBRANCH  15  16
ENDBRANCH  14  15
ENDBRANCH  13  14
ENDBRANCH  12  13
ENDBRANCH   1  12
TORSDOF 16
ENDMDL
MODEL 6
REMARK VINA RESULT:     0.044      9.667     12.269
REMARK INTER + INTRA:          -3.595
REMARK INTER:                   0.000
REMARK INTRA:                  -3.595
REMARK UNBOUND:                -3.680
REMARK SMILES CCCCCCCCCCCCCCCCCC(=O)[O-]
REMARK SMILES IDX 10 1 11 2 12 3 13 4 14 5 15 6 16 7 17 8 18 9 19 10 20 11
REMARK SMILES IDX 9 12 8 13 7 14 6 15 5 16 4 17 3 18 2 19 1 20
REMARK H PARENT
REMARK Flexibility Score: inf
ROOT
ATOM      1  C   UNL     1     185.834 185.827 179.811  1.00  0.00     0.000 C 
ENDROOT
BRANCH   1   2
ATOM      2  C   UNL     1     187.274 186.298 180.067  1.00  0.00     0.000 C 
BRANCH   2   3
ATOM      3  C   UNL     1     187.527 187.732 179.572  1.00  0.00     0.000 C 
BRANCH   3   4
ATOM      4  C   UNL     1     186.254 188.540 179.252  1.00  0.00     0.000 C 
BRANCH   4   5
ATOM      5  C   UNL     1     186.028 189.741 180.196  1.00  0.00     0.000 C 
BRANCH   5   6
ATOM      6  C   UNL     1     184.571 189.828 180.685  1.00  0.00     0.000 C 
BRANCH   6   7
ATOM      7  C   UNL     1     183.640 188.861 179.937  1.00  0.00     0.006 C 
BRANCH   7   8
ATOM      8  C   UNL     1     182.857 187.948 180.889  1.00  0.00     0.053 C 
BRANCH   8   9
ATOM      9  C   UNL     1     182.014 188.762 181.818  1.00  0.00     0.041 C 
ATOM     10  O   UNL     1     181.102 189.501 181.364  1.00  0.00    -0.550 OA
ATOM     11  O   UNL     1     182.267 188.743 183.184  1.00  0.00    -0.550 OA
ENDBRANCH   8   9
ENDBRANCH   7   8
ENDBRANCH   6   7
ENDBRANCH   5   6
ENDBRANCH   4   5
ENDBRANCH   3   4
ENDBRANCH   2   3
ENDBRANCH   1   2
BRANCH   1  12
ATOM     12  C   UNL     1     185.262 185.124 181.048  1.00  0.00     0.000 C 
BRANCH  12  13
ATOM     13  C   UNL     1     186.375 184.788 182.054  1.00  0.00    -0.000 C 
BRANCH  13  14
ATOM     14  C   UNL     1     186.102 185.358 183.454  1.00  0.00    -0.000 C 
BRANCH  14  15
ATOM     15  C   UNL     1     185.126 186.548 183.428  1.00  0.00    -0.000 C 
BRANCH  15  16
ATOM     16  C   UNL     1     185.846 187.909 183.476  1.00  0.00    -0.000 C 
BRANCH  16  17
ATOM     17  C   UNL     1     187.338 187.851 183.863  1.00  0.00    -0.000 C 
BRANCH  17  18
ATOM     18  C   UNL     1     188.260 188.779 183.052  1.00  0.00    -0.000 C 
BRANCH  18  19
ATOM     19  C   UNL     1     189.577 188.104 182.647  1.00  0.00    -0.003 C 
ATOM     20  C   UNL     1     189.575 186.626 183.024  1.00  0.00     0.004 C 
ENDBRANCH  18  19
ENDBRANCH  17  18
ENDBRANCH  16  17
ENDBRANCH  15  16
ENDBRANCH  14  15
ENDBRANCH  13  14
ENDBRANCH  12  13
ENDBRANCH   1  12
TORSDOF 16
ENDMDL
MODEL 7
REMARK VINA RESULT:     0.045      6.332      9.747
REMARK INTER + INTRA:          -3.592
REMARK INTER:                   0.000
REMARK INTRA:                  -3.592
REMARK UNBOUND:                -3.680
REMARK SMILES CCCCCCCCCCCCCCCCCC(=O)[O-]
REMARK SMILES IDX 10 1 11 2 12 3 13 4 14 5 15 6 16 7 17 8 18 9 19 10 20 11
REMARK SMILES IDX 9 12 8 13 7 14 6 15 5 16 4 17 3 18 2 19 1 20
REMARK H PARENT
REMARK Flexibility Score: inf
ROOT
ATOM      1  C   UNL     1     179.377 180.007 177.314  1.00  0.00     0.000 C 
ENDROOT
BRANCH   1   2
ATOM      2  C   UNL     1     180.712 179.423 176.825  1.00  0.00     0.000 C 
BRANCH   2   3
ATOM      3  C   UNL     1     181.610 178.945 177.977  1.00  0.00     0.000 C 
BRANCH   3   4
ATOM      4  C   UNL     1     182.878 179.793 178.204  1.00  0.00     0.000 C 
BRANCH   4   5
ATOM      5  C   UNL     1     183.210 180.030 179.693  1.00  0.00     0.000 C 
BRANCH   5   6
ATOM      6  C   UNL     1     182.225 179.306 180.629  1.00  0.00     0.000 C 
BRANCH   6   7
ATOM      7  C   UNL     1     181.837 180.158 181.848  1.00  0.00     0.006 C 
BRANCH   7   8
ATOM      8  C   UNL     1     182.796 181.335 182.068  1.00  0.00     0.053 C 
BRANCH   8   9
ATOM      9  C   UNL     1     183.616 181.117 183.299  1.00  0.00     0.041 C 
ATOM     10  O   UNL     1     184.335 180.090 183.409  1.00  0.00    -0.550 OA
ATOM     11  O   UNL     1     183.550 182.025 184.349  1.00  0.00    -0.550 OA
ENDBRANCH   8   9
ENDBRANCH   7   8
ENDBRANCH   6   7
ENDBRANCH   5   6
ENDBRANCH   4   5
ENDBRANCH   3   4
ENDBRANCH   2   3
ENDBRANCH   1   2
BRANCH   1  12
ATOM     12  C   UNL     1     179.085 179.568 178.754  1.00  0.00     0.000 C 
BRANCH  12  13
ATOM     13  C   UNL     1     178.840 180.784 179.661  1.00  0.00    -0.000 C 
BRANCH  13  14
ATOM     14  C   UNL     1     179.216 182.113 178.989  1.00  0.00    -0.000 C 
BRANCH  14  15
ATOM     15  C   UNL     1     180.380 182.827 179.701  1.00  0.00    -0.000 C 
BRANCH  15  16
ATOM     16  C   UNL     1     181.530 183.191 178.744  1.00  0.00    -0.000 C 
BRANCH  16  17
ATOM     17  C   UNL     1     181.130 183.346 177.263  1.00  0.00    -0.000 C 
BRANCH  17  18
ATOM     18  C   UNL     1     182.171 182.843 176.248  1.00  0.00    -0.000 C 
BRANCH  18  19
ATOM     19  C   UNL     1     181.553 182.481 174.890  1.00  0.00    -0.003 C 
ATOM     20  C   UNL     1     180.048 182.730 174.888  1.00  0.00     0.004 C 
ENDBRANCH  18  19
ENDBRANCH  17  18
ENDBRANCH  16  17
ENDBRANCH  15  16
ENDBRANCH  14  15
ENDBRANCH  13  14
ENDBRANCH  12  13
ENDBRANCH   1  12
TORSDOF 16
ENDMDL
MODEL 8
REMARK VINA RESULT:     0.047      7.100      9.869
REMARK INTER + INTRA:          -3.589
REMARK INTER:                   0.000
REMARK INTRA:                  -3.589
REMARK UNBOUND:                -3.680
REMARK SMILES CCCCCCCCCCCCCCCCCC(=O)[O-]
REMARK SMILES IDX 10 1 11 2 12 3 13 4 14 5 15 6 16 7 17 8 18 9 19 10 20 11
REMARK SMILES IDX 9 12 8 13 7 14 6 15 5 16 4 17 3 18 2 19 1 20
REMARK H PARENT
REMARK Flexibility Score: inf
ROOT
ATOM      1  C   UNL     1     186.118 183.368 181.274  1.00  0.00     0.000 C 
ENDROOT
BRANCH   1   2
ATOM      2  C   UNL     1     185.462 182.031 180.896  1.00  0.00     0.000 C 
BRANCH   2   3
ATOM      3  C   UNL     1     185.769 181.606 179.450  1.00  0.00     0.000 C 
BRANCH   3   4
ATOM      4  C   UNL     1     186.215 182.751 178.519  1.00  0.00     0.000 C 
BRANCH   4   5
ATOM      5  C   UNL     1     185.172 183.118 177.443  1.00  0.00     0.000 C 
BRANCH   5   6
ATOM      6  C   UNL     1     185.094 184.637 177.205  1.00  0.00     0.000 C 
BRANCH   6   7
ATOM      7  C   UNL     1     185.917 185.436 178.228  1.00  0.00     0.006 C 
BRANCH   7   8
ATOM      8  C   UNL     1     185.134 186.619 178.812  1.00  0.00     0.053 C 
BRANCH   8   9
ATOM      9  C   UNL     1     185.966 187.351 179.817  1.00  0.00     0.041 C 
ATOM     10  O   UNL     1     187.061 186.867 180.207  1.00  0.00    -0.550 OA
ATOM     11  O   UNL     1     185.509 188.544 180.362  1.00  0.00    -0.550 OA
ENDBRANCH   8   9
ENDBRANCH   7   8
ENDBRANCH   6   7
ENDBRANCH   5   6
ENDBRANCH   4   5
ENDBRANCH   3   4
ENDBRANCH   2   3
ENDBRANCH   1   2
BRANCH   1  12
ATOM     12  C   UNL     1     185.079 184.349 181.830  1.00  0.00     0.000 C 
BRANCH  12  13
ATOM     13  C   UNL     1     183.657 183.781 181.690  1.00  0.00    -0.000 C 
BRANCH  13  14
ATOM     14  C   UNL     1     182.711 184.727 180.934  1.00  0.00    -0.000 C 
BRANCH  14  15
ATOM     15  C   UNL     1     182.324 184.189 179.545  1.00  0.00    -0.000 C 
BRANCH  15  16
ATOM     16  C   UNL     1     181.458 182.918 179.617  1.00  0.00    -0.000 C 
BRANCH  16  17
ATOM     17  C   UNL     1     182.075 181.664 178.966  1.00  0.00    -0.000 C 
BRANCH  17  18
ATOM     18  C   UNL     1     182.231 180.452 179.902  1.00  0.00    -0.000 C 
BRANCH  18  19
ATOM     19  C   UNL     1     181.617 180.688 181.288  1.00  0.00    -0.003 C 
ATOM     20  C   UNL     1     182.569 180.241 182.394  1.00  0.00     0.004 C 
ENDBRANCH  18  19
ENDBRANCH  17  18
ENDBRANCH  16  17
ENDBRANCH  15  16
ENDBRANCH  14  15
ENDBRANCH  13  14
ENDBRANCH  12  13
ENDBRANCH   1  12
TORSDOF 16
ENDMDL
MODEL 9
REMARK VINA RESULT:     0.050      8.231     10.876
REMARK INTER + INTRA:          -3.583
REMARK INTER:                   0.000
REMARK INTRA:                  -3.583
REMARK UNBOUND:                -3.680
REMARK SMILES CCCCCCCCCCCCCCCCCC(=O)[O-]
REMARK SMILES IDX 10 1 11 2 12 3 13 4 14 5 15 6 16 7 17 8 18 9 19 10 20 11
REMARK SMILES IDX 9 12 8 13 7 14 6 15 5 16 4 17 3 18 2 19 1 20
REMARK H PARENT
REMARK Flexibility Score: inf
ROOT
ATOM      1  C   UNL     1     181.655 179.262 179.004  1.00  0.00     0.000 C 
ENDROOT
BRANCH   1   2
ATOM      2  C   UNL     1     183.066 179.280 179.612  1.00  0.00     0.000 C 
BRANCH   2   3
ATOM      3  C   UNL     1     184.144 179.703 178.600  1.00  0.00     0.000 C 
BRANCH   3   4
ATOM      4  C   UNL     1     185.244 178.652 178.348  1.00  0.00     0.000 C 
BRANCH   4   5
ATOM      5  C   UNL     1     185.464 178.330 176.855  1.00  0.00     0.000 C 
BRANCH   5   6
ATOM      6  C   UNL     1     185.077 179.508 175.944  1.00  0.00     0.000 C 
BRANCH   6   7
ATOM      7  C   UNL     1     184.326 179.055 174.681  1.00  0.00     0.006 C 
BRANCH   7   8
ATOM      8  C   UNL     1     184.265 177.527 174.554  1.00  0.00     0.053 C 
BRANCH   8   9
ATOM      9  C   UNL     1     183.158 177.123 173.633  1.00  0.00     0.041 C 
ATOM     10  O   UNL     1     182.339 176.232 173.978  1.00  0.00    -0.550 OA
ATOM     11  O   UNL     1     183.059 177.697 172.371  1.00  0.00    -0.550 OA
ENDBRANCH   8   9
ENDBRANCH   7   8
ENDBRANCH   6   7
ENDBRANCH   5   6
ENDBRANCH   4   5
ENDBRANCH   3   4
ENDBRANCH   2   3
ENDBRANCH   1   2
BRANCH   1  12
ATOM     12  C   UNL     1     181.701 179.600 177.509  1.00  0.00     0.000 C 
BRANCH  12  13
ATOM     13  C   UNL     1     181.275 178.392 176.659  1.00  0.00    -0.000 C 
BRANCH  13  14
ATOM     14  C   UNL     1     180.525 177.327 177.473  1.00  0.00    -0.000 C 
BRANCH  14  15
ATOM     15  C   UNL     1     181.159 175.930 177.346  1.00  0.00    -0.000 C 
BRANCH  15  16
ATOM     16  C   UNL     1     182.693 175.957 177.483  1.00  0.00    -0.000 C 
BRANCH  16  17
ATOM     17  C   UNL     1     183.235 175.605 178.884  1.00  0.00    -0.000 C 
BRANCH  17  18
ATOM     18  C   UNL     1     182.185 175.077 179.876  1.00  0.00    -0.000 C 
BRANCH  18  19
ATOM     19  C   UNL     1     181.926 176.043 181.040  1.00  0.00    -0.003 C 
ATOM     20  C   UNL     1     180.450 176.420 181.124  1.00  0.00     0.004 C 
ENDBRANCH  18  19
ENDBRANCH  17  18
ENDBRANCH  16  17
ENDBRANCH  15  16
ENDBRANCH  14  15
ENDBRANCH  13  14
ENDBRANCH  12  13
ENDBRANCH   1  12
TORSDOF 16
ENDMDL
