MODEL 1
REMARK VINA RESULT:    -4.529      0.000      0.000
REMARK INTER + INTRA:         -10.614
REMARK INTER:                  -8.766
REMARK INTRA:                  -1.848
REMARK UNBOUND:                -1.848
REMARK SMILES CCCCCCCCCCCCCCCCCC(=O)[O-]
REMARK SMILES IDX 10 1 11 2 12 3 13 4 14 5 15 6 16 7 17 8 18 9 19 10 20 11
REMARK SMILES IDX 9 12 8 13 7 14 6 15 5 16 4 17 3 18 2 19 1 20
REMARK H PARENT
REMARK Flexibility Score: inf
ROOT
ATOM      1  C   UNL     1      28.278  -0.696  -7.481  1.00  0.00     0.000 C 
ENDROOT
BRANCH   1   2
ATOM      2  C   UNL     1      26.838  -0.340  -7.883  1.00  0.00     0.000 C 
BRANCH   2   3
ATOM      3  C   UNL     1      26.352  -1.139  -9.105  1.00  0.00     0.000 C 
BRANCH   3   4
ATOM      4  C   UNL     1      24.828  -1.342  -9.109  1.00  0.00     0.000 C 
BRANCH   4   5
ATOM      5  C   UNL     1      24.233  -1.328 -10.528  1.00  0.00     0.000 C 
BRANCH   5   6
ATOM      6  C   UNL     1      24.898  -0.280 -11.436  1.00  0.00     0.000 C 
BRANCH   6   7
ATOM      7  C   UNL     1      24.157  -0.096 -12.773  1.00  0.00     0.006 C 
BRANCH   7   8
ATOM      8  C   UNL     1      24.706   1.086 -13.581  1.00  0.00     0.053 C 
BRANCH   8   9
ATOM      9  C   UNL     1      25.502   0.630 -14.766  1.00  0.00     0.041 C 
ATOM     10  O   UNL     1      25.439   1.261 -15.853  1.00  0.00    -0.550 OA
ATOM     11  O   UNL     1      26.293  -0.508 -14.674  1.00  0.00    -0.550 OA
ENDBRANCH   8   9
ENDBRANCH   7   8
ENDBRANCH   6   7
ENDBRANCH   5   6
ENDBRANCH   4   5
ENDBRANCH   3   4
ENDBRANCH   2   3
ENDBRANCH   1   2
BRANCH   1  12
ATOM     12  C   UNL     1      28.342  -1.792  -6.407  1.00  0.00     0.000 C 
BRANCH  12  13
ATOM     13  C   UNL     1      28.876  -3.104  -6.994  1.00  0.00    -0.000 C 
BRANCH  13  14
ATOM     14  C   UNL     1      27.974  -4.285  -6.618  1.00  0.00    -0.000 C 
BRANCH  14  15
ATOM     15  C   UNL     1      26.524  -4.030  -7.056  1.00  0.00    -0.000 C 
BRANCH  15  16
ATOM     16  C   UNL     1      25.924  -5.200  -7.856  1.00  0.00    -0.000 C 
BRANCH  16  17
ATOM     17  C   UNL     1      26.062  -5.083  -9.386  1.00  0.00    -0.000 C 
BRANCH  17  18
ATOM     18  C   UNL     1      24.712  -4.926 -10.099  1.00  0.00    -0.000 C 
BRANCH  18  19
ATOM     19  C   UNL     1      23.549  -5.147  -9.125  1.00  0.00    -0.003 C 
ATOM     20  C   UNL     1      22.617  -6.251  -9.619  1.00  0.00     0.004 C 
ENDBRANCH  18  19
ENDBRANCH  17  18
ENDBRANCH  16  17
ENDBRANCH  15  16
ENDBRANCH  14  15
ENDBRANCH  13  14
ENDBRANCH  12  13
ENDBRANCH   1  12
TORSDOF 16
ENDMDL
MODEL 2
REMARK VINA RESULT:    -4.356      1.259      4.114
REMARK INTER + INTRA:         -10.278
REMARK INTER:                  -7.674
REMARK INTRA:                  -2.604
REMARK UNBOUND:                -1.848
REMARK SMILES CCCCCCCCCCCCCCCCCC(=O)[O-]
REMARK SMILES IDX 10 1 11 2 12 3 13 4 14 5 15 6 16 7 17 8 18 9 19 10 20 11
REMARK SMILES IDX 9 12 8 13 7 14 6 15 5 16 4 17 3 18 2 19 1 20
REMARK H PARENT
REMARK Flexibility Score: inf
ROOT
ATOM      1  C   UNL     1      23.995  -4.341  -9.711  1.00  0.00     0.000 C 
ENDROOT
BRANCH   1   2
ATOM      2  C   UNL     1      24.475  -4.087  -8.273  1.00  0.00     0.000 C 
BRANCH   2   3
ATOM      3  C   UNL     1      25.003  -2.655  -8.073  1.00  0.00     0.000 C 
BRANCH   3   4
ATOM      4  C   UNL     1      24.318  -1.638  -9.001  1.00  0.00     0.000 C 
BRANCH   4   5
ATOM      5  C   UNL     1      25.317  -0.665  -9.651  1.00  0.00     0.000 C 
BRANCH   5   6
ATOM      6  C   UNL     1      26.003  -1.264 -10.890  1.00  0.00     0.000 C 
BRANCH   6   7
ATOM      7  C   UNL     1      25.022  -1.512 -12.050  1.00  0.00     0.006 C 
BRANCH   7   8
ATOM      8  C   UNL     1      24.205  -0.260 -12.393  1.00  0.00     0.053 C 
BRANCH   8   9
ATOM      9  C   UNL     1      24.780   0.478 -13.564  1.00  0.00     0.041 C 
ATOM     10  O   UNL     1      25.529  -0.117 -14.382  1.00  0.00    -0.550 OA
ATOM     11  O   UNL     1      24.509   1.830 -13.733  1.00  0.00    -0.550 OA
ENDBRANCH   8   9
ENDBRANCH   7   8
ENDBRANCH   6   7
ENDBRANCH   5   6
ENDBRANCH   4   5
ENDBRANCH   3   4
ENDBRANCH   2   3
ENDBRANCH   1   2
BRANCH   1  12
ATOM     12  C   UNL     1      25.105  -4.888 -10.621  1.00  0.00     0.000 C 
BRANCH  12  13
ATOM     13  C   UNL     1      26.343  -5.275  -9.803  1.00  0.00    -0.000 C 
BRANCH  13  14
ATOM     14  C   UNL     1      27.572  -4.474 -10.250  1.00  0.00    -0.000 C 
BRANCH  14  15
ATOM     15  C   UNL     1      28.529  -4.235  -9.073  1.00  0.00    -0.000 C 
BRANCH  15  16
ATOM     16  C   UNL     1      27.977  -4.757  -7.734  1.00  0.00    -0.000 C 
BRANCH  16  17
ATOM     17  C   UNL     1      28.427  -3.966  -6.491  1.00  0.00    -0.000 C 
BRANCH  17  18
ATOM     18  C   UNL     1      29.334  -2.776  -6.835  1.00  0.00    -0.000 C 
BRANCH  18  19
ATOM     19  C   UNL     1      28.768  -1.472  -6.261  1.00  0.00    -0.003 C 
ATOM     20  C   UNL     1      28.036  -0.669  -7.333  1.00  0.00     0.004 C 
ENDBRANCH  18  19
ENDBRANCH  17  18
ENDBRANCH  16  17
ENDBRANCH  15  16
ENDBRANCH  14  15
ENDBRANCH  13  14
ENDBRANCH  12  13
ENDBRANCH   1  12
TORSDOF 16
ENDMDL
MODEL 3
REMARK VINA RESULT:    -4.265      1.480      3.757
REMARK INTER + INTRA:         -10.101
REMARK INTER:                  -7.502
REMARK INTRA:                  -2.599
REMARK UNBOUND:                -1.848
REMARK SMILES CCCCCCCCCCCCCCCCCC(=O)[O-]
REMARK SMILES IDX 10 1 11 2 12 3 13 4 14 5 15 6 16 7 17 8 18 9 19 10 20 11
REMARK SMILES IDX 9 12 8 13 7 14 6 15 5 16 4 17 3 18 2 19 1 20
REMARK H PARENT
REMARK Flexibility Score: inf
ROOT
ATOM      1  C   UNL     1      24.480  -1.718  -8.794  1.00  0.00     0.000 C 
ENDROOT
BRANCH   1   2
ATOM      2  C   UNL     1      25.647  -0.840  -9.275  1.00  0.00     0.000 C 
BRANCH   2   3
ATOM      3  C   UNL     1      25.645  -0.643 -10.802  1.00  0.00     0.000 C 
BRANCH   3   4
ATOM      4  C   UNL     1      24.336  -1.115 -11.456  1.00  0.00     0.000 C 
BRANCH   4   5
ATOM      5  C   UNL     1      23.866  -0.178 -12.583  1.00  0.00     0.000 C 
BRANCH   5   6
ATOM      6  C   UNL     1      24.941   0.845 -12.986  1.00  0.00     0.000 C 
BRANCH   6   7
ATOM      7  C   UNL     1      25.116   0.951 -14.512  1.00  0.00     0.006 C 
BRANCH   7   8
ATOM      8  C   UNL     1      25.317  -0.422 -15.167  1.00  0.00     0.053 C 
BRANCH   8   9
ATOM      9  C   UNL     1      26.641  -1.024 -14.806  1.00  0.00     0.041 C 
ATOM     10  O   UNL     1      26.695  -2.035 -14.058  1.00  0.00    -0.550 OA
ATOM     11  O   UNL     1      27.816  -0.450 -15.275  1.00  0.00    -0.550 OA
ENDBRANCH   8   9
ENDBRANCH   7   8
ENDBRANCH   6   7
ENDBRANCH   5   6
ENDBRANCH   4   5
ENDBRANCH   3   4
ENDBRANCH   2   3
ENDBRANCH   1   2
BRANCH   1  12
ATOM     12  C   UNL     1      24.938  -2.863  -7.877  1.00  0.00     0.000 C 
BRANCH  12  13
ATOM     13  C   UNL     1      24.491  -4.221  -8.432  1.00  0.00    -0.000 C 
BRANCH  13  14
ATOM     14  C   UNL     1      24.763  -4.318  -9.938  1.00  0.00    -0.000 C 
BRANCH  14  15
ATOM     15  C   UNL     1      26.049  -5.111 -10.214  1.00  0.00    -0.000 C 
BRANCH  15  16
ATOM     16  C   UNL     1      27.294  -4.213 -10.334  1.00  0.00    -0.000 C 
BRANCH  16  17
ATOM     17  C   UNL     1      28.202  -4.189  -9.090  1.00  0.00    -0.000 C 
BRANCH  17  18
ATOM     18  C   UNL     1      28.620  -2.769  -8.682  1.00  0.00    -0.000 C 
BRANCH  18  19
ATOM     19  C   UNL     1      28.568  -2.600  -7.159  1.00  0.00    -0.003 C 
ATOM     20  C   UNL     1      28.425  -1.130  -6.771  1.00  0.00     0.004 C 
ENDBRANCH  18  19
ENDBRANCH  17  18
ENDBRANCH  16  17
ENDBRANCH  15  16
ENDBRANCH  14  15
ENDBRANCH  13  14
ENDBRANCH  12  13
ENDBRANCH   1  12
TORSDOF 16
ENDMDL
MODEL 4
REMARK VINA RESULT:    -4.263      2.496      6.222
REMARK INTER + INTRA:         -10.099
REMARK INTER:                  -8.147
REMARK INTRA:                  -1.952
REMARK UNBOUND:                -1.848
REMARK SMILES CCCCCCCCCCCCCCCCCC(=O)[O-]
REMARK SMILES IDX 10 1 11 2 12 3 13 4 14 5 15 6 16 7 17 8 18 9 19 10 20 11
REMARK SMILES IDX 9 12 8 13 7 14 6 15 5 16 4 17 3 18 2 19 1 20
REMARK H PARENT
REMARK Flexibility Score: inf
ROOT
ATOM      1  C   UNL     1      27.568  -0.497  -7.484  1.00  0.00     0.000 C 
ENDROOT
BRANCH   1   2
ATOM      2  C   UNL     1      28.605  -1.380  -6.769  1.00  0.00     0.000 C 
BRANCH   2   3
ATOM      3  C   UNL     1      28.962  -2.641  -7.575  1.00  0.00     0.000 C 
BRANCH   3   4
ATOM      4  C   UNL     1      28.899  -3.922  -6.725  1.00  0.00     0.000 C 
BRANCH   4   5
ATOM      5  C   UNL     1      27.783  -4.879  -7.179  1.00  0.00     0.000 C 
BRANCH   5   6
ATOM      6  C   UNL     1      26.380  -4.369  -6.808  1.00  0.00     0.000 C 
BRANCH   6   7
ATOM      7  C   UNL     1      25.347  -4.612  -7.922  1.00  0.00     0.006 C 
BRANCH   7   8
ATOM      8  C   UNL     1      26.007  -4.768  -9.298  1.00  0.00     0.053 C 
BRANCH   8   9
ATOM      9  C   UNL     1      25.008  -5.116 -10.359  1.00  0.00     0.041 C 
ATOM     10  O   UNL     1      23.790  -4.837 -10.201  1.00  0.00    -0.550 OA
ATOM     11  O   UNL     1      25.420  -5.774 -11.511  1.00  0.00    -0.550 OA
ENDBRANCH   8   9
ENDBRANCH   7   8
ENDBRANCH   6   7
ENDBRANCH   5   6
ENDBRANCH   4   5
ENDBRANCH   3   4
ENDBRANCH   2   3
ENDBRANCH   1   2
BRANCH   1  12
ATOM     12  C   UNL     1      26.838  -1.237  -8.615  1.00  0.00     0.000 C 
BRANCH  12  13
ATOM     13  C   UNL     1      25.601  -0.454  -9.072  1.00  0.00    -0.000 C 
BRANCH  13  14
ATOM     14  C   UNL     1      24.496  -1.402  -9.555  1.00  0.00    -0.000 C 
BRANCH  14  15
ATOM     15  C   UNL     1      24.489  -1.501 -11.088  1.00  0.00    -0.000 C 
BRANCH  15  16
ATOM     16  C   UNL     1      25.079  -0.255 -11.773  1.00  0.00    -0.000 C 
BRANCH  16  17
ATOM     17  C   UNL     1      24.219   0.332 -12.908  1.00  0.00    -0.000 C 
BRANCH  17  18
ATOM     18  C   UNL     1      24.810   1.618 -13.503  1.00  0.00    -0.000 C 
BRANCH  18  19
ATOM     19  C   UNL     1      25.834   1.295 -14.598  1.00  0.00    -0.003 C 
ATOM     20  C   UNL     1      25.255   0.327 -15.627  1.00  0.00     0.004 C 
ENDBRANCH  18  19
ENDBRANCH  17  18
ENDBRANCH  16  17
ENDBRANCH  15  16
ENDBRANCH  14  15
ENDBRANCH  13  14
ENDBRANCH  12  13
ENDBRANCH   1  12
TORSDOF 16
ENDMDL
MODEL 5
REMARK VINA RESULT:    -4.262      3.617      6.714
REMARK INTER + INTRA:         -10.096
REMARK INTER:                  -7.343
REMARK INTRA:                  -2.752
REMARK UNBOUND:                -1.848
REMARK SMILES CCCCCCCCCCCCCCCCCC(=O)[O-]
REMARK SMILES IDX 10 1 11 2 12 3 13 4 14 5 15 6 16 7 17 8 18 9 19 10 20 11
REMARK SMILES IDX 9 12 8 13 7 14 6 15 5 16 4 17 3 18 2 19 1 20
REMARK H PARENT
REMARK Flexibility Score: inf
ROOT
ATOM      1  C   UNL     1      23.884  -4.350  -9.272  1.00  0.00     0.000 C 
ENDROOT
BRANCH   1   2
ATOM      2  C   UNL     1      23.740  -5.789  -9.795  1.00  0.00     0.000 C 
BRANCH   2   3
ATOM      3  C   UNL     1      24.956  -6.240 -10.622  1.00  0.00     0.000 C 
BRANCH   3   4
ATOM      4  C   UNL     1      25.599  -5.083 -11.406  1.00  0.00     0.000 C 
BRANCH   4   5
ATOM      5  C   UNL     1      27.119  -4.993 -11.186  1.00  0.00     0.000 C 
BRANCH   5   6
ATOM      6  C   UNL     1      27.546  -3.660 -10.548  1.00  0.00     0.000 C 
BRANCH   6   7
ATOM      7  C   UNL     1      28.329  -3.853  -9.237  1.00  0.00     0.006 C 
BRANCH   7   8
ATOM      8  C   UNL     1      28.228  -5.290  -8.710  1.00  0.00     0.053 C 
BRANCH   8   9
ATOM      9  C   UNL     1      28.208  -5.335  -7.213  1.00  0.00     0.041 C 
ATOM     10  O   UNL     1      28.053  -6.431  -6.613  1.00  0.00    -0.550 OA
ATOM     11  O   UNL     1      28.334  -4.161  -6.481  1.00  0.00    -0.550 OA
ENDBRANCH   8   9
ENDBRANCH   7   8
ENDBRANCH   6   7
ENDBRANCH   5   6
ENDBRANCH   4   5
ENDBRANCH   3   4
ENDBRANCH   2   3
ENDBRANCH   1   2
BRANCH   1  12
ATOM     12  C   UNL     1      24.651  -4.276  -7.943  1.00  0.00     0.000 C 
BRANCH  12  13
ATOM     13  C   UNL     1      25.242  -2.877  -7.729  1.00  0.00    -0.000 C 
BRANCH  13  14
ATOM     14  C   UNL     1      24.587  -1.853  -8.664  1.00  0.00    -0.000 C 
BRANCH  14  15
ATOM     15  C   UNL     1      25.595  -0.776  -9.091  1.00  0.00    -0.000 C 
BRANCH  15  16
ATOM     16  C   UNL     1      25.672  -0.597 -10.618  1.00  0.00    -0.000 C 
BRANCH  16  17
ATOM     17  C   UNL     1      24.581  -1.335 -11.416  1.00  0.00    -0.000 C 
BRANCH  17  18
ATOM     18  C   UNL     1      23.835  -0.421 -12.399  1.00  0.00    -0.000 C 
BRANCH  18  19
ATOM     19  C   UNL     1      24.604  -0.294 -13.720  1.00  0.00    -0.003 C 
ATOM     20  C   UNL     1      24.872   1.168 -14.064  1.00  0.00     0.004 C 
ENDBRANCH  18  19
ENDBRANCH  17  18
ENDBRANCH  16  17
ENDBRANCH  15  16
ENDBRANCH  14  15
ENDBRANCH  13  14
ENDBRANCH  12  13
ENDBRANCH   1  12
TORSDOF 16
ENDMDL
MODEL 6
REMARK VINA RESULT:    -4.227      1.681      3.378
REMARK INTER + INTRA:         -10.028
REMARK INTER:                  -7.102
REMARK INTRA:                  -2.926
REMARK UNBOUND:                -1.848
REMARK SMILES CCCCCCCCCCCCCCCCCC(=O)[O-]
REMARK SMILES IDX 10 1 11 2 12 3 13 4 14 5 15 6 16 7 17 8 18 9 19 10 20 11
REMARK SMILES IDX 9 12 8 13 7 14 6 15 5 16 4 17 3 18 2 19 1 20
REMARK H PARENT
REMARK Flexibility Score: inf
ROOT
ATOM      1  C   UNL     1      26.065  -3.578  -7.310  1.00  0.00     0.000 C 
ENDROOT
BRANCH   1   2
ATOM      2  C   UNL     1      26.955  -2.684  -8.189  1.00  0.00     0.000 C 
BRANCH   2   3
ATOM      3  C   UNL     1      26.574  -1.196  -8.094  1.00  0.00     0.000 C 
BRANCH   3   4
ATOM      4  C   UNL     1      25.819  -0.700  -9.338  1.00  0.00     0.000 C 
BRANCH   4   5
ATOM      5  C   UNL     1      24.423  -1.332  -9.474  1.00  0.00     0.000 C 
BRANCH   5   6
ATOM      6  C   UNL     1      23.847  -1.193 -10.894  1.00  0.00     0.000 C 
BRANCH   6   7
ATOM      7  C   UNL     1      24.687  -0.261 -11.785  1.00  0.00     0.006 C 
BRANCH   7   8
ATOM      8  C   UNL     1      24.353  -0.428 -13.273  1.00  0.00     0.053 C 
BRANCH   8   9
ATOM      9  C   UNL     1      24.952   0.663 -14.106  1.00  0.00     0.041 C 
ATOM     10  O   UNL     1      25.091   0.510 -15.348  1.00  0.00    -0.550 OA
ATOM     11  O   UNL     1      25.383   1.839 -13.505  1.00  0.00    -0.550 OA
ENDBRANCH   8   9
ENDBRANCH   7   8
ENDBRANCH   6   7
ENDBRANCH   5   6
ENDBRANCH   4   5
ENDBRANCH   3   4
ENDBRANCH   2   3
ENDBRANCH   1   2
BRANCH   1  12
ATOM     12  C   UNL     1      26.461  -5.061  -7.377  1.00  0.00     0.000 C 
BRANCH  12  13
ATOM     13  C   UNL     1      25.522  -5.837  -8.308  1.00  0.00    -0.000 C 
BRANCH  13  14
ATOM     14  C   UNL     1      24.250  -5.034  -8.603  1.00  0.00    -0.000 C 
BRANCH  14  15
ATOM     15  C   UNL     1      24.022  -4.901 -10.115  1.00  0.00    -0.000 C 
BRANCH  15  16
ATOM     16  C   UNL     1      25.297  -5.157 -10.939  1.00  0.00    -0.000 C 
BRANCH  16  17
ATOM     17  C   UNL     1      25.824  -3.939 -11.720  1.00  0.00    -0.000 C 
BRANCH  17  18
ATOM     18  C   UNL     1      27.352  -3.805 -11.662  1.00  0.00    -0.000 C 
BRANCH  18  19
ATOM     19  C   UNL     1      27.787  -2.361 -11.937  1.00  0.00    -0.003 C 
ATOM     20  C   UNL     1      27.802  -2.066 -13.435  1.00  0.00     0.004 C 
ENDBRANCH  18  19
ENDBRANCH  17  18
ENDBRANCH  16  17
ENDBRANCH  15  16
ENDBRANCH  14  15
ENDBRANCH  13  14
ENDBRANCH  12  13
ENDBRANCH   1  12
TORSDOF 16
ENDMDL
MODEL 7
REMARK VINA RESULT:    -4.217      1.406      2.666
REMARK INTER + INTRA:         -10.008
REMARK INTER:                  -7.228
REMARK INTRA:                  -2.780
REMARK UNBOUND:                -1.848
REMARK SMILES CCCCCCCCCCCCCCCCCC(=O)[O-]
REMARK SMILES IDX 10 1 11 2 12 3 13 4 14 5 15 6 16 7 17 8 18 9 19 10 20 11
REMARK SMILES IDX 9 12 8 13 7 14 6 15 5 16 4 17 3 18 2 19 1 20
REMARK H PARENT
REMARK Flexibility Score: inf
ROOT
ATOM      1  C   UNL     1      26.694  -2.369  -8.294  1.00  0.00     0.000 C 
ENDROOT
BRANCH   1   2
ATOM      2  C   UNL     1      26.054  -1.205  -9.069  1.00  0.00     0.000 C 
BRANCH   2   3
ATOM      3  C   UNL     1      24.523  -1.331  -9.163  1.00  0.00     0.000 C 
BRANCH   3   4
ATOM      4  C   UNL     1      24.013  -1.275 -10.613  1.00  0.00     0.000 C 
BRANCH   4   5
ATOM      5  C   UNL     1      24.912  -0.418 -11.522  1.00  0.00     0.000 C 
BRANCH   5   6
ATOM      6  C   UNL     1      24.180   0.070 -12.784  1.00  0.00     0.000 C 
BRANCH   6   7
ATOM      7  C   UNL     1      24.909   1.235 -13.478  1.00  0.00     0.006 C 
BRANCH   7   8
ATOM      8  C   UNL     1      25.191   0.940 -14.957  1.00  0.00     0.053 C 
BRANCH   8   9
ATOM      9  C   UNL     1      26.582   0.426 -15.168  1.00  0.00     0.041 C 
ATOM     10  O   UNL     1      27.455   1.159 -15.702  1.00  0.00    -0.550 OA
ATOM     11  O   UNL     1      26.906  -0.873 -14.798  1.00  0.00    -0.550 OA
ENDBRANCH   8   9
ENDBRANCH   7   8
ENDBRANCH   6   7
ENDBRANCH   5   6
ENDBRANCH   4   5
ENDBRANCH   3   4
ENDBRANCH   2   3
ENDBRANCH   1   2
BRANCH   1  12
ATOM     12  C   UNL     1      25.671  -3.175  -7.480  1.00  0.00     0.000 C 
BRANCH  12  13
ATOM     13  C   UNL     1      26.179  -4.597  -7.215  1.00  0.00    -0.000 C 
BRANCH  13  14
ATOM     14  C   UNL     1      25.486  -5.610  -8.135  1.00  0.00    -0.000 C 
BRANCH  14  15
ATOM     15  C   UNL     1      24.164  -5.046  -8.676  1.00  0.00    -0.000 C 
BRANCH  15  16
ATOM     16  C   UNL     1      24.124  -4.977 -10.213  1.00  0.00    -0.000 C 
BRANCH  16  17
ATOM     17  C   UNL     1      25.476  -5.216 -10.911  1.00  0.00    -0.000 C 
BRANCH  17  18
ATOM     18  C   UNL     1      25.973  -3.990 -11.690  1.00  0.00    -0.000 C 
BRANCH  18  19
ATOM     19  C   UNL     1      27.485  -3.804 -11.514  1.00  0.00    -0.003 C 
ATOM     20  C   UNL     1      28.069  -4.878 -10.600  1.00  0.00     0.004 C 
ENDBRANCH  18  19
ENDBRANCH  17  18
ENDBRANCH  16  17
ENDBRANCH  15  16
ENDBRANCH  14  15
ENDBRANCH  13  14
ENDBRANCH  12  13
ENDBRANCH   1  12
TORSDOF 16
ENDMDL
MODEL 8
REMARK VINA RESULT:    -4.177      3.362      6.690
REMARK INTER + INTRA:          -9.932
REMARK INTER:                  -7.234
REMARK INTRA:                  -2.699
REMARK UNBOUND:                -1.848
REMARK SMILES CCCCCCCCCCCCCCCCCC(=O)[O-]
REMARK SMILES IDX 10 1 11 2 12 3 13 4 14 5 15 6 16 7 17 8 18 9 19 10 20 11
REMARK SMILES IDX 9 12 8 13 7 14 6 15 5 16 4 17 3 18 2 19 1 20
REMARK H PARENT
REMARK Flexibility Score: inf
ROOT
ATOM      1  C   UNL     1      24.015  -0.590 -12.630  1.00  0.00     0.000 C 
ENDROOT
BRANCH   1   2
ATOM      2  C   UNL     1      24.192  -1.103 -11.191  1.00  0.00     0.000 C 
BRANCH   2   3
ATOM      3  C   UNL     1      25.542  -0.688 -10.579  1.00  0.00     0.000 C 
BRANCH   3   4
ATOM      4  C   UNL     1      25.501  -0.636  -9.042  1.00  0.00     0.000 C 
BRANCH   4   5
ATOM      5  C   UNL     1      25.933  -1.963  -8.394  1.00  0.00     0.000 C 
BRANCH   5   6
ATOM      6  C   UNL     1      24.737  -2.800  -7.909  1.00  0.00     0.000 C 
BRANCH   6   7
ATOM      7  C   UNL     1      24.760  -4.239  -8.457  1.00  0.00     0.006 C 
BRANCH   7   8
ATOM      8  C   UNL     1      23.734  -4.445  -9.579  1.00  0.00     0.053 C 
BRANCH   8   9
ATOM      9  C   UNL     1      23.367  -5.889  -9.741  1.00  0.00     0.041 C 
ATOM     10  O   UNL     1      22.213  -6.288  -9.435  1.00  0.00    -0.550 OA
ATOM     11  O   UNL     1      24.310  -6.798 -10.203  1.00  0.00    -0.550 OA
ENDBRANCH   8   9
ENDBRANCH   7   8
ENDBRANCH   6   7
ENDBRANCH   5   6
ENDBRANCH   4   5
ENDBRANCH   3   4
ENDBRANCH   2   3
ENDBRANCH   1   2
BRANCH   1  12
ATOM     12  C   UNL     1      24.676   0.778 -12.858  1.00  0.00     0.000 C 
BRANCH  12  13
ATOM     13  C   UNL     1      25.174   0.912 -14.302  1.00  0.00    -0.000 C 
BRANCH  13  14
ATOM     14  C   UNL     1      25.176  -0.447 -15.013  1.00  0.00    -0.000 C 
BRANCH  14  15
ATOM     15  C   UNL     1      26.609  -0.905 -15.319  1.00  0.00    -0.000 C 
BRANCH  15  16
ATOM     16  C   UNL     1      26.917  -2.315 -14.782  1.00  0.00    -0.000 C 
BRANCH  16  17
ATOM     17  C   UNL     1      27.154  -2.395 -13.262  1.00  0.00    -0.000 C 
BRANCH  17  18
ATOM     18  C   UNL     1      26.546  -3.654 -12.627  1.00  0.00    -0.000 C 
BRANCH  18  19
ATOM     19  C   UNL     1      27.194  -3.950 -11.269  1.00  0.00    -0.003 C 
ATOM     20  C   UNL     1      28.421  -3.071 -11.040  1.00  0.00     0.004 C 
ENDBRANCH  18  19
ENDBRANCH  17  18
ENDBRANCH  16  17
ENDBRANCH  15  16
ENDBRANCH  14  15
ENDBRANCH  13  14
ENDBRANCH  12  13
ENDBRANCH   1  12
TORSDOF 16
ENDMDL
MODEL 9
REMARK VINA RESULT:    -4.157      1.441      2.160
REMARK INTER + INTRA:          -9.892
REMARK INTER:                  -7.731
REMARK INTRA:                  -2.161
REMARK UNBOUND:                -1.848
REMARK SMILES CCCCCCCCCCCCCCCCCC(=O)[O-]
REMARK SMILES IDX 10 1 11 2 12 3 13 4 14 5 15 6 16 7 17 8 18 9 19 10 20 11
REMARK SMILES IDX 9 12 8 13 7 14 6 15 5 16 4 17 3 18 2 19 1 20
REMARK H PARENT
REMARK Flexibility Score: inf
ROOT
ATOM      1  C   UNL     1      24.546  -1.809  -8.600  1.00  0.00     0.000 C 
ENDROOT
BRANCH   1   2
ATOM      2  C   UNL     1      25.783  -1.115  -9.191  1.00  0.00     0.000 C 
BRANCH   2   3
ATOM      3  C   UNL     1      25.722  -1.004 -10.725  1.00  0.00     0.000 C 
BRANCH   3   4
ATOM      4  C   UNL     1      24.295  -1.178 -11.272  1.00  0.00     0.000 C 
BRANCH   4   5
ATOM      5  C   UNL     1      24.097  -0.492 -12.635  1.00  0.00     0.000 C 
BRANCH   5   6
ATOM      6  C   UNL     1      24.905   0.810 -12.764  1.00  0.00     0.000 C 
BRANCH   6   7
ATOM      7  C   UNL     1      24.902   1.370 -14.198  1.00  0.00     0.006 C 
BRANCH   7   8
ATOM      8  C   UNL     1      25.256   0.300 -15.238  1.00  0.00     0.053 C 
BRANCH   8   9
ATOM      9  C   UNL     1      26.729   0.029 -15.281  1.00  0.00     0.041 C 
ATOM     10  O   UNL     1      27.182  -1.076 -14.883  1.00  0.00    -0.550 OA
ATOM     11  O   UNL     1      27.602   1.009 -15.735  1.00  0.00    -0.550 OA
ENDBRANCH   8   9
ENDBRANCH   7   8
ENDBRANCH   6   7
ENDBRANCH   5   6
ENDBRANCH   4   5
ENDBRANCH   3   4
ENDBRANCH   2   3
ENDBRANCH   1   2
BRANCH   1  12
ATOM     12  C   UNL     1      24.903  -2.843  -7.521  1.00  0.00     0.000 C 
BRANCH  12  13
ATOM     13  C   UNL     1      26.371  -3.271  -7.637  1.00  0.00    -0.000 C 
BRANCH  13  14
ATOM     14  C   UNL     1      26.627  -4.576  -6.873  1.00  0.00    -0.000 C 
BRANCH  14  15
ATOM     15  C   UNL     1      26.413  -5.795  -7.782  1.00  0.00    -0.000 C 
BRANCH  15  16
ATOM     16  C   UNL     1      26.773  -5.518  -9.253  1.00  0.00    -0.000 C 
BRANCH  16  17
ATOM     17  C   UNL     1      25.709  -5.953 -10.278  1.00  0.00    -0.000 C 
BRANCH  17  18
ATOM     18  C   UNL     1      24.668  -4.861 -10.560  1.00  0.00    -0.000 C 
BRANCH  18  19
ATOM     19  C   UNL     1      23.349  -5.162  -9.839  1.00  0.00    -0.003 C 
ATOM     20  C   UNL     1      23.124  -6.666  -9.705  1.00  0.00     0.004 C 
ENDBRANCH  18  19
ENDBRANCH  17  18
ENDBRANCH  16  17
ENDBRANCH  15  16
ENDBRANCH  14  15
ENDBRANCH  13  14
ENDBRANCH  12  13
ENDBRANCH   1  12
TORSDOF 16
ENDMDL
