MODEL 1
REMARK VINA RESULT:    -7.399      0.000      0.000
REMARK INTER + INTRA:          -8.994
REMARK INTER:                  -8.696
REMARK INTRA:                  -0.298
REMARK UNBOUND:                -0.298
REMARK SMILES O=c1c(O)c(-c2ccc(O)cc2)oc2cc(O)cc(O)c12
REMARK SMILES IDX 5 1 3 2 2 3 1 4 21 5 19 6 18 7 16 8 15 9 14 10 13 11 6 12
REMARK SMILES IDX 7 13 8 14 9 15 12 16 11 17 10 18 4 20 20 22 17 24
REMARK H PARENT 10 19 4 21 20 23 17 25
REMARK Flexibility Score: inf
ROOT
ATOM      1  C   UNL     1       6.440   6.314  -0.569  1.00  0.00     0.180 A 
ATOM      2  C   UNL     1       5.632   6.893   0.424  1.00  0.00     0.208 A 
ATOM      3  C   UNL     1       5.811   6.502   1.761  1.00  0.00     0.238 A 
ATOM      4  O   UNL     1       5.123   7.064   2.651  1.00  0.00    -0.285 OA
ATOM      5  C   UNL     1       6.784   5.526   2.085  1.00  0.00     0.111 A 
ATOM      6  C   UNL     1       7.022   5.026   3.400  1.00  0.00     0.134 A 
ATOM      7  C   UNL     1       8.098   4.157   3.623  1.00  0.00     0.093 A 
ATOM      8  C   UNL     1       8.902   3.720   2.568  1.00  0.00     0.123 A 
ATOM      9  C   UNL     1       8.640   4.155   1.272  1.00  0.00     0.094 A 
ATOM     10  C   UNL     1       7.596   5.050   1.023  1.00  0.00     0.146 A 
ATOM     11  O   UNL     1       7.388   5.449  -0.226  1.00  0.00    -0.452 OA
ENDROOT
BRANCH   1  12
ATOM     12  C   UNL     1       6.293   6.656  -2.003  1.00  0.00     0.021 A 
ATOM     13  C   UNL     1       7.127   7.635  -2.569  1.00  0.00     0.016 A 
ATOM     14  C   UNL     1       7.020   7.958  -3.926  1.00  0.00     0.047 A 
ATOM     15  C   UNL     1       6.090   7.294  -4.736  1.00  0.00     0.115 A 
ATOM     16  C   UNL     1       5.375   5.979  -2.829  1.00  0.00     0.016 A 
ATOM     17  C   UNL     1       5.272   6.304  -4.185  1.00  0.00     0.047 A 
BRANCH  15  18
ATOM     18  O   UNL     1       5.974   7.608  -6.089  1.00  0.00    -0.508 OA
ATOM     19  H   UNL     1       6.502   7.108  -6.796  1.00  0.00     0.293 HD
ENDBRANCH  15  18
ENDBRANCH   1  12
BRANCH   2  20
ATOM     20  O   UNL     1       4.693   7.871   0.085  1.00  0.00    -0.502 OA
ATOM     21  H   UNL     1       4.156   8.374   0.781  1.00  0.00     0.293 HD
ENDBRANCH   2  20
BRANCH   6  22
ATOM     22  O   UNL     1       6.223   5.327   4.506  1.00  0.00    -0.507 OA
ATOM     23  H   UNL     1       5.293   5.714   4.455  1.00  0.00     0.293 HD
ENDBRANCH   6  22
BRANCH   8  24
ATOM     24  O   UNL     1       9.960   2.843   2.798  1.00  0.00    -0.508 OA
ATOM     25  H   UNL     1      10.735   2.764   2.150  1.00  0.00     0.293 HD
ENDBRANCH   8  24
TORSDOF 5
ENDMDL
MODEL 2
REMARK VINA RESULT:    -7.376      2.214      4.150
REMARK INTER + INTRA:          -8.968
REMARK INTER:                  -8.857
REMARK INTRA:                  -0.111
REMARK UNBOUND:                -0.298
REMARK SMILES O=c1c(O)c(-c2ccc(O)cc2)oc2cc(O)cc(O)c12
REMARK SMILES IDX 5 1 3 2 2 3 1 4 21 5 19 6 18 7 16 8 15 9 14 10 13 11 6 12
REMARK SMILES IDX 7 13 8 14 9 15 12 16 11 17 10 18 4 20 20 22 17 24
REMARK H PARENT 10 19 4 21 20 23 17 25
REMARK Flexibility Score: inf
ROOT
ATOM      1  C   UNL     1       6.740   5.149   1.765  1.00  0.00     0.180 A 
ATOM      2  C   UNL     1       8.061   4.748   1.498  1.00  0.00     0.208 A 
ATOM      3  C   UNL     1       8.648   3.757   2.302  1.00  0.00     0.238 A 
ATOM      4  O   UNL     1       9.810   3.365   2.023  1.00  0.00    -0.285 OA
ATOM      5  C   UNL     1       7.913   3.192   3.371  1.00  0.00     0.111 A 
ATOM      6  C   UNL     1       8.422   2.211   4.273  1.00  0.00     0.134 A 
ATOM      7  C   UNL     1       7.563   1.626   5.214  1.00  0.00     0.093 A 
ATOM      8  C   UNL     1       6.232   2.036   5.326  1.00  0.00     0.123 A 
ATOM      9  C   UNL     1       5.743   3.035   4.490  1.00  0.00     0.094 A 
ATOM     10  C   UNL     1       6.565   3.611   3.518  1.00  0.00     0.146 A 
ATOM     11  O   UNL     1       6.055   4.553   2.733  1.00  0.00    -0.452 OA
ENDROOT
BRANCH   1  12
ATOM     12  C   UNL     1       6.063   6.205   0.978  1.00  0.00     0.021 A 
ATOM     13  C   UNL     1       5.712   7.414   1.601  1.00  0.00     0.016 A 
ATOM     14  C   UNL     1       5.092   8.433   0.872  1.00  0.00     0.047 A 
ATOM     15  C   UNL     1       4.829   8.262  -0.494  1.00  0.00     0.115 A 
ATOM     16  C   UNL     1       5.814   6.048  -0.399  1.00  0.00     0.016 A 
ATOM     17  C   UNL     1       5.194   7.070  -1.125  1.00  0.00     0.047 A 
BRANCH  15  18
ATOM     18  O   UNL     1       4.211   9.270  -1.230  1.00  0.00    -0.508 OA
ATOM     19  H   UNL     1       3.208   9.418  -1.188  1.00  0.00     0.293 HD
ENDBRANCH  15  18
ENDBRANCH   1  12
BRANCH   2  20
ATOM     20  O   UNL     1       8.760   5.304   0.423  1.00  0.00    -0.502 OA
ATOM     21  H   UNL     1       9.699   5.673   0.517  1.00  0.00     0.293 HD
ENDBRANCH   2  20
BRANCH   6  22
ATOM     22  O   UNL     1       9.757   1.799   4.306  1.00  0.00    -0.507 OA
ATOM     23  H   UNL     1      10.090   0.964   4.764  1.00  0.00     0.293 HD
ENDBRANCH   6  22
BRANCH   8  24
ATOM     24  O   UNL     1       5.391   1.460   6.275  1.00  0.00    -0.508 OA
ATOM     25  H   UNL     1       5.630   0.592   6.740  1.00  0.00     0.293 HD
ENDBRANCH   8  24
TORSDOF 5
ENDMDL
MODEL 3
REMARK VINA RESULT:    -7.375      2.437      4.626
REMARK INTER + INTRA:          -8.966
REMARK INTER:                  -8.836
REMARK INTRA:                  -0.130
REMARK UNBOUND:                -0.298
REMARK SMILES O=c1c(O)c(-c2ccc(O)cc2)oc2cc(O)cc(O)c12
REMARK SMILES IDX 5 1 3 2 2 3 1 4 21 5 19 6 18 7 16 8 15 9 14 10 13 11 6 12
REMARK SMILES IDX 7 13 8 14 9 15 12 16 11 17 10 18 4 20 20 22 17 24
REMARK H PARENT 10 19 4 21 20 23 17 25
REMARK Flexibility Score: inf
ROOT
ATOM      1  C   UNL     1       6.941   4.794   2.240  1.00  0.00     0.180 A 
ATOM      2  C   UNL     1       8.254   4.384   1.953  1.00  0.00     0.208 A 
ATOM      3  C   UNL     1       8.839   3.374   2.734  1.00  0.00     0.238 A 
ATOM      4  O   UNL     1       9.994   2.974   2.437  1.00  0.00    -0.285 OA
ATOM      5  C   UNL     1       8.109   2.798   3.801  1.00  0.00     0.111 A 
ATOM      6  C   UNL     1       8.617   1.796   4.682  1.00  0.00     0.134 A 
ATOM      7  C   UNL     1       7.762   1.206   5.621  1.00  0.00     0.093 A 
ATOM      8  C   UNL     1       6.436   1.627   5.755  1.00  0.00     0.123 A 
ATOM      9  C   UNL     1       5.949   2.645   4.940  1.00  0.00     0.094 A 
ATOM     10  C   UNL     1       6.767   3.229   3.969  1.00  0.00     0.146 A 
ATOM     11  O   UNL     1       6.259   4.189   3.206  1.00  0.00    -0.452 OA
ENDROOT
BRANCH   1  12
ATOM     12  C   UNL     1       6.267   5.870   1.479  1.00  0.00     0.021 A 
ATOM     13  C   UNL     1       5.942   5.662   0.127  1.00  0.00     0.016 A 
ATOM     14  C   UNL     1       5.286   6.656  -0.605  1.00  0.00     0.047 A 
ATOM     15  C   UNL     1       4.932   7.864   0.010  1.00  0.00     0.115 A 
ATOM     16  C   UNL     1       5.890   7.079   2.093  1.00  0.00     0.016 A 
ATOM     17  C   UNL     1       5.232   8.070   1.358  1.00  0.00     0.047 A 
BRANCH  15  18
ATOM     18  O   UNL     1       4.278   8.863  -0.710  1.00  0.00    -0.508 OA
ATOM     19  H   UNL     1       3.401   9.259  -0.390  1.00  0.00     0.293 HD
ENDBRANCH  15  18
ENDBRANCH   1  12
BRANCH   2  20
ATOM     20  O   UNL     1       8.949   4.951   0.880  1.00  0.00    -0.502 OA
ATOM     21  H   UNL     1       9.116   5.947   0.806  1.00  0.00     0.293 HD
ENDBRANCH   2  20
BRANCH   6  22
ATOM     22  O   UNL     1       9.948   1.370   4.694  1.00  0.00    -0.507 OA
ATOM     23  H   UNL     1      10.373   0.793   3.985  1.00  0.00     0.293 HD
ENDBRANCH   6  22
BRANCH   8  24
ATOM     24  O   UNL     1       5.599   1.044   6.703  1.00  0.00    -0.508 OA
ATOM     25  H   UNL     1       4.737   0.582   6.437  1.00  0.00     0.293 HD
ENDBRANCH   8  24
TORSDOF 5
ENDMDL
MODEL 4
REMARK VINA RESULT:    -7.201      2.107      6.781
REMARK INTER + INTRA:          -8.763
REMARK INTER:                  -8.537
REMARK INTRA:                  -0.226
REMARK UNBOUND:                -0.298
REMARK SMILES O=c1c(O)c(-c2ccc(O)cc2)oc2cc(O)cc(O)c12
REMARK SMILES IDX 5 1 3 2 2 3 1 4 21 5 19 6 18 7 16 8 15 9 14 10 13 11 6 12
REMARK SMILES IDX 7 13 8 14 9 15 12 16 11 17 10 18 4 20 20 22 17 24
REMARK H PARENT 10 19 4 21 20 23 17 25
REMARK Flexibility Score: inf
ROOT
ATOM      1  C   UNL     1       5.822   5.352   2.369  1.00  0.00     0.180 A 
ATOM      2  C   UNL     1       5.649   6.673   2.816  1.00  0.00     0.208 A 
ATOM      3  C   UNL     1       5.458   7.693   1.869  1.00  0.00     0.238 A 
ATOM      4  O   UNL     1       5.249   8.864   2.278  1.00  0.00    -0.285 OA
ATOM      5  C   UNL     1       5.459   7.381   0.488  1.00  0.00     0.111 A 
ATOM      6  C   UNL     1       5.314   8.340  -0.558  1.00  0.00     0.134 A 
ATOM      7  C   UNL     1       5.199   7.902  -1.884  1.00  0.00     0.093 A 
ATOM      8  C   UNL     1       5.288   6.546  -2.205  1.00  0.00     0.123 A 
ATOM      9  C   UNL     1       5.489   5.608  -1.196  1.00  0.00     0.094 A 
ATOM     10  C   UNL     1       5.572   6.010   0.139  1.00  0.00     0.146 A 
ATOM     11  O   UNL     1       5.752   5.082   1.071  1.00  0.00    -0.452 OA
ENDROOT
BRANCH   1  12
ATOM     12  C   UNL     1       6.054   4.228   3.304  1.00  0.00     0.021 A 
ATOM     13  C   UNL     1       7.353   3.714   3.461  1.00  0.00     0.016 A 
ATOM     14  C   UNL     1       7.598   2.668   4.355  1.00  0.00     0.047 A 
ATOM     15  C   UNL     1       6.550   2.133   5.116  1.00  0.00     0.115 A 
ATOM     16  C   UNL     1       5.011   3.698   4.088  1.00  0.00     0.016 A 
ATOM     17  C   UNL     1       5.261   2.652   4.982  1.00  0.00     0.047 A 
BRANCH  15  18
ATOM     18  O   UNL     1       6.783   1.089   6.010  1.00  0.00    -0.508 OA
ATOM     19  H   UNL     1       6.025   0.517   6.365  1.00  0.00     0.293 HD
ENDBRANCH  15  18
ENDBRANCH   1  12
BRANCH   2  20
ATOM     20  O   UNL     1       5.629   6.955   4.185  1.00  0.00    -0.502 OA
ATOM     21  H   UNL     1       5.075   6.420   4.843  1.00  0.00     0.293 HD
ENDBRANCH   2  20
BRANCH   6  22
ATOM     22  O   UNL     1       5.306   9.723  -0.354  1.00  0.00    -0.507 OA
ATOM     23  H   UNL     1       4.838  10.389  -0.948  1.00  0.00     0.293 HD
ENDBRANCH   6  22
BRANCH   8  24
ATOM     24  O   UNL     1       5.188   6.122  -3.529  1.00  0.00    -0.508 OA
ATOM     25  H   UNL     1       5.783   6.503  -4.254  1.00  0.00     0.293 HD
ENDBRANCH   8  24
TORSDOF 5
ENDMDL
MODEL 5
REMARK VINA RESULT:    -6.853      1.672      6.629
REMARK INTER + INTRA:          -8.353
REMARK INTER:                  -8.154
REMARK INTRA:                  -0.199
REMARK UNBOUND:                -0.298
REMARK SMILES O=c1c(O)c(-c2ccc(O)cc2)oc2cc(O)cc(O)c12
REMARK SMILES IDX 5 1 3 2 2 3 1 4 21 5 19 6 18 7 16 8 15 9 14 10 13 11 6 12
REMARK SMILES IDX 7 13 8 14 9 15 12 16 11 17 10 18 4 20 20 22 17 24
REMARK H PARENT 10 19 4 21 20 23 17 25
REMARK Flexibility Score: inf
ROOT
ATOM      1  C   UNL     1       5.847   6.215   0.856  1.00  0.00     0.180 A 
ATOM      2  C   UNL     1       5.400   7.515   1.149  1.00  0.00     0.208 A 
ATOM      3  C   UNL     1       5.059   8.372   0.091  1.00  0.00     0.238 A 
ATOM      4  O   UNL     1       4.607   9.515   0.362  1.00  0.00    -0.285 OA
ATOM      5  C   UNL     1       5.184   7.925  -1.246  1.00  0.00     0.111 A 
ATOM      6  C   UNL     1       4.904   8.722  -2.396  1.00  0.00     0.134 A 
ATOM      7  C   UNL     1       4.937   8.135  -3.667  1.00  0.00     0.093 A 
ATOM      8  C   UNL     1       5.303   6.797  -3.834  1.00  0.00     0.123 A 
ATOM      9  C   UNL     1       5.636   6.028  -2.723  1.00  0.00     0.094 A 
ATOM     10  C   UNL     1       5.577   6.575  -1.439  1.00  0.00     0.146 A 
ATOM     11  O   UNL     1       5.891   5.802  -0.405  1.00  0.00    -0.452 OA
ENDROOT
BRANCH   1  12
ATOM     12  C   UNL     1       6.250   5.262   1.916  1.00  0.00     0.021 A 
ATOM     13  C   UNL     1       5.263   4.658   2.715  1.00  0.00     0.016 A 
ATOM     14  C   UNL     1       5.620   3.739   3.707  1.00  0.00     0.047 A 
ATOM     15  C   UNL     1       6.965   3.401   3.901  1.00  0.00     0.115 A 
ATOM     16  C   UNL     1       7.597   4.901   2.105  1.00  0.00     0.016 A 
ATOM     17  C   UNL     1       7.950   3.981   3.097  1.00  0.00     0.047 A 
BRANCH  15  18
ATOM     18  O   UNL     1       7.332   2.487   4.887  1.00  0.00    -0.508 OA
ATOM     19  H   UNL     1       6.745   2.316   5.697  1.00  0.00     0.293 HD
ENDBRANCH  15  18
ENDBRANCH   1  12
BRANCH   2  20
ATOM     20  O   UNL     1       5.263   7.928   2.478  1.00  0.00    -0.502 OA
ATOM     21  H   UNL     1       5.854   7.574   3.221  1.00  0.00     0.293 HD
ENDBRANCH   2  20
BRANCH   6  22
ATOM     22  O   UNL     1       4.618  10.090  -2.347  1.00  0.00    -0.507 OA
ATOM     23  H   UNL     1       4.195  10.560  -1.563  1.00  0.00     0.293 HD
ENDBRANCH   6  22
BRANCH   8  24
ATOM     24  O   UNL     1       5.348   6.227  -5.104  1.00  0.00    -0.508 OA
ATOM     25  H   UNL     1       4.773   6.573  -5.862  1.00  0.00     0.293 HD
ENDBRANCH   8  24
TORSDOF 5
ENDMDL
MODEL 6
REMARK VINA RESULT:    -6.804      2.218      3.398
REMARK INTER + INTRA:          -8.295
REMARK INTER:                  -8.226
REMARK INTRA:                  -0.069
REMARK UNBOUND:                -0.298
REMARK SMILES O=c1c(O)c(-c2ccc(O)cc2)oc2cc(O)cc(O)c12
REMARK SMILES IDX 5 1 3 2 2 3 1 4 21 5 19 6 18 7 16 8 15 9 14 10 13 11 6 12
REMARK SMILES IDX 7 13 8 14 9 15 12 16 11 17 10 18 4 20 20 22 17 24
REMARK H PARENT 10 19 4 21 20 23 17 25
REMARK Flexibility Score: inf
ROOT
ATOM      1  C   UNL     1       6.494   4.923   2.367  1.00  0.00     0.180 A 
ATOM      2  C   UNL     1       5.802   5.554   3.416  1.00  0.00     0.208 A 
ATOM      3  C   UNL     1       5.773   4.940   4.678  1.00  0.00     0.238 A 
ATOM      4  O   UNL     1       5.199   5.536   5.626  1.00  0.00    -0.285 OA
ATOM      5  C   UNL     1       6.421   3.696   4.872  1.00  0.00     0.111 A 
ATOM      6  C   UNL     1       6.421   2.966   6.098  1.00  0.00     0.134 A 
ATOM      7  C   UNL     1       7.204   1.810   6.213  1.00  0.00     0.093 A 
ATOM      8  C   UNL     1       7.935   1.324   5.125  1.00  0.00     0.123 A 
ATOM      9  C   UNL     1       7.893   1.998   3.908  1.00  0.00     0.094 A 
ATOM     10  C   UNL     1       7.150   3.173   3.773  1.00  0.00     0.146 A 
ATOM     11  O   UNL     1       7.147   3.790   2.597  1.00  0.00    -0.452 OA
ENDROOT
BRANCH   1  12
ATOM     12  C   UNL     1       6.548   5.495   1.003  1.00  0.00     0.021 A 
ATOM     13  C   UNL     1       7.794   5.691   0.383  1.00  0.00     0.016 A 
ATOM     14  C   UNL     1       7.868   6.210  -0.913  1.00  0.00     0.047 A 
ATOM     15  C   UNL     1       6.695   6.524  -1.613  1.00  0.00     0.115 A 
ATOM     16  C   UNL     1       5.374   5.795   0.285  1.00  0.00     0.016 A 
ATOM     17  C   UNL     1       5.451   6.312  -1.012  1.00  0.00     0.047 A 
BRANCH  15  18
ATOM     18  O   UNL     1       6.756   7.042  -2.905  1.00  0.00    -0.508 OA
ATOM     19  H   UNL     1       7.240   7.910  -3.105  1.00  0.00     0.293 HD
ENDBRANCH  15  18
ENDBRANCH   1  12
BRANCH   2  20
ATOM     20  O   UNL     1       5.188   6.792   3.208  1.00  0.00    -0.502 OA
ATOM     21  H   UNL     1       4.259   6.879   2.813  1.00  0.00     0.293 HD
ENDBRANCH   2  20
BRANCH   6  22
ATOM     22  O   UNL     1       5.654   3.314   7.214  1.00  0.00    -0.507 OA
ATOM     23  H   UNL     1       5.390   4.255   7.459  1.00  0.00     0.293 HD
ENDBRANCH   6  22
BRANCH   8  24
ATOM     24  O   UNL     1       8.699   0.165   5.245  1.00  0.00    -0.508 OA
ATOM     25  H   UNL     1       8.920  -0.410   4.441  1.00  0.00     0.293 HD
ENDBRANCH   8  24
TORSDOF 5
ENDMDL
MODEL 7
REMARK VINA RESULT:    -6.681     14.386     16.234
REMARK INTER + INTRA:          -8.151
REMARK INTER:                  -7.852
REMARK INTRA:                  -0.298
REMARK UNBOUND:                -0.298
REMARK SMILES O=c1c(O)c(-c2ccc(O)cc2)oc2cc(O)cc(O)c12
REMARK SMILES IDX 5 1 3 2 2 3 1 4 21 5 19 6 18 7 16 8 15 9 14 10 13 11 6 12
REMARK SMILES IDX 7 13 8 14 9 15 12 16 11 17 10 18 4 20 20 22 17 24
REMARK H PARENT 10 19 4 21 20 23 17 25
REMARK Flexibility Score: inf
ROOT
ATOM      1  C   UNL     1      -2.219  -4.462   7.451  1.00  0.00     0.180 A 
ATOM      2  C   UNL     1      -2.577  -5.675   8.064  1.00  0.00     0.208 A 
ATOM      3  C   UNL     1      -1.966  -6.863   7.630  1.00  0.00     0.238 A 
ATOM      4  O   UNL     1      -2.250  -7.938   8.219  1.00  0.00    -0.285 OA
ATOM      5  C   UNL     1      -1.018  -6.825   6.580  1.00  0.00     0.111 A 
ATOM      6  C   UNL     1      -0.368  -7.972   6.033  1.00  0.00     0.134 A 
ATOM      7  C   UNL     1       0.648  -7.802   5.085  1.00  0.00     0.093 A 
ATOM      8  C   UNL     1       0.992  -6.532   4.616  1.00  0.00     0.123 A 
ATOM      9  C   UNL     1       0.321  -5.412   5.099  1.00  0.00     0.094 A 
ATOM     10  C   UNL     1      -0.672  -5.545   6.072  1.00  0.00     0.146 A 
ATOM     11  O   UNL     1      -1.279  -4.450   6.514  1.00  0.00    -0.452 OA
ENDROOT
BRANCH   1  12
ATOM     12  C   UNL     1      -2.837  -3.172   7.836  1.00  0.00     0.021 A 
ATOM     13  C   UNL     1      -2.185  -2.342   8.764  1.00  0.00     0.016 A 
ATOM     14  C   UNL     1      -2.740  -1.110   9.125  1.00  0.00     0.047 A 
ATOM     15  C   UNL     1      -3.946  -0.687   8.550  1.00  0.00     0.115 A 
ATOM     16  C   UNL     1      -4.038  -2.730   7.249  1.00  0.00     0.016 A 
ATOM     17  C   UNL     1      -4.589  -1.497   7.612  1.00  0.00     0.047 A 
BRANCH  15  18
ATOM     18  O   UNL     1      -4.509   0.539   8.903  1.00  0.00    -0.508 OA
ATOM     19  H   UNL     1      -5.180   0.615   9.660  1.00  0.00     0.293 HD
ENDBRANCH  15  18
ENDBRANCH   1  12
BRANCH   2  20
ATOM     20  O   UNL     1      -3.499  -5.687   9.115  1.00  0.00    -0.502 OA
ATOM     21  H   UNL     1      -3.783  -4.843   9.598  1.00  0.00     0.293 HD
ENDBRANCH   2  20
BRANCH   6  22
ATOM     22  O   UNL     1      -0.700  -9.289   6.365  1.00  0.00    -0.507 OA
ATOM     23  H   UNL     1      -1.630  -9.674   6.328  1.00  0.00     0.293 HD
ENDBRANCH   6  22
BRANCH   8  24
ATOM     24  O   UNL     1       1.993  -6.375   3.660  1.00  0.00    -0.508 OA
ATOM     25  H   UNL     1       2.926  -6.742   3.804  1.00  0.00     0.293 HD
ENDBRANCH   8  24
TORSDOF 5
ENDMDL
MODEL 8
REMARK VINA RESULT:    -6.677      2.515      7.704
REMARK INTER + INTRA:          -8.146
REMARK INTER:                  -8.092
REMARK INTRA:                  -0.054
REMARK UNBOUND:                -0.298
REMARK SMILES O=c1c(O)c(-c2ccc(O)cc2)oc2cc(O)cc(O)c12
REMARK SMILES IDX 5 1 3 2 2 3 1 4 21 5 19 6 18 7 16 8 15 9 14 10 13 11 6 12
REMARK SMILES IDX 7 13 8 14 9 15 12 16 11 17 10 18 4 20 20 22 17 24
REMARK H PARENT 10 19 4 21 20 23 17 25
REMARK Flexibility Score: inf
ROOT
ATOM      1  C   UNL     1       6.326   4.588   3.586  1.00  0.00     0.180 A 
ATOM      2  C   UNL     1       7.554   4.211   3.017  1.00  0.00     0.208 A 
ATOM      3  C   UNL     1       7.924   4.755   1.776  1.00  0.00     0.238 A 
ATOM      4  O   UNL     1       9.048   4.456   1.297  1.00  0.00    -0.285 OA
ATOM      5  C   UNL     1       7.055   5.656   1.114  1.00  0.00     0.111 A 
ATOM      6  C   UNL     1       7.311   6.236  -0.164  1.00  0.00     0.134 A 
ATOM      7  C   UNL     1       6.443   7.215  -0.664  1.00  0.00     0.093 A 
ATOM      8  C   UNL     1       5.294   7.586   0.039  1.00  0.00     0.123 A 
ATOM      9  C   UNL     1       5.005   6.982   1.260  1.00  0.00     0.094 A 
ATOM     10  C   UNL     1       5.871   6.028   1.801  1.00  0.00     0.146 A 
ATOM     11  O   UNL     1       5.563   5.485   2.973  1.00  0.00    -0.452 OA
ENDROOT
BRANCH   1  12
ATOM     12  C   UNL     1       5.855   4.038   4.878  1.00  0.00     0.021 A 
ATOM     13  C   UNL     1       5.720   2.648   5.031  1.00  0.00     0.016 A 
ATOM     14  C   UNL     1       5.298   2.106   6.249  1.00  0.00     0.047 A 
ATOM     15  C   UNL     1       5.022   2.947   7.335  1.00  0.00     0.115 A 
ATOM     16  C   UNL     1       5.594   4.875   5.981  1.00  0.00     0.016 A 
ATOM     17  C   UNL     1       5.174   4.329   7.198  1.00  0.00     0.047 A 
BRANCH  15  18
ATOM     18  O   UNL     1       4.600   2.418   8.553  1.00  0.00    -0.508 OA
ATOM     19  H   UNL     1       3.822   2.821   9.064  1.00  0.00     0.293 HD
ENDBRANCH  15  18
ENDBRANCH   1  12
BRANCH   2  20
ATOM     20  O   UNL     1       8.406   3.337   3.698  1.00  0.00    -0.502 OA
ATOM     21  H   UNL     1       9.269   3.646   4.129  1.00  0.00     0.293 HD
ENDBRANCH   2  20
BRANCH   6  22
ATOM     22  O   UNL     1       8.379   5.869  -0.988  1.00  0.00    -0.507 OA
ATOM     23  H   UNL     1       9.314   5.677  -0.665  1.00  0.00     0.293 HD
ENDBRANCH   6  22
BRANCH   8  24
ATOM     24  O   UNL     1       4.428   8.549  -0.474  1.00  0.00    -0.508 OA
ATOM     25  H   UNL     1       3.916   9.179   0.132  1.00  0.00     0.293 HD
ENDBRANCH   8  24
TORSDOF 5
ENDMDL
MODEL 9
REMARK VINA RESULT:    -6.578      3.143      4.790
REMARK INTER + INTRA:          -8.030
REMARK INTER:                  -7.851
REMARK INTRA:                  -0.179
REMARK UNBOUND:                -0.298
REMARK SMILES O=c1c(O)c(-c2ccc(O)cc2)oc2cc(O)cc(O)c12
REMARK SMILES IDX 5 1 3 2 2 3 1 4 21 5 19 6 18 7 16 8 15 9 14 10 13 11 6 12
REMARK SMILES IDX 7 13 8 14 9 15 12 16 11 17 10 18 4 20 20 22 17 24
REMARK H PARENT 10 19 4 21 20 23 17 25
REMARK Flexibility Score: inf
ROOT
ATOM      1  C   UNL     1       5.997   4.536   3.596  1.00  0.00     0.180 A 
ATOM      2  C   UNL     1       5.112   4.323   4.666  1.00  0.00     0.208 A 
ATOM      3  C   UNL     1       5.376   3.280   5.570  1.00  0.00     0.238 A 
ATOM      4  O   UNL     1       4.610   3.129   6.557  1.00  0.00    -0.285 OA
ATOM      5  C   UNL     1       6.511   2.456   5.383  1.00  0.00     0.111 A 
ATOM      6  C   UNL     1       6.852   1.347   6.213  1.00  0.00     0.134 A 
ATOM      7  C   UNL     1       8.068   0.682   6.012  1.00  0.00     0.093 A 
ATOM      8  C   UNL     1       8.924   1.045   4.968  1.00  0.00     0.123 A 
ATOM      9  C   UNL     1       8.571   2.088   4.116  1.00  0.00     0.094 A 
ATOM     10  C   UNL     1       7.381   2.793   4.314  1.00  0.00     0.146 A 
ATOM     11  O   UNL     1       7.088   3.788   3.484  1.00  0.00    -0.452 OA
ENDROOT
BRANCH   1  12
ATOM     12  C   UNL     1       5.773   5.598   2.588  1.00  0.00     0.021 A 
ATOM     13  C   UNL     1       5.950   6.944   2.950  1.00  0.00     0.016 A 
ATOM     14  C   UNL     1       5.765   7.961   2.009  1.00  0.00     0.047 A 
ATOM     15  C   UNL     1       5.417   7.644   0.689  1.00  0.00     0.115 A 
ATOM     16  C   UNL     1       5.442   5.287   1.255  1.00  0.00     0.016 A 
ATOM     17  C   UNL     1       5.259   6.307   0.316  1.00  0.00     0.047 A 
BRANCH  15  18
ATOM     18  O   UNL     1       5.229   8.649  -0.257  1.00  0.00    -0.508 OA
ATOM     19  H   UNL     1       5.941   8.869  -0.945  1.00  0.00     0.293 HD
ENDBRANCH  15  18
ENDBRANCH   1  12
BRANCH   2  20
ATOM     20  O   UNL     1       4.009   5.163   4.845  1.00  0.00    -0.502 OA
ATOM     21  H   UNL     1       3.324   5.013   5.577  1.00  0.00     0.293 HD
ENDBRANCH   2  20
BRANCH   6  22
ATOM     22  O   UNL     1       6.026   0.845   7.223  1.00  0.00    -0.507 OA
ATOM     23  H   UNL     1       5.486   1.411   7.859  1.00  0.00     0.293 HD
ENDBRANCH   6  22
BRANCH   8  24
ATOM     24  O   UNL     1      10.124   0.367   4.766  1.00  0.00    -0.508 OA
ATOM     25  H   UNL     1      10.977   0.647   5.236  1.00  0.00     0.293 HD
ENDBRANCH   8  24
TORSDOF 5
ENDMDL
