MODEL 1
REMARK VINA RESULT:    -6.254      0.000      0.000
REMARK INTER + INTRA:          -8.007
REMARK INTER:                  -7.534
REMARK INTRA:                  -0.473
REMARK UNBOUND:                -0.473
REMARK SMILES O=c1c(O)c(-c2ccc(O)cc2O)oc2cc(O)cc(O)c12
REMARK SMILES IDX 5 1 3 2 2 3 1 4 22 5 20 6 19 7 17 8 16 9 15 10 14 11 6 12
REMARK SMILES IDX 8 13 7 14 9 15 11 16 12 17 10 18 13 20 4 22 21 24 18 26
REMARK H PARENT 10 19 13 21 4 23 21 25 18 27
REMARK Flexibility Score: inf
ROOT
ATOM      1  C   UNL     1       1.764  16.483  26.171  1.00  0.00     0.184 A 
ATOM      2  C   UNL     1       1.230  17.176  25.072  1.00  0.00     0.208 A 
ATOM      3  C   UNL     1       0.408  18.291  25.302  1.00  0.00     0.238 A 
ATOM      4  O   UNL     1      -0.113  18.872  24.315  1.00  0.00    -0.285 OA
ATOM      5  C   UNL     1       0.147  18.712  26.630  1.00  0.00     0.111 A 
ATOM      6  C   UNL     1      -0.639  19.851  26.979  1.00  0.00     0.134 A 
ATOM      7  C   UNL     1      -0.936  20.097  28.326  1.00  0.00     0.093 A 
ATOM      8  C   UNL     1      -0.423  19.285  29.337  1.00  0.00     0.123 A 
ATOM      9  C   UNL     1       0.395  18.203  29.009  1.00  0.00     0.094 A 
ATOM     10  C   UNL     1       0.679  17.910  27.673  1.00  0.00     0.146 A 
ATOM     11  O   UNL     1       1.453  16.865  27.405  1.00  0.00    -0.451 OA
ENDROOT
BRANCH   1  12
ATOM     12  C   UNL     1       2.657  15.315  26.000  1.00  0.00     0.063 A 
ATOM     13  C   UNL     1       4.878  14.396  25.611  1.00  0.00     0.047 A 
ATOM     14  C   UNL     1       4.029  15.497  25.746  1.00  0.00     0.020 A 
ATOM     15  C   UNL     1       4.371  13.098  25.738  1.00  0.00     0.119 A 
ATOM     16  C   UNL     1       3.013  12.905  26.003  1.00  0.00     0.093 A 
ATOM     17  C   UNL     1       2.152  14.006  26.138  1.00  0.00     0.130 A 
BRANCH  15  18
ATOM     18  O   UNL     1       5.210  11.993  25.606  1.00  0.00    -0.508 OA
ATOM     19  H   UNL     1       5.598  11.727  24.709  1.00  0.00     0.293 HD
ENDBRANCH  15  18
BRANCH  17  20
ATOM     20  O   UNL     1       0.797  13.799  26.397  1.00  0.00    -0.507 OA
ATOM     21  H   UNL     1       0.472  12.990  26.913  1.00  0.00     0.293 HD
ENDBRANCH  17  20
ENDBRANCH   1  12
BRANCH   2  22
ATOM     22  O   UNL     1       1.490  16.735  23.772  1.00  0.00    -0.502 OA
ATOM     23  H   UNL     1       0.859  16.124  23.268  1.00  0.00     0.293 HD
ENDBRANCH   2  22
BRANCH   6  24
ATOM     24  O   UNL     1      -1.125  20.778  26.053  1.00  0.00    -0.507 OA
ATOM     25  H   UNL     1      -0.619  21.097  25.241  1.00  0.00     0.293 HD
ENDBRANCH   6  24
BRANCH   8  26
ATOM     26  O   UNL     1      -0.726  19.570  30.666  1.00  0.00    -0.508 OA
ATOM     27  H   UNL     1      -0.059  19.402  31.410  1.00  0.00     0.293 HD
ENDBRANCH   8  26
TORSDOF 6
ENDMDL
MODEL 2
REMARK VINA RESULT:    -6.180      1.062      1.302
REMARK INTER + INTRA:          -7.917
REMARK INTER:                  -7.449
REMARK INTRA:                  -0.468
REMARK UNBOUND:                -0.473
REMARK SMILES O=c1c(O)c(-c2ccc(O)cc2O)oc2cc(O)cc(O)c12
REMARK SMILES IDX 5 1 3 2 2 3 1 4 22 5 20 6 19 7 17 8 16 9 15 10 14 11 6 12
REMARK SMILES IDX 8 13 7 14 9 15 11 16 12 17 10 18 13 20 4 22 21 24 18 26
REMARK H PARENT 10 19 13 21 4 23 21 25 18 27
REMARK Flexibility Score: inf
ROOT
ATOM      1  C   UNL     1       1.359  17.311  26.783  1.00  0.00     0.184 A 
ATOM      2  C   UNL     1       0.845  18.247  25.869  1.00  0.00     0.208 A 
ATOM      3  C   UNL     1       0.139  19.359  26.356  1.00  0.00     0.238 A 
ATOM      4  O   UNL     1      -0.367  20.162  25.531  1.00  0.00    -0.285 OA
ATOM      5  C   UNL     1      -0.025  19.532  27.753  1.00  0.00     0.111 A 
ATOM      6  C   UNL     1      -0.687  20.642  28.359  1.00  0.00     0.134 A 
ATOM      7  C   UNL     1      -0.903  20.644  29.743  1.00  0.00     0.093 A 
ATOM      8  C   UNL     1      -0.425  19.611  30.549  1.00  0.00     0.123 A 
ATOM      9  C   UNL     1       0.276  18.550  29.973  1.00  0.00     0.094 A 
ATOM     10  C   UNL     1       0.475  18.501  28.591  1.00  0.00     0.146 A 
ATOM     11  O   UNL     1       1.137  17.469  28.082  1.00  0.00    -0.451 OA
ENDROOT
BRANCH   1  12
ATOM     12  C   UNL     1       2.133  16.129  26.338  1.00  0.00     0.063 A 
ATOM     13  C   UNL     1       4.246  15.119  25.676  1.00  0.00     0.047 A 
ATOM     14  C   UNL     1       3.509  16.239  26.068  1.00  0.00     0.020 A 
ATOM     15  C   UNL     1       3.622  13.872  25.557  1.00  0.00     0.119 A 
ATOM     16  C   UNL     1       2.257  13.749  25.835  1.00  0.00     0.093 A 
ATOM     17  C   UNL     1       1.509  14.870  26.228  1.00  0.00     0.130 A 
BRANCH  15  18
ATOM     18  O   UNL     1       4.348  12.749  25.167  1.00  0.00    -0.508 OA
ATOM     19  H   UNL     1       3.945  11.820  25.200  1.00  0.00     0.293 HD
ENDBRANCH  15  18
BRANCH  17  20
ATOM     20  O   UNL     1       0.147  14.734  26.497  1.00  0.00    -0.507 OA
ATOM     21  H   UNL     1      -0.333  15.358  27.135  1.00  0.00     0.293 HD
ENDBRANCH  17  20
ENDBRANCH   1  12
BRANCH   2  22
ATOM     22  O   UNL     1       1.008  18.048  24.495  1.00  0.00    -0.502 OA
ATOM     23  H   UNL     1       1.657  18.592  23.941  1.00  0.00     0.293 HD
ENDBRANCH   2  22
BRANCH   6  24
ATOM     24  O   UNL     1      -1.125  21.769  27.658  1.00  0.00    -0.507 OA
ATOM     25  H   UNL     1      -1.353  22.655  28.081  1.00  0.00     0.293 HD
ENDBRANCH   6  24
BRANCH   8  26
ATOM     26  O   UNL     1      -0.644  19.654  31.924  1.00  0.00    -0.508 OA
ATOM     27  H   UNL     1      -1.107  20.441  32.362  1.00  0.00     0.293 HD
ENDBRANCH   8  26
TORSDOF 6
ENDMDL
MODEL 3
REMARK VINA RESULT:    -5.792      1.879      6.806
REMARK INTER + INTRA:          -7.451
REMARK INTER:                  -7.212
REMARK INTRA:                  -0.239
REMARK UNBOUND:                -0.473
REMARK SMILES O=c1c(O)c(-c2ccc(O)cc2O)oc2cc(O)cc(O)c12
REMARK SMILES IDX 5 1 3 2 2 3 1 4 22 5 20 6 19 7 17 8 16 9 15 10 14 11 6 12
REMARK SMILES IDX 8 13 7 14 9 15 11 16 12 17 10 18 13 20 4 22 21 24 18 26
REMARK H PARENT 10 19 13 21 4 23 21 25 18 27
REMARK Flexibility Score: inf
ROOT
ATOM      1  C   UNL     1       1.098  17.354  26.358  1.00  0.00     0.184 A 
ATOM      2  C   UNL     1       0.242  16.257  26.554  1.00  0.00     0.208 A 
ATOM      3  C   UNL     1       0.767  14.958  26.467  1.00  0.00     0.238 A 
ATOM      4  O   UNL     1      -0.016  13.980  26.586  1.00  0.00    -0.285 OA
ATOM      5  C   UNL     1       2.147  14.772  26.206  1.00  0.00     0.111 A 
ATOM      6  C   UNL     1       2.794  13.502  26.136  1.00  0.00     0.134 A 
ATOM      7  C   UNL     1       4.138  13.433  25.745  1.00  0.00     0.093 A 
ATOM      8  C   UNL     1       4.873  14.589  25.486  1.00  0.00     0.123 A 
ATOM      9  C   UNL     1       4.265  15.839  25.609  1.00  0.00     0.094 A 
ATOM     10  C   UNL     1       2.917  15.939  25.961  1.00  0.00     0.146 A 
ATOM     11  O   UNL     1       2.375  17.147  26.056  1.00  0.00    -0.451 OA
ENDROOT
BRANCH   1  12
ATOM     12  C   UNL     1       0.615  18.750  26.460  1.00  0.00     0.063 A 
ATOM     13  C   UNL     1      -0.983  20.480  25.844  1.00  0.00     0.047 A 
ATOM     14  C   UNL     1      -0.509  19.171  25.728  1.00  0.00     0.020 A 
ATOM     15  C   UNL     1      -0.346  21.385  26.701  1.00  0.00     0.119 A 
ATOM     16  C   UNL     1       0.765  20.973  27.444  1.00  0.00     0.093 A 
ATOM     17  C   UNL     1       1.248  19.660  27.331  1.00  0.00     0.130 A 
BRANCH  15  18
ATOM     18  O   UNL     1      -0.809  22.692  26.825  1.00  0.00    -0.508 OA
ATOM     19  H   UNL     1      -0.299  23.387  27.357  1.00  0.00     0.293 HD
ENDBRANCH  15  18
BRANCH  17  20
ATOM     20  O   UNL     1       2.361  19.265  28.074  1.00  0.00    -0.507 OA
ATOM     21  H   UNL     1       2.420  18.344  28.492  1.00  0.00     0.293 HD
ENDBRANCH  17  20
ENDBRANCH   1  12
BRANCH   2  22
ATOM     22  O   UNL     1      -1.119  16.465  26.796  1.00  0.00    -0.502 OA
ATOM     23  H   UNL     1      -1.840  16.120  26.176  1.00  0.00     0.293 HD
ENDBRANCH   2  22
BRANCH   6  24
ATOM     24  O   UNL     1       2.177  12.291  26.464  1.00  0.00    -0.507 OA
ATOM     25  H   UNL     1       2.084  11.507  25.837  1.00  0.00     0.293 HD
ENDBRANCH   6  24
BRANCH   8  26
ATOM     26  O   UNL     1       6.212  14.483  25.115  1.00  0.00    -0.508 OA
ATOM     27  H   UNL     1       6.834  15.282  25.141  1.00  0.00     0.293 HD
ENDBRANCH   8  26
TORSDOF 6
ENDMDL
MODEL 4
REMARK VINA RESULT:    -5.760      0.908      1.491
REMARK INTER + INTRA:          -7.412
REMARK INTER:                  -7.138
REMARK INTRA:                  -0.274
REMARK UNBOUND:                -0.473
REMARK SMILES O=c1c(O)c(-c2ccc(O)cc2O)oc2cc(O)cc(O)c12
REMARK SMILES IDX 5 1 3 2 2 3 1 4 22 5 20 6 19 7 17 8 16 9 15 10 14 11 6 12
REMARK SMILES IDX 8 13 7 14 9 15 11 16 12 17 10 18 13 20 4 22 21 24 18 26
REMARK H PARENT 10 19 13 21 4 23 21 25 18 27
REMARK Flexibility Score: inf
ROOT
ATOM      1  C   UNL     1       1.436  16.068  26.401  1.00  0.00     0.184 A 
ATOM      2  C   UNL     1       1.006  16.725  25.236  1.00  0.00     0.208 A 
ATOM      3  C   UNL     1       0.307  17.937  25.356  1.00  0.00     0.238 A 
ATOM      4  O   UNL     1      -0.125  18.490  24.312  1.00  0.00    -0.285 OA
ATOM      5  C   UNL     1       0.066  18.488  26.638  1.00  0.00     0.111 A 
ATOM      6  C   UNL     1      -0.596  19.730  26.875  1.00  0.00     0.134 A 
ATOM      7  C   UNL     1      -0.893  20.113  28.190  1.00  0.00     0.093 A 
ATOM      8  C   UNL     1      -0.495  19.334  29.275  1.00  0.00     0.123 A 
ATOM      9  C   UNL     1       0.206  18.147  29.056  1.00  0.00     0.094 A 
ATOM     10  C   UNL     1       0.484  17.719  27.756  1.00  0.00     0.146 A 
ATOM     11  O   UNL     1       1.143  16.578  27.592  1.00  0.00    -0.451 OA
ENDROOT
BRANCH   1  12
ATOM     12  C   UNL     1       2.199  14.799  26.347  1.00  0.00     0.063 A 
ATOM     13  C   UNL     1       2.316  12.392  26.688  1.00  0.00     0.047 A 
ATOM     14  C   UNL     1       1.608  13.594  26.765  1.00  0.00     0.020 A 
ATOM     15  C   UNL     1       3.621  12.376  26.182  1.00  0.00     0.119 A 
ATOM     16  C   UNL     1       4.213  13.567  25.751  1.00  0.00     0.093 A 
ATOM     17  C   UNL     1       3.509  14.778  25.827  1.00  0.00     0.130 A 
BRANCH  15  18
ATOM     18  O   UNL     1       4.337  11.184  26.101  1.00  0.00    -0.508 OA
ATOM     19  H   UNL     1       4.834  10.809  26.899  1.00  0.00     0.293 HD
ENDBRANCH  15  18
BRANCH  17  20
ATOM     20  O   UNL     1       4.114  15.960  25.399  1.00  0.00    -0.507 OA
ATOM     21  H   UNL     1       4.682  16.523  26.023  1.00  0.00     0.293 HD
ENDBRANCH  17  20
ENDBRANCH   1  12
BRANCH   2  22
ATOM     22  O   UNL     1       1.243  16.155  23.982  1.00  0.00    -0.502 OA
ATOM     23  H   UNL     1       2.061  15.592  23.787  1.00  0.00     0.293 HD
ENDBRANCH   2  22
BRANCH   6  24
ATOM     24  O   UNL     1      -0.957  20.627  25.867  1.00  0.00    -0.507 OA
ATOM     25  H   UNL     1      -0.304  21.131  25.286  1.00  0.00     0.293 HD
ENDBRANCH   6  24
BRANCH   8  26
ATOM     26  O   UNL     1      -0.792  19.755  30.569  1.00  0.00    -0.508 OA
ATOM     27  H   UNL     1      -0.223  20.442  31.047  1.00  0.00     0.293 HD
ENDBRANCH   8  26
TORSDOF 6
ENDMDL
MODEL 5
REMARK VINA RESULT:    -4.831      1.720      6.630
REMARK INTER + INTRA:          -6.292
REMARK INTER:                  -5.909
REMARK INTRA:                  -0.383
REMARK UNBOUND:                -0.473
REMARK SMILES O=c1c(O)c(-c2ccc(O)cc2O)oc2cc(O)cc(O)c12
REMARK SMILES IDX 5 1 3 2 2 3 1 4 22 5 20 6 19 7 17 8 16 9 15 10 14 11 6 12
REMARK SMILES IDX 8 13 7 14 9 15 11 16 12 17 10 18 13 20 4 22 21 24 18 26
REMARK H PARENT 10 19 13 21 4 23 21 25 18 27
REMARK Flexibility Score: inf
ROOT
ATOM      1  C   UNL     1       1.966  15.984  26.337  1.00  0.00     0.184 A 
ATOM      2  C   UNL     1       3.245  15.962  25.755  1.00  0.00     0.208 A 
ATOM      3  C   UNL     1       3.958  14.752  25.724  1.00  0.00     0.238 A 
ATOM      4  O   UNL     1       5.125  14.751  25.254  1.00  0.00    -0.285 OA
ATOM      5  C   UNL     1       3.375  13.577  26.257  1.00  0.00     0.111 A 
ATOM      6  C   UNL     1       3.990  12.289  26.243  1.00  0.00     0.134 A 
ATOM      7  C   UNL     1       3.375  11.223  26.913  1.00  0.00     0.093 A 
ATOM      8  C   UNL     1       2.140  11.382  27.539  1.00  0.00     0.123 A 
ATOM      9  C   UNL     1       1.501  12.623  27.507  1.00  0.00     0.094 A 
ATOM     10  C   UNL     1       2.107  13.715  26.879  1.00  0.00     0.146 A 
ATOM     11  O   UNL     1       1.470  14.880  26.882  1.00  0.00    -0.451 OA
ENDROOT
BRANCH   1  12
ATOM     12  C   UNL     1       1.150  17.219  26.381  1.00  0.00     0.063 A 
ATOM     13  C   UNL     1       0.824  19.507  27.147  1.00  0.00     0.047 A 
ATOM     14  C   UNL     1       1.579  18.332  27.127  1.00  0.00     0.020 A 
ATOM     15  C   UNL     1      -0.365  19.591  26.414  1.00  0.00     0.119 A 
ATOM     16  C   UNL     1      -0.794  18.497  25.658  1.00  0.00     0.093 A 
ATOM     17  C   UNL     1      -0.042  17.312  25.634  1.00  0.00     0.130 A 
BRANCH  15  18
ATOM     18  O   UNL     1      -1.125  20.759  26.426  1.00  0.00    -0.508 OA
ATOM     19  H   UNL     1      -1.539  21.130  25.580  1.00  0.00     0.293 HD
ENDBRANCH  15  18
BRANCH  17  20
ATOM     20  O   UNL     1      -0.485  16.224  24.881  1.00  0.00    -0.507 OA
ATOM     21  H   UNL     1      -1.465  15.970  24.841  1.00  0.00     0.293 HD
ENDBRANCH  17  20
ENDBRANCH   1  12
BRANCH   2  22
ATOM     22  O   UNL     1       3.806  17.137  25.248  1.00  0.00    -0.502 OA
ATOM     23  H   UNL     1       4.750  17.427  25.468  1.00  0.00     0.293 HD
ENDBRANCH   2  22
BRANCH   6  24
ATOM     24  O   UNL     1       5.181  11.999  25.570  1.00  0.00    -0.507 OA
ATOM     25  H   UNL     1       5.579  11.077  25.479  1.00  0.00     0.293 HD
ENDBRANCH   6  24
BRANCH   8  26
ATOM     26  O   UNL     1       1.550  10.296  28.182  1.00  0.00    -0.508 OA
ATOM     27  H   UNL     1       1.636   9.355  27.818  1.00  0.00     0.293 HD
ENDBRANCH   8  26
TORSDOF 6
ENDMDL
MODEL 6
REMARK VINA RESULT:    -4.809      1.923      7.301
REMARK INTER + INTRA:          -6.266
REMARK INTER:                  -5.827
REMARK INTRA:                  -0.439
REMARK UNBOUND:                -0.473
REMARK SMILES O=c1c(O)c(-c2ccc(O)cc2O)oc2cc(O)cc(O)c12
REMARK SMILES IDX 5 1 3 2 2 3 1 4 22 5 20 6 19 7 17 8 16 9 15 10 14 11 6 12
REMARK SMILES IDX 8 13 7 14 9 15 11 16 12 17 10 18 13 20 4 22 21 24 18 26
REMARK H PARENT 10 19 13 21 4 23 21 25 18 27
REMARK Flexibility Score: inf
ROOT
ATOM      1  C   UNL     1       1.805  14.720  26.316  1.00  0.00     0.184 A 
ATOM      2  C   UNL     1       1.104  13.719  27.010  1.00  0.00     0.208 A 
ATOM      3  C   UNL     1       1.690  12.450  27.152  1.00  0.00     0.238 A 
ATOM      4  O   UNL     1       1.033  11.542  27.724  1.00  0.00    -0.285 OA
ATOM      5  C   UNL     1       2.978  12.205  26.615  1.00  0.00     0.111 A 
ATOM      6  C   UNL     1       3.684  10.970  26.734  1.00  0.00     0.134 A 
ATOM      7  C   UNL     1       4.897  10.800  26.054  1.00  0.00     0.093 A 
ATOM      8  C   UNL     1       5.460  11.840  25.315  1.00  0.00     0.123 A 
ATOM      9  C   UNL     1       4.807  13.071  25.241  1.00  0.00     0.094 A 
ATOM     10  C   UNL     1       3.577  13.259  25.878  1.00  0.00     0.146 A 
ATOM     11  O   UNL     1       2.984  14.442  25.773  1.00  0.00    -0.451 OA
ENDROOT
BRANCH   1  12
ATOM     12  C   UNL     1       1.257  16.085  26.151  1.00  0.00     0.063 A 
ATOM     13  C   UNL     1       0.594  18.223  27.110  1.00  0.00     0.047 A 
ATOM     14  C   UNL     1       1.084  16.924  27.267  1.00  0.00     0.020 A 
ATOM     15  C   UNL     1       0.278  18.705  25.835  1.00  0.00     0.119 A 
ATOM     16  C   UNL     1       0.458  17.885  24.718  1.00  0.00     0.093 A 
ATOM     17  C   UNL     1       0.948  16.579  24.867  1.00  0.00     0.130 A 
BRANCH  15  18
ATOM     18  O   UNL     1      -0.212  19.999  25.667  1.00  0.00    -0.508 OA
ATOM     19  H   UNL     1      -1.182  20.226  25.851  1.00  0.00     0.293 HD
ENDBRANCH  15  18
BRANCH  17  20
ATOM     20  O   UNL     1       1.117  15.768  23.744  1.00  0.00    -0.507 OA
ATOM     21  H   UNL     1       0.967  14.767  23.784  1.00  0.00     0.293 HD
ENDBRANCH  17  20
ENDBRANCH   1  12
BRANCH   2  22
ATOM     22  O   UNL     1      -0.171  13.979  27.518  1.00  0.00    -0.502 OA
ATOM     23  H   UNL     1      -0.531  14.919  27.626  1.00  0.00     0.293 HD
ENDBRANCH   2  22
BRANCH   6  24
ATOM     24  O   UNL     1       3.254   9.898  27.522  1.00  0.00    -0.507 OA
ATOM     25  H   UNL     1       3.299   8.929  27.246  1.00  0.00     0.293 HD
ENDBRANCH   6  24
BRANCH   8  26
ATOM     26  O   UNL     1       6.676  11.640  24.665  1.00  0.00    -0.508 OA
ATOM     27  H   UNL     1       7.109  10.726  24.620  1.00  0.00     0.293 HD
ENDBRANCH   8  26
TORSDOF 6
ENDMDL
MODEL 7
REMARK VINA RESULT:    -4.602      2.050      6.815
REMARK INTER + INTRA:          -6.016
REMARK INTER:                  -5.613
REMARK INTRA:                  -0.403
REMARK UNBOUND:                -0.473
REMARK SMILES O=c1c(O)c(-c2ccc(O)cc2O)oc2cc(O)cc(O)c12
REMARK SMILES IDX 5 1 3 2 2 3 1 4 22 5 20 6 19 7 17 8 16 9 15 10 14 11 6 12
REMARK SMILES IDX 8 13 7 14 9 15 11 16 12 17 10 18 13 20 4 22 21 24 18 26
REMARK H PARENT 10 19 13 21 4 23 21 25 18 27
REMARK Flexibility Score: inf
ROOT
ATOM      1  C   UNL     1       0.668  19.637  26.817  1.00  0.00     0.184 A 
ATOM      2  C   UNL     1      -0.045  19.272  25.663  1.00  0.00     0.208 A 
ATOM      3  C   UNL     1       0.366  18.143  24.937  1.00  0.00     0.238 A 
ATOM      4  O   UNL     1      -0.241  17.855  23.873  1.00  0.00    -0.285 OA
ATOM      5  C   UNL     1       1.473  17.381  25.385  1.00  0.00     0.111 A 
ATOM      6  C   UNL     1       1.951  16.196  24.750  1.00  0.00     0.134 A 
ATOM      7  C   UNL     1       3.132  15.596  25.208  1.00  0.00     0.093 A 
ATOM      8  C   UNL     1       3.813  16.100  26.315  1.00  0.00     0.123 A 
ATOM      9  C   UNL     1       3.320  17.223  26.980  1.00  0.00     0.094 A 
ATOM     10  C   UNL     1       2.166  17.866  26.525  1.00  0.00     0.146 A 
ATOM     11  O   UNL     1       1.738  18.938  27.180  1.00  0.00    -0.451 OA
ENDROOT
BRANCH   1  12
ATOM     12  C   UNL     1       0.274  20.801  27.643  1.00  0.00     0.063 A 
ATOM     13  C   UNL     1       0.362  23.191  28.100  1.00  0.00     0.047 A 
ATOM     14  C   UNL     1       0.755  22.087  27.339  1.00  0.00     0.020 A 
ATOM     15  C   UNL     1      -0.525  23.027  29.171  1.00  0.00     0.119 A 
ATOM     16  C   UNL     1      -1.019  21.755  29.474  1.00  0.00     0.093 A 
ATOM     17  C   UNL     1      -0.628  20.641  28.715  1.00  0.00     0.130 A 
BRANCH  15  18
ATOM     18  O   UNL     1      -0.923  24.120  29.936  1.00  0.00    -0.508 OA
ATOM     19  H   UNL     1      -1.713  24.065  30.567  1.00  0.00     0.293 HD
ENDBRANCH  15  18
BRANCH  17  20
ATOM     20  O   UNL     1      -1.124  19.376  29.033  1.00  0.00    -0.507 OA
ATOM     21  H   UNL     1      -2.085  19.241  29.325  1.00  0.00     0.293 HD
ENDBRANCH  17  20
ENDBRANCH   1  12
BRANCH   2  22
ATOM     22  O   UNL     1      -1.125  20.047  25.232  1.00  0.00    -0.502 OA
ATOM     23  H   UNL     1      -1.013  20.835  24.607  1.00  0.00     0.293 HD
ENDBRANCH   2  22
BRANCH   6  24
ATOM     24  O   UNL     1       1.297  15.557  23.692  1.00  0.00    -0.507 OA
ATOM     25  H   UNL     1       0.366  15.172  23.742  1.00  0.00     0.293 HD
ENDBRANCH   6  24
BRANCH   8  26
ATOM     26  O   UNL     1       4.975  15.468  26.753  1.00  0.00    -0.508 OA
ATOM     27  H   UNL     1       5.590  14.984  26.110  1.00  0.00     0.293 HD
ENDBRANCH   8  26
TORSDOF 6
ENDMDL
MODEL 8
REMARK VINA RESULT:    -4.576      1.894      2.177
REMARK INTER + INTRA:          -5.986
REMARK INTER:                  -5.766
REMARK INTRA:                  -0.220
REMARK UNBOUND:                -0.473
REMARK SMILES O=c1c(O)c(-c2ccc(O)cc2O)oc2cc(O)cc(O)c12
REMARK SMILES IDX 5 1 3 2 2 3 1 4 22 5 20 6 19 7 17 8 16 9 15 10 14 11 6 12
REMARK SMILES IDX 8 13 7 14 9 15 11 16 12 17 10 18 13 20 4 22 21 24 18 26
REMARK H PARENT 10 19 13 21 4 23 21 25 18 27
REMARK Flexibility Score: inf
ROOT
ATOM      1  C   UNL     1       2.077  15.217  26.184  1.00  0.00     0.184 A 
ATOM      2  C   UNL     1       0.780  15.240  25.644  1.00  0.00     0.208 A 
ATOM      3  C   UNL     1       0.077  16.455  25.612  1.00  0.00     0.238 A 
ATOM      4  O   UNL     1      -1.105  16.458  25.180  1.00  0.00    -0.285 OA
ATOM      5  C   UNL     1       0.688  17.636  26.100  1.00  0.00     0.111 A 
ATOM      6  C   UNL     1       0.084  18.929  26.079  1.00  0.00     0.134 A 
ATOM      7  C   UNL     1       0.731  20.002  26.707  1.00  0.00     0.093 A 
ATOM      8  C   UNL     1       1.985  19.844  27.295  1.00  0.00     0.123 A 
ATOM      9  C   UNL     1       2.611  18.597  27.268  1.00  0.00     0.094 A 
ATOM     10  C   UNL     1       1.975  17.498  26.683  1.00  0.00     0.146 A 
ATOM     11  O   UNL     1       2.600  16.327  26.689  1.00  0.00    -0.451 OA
ENDROOT
BRANCH   1  12
ATOM     12  C   UNL     1       2.883  13.975  26.227  1.00  0.00     0.063 A 
ATOM     13  C   UNL     1       4.873  12.728  25.586  1.00  0.00     0.047 A 
ATOM     14  C   UNL     1       4.098  13.889  25.524  1.00  0.00     0.020 A 
ATOM     15  C   UNL     1       4.450  11.641  26.359  1.00  0.00     0.119 A 
ATOM     16  C   UNL     1       3.251  11.720  27.072  1.00  0.00     0.093 A 
ATOM     17  C   UNL     1       2.465  12.882  27.013  1.00  0.00     0.130 A 
BRANCH  15  18
ATOM     18  O   UNL     1       5.216  10.479  26.428  1.00  0.00    -0.508 OA
ATOM     19  H   UNL     1       5.861  10.225  25.690  1.00  0.00     0.293 HD
ENDBRANCH  15  18
BRANCH  17  20
ATOM     20  O   UNL     1       1.267  12.945  27.725  1.00  0.00    -0.507 OA
ATOM     21  H   UNL     1       0.827  12.113  28.099  1.00  0.00     0.293 HD
ENDBRANCH  17  20
ENDBRANCH   1  12
BRANCH   2  22
ATOM     22  O   UNL     1       0.192  14.060  25.181  1.00  0.00    -0.502 OA
ATOM     23  H   UNL     1      -0.756  13.796  25.416  1.00  0.00     0.293 HD
ENDBRANCH   2  22
BRANCH   6  24
ATOM     24  O   UNL     1      -1.125  19.216  25.440  1.00  0.00    -0.507 OA
ATOM     25  H   UNL     1      -1.473  20.146  25.260  1.00  0.00     0.293 HD
ENDBRANCH   6  24
BRANCH   8  26
ATOM     26  O   UNL     1       2.605  20.937  27.895  1.00  0.00    -0.508 OA
ATOM     27  H   UNL     1       2.278  21.315  28.776  1.00  0.00     0.293 HD
ENDBRANCH   8  26
TORSDOF 6
ENDMDL
MODEL 9
REMARK VINA RESULT:    -3.745      2.369      7.057
REMARK INTER + INTRA:          -4.984
REMARK INTER:                  -4.654
REMARK INTRA:                  -0.330
REMARK UNBOUND:                -0.473
REMARK SMILES O=c1c(O)c(-c2ccc(O)cc2O)oc2cc(O)cc(O)c12
REMARK SMILES IDX 5 1 3 2 2 3 1 4 22 5 20 6 19 7 17 8 16 9 15 10 14 11 6 12
REMARK SMILES IDX 8 13 7 14 9 15 11 16 12 17 10 18 13 20 4 22 21 24 18 26
REMARK H PARENT 10 19 13 21 4 23 21 25 18 27
REMARK Flexibility Score: inf
ROOT
ATOM      1  C   UNL     1       2.062  14.415  26.625  1.00  0.00     0.184 A 
ATOM      2  C   UNL     1       2.930  14.027  25.589  1.00  0.00     0.208 A 
ATOM      3  C   UNL     1       3.669  12.842  25.727  1.00  0.00     0.238 A 
ATOM      4  O   UNL     1       4.487  12.531  24.822  1.00  0.00    -0.285 OA
ATOM      5  C   UNL     1       3.517  12.048  26.890  1.00  0.00     0.111 A 
ATOM      6  C   UNL     1       4.187  10.808  27.118  1.00  0.00     0.134 A 
ATOM      7  C   UNL     1       4.058  10.173  28.360  1.00  0.00     0.093 A 
ATOM      8  C   UNL     1       3.235  10.697  29.356  1.00  0.00     0.123 A 
ATOM      9  C   UNL     1       2.529  11.878  29.121  1.00  0.00     0.094 A 
ATOM     10  C   UNL     1       2.666  12.555  27.907  1.00  0.00     0.146 A 
ATOM     11  O   UNL     1       1.986  13.681  27.729  1.00  0.00    -0.451 OA
ENDROOT
BRANCH   1  12
ATOM     12  C   UNL     1       1.234  15.639  26.533  1.00  0.00     0.063 A 
ATOM     13  C   UNL     1      -0.944  16.701  26.299  1.00  0.00     0.047 A 
ATOM     14  C   UNL     1      -0.158  15.547  26.357  1.00  0.00     0.020 A 
ATOM     15  C   UNL     1      -0.351  17.963  26.426  1.00  0.00     0.119 A 
ATOM     16  C   UNL     1       1.030  18.065  26.615  1.00  0.00     0.093 A 
ATOM     17  C   UNL     1       1.827  16.911  26.673  1.00  0.00     0.130 A 
BRANCH  15  18
ATOM     18  O   UNL     1      -1.125  19.119  26.370  1.00  0.00    -0.508 OA
ATOM     19  H   UNL     1      -1.823  19.324  27.074  1.00  0.00     0.293 HD
ENDBRANCH  15  18
BRANCH  17  20
ATOM     20  O   UNL     1       3.205  17.028  26.855  1.00  0.00    -0.507 OA
ATOM     21  H   UNL     1       3.787  17.533  26.197  1.00  0.00     0.293 HD
ENDBRANCH  17  20
ENDBRANCH   1  12
BRANCH   2  22
ATOM     22  O   UNL     1       3.074  14.834  24.457  1.00  0.00    -0.502 OA
ATOM     23  H   UNL     1       3.802  14.683  23.771  1.00  0.00     0.293 HD
ENDBRANCH   2  22
BRANCH   6  24
ATOM     24  O   UNL     1       4.961  10.151  26.158  1.00  0.00    -0.507 OA
ATOM     25  H   UNL     1       4.589   9.612  25.391  1.00  0.00     0.293 HD
ENDBRANCH   6  24
BRANCH   8  26
ATOM     26  O   UNL     1       3.118  10.030  30.573  1.00  0.00    -0.508 OA
ATOM     27  H   UNL     1       2.233   9.967  31.061  1.00  0.00     0.293 HD
ENDBRANCH   8  26
TORSDOF 6
ENDMDL
