MODEL 1
REMARK VINA RESULT:    -5.323      0.000      0.000
REMARK INTER + INTRA:          -9.364
REMARK INTER:                  -8.434
REMARK INTRA:                  -0.930
REMARK UNBOUND:                -0.930
REMARK SMILES CCCCCCCCCCCC(=O)[O-]
REMARK SMILES IDX 7 1 8 2 9 3 10 4 11 5 12 6 13 7 14 8 6 9 5 10 4 11 3 12 2 13
REMARK SMILES IDX 1 14
REMARK H PARENT
REMARK Flexibility Score: inf
ROOT
ATOM      1  C   UNL     1       0.116  21.401  49.616  1.00  0.00     0.000 C 
ENDROOT
BRANCH   1   2
ATOM      2  C   UNL     1      -0.416  21.348  51.059  1.00  0.00     0.000 C 
BRANCH   2   3
ATOM      3  C   UNL     1       0.532  22.019  52.065  1.00  0.00     0.000 C 
BRANCH   3   4
ATOM      4  C   UNL     1       1.762  22.650  51.389  1.00  0.00     0.006 C 
BRANCH   4   5
ATOM      5  C   UNL     1       1.883  24.149  51.690  1.00  0.00     0.053 C 
BRANCH   5   6
ATOM      6  C   UNL     1       1.462  24.984  50.519  1.00  0.00     0.041 C 
ATOM      7  O   UNL     1       2.266  25.805  50.002  1.00  0.00    -0.550 OA
ATOM      8  O   UNL     1       0.192  24.832  49.977  1.00  0.00    -0.550 OA
ENDBRANCH   5   6
ENDBRANCH   4   5
ENDBRANCH   3   4
ENDBRANCH   2   3
ENDBRANCH   1   2
BRANCH   1   9
ATOM      9  C   UNL     1      -0.263  20.139  48.811  1.00  0.00     0.000 C 
BRANCH   9  10
ATOM     10  C   UNL     1       0.522  19.987  47.497  1.00  0.00    -0.000 C 
BRANCH  10  11
ATOM     11  C   UNL     1       1.912  19.360  47.702  1.00  0.00    -0.000 C 
BRANCH  11  12
ATOM     12  C   UNL     1       2.055  18.677  49.072  1.00  0.00    -0.000 C 
BRANCH  12  13
ATOM     13  C   UNL     1       3.500  18.692  49.592  1.00  0.00    -0.003 C 
ATOM     14  C   UNL     1       3.967  20.118  49.871  1.00  0.00     0.004 C 
ENDBRANCH  12  13
ENDBRANCH  11  12
ENDBRANCH  10  11
ENDBRANCH   9  10
ENDBRANCH   1   9
TORSDOF 10
ENDMDL
MODEL 2
REMARK VINA RESULT:    -5.264      2.495      3.199
REMARK INTER + INTRA:          -9.272
REMARK INTER:                  -8.608
REMARK INTRA:                  -0.664
REMARK UNBOUND:                -0.930
REMARK SMILES CCCCCCCCCCCC(=O)[O-]
REMARK SMILES IDX 7 1 8 2 9 3 10 4 11 5 12 6 13 7 14 8 6 9 5 10 4 11 3 12 2 13
REMARK SMILES IDX 1 14
REMARK H PARENT
REMARK Flexibility Score: inf
ROOT
ATOM      1  C   UNL     1       0.526  22.221  50.792  1.00  0.00     0.000 C 
ENDROOT
BRANCH   1   2
ATOM      2  C   UNL     1      -0.275  23.531  50.675  1.00  0.00     0.000 C 
BRANCH   2   3
ATOM      3  C   UNL     1       0.488  24.625  49.914  1.00  0.00     0.000 C 
BRANCH   3   4
ATOM      4  C   UNL     1      -0.450  25.606  49.187  1.00  0.00     0.006 C 
BRANCH   4   5
ATOM      5  C   UNL     1      -0.205  25.627  47.673  1.00  0.00     0.053 C 
BRANCH   5   6
ATOM      6  C   UNL     1      -1.479  25.445  46.905  1.00  0.00     0.041 C 
ATOM      7  O   UNL     1      -2.576  25.823  47.394  1.00  0.00    -0.550 OA
ATOM      8  O   UNL     1      -1.449  24.886  45.633  1.00  0.00    -0.550 OA
ENDBRANCH   5   6
ENDBRANCH   4   5
ENDBRANCH   3   4
ENDBRANCH   2   3
ENDBRANCH   1   2
BRANCH   1   9
ATOM      9  C   UNL     1      -0.248  21.014  50.220  1.00  0.00     0.000 C 
BRANCH   9  10
ATOM     10  C   UNL     1      -0.033  20.803  48.712  1.00  0.00    -0.000 C 
BRANCH  10  11
ATOM     11  C   UNL     1       0.451  19.383  48.371  1.00  0.00    -0.000 C 
BRANCH  11  12
ATOM     12  C   UNL     1       1.975  19.308  48.184  1.00  0.00    -0.000 C 
BRANCH  12  13
ATOM     13  C   UNL     1       2.703  18.829  49.449  1.00  0.00    -0.003 C 
ATOM     14  C   UNL     1       3.857  19.762  49.803  1.00  0.00     0.004 C 
ENDBRANCH  12  13
ENDBRANCH  11  12
ENDBRANCH  10  11
ENDBRANCH   9  10
ENDBRANCH   1   9
TORSDOF 10
ENDMDL
MODEL 3
REMARK VINA RESULT:    -5.261      3.461      5.751
REMARK INTER + INTRA:          -9.266
REMARK INTER:                  -8.751
REMARK INTRA:                  -0.515
REMARK UNBOUND:                -0.930
REMARK SMILES CCCCCCCCCCCC(=O)[O-]
REMARK SMILES IDX 7 1 8 2 9 3 10 4 11 5 12 6 13 7 14 8 6 9 5 10 4 11 3 12 2 13
REMARK SMILES IDX 1 14
REMARK H PARENT
REMARK Flexibility Score: inf
ROOT
ATOM      1  C   UNL     1      -0.461  21.228  46.618  1.00  0.00     0.000 C 
ENDROOT
BRANCH   1   2
ATOM      2  C   UNL     1       0.264  19.926  46.235  1.00  0.00     0.000 C 
BRANCH   2   3
ATOM      3  C   UNL     1       1.589  19.742  46.990  1.00  0.00     0.000 C 
BRANCH   3   4
ATOM      4  C   UNL     1       1.382  19.355  48.465  1.00  0.00     0.006 C 
BRANCH   4   5
ATOM      5  C   UNL     1       2.675  18.851  49.119  1.00  0.00     0.053 C 
BRANCH   5   6
ATOM      6  C   UNL     1       3.330  19.918  49.943  1.00  0.00     0.041 C 
ATOM      7  O   UNL     1       4.572  20.111  49.862  1.00  0.00    -0.550 OA
ATOM      8  O   UNL     1       2.562  20.722  50.777  1.00  0.00    -0.550 OA
ENDBRANCH   5   6
ENDBRANCH   4   5
ENDBRANCH   3   4
ENDBRANCH   2   3
ENDBRANCH   1   2
BRANCH   1   9
ATOM      9  C   UNL     1      -1.019  21.968  45.384  1.00  0.00     0.000 C 
BRANCH   9  10
ATOM     10  C   UNL     1      -2.007  23.093  45.734  1.00  0.00    -0.000 C 
BRANCH  10  11
ATOM     11  C   UNL     1      -1.404  24.496  45.548  1.00  0.00    -0.000 C 
BRANCH  11  12
ATOM     12  C   UNL     1      -1.596  25.388  46.785  1.00  0.00    -0.000 C 
BRANCH  12  13
ATOM     13  C   UNL     1      -0.274  25.691  47.506  1.00  0.00    -0.003 C 
ATOM     14  C   UNL     1      -0.231  25.024  48.878  1.00  0.00     0.004 C 
ENDBRANCH  12  13
ENDBRANCH  11  12
ENDBRANCH  10  11
ENDBRANCH   9  10
ENDBRANCH   1   9
TORSDOF 10
ENDMDL
MODEL 4
REMARK VINA RESULT:    -5.146      2.954      5.885
REMARK INTER + INTRA:          -9.084
REMARK INTER:                  -8.409
REMARK INTRA:                  -0.675
REMARK UNBOUND:                -0.930
REMARK SMILES CCCCCCCCCCCC(=O)[O-]
REMARK SMILES IDX 7 1 8 2 9 3 10 4 11 5 12 6 13 7 14 8 6 9 5 10 4 11 3 12 2 13
REMARK SMILES IDX 1 14
REMARK H PARENT
REMARK Flexibility Score: inf
ROOT
ATOM      1  C   UNL     1       1.625  22.749  51.635  1.00  0.00     0.000 C 
ENDROOT
BRANCH   1   2
ATOM      2  C   UNL     1       0.289  22.345  50.987  1.00  0.00     0.000 C 
BRANCH   2   3
ATOM      3  C   UNL     1       0.305  20.908  50.443  1.00  0.00     0.000 C 
BRANCH   3   4
ATOM      4  C   UNL     1      -0.257  20.809  49.014  1.00  0.00     0.006 C 
BRANCH   4   5
ATOM      5  C   UNL     1       0.058  19.458  48.359  1.00  0.00     0.053 C 
BRANCH   5   6
ATOM      6  C   UNL     1       1.391  19.474  47.674  1.00  0.00     0.041 C 
ATOM      7  O   UNL     1       2.402  18.983  48.242  1.00  0.00    -0.550 OA
ATOM      8  O   UNL     1       1.509  20.002  46.395  1.00  0.00    -0.550 OA
ENDBRANCH   5   6
ENDBRANCH   4   5
ENDBRANCH   3   4
ENDBRANCH   2   3
ENDBRANCH   1   2
BRANCH   1   9
ATOM      9  C   UNL     1       1.949  24.242  51.416  1.00  0.00     0.000 C 
BRANCH   9  10
ATOM     10  C   UNL     1       0.878  24.993  50.607  1.00  0.00    -0.000 C 
BRANCH  10  11
ATOM     11  C   UNL     1       1.471  26.080  49.696  1.00  0.00    -0.000 C 
BRANCH  11  12
ATOM     12  C   UNL     1       0.797  26.125  48.315  1.00  0.00    -0.000 C 
BRANCH  12  13
ATOM     13  C   UNL     1      -0.551  25.389  48.291  1.00  0.00    -0.003 C 
ATOM     14  C   UNL     1      -1.134  25.356  46.881  1.00  0.00     0.004 C 
ENDBRANCH  12  13
ENDBRANCH  11  12
ENDBRANCH  10  11
ENDBRANCH   9  10
ENDBRANCH   1   9
TORSDOF 10
ENDMDL
MODEL 5
REMARK VINA RESULT:    -5.145      2.373      3.953
REMARK INTER + INTRA:          -9.083
REMARK INTER:                  -8.410
REMARK INTRA:                  -0.673
REMARK UNBOUND:                -0.930
REMARK SMILES CCCCCCCCCCCC(=O)[O-]
REMARK SMILES IDX 7 1 8 2 9 3 10 4 11 5 12 6 13 7 14 8 6 9 5 10 4 11 3 12 2 13
REMARK SMILES IDX 1 14
REMARK H PARENT
REMARK Flexibility Score: inf
ROOT
ATOM      1  C   UNL     1       0.694  23.527  51.025  1.00  0.00     0.000 C 
ENDROOT
BRANCH   1   2
ATOM      2  C   UNL     1       1.608  24.764  50.970  1.00  0.00     0.000 C 
BRANCH   2   3
ATOM      3  C   UNL     1       1.196  25.755  49.872  1.00  0.00     0.000 C 
BRANCH   3   4
ATOM      4  C   UNL     1      -0.086  25.326  49.136  1.00  0.00     0.006 C 
BRANCH   4   5
ATOM      5  C   UNL     1      -0.082  25.761  47.665  1.00  0.00     0.053 C 
BRANCH   5   6
ATOM      6  C   UNL     1      -1.382  25.442  46.991  1.00  0.00     0.041 C 
ATOM      7  O   UNL     1      -2.469  25.847  47.482  1.00  0.00    -0.550 OA
ATOM      8  O   UNL     1      -1.391  24.723  45.802  1.00  0.00    -0.550 OA
ENDBRANCH   5   6
ENDBRANCH   4   5
ENDBRANCH   3   4
ENDBRANCH   2   3
ENDBRANCH   1   2
BRANCH   1   9
ATOM      9  C   UNL     1       1.454  22.263  51.481  1.00  0.00     0.000 C 
BRANCH   9  10
ATOM     10  C   UNL     1       1.130  21.014  50.645  1.00  0.00    -0.000 C 
BRANCH  10  11
ATOM     11  C   UNL     1      -0.110  21.197  49.753  1.00  0.00    -0.000 C 
BRANCH  11  12
ATOM     12  C   UNL     1      -0.266  20.069  48.720  1.00  0.00    -0.000 C 
BRANCH  12  13
ATOM     13  C   UNL     1       1.081  19.461  48.301  1.00  0.00    -0.003 C 
ATOM     14  C   UNL     1       1.385  19.759  46.836  1.00  0.00     0.004 C 
ENDBRANCH  12  13
ENDBRANCH  11  12
ENDBRANCH  10  11
ENDBRANCH   9  10
ENDBRANCH   1   9
TORSDOF 10
ENDMDL
MODEL 6
REMARK VINA RESULT:    -5.067      2.541      5.619
REMARK INTER + INTRA:          -8.959
REMARK INTER:                  -8.258
REMARK INTRA:                  -0.702
REMARK UNBOUND:                -0.930
REMARK SMILES CCCCCCCCCCCC(=O)[O-]
REMARK SMILES IDX 7 1 8 2 9 3 10 4 11 5 12 6 13 7 14 8 6 9 5 10 4 11 3 12 2 13
REMARK SMILES IDX 1 14
REMARK H PARENT
REMARK Flexibility Score: inf
ROOT
ATOM      1  C   UNL     1       1.137  20.905  50.851  1.00  0.00     0.000 C 
ENDROOT
BRANCH   1   2
ATOM      2  C   UNL     1       2.660  20.896  50.629  1.00  0.00     0.000 C 
BRANCH   2   3
ATOM      3  C   UNL     1       3.129  19.696  49.793  1.00  0.00     0.000 C 
BRANCH   3   4
ATOM      4  C   UNL     1       1.975  19.010  49.040  1.00  0.00     0.006 C 
BRANCH   4   5
ATOM      5  C   UNL     1       1.925  19.417  47.562  1.00  0.00     0.053 C 
BRANCH   5   6
ATOM      6  C   UNL     1       0.545  19.828  47.148  1.00  0.00     0.041 C 
ATOM      7  O   UNL     1       0.309  20.149  45.953  1.00  0.00    -0.550 OA
ATOM      8  O   UNL     1      -0.489  19.825  48.076  1.00  0.00    -0.550 OA
ENDBRANCH   5   6
ENDBRANCH   4   5
ENDBRANCH   3   4
ENDBRANCH   2   3
ENDBRANCH   1   2
BRANCH   1   9
ATOM      9  C   UNL     1       0.637  22.259  51.398  1.00  0.00     0.000 C 
BRANCH   9  10
ATOM     10  C   UNL     1       1.771  23.221  51.791  1.00  0.00    -0.000 C 
BRANCH  10  11
ATOM     11  C   UNL     1       1.685  24.575  51.066  1.00  0.00    -0.000 C 
BRANCH  11  12
ATOM     12  C   UNL     1       0.379  24.735  50.270  1.00  0.00    -0.000 C 
BRANCH  12  13
ATOM     13  C   UNL     1       0.471  25.831  49.198  1.00  0.00    -0.003 C 
ATOM     14  C   UNL     1      -0.393  25.488  47.988  1.00  0.00     0.004 C 
ENDBRANCH  12  13
ENDBRANCH  11  12
ENDBRANCH  10  11
ENDBRANCH   9  10
ENDBRANCH   1   9
TORSDOF 10
ENDMDL
MODEL 7
REMARK VINA RESULT:    -5.056      2.981      4.068
REMARK INTER + INTRA:          -8.942
REMARK INTER:                  -8.391
REMARK INTRA:                  -0.551
REMARK UNBOUND:                -0.930
REMARK SMILES CCCCCCCCCCCC(=O)[O-]
REMARK SMILES IDX 7 1 8 2 9 3 10 4 11 5 12 6 13 7 14 8 6 9 5 10 4 11 3 12 2 13
REMARK SMILES IDX 1 14
REMARK H PARENT
REMARK Flexibility Score: inf
ROOT
ATOM      1  C   UNL     1      -0.614  21.237  45.365  1.00  0.00     0.000 C 
ENDROOT
BRANCH   1   2
ATOM      2  C   UNL     1      -1.505  22.327  45.987  1.00  0.00     0.000 C 
BRANCH   2   3
ATOM      3  C   UNL     1      -1.803  23.476  45.012  1.00  0.00     0.000 C 
BRANCH   3   4
ATOM      4  C   UNL     1      -1.315  24.839  45.535  1.00  0.00     0.006 C 
BRANCH   4   5
ATOM      5  C   UNL     1      -1.711  25.074  46.998  1.00  0.00     0.053 C 
BRANCH   5   6
ATOM      6  C   UNL     1      -0.574  25.639  47.795  1.00  0.00     0.041 C 
ATOM      7  O   UNL     1      -0.624  25.650  49.053  1.00  0.00    -0.550 OA
ATOM      8  O   UNL     1       0.555  26.125  47.147  1.00  0.00    -0.550 OA
ENDBRANCH   5   6
ENDBRANCH   4   5
ENDBRANCH   3   4
ENDBRANCH   2   3
ENDBRANCH   1   2
BRANCH   1   9
ATOM      9  C   UNL     1       0.291  20.557  46.415  1.00  0.00     0.000 C 
BRANCH   9  10
ATOM     10  C   UNL     1      -0.319  20.526  47.826  1.00  0.00    -0.000 C 
BRANCH  10  11
ATOM     11  C   UNL     1       0.545  19.748  48.833  1.00  0.00    -0.000 C 
BRANCH  11  12
ATOM     12  C   UNL     1       1.917  19.361  48.257  1.00  0.00    -0.000 C 
BRANCH  12  13
ATOM     13  C   UNL     1       2.846  18.738  49.310  1.00  0.00    -0.003 C 
ATOM     14  C   UNL     1       3.834  19.769  49.848  1.00  0.00     0.004 C 
ENDBRANCH  12  13
ENDBRANCH  11  12
ENDBRANCH  10  11
ENDBRANCH   9  10
ENDBRANCH   1   9
TORSDOF 10
ENDMDL
MODEL 8
REMARK VINA RESULT:    -5.052      3.111      5.295
REMARK INTER + INTRA:          -8.936
REMARK INTER:                  -8.238
REMARK INTRA:                  -0.698
REMARK UNBOUND:                -0.930
REMARK SMILES CCCCCCCCCCCC(=O)[O-]
REMARK SMILES IDX 7 1 8 2 9 3 10 4 11 5 12 6 13 7 14 8 6 9 5 10 4 11 3 12 2 13
REMARK SMILES IDX 1 14
REMARK H PARENT
REMARK Flexibility Score: inf
ROOT
ATOM      1  C   UNL     1      -0.614  21.616  46.630  1.00  0.00     0.000 C 
ENDROOT
BRANCH   1   2
ATOM      2  C   UNL     1       0.181  20.300  46.550  1.00  0.00     0.000 C 
BRANCH   2   3
ATOM      3  C   UNL     1       0.389  19.650  47.926  1.00  0.00     0.000 C 
BRANCH   3   4
ATOM      4  C   UNL     1      -0.271  20.448  49.065  1.00  0.00     0.006 C 
BRANCH   4   5
ATOM      5  C   UNL     1       0.708  20.744  50.208  1.00  0.00     0.053 C 
BRANCH   5   6
ATOM      6  C   UNL     1       0.182  21.805  51.126  1.00  0.00     0.041 C 
ATOM      7  O   UNL     1      -0.926  21.651  51.705  1.00  0.00    -0.550 OA
ATOM      8  O   UNL     1       0.930  22.950  51.366  1.00  0.00    -0.550 OA
ENDBRANCH   5   6
ENDBRANCH   4   5
ENDBRANCH   3   4
ENDBRANCH   2   3
ENDBRANCH   1   2
BRANCH   1   9
ATOM      9  C   UNL     1      -1.194  22.029  45.260  1.00  0.00     0.000 C 
BRANCH   9  10
ATOM     10  C   UNL     1      -2.143  23.237  45.331  1.00  0.00    -0.000 C 
BRANCH  10  11
ATOM     11  C   UNL     1      -1.397  24.581  45.382  1.00  0.00    -0.000 C 
BRANCH  11  12
ATOM     12  C   UNL     1      -1.619  25.329  46.706  1.00  0.00    -0.000 C 
BRANCH  12  13
ATOM     13  C   UNL     1      -0.303  25.674  47.419  1.00  0.00    -0.003 C 
ATOM     14  C   UNL     1      -0.354  25.271  48.890  1.00  0.00     0.004 C 
ENDBRANCH  12  13
ENDBRANCH  11  12
ENDBRANCH  10  11
ENDBRANCH   9  10
ENDBRANCH   1   9
TORSDOF 10
ENDMDL
MODEL 9
REMARK VINA RESULT:    -5.007      2.641      4.978
REMARK INTER + INTRA:          -8.864
REMARK INTER:                  -8.106
REMARK INTRA:                  -0.758
REMARK UNBOUND:                -0.930
REMARK SMILES CCCCCCCCCCCC(=O)[O-]
REMARK SMILES IDX 7 1 8 2 9 3 10 4 11 5 12 6 13 7 14 8 6 9 5 10 4 11 3 12 2 13
REMARK SMILES IDX 1 14
REMARK H PARENT
REMARK Flexibility Score: inf
ROOT
ATOM      1  C   UNL     1       0.395  19.592  48.075  1.00  0.00     0.000 C 
ENDROOT
BRANCH   1   2
ATOM      2  C   UNL     1       0.924  19.651  46.631  1.00  0.00     0.000 C 
BRANCH   2   3
ATOM      3  C   UNL     1       0.141  20.639  45.754  1.00  0.00     0.000 C 
BRANCH   3   4
ATOM      4  C   UNL     1      -0.738  21.596  46.578  1.00  0.00     0.006 C 
BRANCH   4   5
ATOM      5  C   UNL     1      -1.774  22.323  45.711  1.00  0.00     0.053 C 
BRANCH   5   6
ATOM      6  C   UNL     1      -1.502  23.794  45.641  1.00  0.00     0.041 C 
ATOM      7  O   UNL     1      -1.691  24.425  44.567  1.00  0.00    -0.550 OA
ATOM      8  O   UNL     1      -1.070  24.477  46.771  1.00  0.00    -0.550 OA
ENDBRANCH   5   6
ENDBRANCH   4   5
ENDBRANCH   3   4
ENDBRANCH   2   3
ENDBRANCH   1   2
BRANCH   1   9
ATOM      9  C   UNL     1       1.537  19.483  49.109  1.00  0.00     0.000 C 
BRANCH   9  10
ATOM     10  C   UNL     1       1.401  20.467  50.283  1.00  0.00    -0.000 C 
BRANCH  10  11
ATOM     11  C   UNL     1       0.049  21.201  50.294  1.00  0.00    -0.000 C 
BRANCH  11  12
ATOM     12  C   UNL     1       0.151  22.616  50.886  1.00  0.00    -0.000 C 
BRANCH  12  13
ATOM     13  C   UNL     1       1.454  22.837  51.669  1.00  0.00    -0.003 C 
ATOM     14  C   UNL     1       1.889  24.298  51.609  1.00  0.00     0.004 C 
ENDBRANCH  12  13
ENDBRANCH  11  12
ENDBRANCH  10  11
ENDBRANCH   9  10
ENDBRANCH   1   9
TORSDOF 10
ENDMDL
