MODEL 1
REMARK VINA RESULT:    -3.020      0.000      0.000
REMARK INTER + INTRA:          -6.667
REMARK INTER:                  -5.669
REMARK INTRA:                  -0.998
REMARK UNBOUND:                -0.998
REMARK SMILES CCCCCCCCC=CCCCCCCCC(=O)[O-]
REMARK SMILES IDX 10 1 9 2 11 3 12 4 13 5 14 6 15 7 16 8 17 9 18 10 19 11
REMARK SMILES IDX 20 12 8 13 7 14 6 15 5 16 4 17 3 18 2 19 1 20
REMARK H PARENT
REMARK Flexibility Score: inf
ROOT
ATOM      1  C   UNL     1     -20.365   1.644   7.742  1.00  0.00    -0.031 C 
ATOM      2  C   UNL     1     -20.779   0.700   6.882  1.00  0.00    -0.031 C 
ENDROOT
BRANCH   1   3
ATOM      3  C   UNL     1     -21.246   2.804   8.118  1.00  0.00     0.027 C 
BRANCH   3   4
ATOM      4  C   UNL     1     -21.872   2.595   9.505  1.00  0.00     0.004 C 
BRANCH   4   5
ATOM      5  C   UNL     1     -21.204   1.444  10.288  1.00  0.00     0.000 C 
BRANCH   5   6
ATOM      6  C   UNL     1     -21.880   1.138  11.638  1.00  0.00     0.000 C 
BRANCH   6   7
ATOM      7  C   UNL     1     -21.128   1.663  12.875  1.00  0.00     0.000 C 
BRANCH   7   8
ATOM      8  C   UNL     1     -20.701   0.580  13.888  1.00  0.00     0.006 C 
BRANCH   8   9
ATOM      9  C   UNL     1     -21.618  -0.653  13.929  1.00  0.00     0.053 C 
BRANCH   9  10
ATOM     10  C   UNL     1     -21.018  -1.825  13.214  1.00  0.00     0.041 C 
ATOM     11  O   UNL     1     -21.377  -2.996  13.505  1.00  0.00    -0.550 OA
ATOM     12  O   UNL     1     -20.033  -1.624  12.254  1.00  0.00    -0.550 OA
ENDBRANCH   9  10
ENDBRANCH   8   9
ENDBRANCH   7   8
ENDBRANCH   6   7
ENDBRANCH   5   6
ENDBRANCH   4   5
ENDBRANCH   3   4
ENDBRANCH   1   3
BRANCH   2  13
ATOM     13  C   UNL     1     -19.908  -0.470   6.517  1.00  0.00     0.027 C 
BRANCH  13  14
ATOM     14  C   UNL     1     -20.324  -1.731   7.289  1.00  0.00     0.004 C 
BRANCH  14  15
ATOM     15  C   UNL     1     -20.018  -1.637   8.795  1.00  0.00     0.000 C 
BRANCH  15  16
ATOM     16  C   UNL     1     -19.454  -2.925   9.427  1.00  0.00     0.000 C 
BRANCH  16  17
ATOM     17  C   UNL     1     -18.919  -3.966   8.424  1.00  0.00    -0.000 C 
BRANCH  17  18
ATOM     18  C   UNL     1     -19.233  -5.434   8.776  1.00  0.00    -0.000 C 
BRANCH  18  19
ATOM     19  C   UNL     1     -20.600  -5.939   8.281  1.00  0.00    -0.003 C 
ATOM     20  C   UNL     1     -21.547  -6.311   9.421  1.00  0.00     0.004 C 
ENDBRANCH  18  19
ENDBRANCH  17  18
ENDBRANCH  16  17
ENDBRANCH  15  16
ENDBRANCH  14  15
ENDBRANCH  13  14
ENDBRANCH   2  13
TORSDOF 15
ENDMDL
MODEL 2
REMARK VINA RESULT:    -2.795      1.710      5.756
REMARK INTER + INTRA:          -6.245
REMARK INTER:                  -5.065
REMARK INTRA:                  -1.179
REMARK UNBOUND:                -0.998
REMARK SMILES CCCCCCCCC=CCCCCCCCC(=O)[O-]
REMARK SMILES IDX 10 1 9 2 11 3 12 4 13 5 14 6 15 7 16 8 17 9 18 10 19 11
REMARK SMILES IDX 20 12 8 13 7 14 6 15 5 16 4 17 3 18 2 19 1 20
REMARK H PARENT
REMARK Flexibility Score: inf
ROOT
ATOM      1  C   UNL     1     -20.729   0.822   6.905  1.00  0.00    -0.031 C 
ATOM      2  C   UNL     1     -20.522   1.580   7.993  1.00  0.00    -0.031 C 
ENDROOT
BRANCH   1   3
ATOM      3  C   UNL     1     -19.855  -0.363   6.596  1.00  0.00     0.027 C 
BRANCH   3   4
ATOM      4  C   UNL     1     -20.333  -1.613   7.352  1.00  0.00     0.004 C 
BRANCH   4   5
ATOM      5  C   UNL     1     -20.014  -1.549   8.861  1.00  0.00     0.000 C 
BRANCH   5   6
ATOM      6  C   UNL     1     -19.582  -2.900   9.461  1.00  0.00     0.000 C 
BRANCH   6   7
ATOM      7  C   UNL     1     -19.026  -3.915   8.445  1.00  0.00     0.000 C 
BRANCH   7   8
ATOM      8  C   UNL     1     -19.187  -5.396   8.846  1.00  0.00     0.006 C 
BRANCH   8   9
ATOM      9  C   UNL     1     -20.401  -6.099   8.217  1.00  0.00     0.053 C 
BRANCH   9  10
ATOM     10  C   UNL     1     -21.519  -6.276   9.198  1.00  0.00     0.041 C 
ATOM     11  O   UNL     1     -21.449  -5.751  10.340  1.00  0.00    -0.550 OA
ATOM     12  O   UNL     1     -22.621  -7.055   8.864  1.00  0.00    -0.550 OA
ENDBRANCH   9  10
ENDBRANCH   8   9
ENDBRANCH   7   8
ENDBRANCH   6   7
ENDBRANCH   5   6
ENDBRANCH   4   5
ENDBRANCH   3   4
ENDBRANCH   1   3
BRANCH   2  13
ATOM     13  C   UNL     1     -21.404   2.756   8.313  1.00  0.00     0.027 C 
BRANCH  13  14
ATOM     14  C   UNL     1     -21.900   2.695   9.766  1.00  0.00     0.004 C 
BRANCH  14  15
ATOM     15  C   UNL     1     -21.146   1.652  10.610  1.00  0.00     0.000 C 
BRANCH  15  16
ATOM     16  C   UNL     1     -21.857   1.232  11.913  1.00  0.00     0.000 C 
BRANCH  16  17
ATOM     17  C   UNL     1     -21.093   1.562  13.210  1.00  0.00    -0.000 C 
BRANCH  17  18
ATOM     18  C   UNL     1     -20.663   0.339  14.045  1.00  0.00    -0.000 C 
BRANCH  18  19
ATOM     19  C   UNL     1     -21.450  -0.952  13.754  1.00  0.00    -0.003 C 
ATOM     20  C   UNL     1     -20.670  -1.946  12.897  1.00  0.00     0.004 C 
ENDBRANCH  18  19
ENDBRANCH  17  18
ENDBRANCH  16  17
ENDBRANCH  15  16
ENDBRANCH  14  15
ENDBRANCH  13  14
ENDBRANCH   2  13
TORSDOF 15
ENDMDL
MODEL 3
REMARK VINA RESULT:    -2.752      1.476      3.188
REMARK INTER + INTRA:          -6.163
REMARK INTER:                  -5.068
REMARK INTRA:                  -1.095
REMARK UNBOUND:                -0.998
REMARK SMILES CCCCCCCCC=CCCCCCCCC(=O)[O-]
REMARK SMILES IDX 10 1 9 2 11 3 12 4 13 5 14 6 15 7 16 8 17 9 18 10 19 11
REMARK SMILES IDX 20 12 8 13 7 14 6 15 5 16 4 17 3 18 2 19 1 20
REMARK H PARENT
REMARK Flexibility Score: inf
ROOT
ATOM      1  C   UNL     1     -20.341  -1.612   7.674  1.00  0.00    -0.031 C 
ATOM      2  C   UNL     1     -19.982  -1.701   8.964  1.00  0.00    -0.031 C 
ENDROOT
BRANCH   1   3
ATOM      3  C   UNL     1     -20.710  -0.294   7.051  1.00  0.00     0.027 C 
BRANCH   3   4
ATOM      4  C   UNL     1     -19.941   0.863   7.708  1.00  0.00     0.004 C 
BRANCH   4   5
ATOM      5  C   UNL     1     -20.789   2.148   7.819  1.00  0.00     0.000 C 
BRANCH   5   6
ATOM      6  C   UNL     1     -21.546   2.279   9.155  1.00  0.00     0.000 C 
BRANCH   6   7
ATOM      7  C   UNL     1     -21.113   1.283  10.247  1.00  0.00     0.000 C 
BRANCH   7   8
ATOM      8  C   UNL     1     -21.913   1.370  11.564  1.00  0.00     0.006 C 
BRANCH   8   9
ATOM      9  C   UNL     1     -21.069   1.193  12.836  1.00  0.00     0.053 C 
BRANCH   9  10
ATOM     10  C   UNL     1     -21.165  -0.196  13.386  1.00  0.00     0.041 C 
ATOM     11  O   UNL     1     -21.771  -0.409  14.469  1.00  0.00    -0.550 OA
ATOM     12  O   UNL     1     -20.548  -1.251  12.724  1.00  0.00    -0.550 OA
ENDBRANCH   9  10
ENDBRANCH   8   9
ENDBRANCH   7   8
ENDBRANCH   6   7
ENDBRANCH   5   6
ENDBRANCH   4   5
ENDBRANCH   3   4
ENDBRANCH   1   3
BRANCH   2  13
ATOM     13  C   UNL     1     -19.596  -3.015   9.586  1.00  0.00     0.027 C 
BRANCH  13  14
ATOM     14  C   UNL     1     -19.075  -3.997   8.525  1.00  0.00     0.004 C 
BRANCH  14  15
ATOM     15  C   UNL     1     -19.442  -5.459   8.833  1.00  0.00     0.000 C 
BRANCH  15  16
ATOM     16  C   UNL     1     -20.767  -5.943   8.211  1.00  0.00     0.000 C 
BRANCH  16  17
ATOM     17  C   UNL     1     -21.775  -6.549   9.207  1.00  0.00    -0.000 C 
BRANCH  17  18
ATOM     18  C   UNL     1     -22.573  -7.758   8.676  1.00  0.00    -0.000 C 
BRANCH  18  19
ATOM     19  C   UNL     1     -24.022  -7.445   8.262  1.00  0.00    -0.003 C 
ATOM     20  C   UNL     1     -24.857  -8.700   8.018  1.00  0.00     0.004 C 
ENDBRANCH  18  19
ENDBRANCH  17  18
ENDBRANCH  16  17
ENDBRANCH  15  16
ENDBRANCH  14  15
ENDBRANCH  13  14
ENDBRANCH   2  13
TORSDOF 15
ENDMDL
MODEL 4
REMARK VINA RESULT:    -2.651      1.985      6.046
REMARK INTER + INTRA:          -5.974
REMARK INTER:                  -4.911
REMARK INTRA:                  -1.063
REMARK UNBOUND:                -0.998
REMARK SMILES CCCCCCCCC=CCCCCCCCC(=O)[O-]
REMARK SMILES IDX 10 1 9 2 11 3 12 4 13 5 14 6 15 7 16 8 17 9 18 10 19 11
REMARK SMILES IDX 20 12 8 13 7 14 6 15 5 16 4 17 3 18 2 19 1 20
REMARK H PARENT
REMARK Flexibility Score: inf
ROOT
ATOM      1  C   UNL     1     -20.371  -1.478   7.878  1.00  0.00    -0.031 C 
ATOM      2  C   UNL     1     -20.057  -0.668   6.854  1.00  0.00    -0.031 C 
ENDROOT
BRANCH   1   3
ATOM      3  C   UNL     1     -19.613  -2.752   8.132  1.00  0.00     0.027 C 
BRANCH   3   4
ATOM      4  C   UNL     1     -19.244  -2.889   9.617  1.00  0.00     0.004 C 
BRANCH   4   5
ATOM      5  C   UNL     1     -19.907  -1.803  10.492  1.00  0.00     0.000 C 
BRANCH   5   6
ATOM      6  C   UNL     1     -20.789  -2.370  11.620  1.00  0.00     0.000 C 
BRANCH   6   7
ATOM      7  C   UNL     1     -20.343  -1.995  13.046  1.00  0.00     0.000 C 
BRANCH   7   8
ATOM      8  C   UNL     1     -21.369  -1.177  13.857  1.00  0.00     0.006 C 
BRANCH   8   9
ATOM      9  C   UNL     1     -20.855   0.188  14.345  1.00  0.00     0.053 C 
BRANCH   9  10
ATOM     10  C   UNL     1     -21.102   1.273  13.343  1.00  0.00     0.041 C 
ATOM     11  O   UNL     1     -21.616   1.000  12.226  1.00  0.00    -0.550 OA
ATOM     12  O   UNL     1     -20.727   2.581  13.626  1.00  0.00    -0.550 OA
ENDBRANCH   9  10
ENDBRANCH   8   9
ENDBRANCH   7   8
ENDBRANCH   6   7
ENDBRANCH   5   6
ENDBRANCH   4   5
ENDBRANCH   3   4
ENDBRANCH   1   3
BRANCH   2  13
ATOM     13  C   UNL     1     -20.803   0.614   6.607  1.00  0.00     0.027 C 
BRANCH  13  14
ATOM     14  C   UNL     1     -20.359   1.709   7.590  1.00  0.00     0.004 C 
BRANCH  14  15
ATOM     15  C   UNL     1     -21.014   1.568   8.975  1.00  0.00     0.000 C 
BRANCH  15  16
ATOM     16  C   UNL     1     -21.864   2.776   9.420  1.00  0.00     0.000 C 
BRANCH  16  17
ATOM     17  C   UNL     1     -21.861   3.971   8.447  1.00  0.00    -0.000 C 
BRANCH  17  18
ATOM     18  C   UNL     1     -21.886   5.360   9.117  1.00  0.00    -0.000 C 
BRANCH  18  19
ATOM     19  C   UNL     1     -20.524   6.073   9.179  1.00  0.00    -0.003 C 
ATOM     20  C   UNL     1     -19.797   5.856  10.505  1.00  0.00     0.004 C 
ENDBRANCH  18  19
ENDBRANCH  17  18
ENDBRANCH  16  17
ENDBRANCH  15  16
ENDBRANCH  14  15
ENDBRANCH  13  14
ENDBRANCH   2  13
TORSDOF 15
ENDMDL
MODEL 5
REMARK VINA RESULT:    -2.320      4.723      6.398
REMARK INTER + INTRA:          -5.352
REMARK INTER:                  -4.343
REMARK INTRA:                  -1.009
REMARK UNBOUND:                -0.998
REMARK SMILES CCCCCCCCC=CCCCCCCCC(=O)[O-]
REMARK SMILES IDX 10 1 9 2 11 3 12 4 13 5 14 6 15 7 16 8 17 9 18 10 19 11
REMARK SMILES IDX 20 12 8 13 7 14 6 15 5 16 4 17 3 18 2 19 1 20
REMARK H PARENT
REMARK Flexibility Score: inf
ROOT
ATOM      1  C   UNL     1     -21.126   1.618   8.744  1.00  0.00    -0.031 C 
ATOM      2  C   UNL     1     -20.370   1.630   7.635  1.00  0.00    -0.031 C 
ENDROOT
BRANCH   1   3
ATOM      3  C   UNL     1     -21.417   2.880   9.510  1.00  0.00     0.027 C 
BRANCH   3   4
ATOM      4  C   UNL     1     -22.051   3.944   8.601  1.00  0.00     0.004 C 
BRANCH   4   5
ATOM      5  C   UNL     1     -21.851   5.377   9.141  1.00  0.00     0.000 C 
BRANCH   5   6
ATOM      6  C   UNL     1     -20.404   5.891   9.014  1.00  0.00     0.000 C 
BRANCH   6   7
ATOM      7  C   UNL     1     -19.751   6.326  10.338  1.00  0.00     0.000 C 
BRANCH   7   8
ATOM      8  C   UNL     1     -18.264   6.726  10.232  1.00  0.00     0.006 C 
BRANCH   8   9
ATOM      9  C   UNL     1     -18.011   8.242  10.194  1.00  0.00     0.053 C 
BRANCH   9  10
ATOM     10  C   UNL     1     -16.578   8.566   9.906  1.00  0.00     0.041 C 
ATOM     11  O   UNL     1     -15.933   7.891   9.062  1.00  0.00    -0.550 OA
ATOM     12  O   UNL     1     -15.942   9.590  10.599  1.00  0.00    -0.550 OA
ENDBRANCH   9  10
ENDBRANCH   8   9
ENDBRANCH   7   8
ENDBRANCH   6   7
ENDBRANCH   5   6
ENDBRANCH   4   5
ENDBRANCH   3   4
ENDBRANCH   1   3
BRANCH   2  13
ATOM     13  C   UNL     1     -20.092   0.373   6.858  1.00  0.00     0.027 C 
BRANCH  13  14
ATOM     14  C   UNL     1     -20.830  -0.828   7.467  1.00  0.00     0.004 C 
BRANCH  14  15
ATOM     15  C   UNL     1     -19.925  -2.061   7.637  1.00  0.00     0.000 C 
BRANCH  15  16
ATOM     16  C   UNL     1     -19.725  -2.526   9.093  1.00  0.00     0.000 C 
BRANCH  16  17
ATOM     17  C   UNL     1     -20.064  -1.474  10.168  1.00  0.00    -0.000 C 
BRANCH  17  18
ATOM     18  C   UNL     1     -19.640  -1.847  11.604  1.00  0.00    -0.000 C 
BRANCH  18  19
ATOM     19  C   UNL     1     -20.803  -2.013  12.598  1.00  0.00    -0.003 C 
ATOM     20  C   UNL     1     -20.911  -0.856  13.590  1.00  0.00     0.004 C 
ENDBRANCH  18  19
ENDBRANCH  17  18
ENDBRANCH  16  17
ENDBRANCH  15  16
ENDBRANCH  14  15
ENDBRANCH  13  14
ENDBRANCH   2  13
TORSDOF 15
ENDMDL
MODEL 6
REMARK VINA RESULT:    -2.243      5.743      7.053
REMARK INTER + INTRA:          -5.208
REMARK INTER:                  -4.521
REMARK INTRA:                  -0.687
REMARK UNBOUND:                -0.998
REMARK SMILES CCCCCCCCC=CCCCCCCCC(=O)[O-]
REMARK SMILES IDX 10 1 9 2 11 3 12 4 13 5 14 6 15 7 16 8 17 9 18 10 19 11
REMARK SMILES IDX 20 12 8 13 7 14 6 15 5 16 4 17 3 18 2 19 1 20
REMARK H PARENT
REMARK Flexibility Score: inf
ROOT
ATOM      1  C   UNL     1     -21.352   3.315   8.816  1.00  0.00    -0.031 C 
ATOM      2  C   UNL     1     -21.753   2.392   9.705  1.00  0.00    -0.031 C 
ENDROOT
BRANCH   1   3
ATOM      3  C   UNL     1     -21.977   4.682   8.768  1.00  0.00     0.027 C 
BRANCH   3   4
ATOM      4  C   UNL     1     -21.279   5.643   9.741  1.00  0.00     0.004 C 
BRANCH   4   5
ATOM      5  C   UNL     1     -20.015   6.287   9.131  1.00  0.00     0.000 C 
BRANCH   5   6
ATOM      6  C   UNL     1     -18.957   6.689  10.177  1.00  0.00     0.000 C 
BRANCH   6   7
ATOM      7  C   UNL     1     -18.225   8.011   9.886  1.00  0.00     0.000 C 
BRANCH   7   8
ATOM      8  C   UNL     1     -16.713   8.004  10.199  1.00  0.00     0.006 C 
BRANCH   8   9
ATOM      9  C   UNL     1     -15.940   9.209   9.640  1.00  0.00     0.053 C 
BRANCH   9  10
ATOM     10  C   UNL     1     -15.128   9.895  10.695  1.00  0.00     0.041 C 
ATOM     11  O   UNL     1     -15.353   9.670  11.913  1.00  0.00    -0.550 OA
ATOM     12  O   UNL     1     -14.150  10.813  10.333  1.00  0.00    -0.550 OA
ENDBRANCH   9  10
ENDBRANCH   8   9
ENDBRANCH   7   8
ENDBRANCH   6   7
ENDBRANCH   5   6
ENDBRANCH   4   5
ENDBRANCH   3   4
ENDBRANCH   1   3
BRANCH   2  13
ATOM     13  C   UNL     1     -21.119   1.030   9.767  1.00  0.00     0.027 C 
BRANCH  13  14
ATOM     14  C   UNL     1     -20.707   0.547   8.368  1.00  0.00     0.004 C 
BRANCH  14  15
ATOM     15  C   UNL     1     -20.213  -0.911   8.361  1.00  0.00     0.000 C 
BRANCH  15  16
ATOM     16  C   UNL     1     -20.072  -1.557   9.754  1.00  0.00     0.000 C 
BRANCH  16  17
ATOM     17  C   UNL     1     -19.997  -3.097   9.756  1.00  0.00    -0.000 C 
BRANCH  17  18
ATOM     18  C   UNL     1     -18.869  -3.697   8.892  1.00  0.00    -0.000 C 
BRANCH  18  19
ATOM     19  C   UNL     1     -19.201  -5.056   8.249  1.00  0.00    -0.003 C 
ATOM     20  C   UNL     1     -20.354  -5.779   8.943  1.00  0.00     0.004 C 
ENDBRANCH  18  19
ENDBRANCH  17  18
ENDBRANCH  16  17
ENDBRANCH  15  16
ENDBRANCH  14  15
ENDBRANCH  13  14
ENDBRANCH   2  13
TORSDOF 15
ENDMDL
MODEL 7
REMARK VINA RESULT:    -2.211      2.161      4.861
REMARK INTER + INTRA:          -5.148
REMARK INTER:                  -3.624
REMARK INTRA:                  -1.525
REMARK UNBOUND:                -0.998
REMARK SMILES CCCCCCCCC=CCCCCCCCC(=O)[O-]
REMARK SMILES IDX 10 1 9 2 11 3 12 4 13 5 14 6 15 7 16 8 17 9 18 10 19 11
REMARK SMILES IDX 20 12 8 13 7 14 6 15 5 16 4 17 3 18 2 19 1 20
REMARK H PARENT
REMARK Flexibility Score: inf
ROOT
ATOM      1  C   UNL     1     -21.502   0.272  13.454  1.00  0.00    -0.031 C 
ATOM      2  C   UNL     1     -20.693  -0.739  13.804  1.00  0.00    -0.031 C 
ENDROOT
BRANCH   1   3
ATOM      3  C   UNL     1     -21.058   1.705  13.559  1.00  0.00     0.027 C 
BRANCH   3   4
ATOM      4  C   UNL     1     -20.993   2.367  12.174  1.00  0.00     0.004 C 
BRANCH   4   5
ATOM      5  C   UNL     1     -21.850   1.627  11.125  1.00  0.00     0.000 C 
BRANCH   5   6
ATOM      6  C   UNL     1     -21.111   1.354   9.801  1.00  0.00     0.000 C 
BRANCH   6   7
ATOM      7  C   UNL     1     -21.375   2.381   8.685  1.00  0.00     0.000 C 
BRANCH   7   8
ATOM      8  C   UNL     1     -20.744   2.039   7.319  1.00  0.00     0.006 C 
BRANCH   8   9
ATOM      9  C   UNL     1     -19.664   0.945   7.371  1.00  0.00     0.053 C 
BRANCH   9  10
ATOM     10  C   UNL     1     -20.127  -0.333   6.743  1.00  0.00     0.041 C 
ATOM     11  O   UNL     1     -21.322  -0.707   6.873  1.00  0.00    -0.550 OA
ATOM     12  O   UNL     1     -19.228  -1.132   6.046  1.00  0.00    -0.550 OA
ENDBRANCH   9  10
ENDBRANCH   8   9
ENDBRANCH   7   8
ENDBRANCH   6   7
ENDBRANCH   5   6
ENDBRANCH   4   5
ENDBRANCH   3   4
ENDBRANCH   1   3
BRANCH   2  13
ATOM     13  C   UNL     1     -21.127  -2.174  13.684  1.00  0.00     0.027 C 
BRANCH  13  14
ATOM     14  C   UNL     1     -20.767  -2.747  12.305  1.00  0.00     0.004 C 
BRANCH  14  15
ATOM     15  C   UNL     1     -20.028  -1.734  11.413  1.00  0.00     0.000 C 
BRANCH  15  16
ATOM     16  C   UNL     1     -20.001  -2.085   9.912  1.00  0.00     0.000 C 
BRANCH  16  17
ATOM     17  C   UNL     1     -18.968  -3.156   9.509  1.00  0.00    -0.000 C 
BRANCH  17  18
ATOM     18  C   UNL     1     -19.393  -4.069   8.341  1.00  0.00    -0.000 C 
BRANCH  18  19
ATOM     19  C   UNL     1     -19.432  -5.570   8.675  1.00  0.00    -0.003 C 
ATOM     20  C   UNL     1     -20.827  -6.060   9.058  1.00  0.00     0.004 C 
ENDBRANCH  18  19
ENDBRANCH  17  18
ENDBRANCH  16  17
ENDBRANCH  15  16
ENDBRANCH  14  15
ENDBRANCH  13  14
ENDBRANCH   2  13
TORSDOF 15
ENDMDL
MODEL 8
REMARK VINA RESULT:    -2.078      3.102      7.161
REMARK INTER + INTRA:          -4.899
REMARK INTER:                  -3.766
REMARK INTRA:                  -1.133
REMARK UNBOUND:                -0.998
REMARK SMILES CCCCCCCCC=CCCCCCCCC(=O)[O-]
REMARK SMILES IDX 10 1 9 2 11 3 12 4 13 5 14 6 15 7 16 8 17 9 18 10 19 11
REMARK SMILES IDX 20 12 8 13 7 14 6 15 5 16 4 17 3 18 2 19 1 20
REMARK H PARENT
REMARK Flexibility Score: inf
ROOT
ATOM      1  C   UNL     1     -20.595   1.671   7.739  1.00  0.00    -0.031 C 
ATOM      2  C   UNL     1     -21.131   1.695   8.969  1.00  0.00    -0.031 C 
ENDROOT
BRANCH   1   3
ATOM      3  C   UNL     1     -20.005   0.413   7.163  1.00  0.00     0.027 C 
BRANCH   3   4
ATOM      4  C   UNL     1     -20.732  -0.832   7.695  1.00  0.00     0.004 C 
BRANCH   4   5
ATOM      5  C   UNL     1     -19.822  -2.078   7.727  1.00  0.00     0.000 C 
BRANCH   5   6
ATOM      6  C   UNL     1     -19.842  -2.827   9.073  1.00  0.00     0.000 C 
BRANCH   6   7
ATOM      7  C   UNL     1     -19.301  -2.025  10.271  1.00  0.00     0.000 C 
BRANCH   7   8
ATOM      8  C   UNL     1     -20.369  -1.257  11.078  1.00  0.00     0.006 C 
BRANCH   8   9
ATOM      9  C   UNL     1     -20.458  -1.656  12.560  1.00  0.00     0.053 C 
BRANCH   9  10
ATOM     10  C   UNL     1     -20.802  -0.492  13.437  1.00  0.00     0.041 C 
ATOM     11  O   UNL     1     -20.534  -0.524  14.667  1.00  0.00    -0.550 OA
ATOM     12  O   UNL     1     -21.456   0.612  12.903  1.00  0.00    -0.550 OA
ENDBRANCH   9  10
ENDBRANCH   8   9
ENDBRANCH   7   8
ENDBRANCH   6   7
ENDBRANCH   5   6
ENDBRANCH   4   5
ENDBRANCH   3   4
ENDBRANCH   1   3
BRANCH   2  13
ATOM     13  C   UNL     1     -21.737   2.947   9.541  1.00  0.00     0.027 C 
BRANCH  13  14
ATOM     14  C   UNL     1     -21.777   4.070   8.493  1.00  0.00     0.004 C 
BRANCH  14  15
ATOM     15  C   UNL     1     -21.815   5.473   9.124  1.00  0.00     0.000 C 
BRANCH  15  16
ATOM     16  C   UNL     1     -20.447   6.178   9.227  1.00  0.00     0.000 C 
BRANCH  16  17
ATOM     17  C   UNL     1     -19.709   5.980  10.566  1.00  0.00    -0.000 C 
BRANCH  17  18
ATOM     18  C   UNL     1     -18.274   6.544  10.610  1.00  0.00    -0.000 C 
BRANCH  18  19
ATOM     19  C   UNL     1     -18.088   7.895   9.897  1.00  0.00    -0.003 C 
ATOM     20  C   UNL     1     -16.638   8.377   9.899  1.00  0.00     0.004 C 
ENDBRANCH  18  19
ENDBRANCH  17  18
ENDBRANCH  16  17
ENDBRANCH  15  16
ENDBRANCH  14  15
ENDBRANCH  13  14
ENDBRANCH   2  13
TORSDOF 15
ENDMDL
