MODEL 1
REMARK VINA RESULT:    -6.771      0.000      0.000
REMARK INTER + INTRA:         -13.757
REMARK INTER:                 -11.125
REMARK INTRA:                  -2.632
REMARK UNBOUND:                -2.632
REMARK SMILES C[C@H]1O[C@H](OC[C@@H]2O[C@H](Oc3c(-c4ccc(O)c(O)c4)oc4cc(O)cc(O)c4c3=O)[C@@H](O)[C@@H](O)[C@@H]2O)[C@@H](O)[C@H](O)[C@H]1O
REMARK SMILES IDX 7 1 36 2 34 3 32 4 9 5 8 6 6 7 5 8 4 9 1 10 2 11 42 12 3 13
REMARK SMILES IDX 40 14 38 15 43 16 41 18 39 20 37 22 35 24 10 26 11 27 12 28
REMARK SMILES IDX 30 29 21 30 29 31 31 32 22 33 27 34 23 35 26 36 24 37 13 38
REMARK SMILES IDX 20 39 14 40 18 41 15 42 16 43 19 44 17 46 28 48 25 50 33 52
REMARK H PARENT 43 17 41 19 39 21 37 23 35 25 19 45 17 47 28 49 25 51 33 53
REMARK Flexibility Score: inf
ROOT
ATOM      1  C   UNL     1     -24.821  26.511  -5.029  1.00  0.00     0.180 C 
ATOM      2  C   UNL     1     -26.077  25.657  -5.358  1.00  0.00     0.177 C 
ATOM      3  C   UNL     1     -25.694  24.335  -6.030  1.00  0.00     0.180 C 
ATOM      4  C   UNL     1     -24.618  23.624  -5.193  1.00  0.00     0.214 C 
ATOM      5  C   UNL     1     -23.432  24.567  -4.945  1.00  0.00     0.339 C 
ATOM      6  O   UNL     1     -23.827  25.781  -4.319  1.00  0.00    -0.332 OA
ENDROOT
BRANCH   1   7
ATOM      7  C   UNL     1     -24.228  27.275  -6.235  1.00  0.00     0.198 C 
BRANCH   7   8
ATOM      8  O   UNL     1     -23.457  28.378  -5.792  1.00  0.00    -0.347 OA
BRANCH   8   9
ATOM      9  C   UNL     1     -23.448  29.421  -6.755  1.00  0.00     0.281 C 
ATOM     10  C   UNL     1     -24.319  32.223  -4.528  1.00  0.00     0.041 C 
ATOM     11  C   UNL     1     -23.471  31.084  -5.100  1.00  0.00     0.150 C 
ATOM     12  C   UNL     1     -22.029  31.561  -5.407  1.00  0.00     0.174 C 
ATOM     13  O   UNL     1     -24.103  30.585  -6.267  1.00  0.00    -0.344 OA
ATOM     14  C   UNL     1     -21.211  30.421  -6.052  1.00  0.00     0.179 C 
ATOM     15  C   UNL     1     -21.999  29.728  -7.186  1.00  0.00     0.202 C 
BRANCH  12  16
ATOM     16  O   UNL     1     -22.007  32.713  -6.214  1.00  0.00    -0.388 OA
ATOM     17  H   UNL     1     -22.884  32.795  -6.669  1.00  0.00     0.211 HD
ENDBRANCH  12  16
BRANCH  14  18
ATOM     18  O   UNL     1     -20.878  29.463  -5.079  1.00  0.00    -0.387 OA
ATOM     19  H   UNL     1     -19.906  29.558  -4.899  1.00  0.00     0.211 HD
ENDBRANCH  14  18
BRANCH  15  20
ATOM     20  O   UNL     1     -22.020  30.537  -8.335  1.00  0.00    -0.385 OA
ATOM     21  H   UNL     1     -22.528  30.039  -9.029  1.00  0.00     0.211 HD
ENDBRANCH  15  20
ENDBRANCH   8   9
ENDBRANCH   7   8
ENDBRANCH   1   7
BRANCH   2  22
ATOM     22  O   UNL     1     -26.972  26.360  -6.181  1.00  0.00    -0.387 OA
ATOM     23  H   UNL     1     -26.422  26.884  -6.819  1.00  0.00     0.211 HD
ENDBRANCH   2  22
BRANCH   3  24
ATOM     24  O   UNL     1     -26.835  23.525  -6.155  1.00  0.00    -0.387 OA
ATOM     25  H   UNL     1     -26.629  22.848  -6.852  1.00  0.00     0.211 HD
ENDBRANCH   3  24
BRANCH   5  26
ATOM     26  O   UNL     1     -22.725  24.796  -6.169  1.00  0.00    -0.454 OA
BRANCH  26  27
ATOM     27  C   UNL     1     -21.334  24.680  -6.351  1.00  0.00     0.214 A 
ATOM     28  C   UNL     1     -20.819  23.479  -6.881  1.00  0.00     0.180 A 
ATOM     29  C   UNL     1     -20.426  25.704  -6.009  1.00  0.00     0.239 A 
ATOM     30  O   UNL     1     -19.505  23.308  -6.992  1.00  0.00    -0.452 OA
ATOM     31  C   UNL     1     -19.040  25.488  -6.158  1.00  0.00     0.111 A 
ATOM     32  O   UNL     1     -20.852  26.811  -5.585  1.00  0.00    -0.285 OA
ATOM     33  C   UNL     1     -18.617  24.235  -6.658  1.00  0.00     0.146 A 
ATOM     34  C   UNL     1     -18.064  26.459  -5.826  1.00  0.00     0.134 A 
ATOM     35  C   UNL     1     -17.255  23.956  -6.807  1.00  0.00     0.094 A 
ATOM     36  C   UNL     1     -16.703  26.162  -5.985  1.00  0.00     0.093 A 
ATOM     37  C   UNL     1     -16.298  24.917  -6.468  1.00  0.00     0.123 A 
BRANCH  28  38
ATOM     38  C   UNL     1     -21.698  22.356  -7.281  1.00  0.00     0.025 A 
ATOM     39  C   UNL     1     -21.885  21.238  -6.451  1.00  0.00     0.062 A 
ATOM     40  C   UNL     1     -22.403  22.431  -8.491  1.00  0.00     0.016 A 
ATOM     41  C   UNL     1     -22.734  20.193  -6.831  1.00  0.00     0.158 A 
ATOM     42  C   UNL     1     -23.251  21.394  -8.879  1.00  0.00     0.051 A 
ATOM     43  C   UNL     1     -23.424  20.270  -8.065  1.00  0.00     0.157 A 
BRANCH  41  44
ATOM     44  O   UNL     1     -22.865  19.109  -5.960  1.00  0.00    -0.504 OA
ATOM     45  H   UNL     1     -22.979  19.200  -4.960  1.00  0.00     0.293 HD
ENDBRANCH  41  44
BRANCH  43  46
ATOM     46  O   UNL     1     -24.288  19.267  -8.513  1.00  0.00    -0.504 OA
ATOM     47  H   UNL     1     -25.171  19.046  -8.075  1.00  0.00     0.293 HD
ENDBRANCH  43  46
ENDBRANCH  28  38
BRANCH  34  48
ATOM     48  O   UNL     1     -18.435  27.716  -5.344  1.00  0.00    -0.507 OA
ATOM     49  H   UNL     1     -19.346  28.116  -5.542  1.00  0.00     0.293 HD
ENDBRANCH  34  48
BRANCH  37  50
ATOM     50  O   UNL     1     -14.939  24.642  -6.607  1.00  0.00    -0.508 OA
ATOM     51  H   UNL     1     -14.247  25.382  -6.626  1.00  0.00     0.293 HD
ENDBRANCH  37  50
ENDBRANCH  26  27
ENDBRANCH   5  26
BRANCH   4  52
ATOM     52  O   UNL     1     -25.147  23.214  -3.957  1.00  0.00    -0.384 OA
ATOM     53  H   UNL     1     -24.776  23.822  -3.266  1.00  0.00     0.211 HD
ENDBRANCH   4  52
TORSDOF 16
ENDMDL
MODEL 2
REMARK VINA RESULT:    -6.514      1.034      1.611
REMARK INTER + INTRA:         -13.335
REMARK INTER:                 -10.872
REMARK INTRA:                  -2.463
REMARK UNBOUND:                -2.632
REMARK SMILES C[C@H]1O[C@H](OC[C@@H]2O[C@H](Oc3c(-c4ccc(O)c(O)c4)oc4cc(O)cc(O)c4c3=O)[C@@H](O)[C@@H](O)[C@@H]2O)[C@@H](O)[C@H](O)[C@H]1O
REMARK SMILES IDX 7 1 36 2 34 3 32 4 9 5 8 6 6 7 5 8 4 9 1 10 2 11 42 12 3 13
REMARK SMILES IDX 40 14 38 15 43 16 41 18 39 20 37 22 35 24 10 26 11 27 12 28
REMARK SMILES IDX 30 29 21 30 29 31 31 32 22 33 27 34 23 35 26 36 24 37 13 38
REMARK SMILES IDX 20 39 14 40 18 41 15 42 16 43 19 44 17 46 28 48 25 50 33 52
REMARK H PARENT 43 17 41 19 39 21 37 23 35 25 19 45 17 47 28 49 25 51 33 53
REMARK Flexibility Score: inf
ROOT
ATOM      1  C   UNL     1     -25.039  26.558  -5.688  1.00  0.00     0.180 C 
ATOM      2  C   UNL     1     -26.194  25.526  -5.824  1.00  0.00     0.177 C 
ATOM      3  C   UNL     1     -25.661  24.135  -6.179  1.00  0.00     0.180 C 
ATOM      4  C   UNL     1     -24.544  23.745  -5.197  1.00  0.00     0.214 C 
ATOM      5  C   UNL     1     -23.465  24.838  -5.161  1.00  0.00     0.339 C 
ATOM      6  O   UNL     1     -23.999  26.114  -4.827  1.00  0.00    -0.332 OA
ENDROOT
BRANCH   1   7
ATOM      7  C   UNL     1     -24.491  27.092  -7.032  1.00  0.00     0.198 C 
BRANCH   7   8
ATOM      8  O   UNL     1     -24.140  28.459  -6.917  1.00  0.00    -0.347 OA
BRANCH   8   9
ATOM      9  C   UNL     1     -22.744  28.618  -6.709  1.00  0.00     0.281 C 
ATOM     10  C   UNL     1     -22.169  31.432  -9.015  1.00  0.00     0.041 C 
ATOM     11  C   UNL     1     -22.720  30.701  -7.789  1.00  0.00     0.150 C 
ATOM     12  C   UNL     1     -22.426  31.492  -6.488  1.00  0.00     0.174 C 
ATOM     13  O   UNL     1     -22.151  29.403  -7.736  1.00  0.00    -0.344 OA
ATOM     14  C   UNL     1     -22.922  30.705  -5.256  1.00  0.00     0.179 C 
ATOM     15  C   UNL     1     -22.485  29.224  -5.314  1.00  0.00     0.202 C 
BRANCH  12  16
ATOM     16  O   UNL     1     -21.065  31.822  -6.358  1.00  0.00    -0.388 OA
ATOM     17  H   UNL     1     -20.526  31.016  -6.567  1.00  0.00     0.211 HD
ENDBRANCH  12  16
BRANCH  14  18
ATOM     18  O   UNL     1     -24.325  30.762  -5.186  1.00  0.00    -0.387 OA
ATOM     19  H   UNL     1     -24.586  30.392  -4.302  1.00  0.00     0.211 HD
ENDBRANCH  14  18
BRANCH  15  20
ATOM     20  O   UNL     1     -21.120  29.102  -5.003  1.00  0.00    -0.385 OA
ATOM     21  H   UNL     1     -20.991  28.193  -4.625  1.00  0.00     0.211 HD
ENDBRANCH  15  20
ENDBRANCH   8   9
ENDBRANCH   7   8
ENDBRANCH   1   7
BRANCH   2  22
ATOM     22  O   UNL     1     -27.129  25.931  -6.790  1.00  0.00    -0.387 OA
ATOM     23  H   UNL     1     -27.095  26.921  -6.824  1.00  0.00     0.211 HD
ENDBRANCH   2  22
BRANCH   3  24
ATOM     24  O   UNL     1     -26.710  23.204  -6.125  1.00  0.00    -0.387 OA
ATOM     25  H   UNL     1     -26.430  22.495  -5.489  1.00  0.00     0.211 HD
ENDBRANCH   3  24
BRANCH   5  26
ATOM     26  O   UNL     1     -22.750  24.860  -6.400  1.00  0.00    -0.454 OA
BRANCH  26  27
ATOM     27  C   UNL     1     -21.428  24.417  -6.597  1.00  0.00     0.214 A 
ATOM     28  C   UNL     1     -21.219  23.148  -7.175  1.00  0.00     0.180 A 
ATOM     29  C   UNL     1     -20.299  25.176  -6.224  1.00  0.00     0.239 A 
ATOM     30  O   UNL     1     -19.986  22.667  -7.303  1.00  0.00    -0.452 OA
ATOM     31  C   UNL     1     -19.007  24.636  -6.391  1.00  0.00     0.111 A 
ATOM     32  O   UNL     1     -20.445  26.336  -5.756  1.00  0.00    -0.285 OA
ATOM     33  C   UNL     1     -18.900  23.338  -6.940  1.00  0.00     0.146 A 
ATOM     34  C   UNL     1     -17.825  25.328  -6.031  1.00  0.00     0.134 A 
ATOM     35  C   UNL     1     -17.646  22.743  -7.109  1.00  0.00     0.094 A 
ATOM     36  C   UNL     1     -16.576  24.715  -6.210  1.00  0.00     0.093 A 
ATOM     37  C   UNL     1     -16.485  23.429  -6.742  1.00  0.00     0.123 A 
BRANCH  28  38
ATOM     38  C   UNL     1     -22.343  22.288  -7.610  1.00  0.00     0.025 A 
ATOM     39  C   UNL     1     -22.768  21.190  -6.843  1.00  0.00     0.062 A 
ATOM     40  C   UNL     1     -23.037  22.605  -8.787  1.00  0.00     0.016 A 
ATOM     41  C   UNL     1     -23.845  20.397  -7.255  1.00  0.00     0.158 A 
ATOM     42  C   UNL     1     -24.111  21.820  -9.207  1.00  0.00     0.051 A 
ATOM     43  C   UNL     1     -24.524  20.714  -8.456  1.00  0.00     0.157 A 
BRANCH  41  44
ATOM     44  O   UNL     1     -24.206  19.317  -6.447  1.00  0.00    -0.504 OA
ATOM     45  H   UNL     1     -23.910  18.365  -6.612  1.00  0.00     0.293 HD
ENDBRANCH  41  44
BRANCH  43  46
ATOM     46  O   UNL     1     -25.608  19.970  -8.932  1.00  0.00    -0.504 OA
ATOM     47  H   UNL     1     -25.646  19.556  -9.853  1.00  0.00     0.293 HD
ENDBRANCH  43  46
ENDBRANCH  28  38
BRANCH  34  48
ATOM     48  O   UNL     1     -17.881  26.618  -5.499  1.00  0.00    -0.507 OA
ATOM     49  H   UNL     1     -18.763  27.098  -5.354  1.00  0.00     0.293 HD
ENDBRANCH  34  48
BRANCH  37  50
ATOM     50  O   UNL     1     -15.233  22.838  -6.901  1.00  0.00    -0.508 OA
ATOM     51  H   UNL     1     -14.959  22.402  -7.774  1.00  0.00     0.293 HD
ENDBRANCH  37  50
ENDBRANCH  26  27
ENDBRANCH   5  26
BRANCH   4  52
ATOM     52  O   UNL     1     -25.065  23.569  -3.903  1.00  0.00    -0.384 OA
ATOM     53  H   UNL     1     -24.700  24.302  -3.341  1.00  0.00     0.211 HD
ENDBRANCH   4  52
TORSDOF 16
ENDMDL
MODEL 3
REMARK VINA RESULT:    -6.451      1.949      5.416
REMARK INTER + INTRA:         -13.231
REMARK INTER:                 -10.208
REMARK INTRA:                  -3.024
REMARK UNBOUND:                -2.632
REMARK SMILES C[C@H]1O[C@H](OC[C@@H]2O[C@H](Oc3c(-c4ccc(O)c(O)c4)oc4cc(O)cc(O)c4c3=O)[C@@H](O)[C@@H](O)[C@@H]2O)[C@@H](O)[C@H](O)[C@H]1O
REMARK SMILES IDX 7 1 36 2 34 3 32 4 9 5 8 6 6 7 5 8 4 9 1 10 2 11 42 12 3 13
REMARK SMILES IDX 40 14 38 15 43 16 41 18 39 20 37 22 35 24 10 26 11 27 12 28
REMARK SMILES IDX 30 29 21 30 29 31 31 32 22 33 27 34 23 35 26 36 24 37 13 38
REMARK SMILES IDX 20 39 14 40 18 41 15 42 16 43 19 44 17 46 28 48 25 50 33 52
REMARK H PARENT 43 17 41 19 39 21 37 23 35 25 19 45 17 47 28 49 25 51 33 53
REMARK Flexibility Score: inf
ROOT
ATOM      1  C   UNL     1     -23.572  26.563  -7.184  1.00  0.00     0.180 C 
ATOM      2  C   UNL     1     -24.287  27.678  -6.370  1.00  0.00     0.177 C 
ATOM      3  C   UNL     1     -23.288  28.502  -5.553  1.00  0.00     0.180 C 
ATOM      4  C   UNL     1     -22.149  28.984  -6.466  1.00  0.00     0.214 C 
ATOM      5  C   UNL     1     -21.522  27.792  -7.204  1.00  0.00     0.339 C 
ATOM      6  O   UNL     1     -22.480  27.053  -7.952  1.00  0.00    -0.332 OA
ENDROOT
BRANCH   1   7
ATOM      7  C   UNL     1     -23.187  25.312  -6.361  1.00  0.00     0.198 C 
BRANCH   7   8
ATOM      8  O   UNL     1     -23.789  24.153  -6.908  1.00  0.00    -0.347 OA
BRANCH   8   9
ATOM      9  C   UNL     1     -24.506  23.429  -5.920  1.00  0.00     0.281 C 
ATOM     10  C   UNL     1     -27.858  24.816  -6.556  1.00  0.00     0.041 C 
ATOM     11  C   UNL     1     -26.579  24.027  -6.843  1.00  0.00     0.150 C 
ATOM     12  C   UNL     1     -26.903  22.588  -7.319  1.00  0.00     0.174 C 
ATOM     13  O   UNL     1     -25.781  24.009  -5.671  1.00  0.00    -0.344 OA
ATOM     14  C   UNL     1     -25.602  21.785  -7.531  1.00  0.00     0.179 C 
ATOM     15  C   UNL     1     -24.632  21.949  -6.340  1.00  0.00     0.202 C 
BRANCH  12  16
ATOM     16  O   UNL     1     -27.770  21.916  -6.437  1.00  0.00    -0.388 OA
ATOM     17  H   UNL     1     -27.908  20.994  -6.776  1.00  0.00     0.211 HD
ENDBRANCH  12  16
BRANCH  14  18
ATOM     18  O   UNL     1     -24.959  22.219  -8.703  1.00  0.00    -0.387 OA
ATOM     19  H   UNL     1     -23.995  22.004  -8.602  1.00  0.00     0.211 HD
ENDBRANCH  14  18
BRANCH  15  20
ATOM     20  O   UNL     1     -25.072  21.193  -5.240  1.00  0.00    -0.385 OA
ATOM     21  H   UNL     1     -24.362  21.251  -4.548  1.00  0.00     0.211 HD
ENDBRANCH  15  20
ENDBRANCH   8   9
ENDBRANCH   7   8
ENDBRANCH   1   7
BRANCH   2  22
ATOM     22  O   UNL     1     -25.263  27.141  -5.515  1.00  0.00    -0.387 OA
ATOM     23  H   UNL     1     -24.906  27.212  -4.593  1.00  0.00     0.211 HD
ENDBRANCH   2  22
BRANCH   3  24
ATOM     24  O   UNL     1     -23.948  29.597  -4.971  1.00  0.00    -0.387 OA
ATOM     25  H   UNL     1     -23.244  30.230  -4.675  1.00  0.00     0.211 HD
ENDBRANCH   3  24
BRANCH   5  26
ATOM     26  O   UNL     1     -20.806  26.966  -6.279  1.00  0.00    -0.454 OA
BRANCH  26  27
ATOM     27  C   UNL     1     -19.409  26.805  -6.229  1.00  0.00     0.214 A 
ATOM     28  C   UNL     1     -18.853  25.581  -6.656  1.00  0.00     0.180 A 
ATOM     29  C   UNL     1     -18.536  27.805  -5.751  1.00  0.00     0.239 A 
ATOM     30  O   UNL     1     -17.545  25.368  -6.548  1.00  0.00    -0.452 OA
ATOM     31  C   UNL     1     -17.152  27.545  -5.669  1.00  0.00     0.111 A 
ATOM     32  O   UNL     1     -18.990  28.931  -5.414  1.00  0.00    -0.285 OA
ATOM     33  C   UNL     1     -16.694  26.272  -6.080  1.00  0.00     0.146 A 
ATOM     34  C   UNL     1     -16.213  28.490  -5.189  1.00  0.00     0.134 A 
ATOM     35  C   UNL     1     -15.336  25.950  -6.000  1.00  0.00     0.094 A 
ATOM     36  C   UNL     1     -14.854  28.149  -5.118  1.00  0.00     0.093 A 
ATOM     37  C   UNL     1     -14.416  26.885  -5.517  1.00  0.00     0.123 A 
BRANCH  28  38
ATOM     38  C   UNL     1     -19.690  24.480  -7.185  1.00  0.00     0.025 A 
ATOM     39  C   UNL     1     -20.067  23.392  -6.380  1.00  0.00     0.062 A 
ATOM     40  C   UNL     1     -20.164  24.548  -8.503  1.00  0.00     0.016 A 
ATOM     41  C   UNL     1     -20.876  22.368  -6.886  1.00  0.00     0.158 A 
ATOM     42  C   UNL     1     -20.970  23.532  -9.016  1.00  0.00     0.051 A 
ATOM     43  C   UNL     1     -21.331  22.437  -8.225  1.00  0.00     0.157 A 
BRANCH  41  44
ATOM     44  O   UNL     1     -21.203  21.313  -6.031  1.00  0.00    -0.504 OA
ATOM     45  H   UNL     1     -20.546  20.608  -5.728  1.00  0.00     0.293 HD
ENDBRANCH  41  44
BRANCH  43  46
ATOM     46  O   UNL     1     -22.140  21.453  -8.800  1.00  0.00    -0.504 OA
ATOM     47  H   UNL     1     -22.236  21.314  -9.796  1.00  0.00     0.293 HD
ENDBRANCH  43  46
ENDBRANCH  28  38
BRANCH  34  48
ATOM     48  O   UNL     1     -16.617  29.764  -4.786  1.00  0.00    -0.507 OA
ATOM     49  H   UNL     1     -16.112  30.598  -5.067  1.00  0.00     0.293 HD
ENDBRANCH  34  48
BRANCH  37  50
ATOM     50  O   UNL     1     -13.063  26.567  -5.428  1.00  0.00    -0.508 OA
ATOM     51  H   UNL     1     -12.629  26.337  -4.542  1.00  0.00     0.293 HD
ENDBRANCH  37  50
ENDBRANCH  26  27
ENDBRANCH   5  26
BRANCH   4  52
ATOM     52  O   UNL     1     -22.631  29.908  -7.410  1.00  0.00    -0.384 OA
ATOM     53  H   UNL     1     -23.375  29.465  -7.896  1.00  0.00     0.211 HD
ENDBRANCH   4  52
TORSDOF 16
ENDMDL
MODEL 4
REMARK VINA RESULT:    -6.363      2.470      7.124
REMARK INTER + INTRA:         -13.087
REMARK INTER:                 -10.309
REMARK INTRA:                  -2.778
REMARK UNBOUND:                -2.632
REMARK SMILES C[C@H]1O[C@H](OC[C@@H]2O[C@H](Oc3c(-c4ccc(O)c(O)c4)oc4cc(O)cc(O)c4c3=O)[C@@H](O)[C@@H](O)[C@@H]2O)[C@@H](O)[C@H](O)[C@H]1O
REMARK SMILES IDX 7 1 36 2 34 3 32 4 9 5 8 6 6 7 5 8 4 9 1 10 2 11 42 12 3 13
REMARK SMILES IDX 40 14 38 15 43 16 41 18 39 20 37 22 35 24 10 26 11 27 12 28
REMARK SMILES IDX 30 29 21 30 29 31 31 32 22 33 27 34 23 35 26 36 24 37 13 38
REMARK SMILES IDX 20 39 14 40 18 41 15 42 16 43 19 44 17 46 28 48 25 50 33 52
REMARK H PARENT 43 17 41 19 39 21 37 23 35 25 19 45 17 47 28 49 25 51 33 53
REMARK Flexibility Score: inf
ROOT
ATOM      1  C   UNL     1     -21.666  26.504  -6.941  1.00  0.00     0.180 C 
ATOM      2  C   UNL     1     -20.658  25.598  -6.181  1.00  0.00     0.177 C 
ATOM      3  C   UNL     1     -21.263  24.224  -5.875  1.00  0.00     0.180 C 
ATOM      4  C   UNL     1     -21.846  23.620  -7.162  1.00  0.00     0.214 C 
ATOM      5  C   UNL     1     -22.829  24.605  -7.812  1.00  0.00     0.339 C 
ATOM      6  O   UNL     1     -22.231  25.868  -8.081  1.00  0.00    -0.332 OA
ENDROOT
BRANCH   1   7
ATOM      7  C   UNL     1     -22.746  27.158  -6.048  1.00  0.00     0.198 C 
BRANCH   7   8
ATOM      8  O   UNL     1     -22.331  28.446  -5.631  1.00  0.00    -0.347 OA
BRANCH   8   9
ATOM      9  C   UNL     1     -22.503  29.404  -6.665  1.00  0.00     0.281 C 
ATOM     10  C   UNL     1     -24.126  32.054  -4.689  1.00  0.00     0.041 C 
ATOM     11  C   UNL     1     -23.007  31.111  -5.137  1.00  0.00     0.150 C 
ATOM     12  C   UNL     1     -21.695  31.891  -5.411  1.00  0.00     0.174 C 
ATOM     13  O   UNL     1     -23.435  30.411  -6.293  1.00  0.00    -0.344 OA
ATOM     14  C   UNL     1     -20.601  30.936  -5.934  1.00  0.00     0.179 C 
ATOM     15  C   UNL     1     -21.138  30.012  -7.050  1.00  0.00     0.202 C 
BRANCH  12  16
ATOM     16  O   UNL     1     -21.888  32.966  -6.297  1.00  0.00    -0.388 OA
ATOM     17  H   UNL     1     -21.082  33.050  -6.869  1.00  0.00     0.211 HD
ENDBRANCH  12  16
BRANCH  14  18
ATOM     18  O   UNL     1     -20.118  30.141  -4.880  1.00  0.00    -0.387 OA
ATOM     19  H   UNL     1     -20.755  29.385  -4.772  1.00  0.00     0.211 HD
ENDBRANCH  14  18
BRANCH  15  20
ATOM     20  O   UNL     1     -21.272  30.724  -8.254  1.00  0.00    -0.385 OA
ATOM     21  H   UNL     1     -22.124  31.232  -8.195  1.00  0.00     0.211 HD
ENDBRANCH  15  20
ENDBRANCH   8   9
ENDBRANCH   7   8
ENDBRANCH   1   7
BRANCH   2  22
ATOM     22  O   UNL     1     -20.232  26.199  -4.985  1.00  0.00    -0.387 OA
ATOM     23  H   UNL     1     -19.489  26.812  -5.223  1.00  0.00     0.211 HD
ENDBRANCH   2  22
BRANCH   3  24
ATOM     24  O   UNL     1     -20.271  23.384  -5.343  1.00  0.00    -0.387 OA
ATOM     25  H   UNL     1     -19.854  23.876  -4.589  1.00  0.00     0.211 HD
ENDBRANCH   3  24
BRANCH   5  26
ATOM     26  O   UNL     1     -24.005  24.727  -7.004  1.00  0.00    -0.454 OA
BRANCH  26  27
ATOM     27  C   UNL     1     -25.261  24.158  -7.287  1.00  0.00     0.214 A 
ATOM     28  C   UNL     1     -26.235  24.953  -7.926  1.00  0.00     0.180 A 
ATOM     29  C   UNL     1     -25.601  22.833  -6.942  1.00  0.00     0.239 A 
ATOM     30  O   UNL     1     -27.457  24.472  -8.137  1.00  0.00    -0.452 OA
ATOM     31  C   UNL     1     -26.903  22.356  -7.198  1.00  0.00     0.111 A 
ATOM     32  O   UNL     1     -24.740  22.076  -6.420  1.00  0.00    -0.285 OA
ATOM     33  C   UNL     1     -27.824  23.241  -7.804  1.00  0.00     0.146 A 
ATOM     34  C   UNL     1     -27.326  21.044  -6.871  1.00  0.00     0.134 A 
ATOM     35  C   UNL     1     -29.135  22.830  -8.062  1.00  0.00     0.094 A 
ATOM     36  C   UNL     1     -28.645  20.650  -7.139  1.00  0.00     0.093 A 
ATOM     37  C   UNL     1     -29.547  21.537  -7.727  1.00  0.00     0.123 A 
BRANCH  28  38
ATOM     38  C   UNL     1     -25.963  26.349  -8.337  1.00  0.00     0.025 A 
ATOM     39  C   UNL     1     -26.231  27.432  -7.483  1.00  0.00     0.062 A 
ATOM     40  C   UNL     1     -25.376  26.597  -9.586  1.00  0.00     0.016 A 
ATOM     41  C   UNL     1     -25.950  28.746  -7.875  1.00  0.00     0.158 A 
ATOM     42  C   UNL     1     -25.093  27.903  -9.987  1.00  0.00     0.051 A 
ATOM     43  C   UNL     1     -25.377  28.986  -9.147  1.00  0.00     0.157 A 
BRANCH  41  44
ATOM     44  O   UNL     1     -26.250  29.773  -6.977  1.00  0.00    -0.504 OA
ATOM     45  H   UNL     1     -26.323  30.746  -7.238  1.00  0.00     0.293 HD
ENDBRANCH  41  44
BRANCH  43  46
ATOM     46  O   UNL     1     -25.069  30.268  -9.609  1.00  0.00    -0.504 OA
ATOM     47  H   UNL     1     -25.757  30.925  -9.948  1.00  0.00     0.293 HD
ENDBRANCH  43  46
ENDBRANCH  28  38
BRANCH  34  48
ATOM     48  O   UNL     1     -26.448  20.130  -6.285  1.00  0.00    -0.507 OA
ATOM     49  H   UNL     1     -25.522  19.960  -6.665  1.00  0.00     0.293 HD
ENDBRANCH  34  48
BRANCH  37  50
ATOM     50  O   UNL     1     -30.855  21.124  -7.975  1.00  0.00    -0.508 OA
ATOM     51  H   UNL     1     -31.311  20.429  -7.396  1.00  0.00     0.293 HD
ENDBRANCH  37  50
ENDBRANCH  26  27
ENDBRANCH   5  26
BRANCH   4  52
ATOM     52  O   UNL     1     -20.820  23.323  -8.077  1.00  0.00    -0.384 OA
ATOM     53  H   UNL     1     -20.020  23.839  -7.793  1.00  0.00     0.211 HD
ENDBRANCH   4  52
TORSDOF 16
ENDMDL
MODEL 5
REMARK VINA RESULT:    -6.356      3.781      8.520
REMARK INTER + INTRA:         -13.076
REMARK INTER:                 -10.363
REMARK INTRA:                  -2.713
REMARK UNBOUND:                -2.632
REMARK SMILES C[C@H]1O[C@H](OC[C@@H]2O[C@H](Oc3c(-c4ccc(O)c(O)c4)oc4cc(O)cc(O)c4c3=O)[C@@H](O)[C@@H](O)[C@@H]2O)[C@@H](O)[C@H](O)[C@H]1O
REMARK SMILES IDX 7 1 36 2 34 3 32 4 9 5 8 6 6 7 5 8 4 9 1 10 2 11 42 12 3 13
REMARK SMILES IDX 40 14 38 15 43 16 41 18 39 20 37 22 35 24 10 26 11 27 12 28
REMARK SMILES IDX 30 29 21 30 29 31 31 32 22 33 27 34 23 35 26 36 24 37 13 38
REMARK SMILES IDX 20 39 14 40 18 41 15 42 16 43 19 44 17 46 28 48 25 50 33 52
REMARK H PARENT 43 17 41 19 39 21 37 23 35 25 19 45 17 47 28 49 25 51 33 53
REMARK Flexibility Score: inf
ROOT
ATOM      1  C   UNL     1     -21.353  29.463  -6.178  1.00  0.00     0.180 C 
ATOM      2  C   UNL     1     -20.693  30.501  -5.227  1.00  0.00     0.177 C 
ATOM      3  C   UNL     1     -20.576  31.874  -5.894  1.00  0.00     0.180 C 
ATOM      4  C   UNL     1     -21.941  32.286  -6.469  1.00  0.00     0.214 C 
ATOM      5  C   UNL     1     -22.480  31.185  -7.394  1.00  0.00     0.339 C 
ATOM      6  O   UNL     1     -22.575  29.926  -6.739  1.00  0.00    -0.332 OA
ENDROOT
BRANCH   1   7
ATOM      7  C   UNL     1     -20.406  28.880  -7.253  1.00  0.00     0.198 C 
BRANCH   7   8
ATOM      8  O   UNL     1     -20.531  27.471  -7.313  1.00  0.00    -0.347 OA
BRANCH   8   9
ATOM      9  C   UNL     1     -20.044  26.858  -6.128  1.00  0.00     0.281 C 
ATOM     10  C   UNL     1     -22.916  24.658  -5.436  1.00  0.00     0.041 C 
ATOM     11  C   UNL     1     -21.697  25.194  -6.191  1.00  0.00     0.150 C 
ATOM     12  C   UNL     1     -20.693  24.058  -6.511  1.00  0.00     0.174 C 
ATOM     13  O   UNL     1     -21.087  26.209  -5.411  1.00  0.00    -0.344 OA
ATOM     14  C   UNL     1     -19.438  24.629  -7.205  1.00  0.00     0.179 C 
ATOM     15  C   UNL     1     -18.902  25.879  -6.473  1.00  0.00     0.202 C 
BRANCH  12  16
ATOM     16  O   UNL     1     -20.341  23.317  -5.368  1.00  0.00    -0.388 OA
ATOM     17  H   UNL     1     -20.604  23.835  -4.565  1.00  0.00     0.211 HD
ENDBRANCH  12  16
BRANCH  14  18
ATOM     18  O   UNL     1     -19.743  24.976  -8.533  1.00  0.00    -0.387 OA
ATOM     19  H   UNL     1     -19.831  25.965  -8.561  1.00  0.00     0.211 HD
ENDBRANCH  14  18
BRANCH  15  20
ATOM     20  O   UNL     1     -18.238  25.510  -5.291  1.00  0.00    -0.385 OA
ATOM     21  H   UNL     1     -18.474  26.188  -4.604  1.00  0.00     0.211 HD
ENDBRANCH  15  20
ENDBRANCH   8   9
ENDBRANCH   7   8
ENDBRANCH   1   7
BRANCH   2  22
ATOM     22  O   UNL     1     -19.423  30.073  -4.808  1.00  0.00    -0.387 OA
ATOM     23  H   UNL     1     -19.158  30.659  -4.053  1.00  0.00     0.211 HD
ENDBRANCH   2  22
BRANCH   3  24
ATOM     24  O   UNL     1     -20.135  32.817  -4.951  1.00  0.00    -0.387 OA
ATOM     25  H   UNL     1     -19.146  32.744  -4.917  1.00  0.00     0.211 HD
ENDBRANCH   3  24
BRANCH   5  26
ATOM     26  O   UNL     1     -21.687  31.115  -8.584  1.00  0.00    -0.454 OA
BRANCH  26  27
ATOM     27  C   UNL     1     -22.059  31.602  -9.852  1.00  0.00     0.214 A 
ATOM     28  C   UNL     1     -22.892  30.807 -10.665  1.00  0.00     0.180 A 
ATOM     29  C   UNL     1     -21.619  32.844 -10.358  1.00  0.00     0.239 A 
ATOM     30  O   UNL     1     -23.197  31.202 -11.897  1.00  0.00    -0.452 OA
ATOM     31  C   UNL     1     -21.979  33.234 -11.664  1.00  0.00     0.111 A 
ATOM     32  O   UNL     1     -20.919  33.606  -9.639  1.00  0.00    -0.285 OA
ATOM     33  C   UNL     1     -22.782  32.349 -12.419  1.00  0.00     0.146 A 
ATOM     34  C   UNL     1     -21.568  34.457 -12.249  1.00  0.00     0.134 A 
ATOM     35  C   UNL     1     -23.153  32.673 -13.728  1.00  0.00     0.094 A 
ATOM     36  C   UNL     1     -21.951  34.764 -13.563  1.00  0.00     0.093 A 
ATOM     37  C   UNL     1     -22.736  33.878 -14.302  1.00  0.00     0.123 A 
BRANCH  28  38
ATOM     38  C   UNL     1     -23.413  29.497 -10.212  1.00  0.00     0.025 A 
ATOM     39  C   UNL     1     -22.579  28.371 -10.107  1.00  0.00     0.062 A 
ATOM     40  C   UNL     1     -24.757  29.386  -9.827  1.00  0.00     0.016 A 
ATOM     41  C   UNL     1     -23.079  27.144  -9.657  1.00  0.00     0.158 A 
ATOM     42  C   UNL     1     -25.265  28.167  -9.379  1.00  0.00     0.051 A 
ATOM     43  C   UNL     1     -24.443  27.039  -9.291  1.00  0.00     0.157 A 
BRANCH  41  44
ATOM     44  O   UNL     1     -22.194  26.066  -9.586  1.00  0.00    -0.504 OA
ATOM     45  H   UNL     1     -22.422  25.128  -9.887  1.00  0.00     0.293 HD
ENDBRANCH  41  44
BRANCH  43  46
ATOM     46  O   UNL     1     -25.014  25.848  -8.834  1.00  0.00    -0.504 OA
ATOM     47  H   UNL     1     -25.295  25.688  -7.878  1.00  0.00     0.293 HD
ENDBRANCH  43  46
ENDBRANCH  28  38
BRANCH  34  48
ATOM     48  O   UNL     1     -20.787  35.368 -11.536  1.00  0.00    -0.507 OA
ATOM     49  H   UNL     1     -20.717  35.335 -10.525  1.00  0.00     0.293 HD
ENDBRANCH  34  48
BRANCH  37  50
ATOM     50  O   UNL     1     -23.095  34.202 -15.608  1.00  0.00    -0.508 OA
ATOM     51  H   UNL     1     -22.700  35.004 -16.084  1.00  0.00     0.293 HD
ENDBRANCH  37  50
ENDBRANCH  26  27
ENDBRANCH   5  26
BRANCH   4  52
ATOM     52  O   UNL     1     -22.864  32.509  -5.433  1.00  0.00    -0.384 OA
ATOM     53  H   UNL     1     -22.353  32.504  -4.582  1.00  0.00     0.211 HD
ENDBRANCH   4  52
TORSDOF 16
ENDMDL
MODEL 6
REMARK VINA RESULT:    -6.344      2.563      7.684
REMARK INTER + INTRA:         -13.056
REMARK INTER:                  -9.838
REMARK INTRA:                  -3.217
REMARK UNBOUND:                -2.632
REMARK SMILES C[C@H]1O[C@H](OC[C@@H]2O[C@H](Oc3c(-c4ccc(O)c(O)c4)oc4cc(O)cc(O)c4c3=O)[C@@H](O)[C@@H](O)[C@@H]2O)[C@@H](O)[C@H](O)[C@H]1O
REMARK SMILES IDX 7 1 36 2 34 3 32 4 9 5 8 6 6 7 5 8 4 9 1 10 2 11 42 12 3 13
REMARK SMILES IDX 40 14 38 15 43 16 41 18 39 20 37 22 35 24 10 26 11 27 12 28
REMARK SMILES IDX 30 29 21 30 29 31 31 32 22 33 27 34 23 35 26 36 24 37 13 38
REMARK SMILES IDX 20 39 14 40 18 41 15 42 16 43 19 44 17 46 28 48 25 50 33 52
REMARK H PARENT 43 17 41 19 39 21 37 23 35 25 19 45 17 47 28 49 25 51 33 53
REMARK Flexibility Score: inf
ROOT
ATOM      1  C   UNL     1     -21.685  27.483  -5.410  1.00  0.00     0.180 C 
ATOM      2  C   UNL     1     -22.556  28.771  -5.411  1.00  0.00     0.177 C 
ATOM      3  C   UNL     1     -23.875  28.552  -6.158  1.00  0.00     0.180 C 
ATOM      4  C   UNL     1     -24.570  27.290  -5.619  1.00  0.00     0.214 C 
ATOM      5  C   UNL     1     -23.611  26.092  -5.679  1.00  0.00     0.339 C 
ATOM      6  O   UNL     1     -22.399  26.333  -4.974  1.00  0.00    -0.332 OA
ENDROOT
BRANCH   1   7
ATOM      7  C   UNL     1     -20.918  27.224  -6.727  1.00  0.00     0.198 C 
BRANCH   7   8
ATOM      8  O   UNL     1     -19.816  26.364  -6.498  1.00  0.00    -0.347 OA
BRANCH   8   9
ATOM      9  C   UNL     1     -19.415  25.708  -7.692  1.00  0.00     0.281 C 
ATOM     10  C   UNL     1     -16.583  23.786  -6.334  1.00  0.00     0.041 C 
ATOM     11  C   UNL     1     -18.042  24.206  -6.526  1.00  0.00     0.150 C 
ATOM     12  C   UNL     1     -18.941  22.981  -6.829  1.00  0.00     0.174 C 
ATOM     13  O   UNL     1     -18.109  25.160  -7.573  1.00  0.00    -0.344 OA
ATOM     14  C   UNL     1     -20.394  23.432  -7.094  1.00  0.00     0.179 C 
ATOM     15  C   UNL     1     -20.449  24.627  -8.071  1.00  0.00     0.202 C 
BRANCH  12  16
ATOM     16  O   UNL     1     -18.453  22.210  -7.900  1.00  0.00    -0.388 OA
ATOM     17  H   UNL     1     -19.035  21.415  -8.006  1.00  0.00     0.211 HD
ENDBRANCH  12  16
BRANCH  14  18
ATOM     18  O   UNL     1     -21.005  23.806  -5.884  1.00  0.00    -0.387 OA
ATOM     19  H   UNL     1     -20.467  23.404  -5.152  1.00  0.00     0.211 HD
ENDBRANCH  14  18
BRANCH  15  20
ATOM     20  O   UNL     1     -20.207  24.197  -9.387  1.00  0.00    -0.385 OA
ATOM     21  H   UNL     1     -20.978  23.629  -9.651  1.00  0.00     0.211 HD
ENDBRANCH  15  20
ENDBRANCH   8   9
ENDBRANCH   7   8
ENDBRANCH   1   7
BRANCH   2  22
ATOM     22  O   UNL     1     -21.867  29.853  -5.983  1.00  0.00    -0.387 OA
ATOM     23  H   UNL     1     -21.435  30.343  -5.237  1.00  0.00     0.211 HD
ENDBRANCH   2  22
BRANCH   3  24
ATOM     24  O   UNL     1     -24.700  29.676  -5.991  1.00  0.00    -0.387 OA
ATOM     25  H   UNL     1     -24.279  30.417  -6.500  1.00  0.00     0.211 HD
ENDBRANCH   3  24
BRANCH   5  26
ATOM     26  O   UNL     1     -23.377  25.720  -7.041  1.00  0.00    -0.454 OA
BRANCH  26  27
ATOM     27  C   UNL     1     -24.199  24.883  -7.819  1.00  0.00     0.214 A 
ATOM     28  C   UNL     1     -24.877  25.438  -8.924  1.00  0.00     0.180 A 
ATOM     29  C   UNL     1     -24.394  23.515  -7.533  1.00  0.00     0.239 A 
ATOM     30  O   UNL     1     -25.722  24.694  -9.632  1.00  0.00    -0.452 OA
ATOM     31  C   UNL     1     -25.287  22.757  -8.319  1.00  0.00     0.111 A 
ATOM     32  O   UNL     1     -23.763  22.971  -6.588  1.00  0.00    -0.285 OA
ATOM     33  C   UNL     1     -25.953  23.413  -9.380  1.00  0.00     0.146 A 
ATOM     34  C   UNL     1     -25.546  21.384  -8.090  1.00  0.00     0.134 A 
ATOM     35  C   UNL     1     -26.865  22.717 -10.179  1.00  0.00     0.094 A 
ATOM     36  C   UNL     1     -26.463  20.703  -8.904  1.00  0.00     0.093 A 
ATOM     37  C   UNL     1     -27.123  21.364  -9.941  1.00  0.00     0.123 A 
BRANCH  28  38
ATOM     38  C   UNL     1     -24.722  26.860  -9.308  1.00  0.00     0.025 A 
ATOM     39  C   UNL     1     -25.742  27.798  -9.078  1.00  0.00     0.062 A 
ATOM     40  C   UNL     1     -23.510  27.295  -9.864  1.00  0.00     0.016 A 
ATOM     41  C   UNL     1     -25.575  29.144  -9.426  1.00  0.00     0.158 A 
ATOM     42  C   UNL     1     -23.335  28.634 -10.215  1.00  0.00     0.051 A 
ATOM     43  C   UNL     1     -24.355  29.567 -10.006  1.00  0.00     0.157 A 
BRANCH  41  44
ATOM     44  O   UNL     1     -26.635  30.018  -9.176  1.00  0.00    -0.504 OA
ATOM     45  H   UNL     1     -26.517  30.985  -8.905  1.00  0.00     0.293 HD
ENDBRANCH  41  44
BRANCH  43  46
ATOM     46  O   UNL     1     -24.115  30.892 -10.380  1.00  0.00    -0.504 OA
ATOM     47  H   UNL     1     -23.844  31.620  -9.734  1.00  0.00     0.293 HD
ENDBRANCH  43  46
ENDBRANCH  28  38
BRANCH  34  48
ATOM     48  O   UNL     1     -24.901  20.691  -7.064  1.00  0.00    -0.507 OA
ATOM     49  H   UNL     1     -23.911  20.812  -6.879  1.00  0.00     0.293 HD
ENDBRANCH  34  48
BRANCH  37  50
ATOM     50  O   UNL     1     -28.036  20.667 -10.729  1.00  0.00    -0.508 OA
ATOM     51  H   UNL     1     -28.611  19.926 -10.347  1.00  0.00     0.293 HD
ENDBRANCH  37  50
ENDBRANCH  26  27
ENDBRANCH   5  26
BRANCH   4  52
ATOM     52  O   UNL     1     -24.981  27.485  -4.289  1.00  0.00    -0.384 OA
ATOM     53  H   UNL     1     -25.264  26.600  -3.939  1.00  0.00     0.211 HD
ENDBRANCH   4  52
TORSDOF 16
ENDMDL
MODEL 7
REMARK VINA RESULT:    -6.320      1.632      1.990
REMARK INTER + INTRA:         -13.016
REMARK INTER:                 -10.465
REMARK INTRA:                  -2.551
REMARK UNBOUND:                -2.632
REMARK SMILES C[C@H]1O[C@H](OC[C@@H]2O[C@H](Oc3c(-c4ccc(O)c(O)c4)oc4cc(O)cc(O)c4c3=O)[C@@H](O)[C@@H](O)[C@@H]2O)[C@@H](O)[C@H](O)[C@H]1O
REMARK SMILES IDX 7 1 36 2 34 3 32 4 9 5 8 6 6 7 5 8 4 9 1 10 2 11 42 12 3 13
REMARK SMILES IDX 40 14 38 15 43 16 41 18 39 20 37 22 35 24 10 26 11 27 12 28
REMARK SMILES IDX 30 29 21 30 29 31 31 32 22 33 27 34 23 35 26 36 24 37 13 38
REMARK SMILES IDX 20 39 14 40 18 41 15 42 16 43 19 44 17 46 28 48 25 50 33 52
REMARK H PARENT 43 17 41 19 39 21 37 23 35 25 19 45 17 47 28 49 25 51 33 53
REMARK Flexibility Score: inf
ROOT
ATOM      1  C   UNL     1     -23.606  27.346  -6.159  1.00  0.00     0.180 C 
ATOM      2  C   UNL     1     -24.660  26.294  -6.607  1.00  0.00     0.177 C 
ATOM      3  C   UNL     1     -24.000  24.957  -6.958  1.00  0.00     0.180 C 
ATOM      4  C   UNL     1     -23.083  24.517  -5.805  1.00  0.00     0.214 C 
ATOM      5  C   UNL     1     -22.088  25.635  -5.464  1.00  0.00     0.339 C 
ATOM      6  O   UNL     1     -22.738  26.859  -5.143  1.00  0.00    -0.332 OA
ENDROOT
BRANCH   1   7
ATOM      7  C   UNL     1     -22.828  28.012  -7.316  1.00  0.00     0.198 C 
BRANCH   7   8
ATOM      8  O   UNL     1     -22.068  29.108  -6.837  1.00  0.00    -0.347 OA
BRANCH   8   9
ATOM      9  C   UNL     1     -22.436  30.315  -7.488  1.00  0.00     0.281 C 
ATOM     10  C   UNL     1     -24.037  32.004  -4.634  1.00  0.00     0.041 C 
ATOM     11  C   UNL     1     -22.902  31.386  -5.453  1.00  0.00     0.150 C 
ATOM     12  C   UNL     1     -21.700  32.358  -5.566  1.00  0.00     0.174 C 
ATOM     13  O   UNL     1     -23.400  31.040  -6.735  1.00  0.00    -0.344 OA
ATOM     14  C   UNL     1     -20.597  31.749  -6.458  1.00  0.00     0.179 C 
ATOM     15  C   UNL     1     -21.179  31.167  -7.765  1.00  0.00     0.202 C 
BRANCH  12  16
ATOM     16  O   UNL     1     -22.081  33.628  -6.037  1.00  0.00    -0.388 OA
ATOM     17  H   UNL     1     -22.703  33.506  -6.799  1.00  0.00     0.211 HD
ENDBRANCH  12  16
BRANCH  14  18
ATOM     18  O   UNL     1     -19.932  30.724  -5.761  1.00  0.00    -0.387 OA
ATOM     19  H   UNL     1     -19.244  31.160  -5.192  1.00  0.00     0.211 HD
ENDBRANCH  14  18
BRANCH  15  20
ATOM     20  O   UNL     1     -21.509  32.200  -8.658  1.00  0.00    -0.385 OA
ATOM     21  H   UNL     1     -22.106  32.825  -8.168  1.00  0.00     0.211 HD
ENDBRANCH  15  20
ENDBRANCH   8   9
ENDBRANCH   7   8
ENDBRANCH   1   7
BRANCH   2  22
ATOM     22  O   UNL     1     -25.403  26.753  -7.707  1.00  0.00    -0.387 OA
ATOM     23  H   UNL     1     -24.822  27.388  -8.200  1.00  0.00     0.211 HD
ENDBRANCH   2  22
BRANCH   3  24
ATOM     24  O   UNL     1     -24.993  23.992  -7.192  1.00  0.00    -0.387 OA
ATOM     25  H   UNL     1     -25.402  23.784  -6.312  1.00  0.00     0.211 HD
ENDBRANCH   3  24
BRANCH   5  26
ATOM     26  O   UNL     1     -21.142  25.789  -6.527  1.00  0.00    -0.454 OA
BRANCH  26  27
ATOM     27  C   UNL     1     -19.741  25.803  -6.388  1.00  0.00     0.214 A 
ATOM     28  C   UNL     1     -19.016  24.643  -6.727  1.00  0.00     0.180 A 
ATOM     29  C   UNL     1     -19.027  26.921  -5.906  1.00  0.00     0.239 A 
ATOM     30  O   UNL     1     -17.701  24.596  -6.533  1.00  0.00    -0.452 OA
ATOM     31  C   UNL     1     -17.630  26.836  -5.731  1.00  0.00     0.111 A 
ATOM     32  O   UNL     1     -19.634  27.994  -5.646  1.00  0.00    -0.285 OA
ATOM     33  C   UNL     1     -16.997  25.615  -6.058  1.00  0.00     0.146 A 
ATOM     34  C   UNL     1     -16.845  27.908  -5.241  1.00  0.00     0.134 A 
ATOM     35  C   UNL     1     -15.618  25.466  -5.884  1.00  0.00     0.094 A 
ATOM     36  C   UNL     1     -15.462  27.739  -5.076  1.00  0.00     0.093 A 
ATOM     37  C   UNL     1     -14.850  26.525  -5.391  1.00  0.00     0.123 A 
BRANCH  28  38
ATOM     38  C   UNL     1     -19.679  23.428  -7.254  1.00  0.00     0.025 A 
ATOM     39  C   UNL     1     -20.222  22.457  -6.396  1.00  0.00     0.062 A 
ATOM     40  C   UNL     1     -19.817  23.265  -8.640  1.00  0.00     0.016 A 
ATOM     41  C   UNL     1     -20.865  21.323  -6.907  1.00  0.00     0.158 A 
ATOM     42  C   UNL     1     -20.455  22.138  -9.159  1.00  0.00     0.051 A 
ATOM     43  C   UNL     1     -20.980  21.159  -8.308  1.00  0.00     0.157 A 
BRANCH  41  44
ATOM     44  O   UNL     1     -21.374  20.396  -5.995  1.00  0.00    -0.504 OA
ATOM     45  H   UNL     1     -21.854  20.648  -5.142  1.00  0.00     0.293 HD
ENDBRANCH  41  44
BRANCH  43  46
ATOM     46  O   UNL     1     -21.606  20.055  -8.892  1.00  0.00    -0.504 OA
ATOM     47  H   UNL     1     -22.253  20.118  -9.666  1.00  0.00     0.293 HD
ENDBRANCH  43  46
ENDBRANCH  28  38
BRANCH  34  48
ATOM     48  O   UNL     1     -17.424  29.136  -4.920  1.00  0.00    -0.507 OA
ATOM     49  H   UNL     1     -17.806  29.749  -5.632  1.00  0.00     0.293 HD
ENDBRANCH  34  48
BRANCH  37  50
ATOM     50  O   UNL     1     -13.477  26.380  -5.210  1.00  0.00    -0.508 OA
ATOM     51  H   UNL     1     -13.023  25.477  -5.286  1.00  0.00     0.293 HD
ENDBRANCH  37  50
ENDBRANCH  26  27
ENDBRANCH   5  26
BRANCH   4  52
ATOM     52  O   UNL     1     -23.842  24.211  -4.662  1.00  0.00    -0.384 OA
ATOM     53  H   UNL     1     -23.639  24.907  -3.983  1.00  0.00     0.211 HD
ENDBRANCH   4  52
TORSDOF 16
ENDMDL
MODEL 8
REMARK VINA RESULT:    -6.289      2.939      4.557
REMARK INTER + INTRA:         -12.965
REMARK INTER:                 -10.806
REMARK INTRA:                  -2.159
REMARK UNBOUND:                -2.632
REMARK SMILES C[C@H]1O[C@H](OC[C@@H]2O[C@H](Oc3c(-c4ccc(O)c(O)c4)oc4cc(O)cc(O)c4c3=O)[C@@H](O)[C@@H](O)[C@@H]2O)[C@@H](O)[C@H](O)[C@H]1O
REMARK SMILES IDX 7 1 36 2 34 3 32 4 9 5 8 6 6 7 5 8 4 9 1 10 2 11 42 12 3 13
REMARK SMILES IDX 40 14 38 15 43 16 41 18 39 20 37 22 35 24 10 26 11 27 12 28
REMARK SMILES IDX 30 29 21 30 29 31 31 32 22 33 27 34 23 35 26 36 24 37 13 38
REMARK SMILES IDX 20 39 14 40 18 41 15 42 16 43 19 44 17 46 28 48 25 50 33 52
REMARK H PARENT 43 17 41 19 39 21 37 23 35 25 19 45 17 47 28 49 25 51 33 53
REMARK Flexibility Score: inf
ROOT
ATOM      1  C   UNL     1     -23.379  29.973  -8.374  1.00  0.00     0.180 C 
ATOM      2  C   UNL     1     -24.875  29.744  -8.019  1.00  0.00     0.177 C 
ATOM      3  C   UNL     1     -25.090  28.380  -7.358  1.00  0.00     0.180 C 
ATOM      4  C   UNL     1     -24.106  28.213  -6.188  1.00  0.00     0.214 C 
ATOM      5  C   UNL     1     -22.667  28.457  -6.668  1.00  0.00     0.339 C 
ATOM      6  O   UNL     1     -22.508  29.733  -7.275  1.00  0.00    -0.332 OA
ENDROOT
BRANCH   1   7
ATOM      7  C   UNL     1     -22.904  29.255  -9.658  1.00  0.00     0.198 C 
BRANCH   7   8
ATOM      8  O   UNL     1     -23.049  30.103 -10.783  1.00  0.00    -0.347 OA
BRANCH   8   9
ATOM      9  C   UNL     1     -21.787  30.551 -11.258  1.00  0.00     0.281 C 
ATOM     10  C   UNL     1     -22.870  31.855 -14.528  1.00  0.00     0.041 C 
ATOM     11  C   UNL     1     -22.767  31.776 -13.003  1.00  0.00     0.150 C 
ATOM     12  C   UNL     1     -22.388  33.150 -12.395  1.00  0.00     0.174 C 
ATOM     13  O   UNL     1     -21.812  30.785 -12.660  1.00  0.00    -0.344 OA
ATOM     14  C   UNL     1     -22.216  33.033 -10.865  1.00  0.00     0.179 C 
ATOM     15  C   UNL     1     -21.351  31.812 -10.482  1.00  0.00     0.202 C 
BRANCH  12  16
ATOM     16  O   UNL     1     -21.237  33.698 -12.989  1.00  0.00    -0.388 OA
ATOM     17  H   UNL     1     -21.492  34.536 -13.453  1.00  0.00     0.211 HD
ENDBRANCH  12  16
BRANCH  14  18
ATOM     18  O   UNL     1     -23.475  32.908 -10.252  1.00  0.00    -0.387 OA
ATOM     19  H   UNL     1     -23.837  33.827 -10.144  1.00  0.00     0.211 HD
ENDBRANCH  14  18
BRANCH  15  20
ATOM     20  O   UNL     1     -19.995  32.069 -10.745  1.00  0.00    -0.385 OA
ATOM     21  H   UNL     1     -19.550  31.187 -10.853  1.00  0.00     0.211 HD
ENDBRANCH  15  20
ENDBRANCH   8   9
ENDBRANCH   7   8
ENDBRANCH   1   7
BRANCH   2  22
ATOM     22  O   UNL     1     -25.691  29.847  -9.158  1.00  0.00    -0.387 OA
ATOM     23  H   UNL     1     -25.147  29.541  -9.929  1.00  0.00     0.211 HD
ENDBRANCH   2  22
BRANCH   3  24
ATOM     24  O   UNL     1     -26.415  28.283  -6.903  1.00  0.00    -0.387 OA
ATOM     25  H   UNL     1     -26.563  27.333  -6.654  1.00  0.00     0.211 HD
ENDBRANCH   3  24
BRANCH   5  26
ATOM     26  O   UNL     1     -22.254  27.393  -7.532  1.00  0.00    -0.454 OA
BRANCH  26  27
ATOM     27  C   UNL     1     -21.119  26.580  -7.353  1.00  0.00     0.214 A 
ATOM     28  C   UNL     1     -21.299  25.256  -6.906  1.00  0.00     0.180 A 
ATOM     29  C   UNL     1     -19.803  27.036  -7.581  1.00  0.00     0.239 A 
ATOM     30  O   UNL     1     -20.244  24.487  -6.651  1.00  0.00    -0.452 OA
ATOM     31  C   UNL     1     -18.711  26.183  -7.315  1.00  0.00     0.111 A 
ATOM     32  O   UNL     1     -19.605  28.195  -8.033  1.00  0.00    -0.285 OA
ATOM     33  C   UNL     1     -18.991  24.886  -6.827  1.00  0.00     0.146 A 
ATOM     34  C   UNL     1     -17.362  26.569  -7.505  1.00  0.00     0.134 A 
ATOM     35  C   UNL     1     -17.948  24.004  -6.526  1.00  0.00     0.094 A 
ATOM     36  C   UNL     1     -16.330  25.670  -7.198  1.00  0.00     0.093 A 
ATOM     37  C   UNL     1     -16.619  24.395  -6.707  1.00  0.00     0.123 A 
BRANCH  28  38
ATOM     38  C   UNL     1     -22.643  24.687  -6.654  1.00  0.00     0.025 A 
ATOM     39  C   UNL     1     -23.242  24.752  -5.385  1.00  0.00     0.062 A 
ATOM     40  C   UNL     1     -23.360  24.118  -7.716  1.00  0.00     0.016 A 
ATOM     41  C   UNL     1     -24.521  24.229  -5.165  1.00  0.00     0.158 A 
ATOM     42  C   UNL     1     -24.636  23.594  -7.507  1.00  0.00     0.051 A 
ATOM     43  C   UNL     1     -25.227  23.639  -6.240  1.00  0.00     0.157 A 
BRANCH  41  44
ATOM     44  O   UNL     1     -25.051  24.321  -3.875  1.00  0.00    -0.504 OA
ATOM     45  H   UNL     1     -25.125  25.185  -3.356  1.00  0.00     0.293 HD
ENDBRANCH  41  44
BRANCH  43  46
ATOM     46  O   UNL     1     -26.507  23.096  -6.098  1.00  0.00    -0.504 OA
ATOM     47  H   UNL     1     -27.248  23.531  -5.567  1.00  0.00     0.293 HD
ENDBRANCH  43  46
ENDBRANCH  28  38
BRANCH  34  48
ATOM     48  O   UNL     1     -17.039  27.834  -7.998  1.00  0.00    -0.507 OA
ATOM     49  H   UNL     1     -16.962  28.641  -7.389  1.00  0.00     0.293 HD
ENDBRANCH  34  48
BRANCH  37  50
ATOM     50  O   UNL     1     -15.576  23.524  -6.401  1.00  0.00    -0.508 OA
ATOM     51  H   UNL     1     -15.615  22.912  -5.596  1.00  0.00     0.293 HD
ENDBRANCH  37  50
ENDBRANCH  26  27
ENDBRANCH   5  26
BRANCH   4  52
ATOM     52  O   UNL     1     -24.407  29.122  -5.158  1.00  0.00    -0.384 OA
ATOM     53  H   UNL     1     -24.855  28.606  -4.438  1.00  0.00     0.211 HD
ENDBRANCH   4  52
TORSDOF 16
ENDMDL
MODEL 9
REMARK VINA RESULT:    -6.267      1.914      6.864
REMARK INTER + INTRA:         -12.930
REMARK INTER:                  -9.735
REMARK INTRA:                  -3.195
REMARK UNBOUND:                -2.632
REMARK SMILES C[C@H]1O[C@H](OC[C@@H]2O[C@H](Oc3c(-c4ccc(O)c(O)c4)oc4cc(O)cc(O)c4c3=O)[C@@H](O)[C@@H](O)[C@@H]2O)[C@@H](O)[C@H](O)[C@H]1O
REMARK SMILES IDX 7 1 36 2 34 3 32 4 9 5 8 6 6 7 5 8 4 9 1 10 2 11 42 12 3 13
REMARK SMILES IDX 40 14 38 15 43 16 41 18 39 20 37 22 35 24 10 26 11 27 12 28
REMARK SMILES IDX 30 29 21 30 29 31 31 32 22 33 27 34 23 35 26 36 24 37 13 38
REMARK SMILES IDX 20 39 14 40 18 41 15 42 16 43 19 44 17 46 28 48 25 50 33 52
REMARK H PARENT 43 17 41 19 39 21 37 23 35 25 19 45 17 47 28 49 25 51 33 53
REMARK Flexibility Score: inf
ROOT
ATOM      1  C   UNL     1     -24.520  27.341  -9.076  1.00  0.00     0.180 C 
ATOM      2  C   UNL     1     -24.470  28.867  -9.369  1.00  0.00     0.177 C 
ATOM      3  C   UNL     1     -23.116  29.467  -8.978  1.00  0.00     0.180 C 
ATOM      4  C   UNL     1     -21.985  28.640  -9.611  1.00  0.00     0.214 C 
ATOM      5  C   UNL     1     -22.142  27.158  -9.242  1.00  0.00     0.339 C 
ATOM      6  O   UNL     1     -23.410  26.637  -9.621  1.00  0.00    -0.332 OA
ENDROOT
BRANCH   1   7
ATOM      7  C   UNL     1     -24.765  26.977  -7.593  1.00  0.00     0.198 C 
BRANCH   7   8
ATOM      8  O   UNL     1     -25.435  25.733  -7.492  1.00  0.00    -0.347 OA
BRANCH   8   9
ATOM      9  C   UNL     1     -25.283  25.169  -6.198  1.00  0.00     0.281 C 
ATOM     10  C   UNL     1     -26.846  21.897  -6.845  1.00  0.00     0.041 C 
ATOM     11  C   UNL     1     -25.808  23.015  -6.967  1.00  0.00     0.150 C 
ATOM     12  C   UNL     1     -24.372  22.472  -6.750  1.00  0.00     0.174 C 
ATOM     13  O   UNL     1     -26.116  24.029  -6.026  1.00  0.00    -0.344 OA
ATOM     14  C   UNL     1     -23.347  23.624  -6.801  1.00  0.00     0.179 C 
ATOM     15  C   UNL     1     -23.800  24.827  -5.944  1.00  0.00     0.202 C 
BRANCH  12  16
ATOM     16  O   UNL     1     -24.251  21.745  -5.551  1.00  0.00    -0.388 OA
ATOM     17  H   UNL     1     -24.534  22.327  -4.801  1.00  0.00     0.211 HD
ENDBRANCH  12  16
BRANCH  14  18
ATOM     18  O   UNL     1     -23.176  24.052  -8.130  1.00  0.00    -0.387 OA
ATOM     19  H   UNL     1     -22.297  23.705  -8.435  1.00  0.00     0.211 HD
ENDBRANCH  14  18
BRANCH  15  20
ATOM     20  O   UNL     1     -23.617  24.553  -4.578  1.00  0.00    -0.385 OA
ATOM     21  H   UNL     1     -24.266  23.841  -4.337  1.00  0.00     0.211 HD
ENDBRANCH  15  20
ENDBRANCH   8   9
ENDBRANCH   7   8
ENDBRANCH   1   7
BRANCH   2  22
ATOM     22  O   UNL     1     -25.497  29.549  -8.696  1.00  0.00    -0.387 OA
ATOM     23  H   UNL     1     -26.100  28.859  -8.318  1.00  0.00     0.211 HD
ENDBRANCH   2  22
BRANCH   3  24
ATOM     24  O   UNL     1     -23.052  30.801  -9.413  1.00  0.00    -0.387 OA
ATOM     25  H   UNL     1     -22.793  31.345  -8.624  1.00  0.00     0.211 HD
ENDBRANCH   3  24
BRANCH   5  26
ATOM     26  O   UNL     1     -21.877  26.970  -7.848  1.00  0.00    -0.454 OA
BRANCH  26  27
ATOM     27  C   UNL     1     -20.606  26.803  -7.265  1.00  0.00     0.214 A 
ATOM     28  C   UNL     1     -20.075  27.851  -6.486  1.00  0.00     0.180 A 
ATOM     29  C   UNL     1     -19.827  25.640  -7.442  1.00  0.00     0.239 A 
ATOM     30  O   UNL     1     -18.846  27.757  -5.988  1.00  0.00    -0.452 OA
ATOM     31  C   UNL     1     -18.534  25.573  -6.883  1.00  0.00     0.111 A 
ATOM     32  O   UNL     1     -20.290  24.661  -8.085  1.00  0.00    -0.285 OA
ATOM     33  C   UNL     1     -18.071  26.692  -6.153  1.00  0.00     0.146 A 
ATOM     34  C   UNL     1     -17.685  24.448  -7.025  1.00  0.00     0.134 A 
ATOM     35  C   UNL     1     -16.790  26.691  -5.594  1.00  0.00     0.094 A 
ATOM     36  C   UNL     1     -16.403  24.466  -6.455  1.00  0.00     0.093 A 
ATOM     37  C   UNL     1     -15.955  25.581  -5.746  1.00  0.00     0.123 A 
BRANCH  28  38
ATOM     38  C   UNL     1     -20.827  29.102  -6.235  1.00  0.00     0.025 A 
ATOM     39  C   UNL     1     -22.051  29.097  -5.545  1.00  0.00     0.062 A 
ATOM     40  C   UNL     1     -20.283  30.327  -6.646  1.00  0.00     0.016 A 
ATOM     41  C   UNL     1     -22.742  30.289  -5.295  1.00  0.00     0.158 A 
ATOM     42  C   UNL     1     -20.964  31.520  -6.403  1.00  0.00     0.051 A 
ATOM     43  C   UNL     1     -22.192  31.517  -5.734  1.00  0.00     0.157 A 
BRANCH  41  44
ATOM     44  O   UNL     1     -23.956  30.207  -4.611  1.00  0.00    -0.504 OA
ATOM     45  H   UNL     1     -24.056  29.823  -3.681  1.00  0.00     0.293 HD
ENDBRANCH  41  44
BRANCH  43  46
ATOM     46  O   UNL     1     -22.823  32.747  -5.522  1.00  0.00    -0.504 OA
ATOM     47  H   UNL     1     -23.218  33.312  -6.260  1.00  0.00     0.293 HD
ENDBRANCH  43  46
ENDBRANCH  28  38
BRANCH  34  48
ATOM     48  O   UNL     1     -18.104  23.315  -7.724  1.00  0.00    -0.507 OA
ATOM     49  H   UNL     1     -17.492  22.830  -8.372  1.00  0.00     0.293 HD
ENDBRANCH  34  48
BRANCH  37  50
ATOM     50  O   UNL     1     -14.674  25.577  -5.198  1.00  0.00    -0.508 OA
ATOM     51  H   UNL     1     -13.878  25.945  -5.705  1.00  0.00     0.293 HD
ENDBRANCH  37  50
ENDBRANCH  26  27
ENDBRANCH   5  26
BRANCH   4  52
ATOM     52  O   UNL     1     -22.003  28.770 -11.011  1.00  0.00    -0.384 OA
ATOM     53  H   UNL     1     -22.740  28.197 -11.347  1.00  0.00     0.211 HD
ENDBRANCH   4  52
TORSDOF 16
ENDMDL
