MODEL 1
REMARK VINA RESULT:    -1.973      0.000      0.000
REMARK INTER + INTRA:          -3.519
REMARK INTER:                  -2.607
REMARK INTRA:                  -0.911
REMARK UNBOUND:                -0.911
REMARK SMILES CC[C@H](C=C[C@@H](C)[C@H]1CC[C@@H]2[C@H]3CC=C4C[C@@H](O)CC[C@]4(C)[C@H]3CC[C@]21C)C(C)C
REMARK SMILES IDX 6 1 7 2 5 3 4 4 3 5 2 6 1 7 28 8 29 9 30 10 8 11 9 12 26 13
REMARK SMILES IDX 10 14 11 15 25 16 27 17 12 18 24 19 23 20 13 21 21 22 14 23
REMARK SMILES IDX 15 24 20 25 22 26 16 27 19 28 17 29 18 30
REMARK H PARENT 18 31
REMARK Flexibility Score: inf
ROOT
ATOM      1  C   UNL     1     129.794 127.870 111.554  1.00  0.00     0.012 C 
ATOM      2  C   UNL     1     129.949 126.441 111.000  1.00  0.00     0.012 C 
ENDROOT
BRANCH   1   3
ATOM      3  C   UNL     1     129.172 128.803 110.533  1.00  0.00    -0.028 C 
ATOM      4  C   UNL     1     128.929 130.107 110.754  1.00  0.00    -0.027 C 
BRANCH   4   5
ATOM      5  C   UNL     1     128.206 130.956 109.729  1.00  0.00     0.014 C 
BRANCH   5   6
ATOM      6  C   UNL     1     127.433 130.073 108.712  1.00  0.00     0.004 C 
ATOM      7  C   UNL     1     125.944 129.872 109.005  1.00  0.00     0.004 C 
ENDBRANCH   5   6
BRANCH   5   8
ATOM      8  C   UNL     1     127.411 132.134 110.383  1.00  0.00    -0.011 C 
ATOM      9  C   UNL     1     127.860 132.417 111.824  1.00  0.00     0.008 C 
ATOM     10  C   UNL     1     127.379 133.433 109.559  1.00  0.00     0.008 C 
ENDBRANCH   5   8
ENDBRANCH   4   5
ENDBRANCH   1   3
BRANCH   1  11
ATOM     11  C   UNL     1     131.101 128.405 112.244  1.00  0.00     0.002 C 
ATOM     12  C   UNL     1     131.763 129.604 111.508  1.00  0.00     0.005 C 
ATOM     13  C   UNL     1     130.994 128.895 113.731  1.00  0.00    -0.026 C 
ATOM     14  C   UNL     1     131.597 130.848 112.395  1.00  0.00     0.005 C 
ATOM     15  C   UNL     1     130.712 130.398 113.552  1.00  0.00    -0.001 C 
ATOM     16  C   UNL     1     129.900 128.256 114.656  1.00  0.00     0.007 C 
ATOM     17  C   UNL     1     132.385 128.645 114.401  1.00  0.00     0.012 C 
ATOM     18  C   UNL     1     130.811 131.192 114.874  1.00  0.00     0.000 C 
ATOM     19  C   UNL     1     129.125 129.292 115.509  1.00  0.00     0.005 C 
ATOM     20  C   UNL     1     130.008 130.472 116.028  1.00  0.00     0.003 C 
ATOM     21  C   UNL     1     130.380 132.649 114.667  1.00  0.00     0.031 C 
ATOM     22  C   UNL     1     129.227 131.440 117.025  1.00  0.00    -0.008 C 
ATOM     23  C   UNL     1     130.402 133.377 115.973  1.00  0.00    -0.027 C 
ATOM     24  C   UNL     1     129.910 132.817 117.094  1.00  0.00    -0.065 C 
ATOM     25  C   UNL     1     129.214 130.777 118.443  1.00  0.00     0.014 C 
ATOM     26  C   UNL     1     127.758 131.676 116.577  1.00  0.00     0.016 C 
ATOM     27  C   UNL     1     129.760 133.700 118.318  1.00  0.00     0.063 C 
ATOM     28  C   UNL     1     128.821 131.735 119.570  1.00  0.00     0.033 C 
ATOM     29  C   UNL     1     129.806 132.906 119.625  1.00  0.00     0.118 C 
BRANCH  29  30
ATOM     30  O   UNL     1     129.474 133.758 120.691  1.00  0.00    -0.393 OA
ATOM     31  H   UNL     1     129.315 134.657 120.300  1.00  0.00     0.210 HD
ENDBRANCH  29  30
ENDBRANCH   1  11
TORSDOF 6
ENDMDL
