MODEL 1
REMARK VINA RESULT:    -5.224      0.000      0.000
REMARK INTER + INTRA:         -12.436
REMARK INTER:                 -10.111
REMARK INTRA:                  -2.325
REMARK UNBOUND:                -2.325
REMARK SMILES CCCCCCCCCCCCCCCCCC(=O)[O-]
REMARK SMILES IDX 10 1 11 2 12 3 13 4 14 5 15 6 16 7 17 8 18 9 19 10 20 11
REMARK SMILES IDX 9 12 8 13 7 14 6 15 5 16 4 17 3 18 2 19 1 20
REMARK H PARENT
REMARK Flexibility Score: inf
ROOT
ATOM      1  C   UNL     1      54.932  33.769  43.211  1.00  0.00     0.000 C 
ENDROOT
BRANCH   1   2
ATOM      2  C   UNL     1      55.404  34.966  42.366  1.00  0.00     0.000 C 
BRANCH   2   3
ATOM      3  C   UNL     1      55.998  36.141  43.165  1.00  0.00     0.000 C 
BRANCH   3   4
ATOM      4  C   UNL     1      54.976  37.253  43.448  1.00  0.00     0.000 C 
BRANCH   4   5
ATOM      5  C   UNL     1      54.116  37.537  42.209  1.00  0.00     0.000 C 
BRANCH   5   6
ATOM      6  C   UNL     1      52.621  37.410  42.537  1.00  0.00     0.000 C 
BRANCH   6   7
ATOM      7  C   UNL     1      52.294  37.746  44.003  1.00  0.00     0.006 C 
BRANCH   7   8
ATOM      8  C   UNL     1      51.427  36.687  44.709  1.00  0.00     0.053 C 
BRANCH   8   9
ATOM      9  C   UNL     1      51.894  36.398  46.102  1.00  0.00     0.041 C 
ATOM     10  O   UNL     1      51.093  35.930  46.954  1.00  0.00    -0.550 OA
ATOM     11  O   UNL     1      53.221  36.610  46.454  1.00  0.00    -0.550 OA
ENDBRANCH   8   9
ENDBRANCH   7   8
ENDBRANCH   6   7
ENDBRANCH   5   6
ENDBRANCH   4   5
ENDBRANCH   3   4
ENDBRANCH   2   3
ENDBRANCH   1   2
BRANCH   1  12
ATOM     12  C   UNL     1      53.488  33.923  43.717  1.00  0.00     0.000 C 
BRANCH  12  13
ATOM     13  C   UNL     1      52.440  33.632  42.630  1.00  0.00    -0.000 C 
BRANCH  13  14
ATOM     14  C   UNL     1      51.133  33.022  43.179  1.00  0.00    -0.000 C 
BRANCH  14  15
ATOM     15  C   UNL     1      50.453  32.097  42.153  1.00  0.00    -0.000 C 
BRANCH  15  16
ATOM     16  C   UNL     1      50.601  30.607  42.503  1.00  0.00    -0.000 C 
BRANCH  16  17
ATOM     17  C   UNL     1      51.824  29.960  41.830  1.00  0.00    -0.000 C 
BRANCH  17  18
ATOM     18  C   UNL     1      52.803  29.350  42.846  1.00  0.00    -0.000 C 
BRANCH  18  19
ATOM     19  C   UNL     1      53.955  30.300  43.202  1.00  0.00    -0.003 C 
ATOM     20  C   UNL     1      55.262  29.843  42.560  1.00  0.00     0.004 C 
ENDBRANCH  18  19
ENDBRANCH  17  18
ENDBRANCH  16  17
ENDBRANCH  15  16
ENDBRANCH  14  15
ENDBRANCH  13  14
ENDBRANCH  12  13
ENDBRANCH   1  12
TORSDOF 16
ENDMDL
MODEL 2
REMARK VINA RESULT:    -5.197      7.018      9.767
REMARK INTER + INTRA:         -12.384
REMARK INTER:                 -10.371
REMARK INTRA:                  -2.013
REMARK UNBOUND:                -2.325
REMARK SMILES CCCCCCCCCCCCCCCCCC(=O)[O-]
REMARK SMILES IDX 10 1 11 2 12 3 13 4 14 5 15 6 16 7 17 8 18 9 19 10 20 11
REMARK SMILES IDX 9 12 8 13 7 14 6 15 5 16 4 17 3 18 2 19 1 20
REMARK H PARENT
REMARK Flexibility Score: inf
ROOT
ATOM      1  C   UNL     1      58.425  37.073  36.489  1.00  0.00     0.000 C 
ENDROOT
BRANCH   1   2
ATOM      2  C   UNL     1      57.442  37.743  37.467  1.00  0.00     0.000 C 
BRANCH   2   3
ATOM      3  C   UNL     1      58.091  38.432  38.682  1.00  0.00     0.000 C 
BRANCH   3   4
ATOM      4  C   UNL     1      57.135  38.574  39.875  1.00  0.00     0.000 C 
BRANCH   4   5
ATOM      5  C   UNL     1      55.881  37.711  39.680  1.00  0.00     0.000 C 
BRANCH   5   6
ATOM      6  C   UNL     1      55.081  37.602  40.987  1.00  0.00     0.000 C 
BRANCH   6   7
ATOM      7  C   UNL     1      53.680  38.232  40.891  1.00  0.00     0.006 C 
BRANCH   7   8
ATOM      8  C   UNL     1      53.120  38.718  42.240  1.00  0.00     0.053 C 
BRANCH   8   9
ATOM      9  C   UNL     1      53.198  40.206  42.393  1.00  0.00     0.041 C 
ATOM     10  O   UNL     1      52.642  40.772  43.370  1.00  0.00    -0.550 OA
ATOM     11  O   UNL     1      53.915  40.966  41.477  1.00  0.00    -0.550 OA
ENDBRANCH   8   9
ENDBRANCH   7   8
ENDBRANCH   6   7
ENDBRANCH   5   6
ENDBRANCH   4   5
ENDBRANCH   3   4
ENDBRANCH   2   3
ENDBRANCH   1   2
BRANCH   1  12
ATOM     12  C   UNL     1      58.045  37.287  35.015  1.00  0.00     0.000 C 
BRANCH  12  13
ATOM     13  C   UNL     1      57.104  38.486  34.809  1.00  0.00    -0.000 C 
BRANCH  13  14
ATOM     14  C   UNL     1      57.789  39.705  34.155  1.00  0.00    -0.000 C 
BRANCH  14  15
ATOM     15  C   UNL     1      58.374  40.669  35.203  1.00  0.00    -0.000 C 
BRANCH  15  16
ATOM     16  C   UNL     1      59.911  40.675  35.217  1.00  0.00    -0.000 C 
BRANCH  16  17
ATOM     17  C   UNL     1      60.492  40.197  36.559  1.00  0.00    -0.000 C 
BRANCH  17  18
ATOM     18  C   UNL     1      61.712  39.279  36.381  1.00  0.00    -0.000 C 
BRANCH  18  19
ATOM     19  C   UNL     1      61.900  38.821  34.928  1.00  0.00    -0.003 C 
ATOM     20  C   UNL     1      61.598  37.332  34.778  1.00  0.00     0.004 C 
ENDBRANCH  18  19
ENDBRANCH  17  18
ENDBRANCH  16  17
ENDBRANCH  15  16
ENDBRANCH  14  15
ENDBRANCH  13  14
ENDBRANCH  12  13
ENDBRANCH   1  12
TORSDOF 16
ENDMDL
MODEL 3
REMARK VINA RESULT:    -5.154      2.072      4.000
REMARK INTER + INTRA:         -12.300
REMARK INTER:                 -10.155
REMARK INTRA:                  -2.145
REMARK UNBOUND:                -2.325
REMARK SMILES CCCCCCCCCCCCCCCCCC(=O)[O-]
REMARK SMILES IDX 10 1 11 2 12 3 13 4 14 5 15 6 16 7 17 8 18 9 19 10 20 11
REMARK SMILES IDX 9 12 8 13 7 14 6 15 5 16 4 17 3 18 2 19 1 20
REMARK H PARENT
REMARK Flexibility Score: inf
ROOT
ATOM      1  C   UNL     1      50.768  34.121  44.176  1.00  0.00     0.000 C 
ENDROOT
BRANCH   1   2
ATOM      2  C   UNL     1      50.803  34.791  45.562  1.00  0.00     0.000 C 
BRANCH   2   3
ATOM      3  C   UNL     1      51.474  36.176  45.604  1.00  0.00     0.000 C 
BRANCH   3   4
ATOM      4  C   UNL     1      52.471  36.327  46.763  1.00  0.00     0.000 C 
BRANCH   4   5
ATOM      5  C   UNL     1      53.277  37.625  46.629  1.00  0.00     0.000 C 
BRANCH   5   6
ATOM      6  C   UNL     1      52.916  38.365  45.332  1.00  0.00     0.000 C 
BRANCH   6   7
ATOM      7  C   UNL     1      54.106  38.504  44.366  1.00  0.00     0.006 C 
BRANCH   7   8
ATOM      8  C   UNL     1      54.734  37.161  43.951  1.00  0.00     0.053 C 
BRANCH   8   9
ATOM      9  C   UNL     1      54.788  36.986  42.464  1.00  0.00     0.041 C 
ATOM     10  O   UNL     1      53.789  37.281  41.756  1.00  0.00    -0.550 OA
ATOM     11  O   UNL     1      55.950  36.530  41.855  1.00  0.00    -0.550 OA
ENDBRANCH   8   9
ENDBRANCH   7   8
ENDBRANCH   6   7
ENDBRANCH   5   6
ENDBRANCH   4   5
ENDBRANCH   3   4
ENDBRANCH   2   3
ENDBRANCH   1   2
BRANCH   1  12
ATOM     12  C   UNL     1      51.865  34.637  43.231  1.00  0.00     0.000 C 
BRANCH  12  13
ATOM     13  C   UNL     1      52.886  33.551  42.852  1.00  0.00    -0.000 C 
BRANCH  13  14
ATOM     14  C   UNL     1      54.132  33.528  43.764  1.00  0.00    -0.000 C 
BRANCH  14  15
ATOM     15  C   UNL     1      55.255  32.649  43.185  1.00  0.00    -0.000 C 
BRANCH  15  16
ATOM     16  C   UNL     1      55.257  31.225  43.765  1.00  0.00    -0.000 C 
BRANCH  16  17
ATOM     17  C   UNL     1      54.691  30.185  42.783  1.00  0.00    -0.000 C 
BRANCH  17  18
ATOM     18  C   UNL     1      53.284  29.707  43.175  1.00  0.00    -0.000 C 
BRANCH  18  19
ATOM     19  C   UNL     1      52.305  29.714  41.992  1.00  0.00    -0.003 C 
ATOM     20  C   UNL     1      50.983  30.371  42.379  1.00  0.00     0.004 C 
ENDBRANCH  18  19
ENDBRANCH  17  18
ENDBRANCH  16  17
ENDBRANCH  15  16
ENDBRANCH  14  15
ENDBRANCH  13  14
ENDBRANCH  12  13
ENDBRANCH   1  12
TORSDOF 16
ENDMDL
MODEL 4
REMARK VINA RESULT:    -5.140      1.701      4.379
REMARK INTER + INTRA:         -12.272
REMARK INTER:                 -10.203
REMARK INTRA:                  -2.069
REMARK UNBOUND:                -2.325
REMARK SMILES CCCCCCCCCCCCCCCCCC(=O)[O-]
REMARK SMILES IDX 10 1 11 2 12 3 13 4 14 5 15 6 16 7 17 8 18 9 19 10 20 11
REMARK SMILES IDX 9 12 8 13 7 14 6 15 5 16 4 17 3 18 2 19 1 20
REMARK H PARENT
REMARK Flexibility Score: inf
ROOT
ATOM      1  C   UNL     1      50.588  31.582  42.919  1.00  0.00     0.000 C 
ENDROOT
BRANCH   1   2
ATOM      2  C   UNL     1      51.140  32.761  42.096  1.00  0.00     0.000 C 
BRANCH   2   3
ATOM      3  C   UNL     1      51.708  33.929  42.922  1.00  0.00     0.000 C 
BRANCH   3   4
ATOM      4  C   UNL     1      50.986  34.123  44.264  1.00  0.00     0.000 C 
BRANCH   4   5
ATOM      5  C   UNL     1      51.546  35.336  45.019  1.00  0.00     0.000 C 
BRANCH   5   6
ATOM      6  C   UNL     1      53.055  35.183  45.262  1.00  0.00     0.000 C 
BRANCH   6   7
ATOM      7  C   UNL     1      53.752  36.517  45.587  1.00  0.00     0.006 C 
BRANCH   7   8
ATOM      8  C   UNL     1      53.673  37.555  44.453  1.00  0.00     0.053 C 
BRANCH   8   9
ATOM      9  C   UNL     1      53.084  38.856  44.906  1.00  0.00     0.041 C 
ATOM     10  O   UNL     1      53.657  39.533  45.800  1.00  0.00    -0.550 OA
ATOM     11  O   UNL     1      51.922  39.341  44.317  1.00  0.00    -0.550 OA
ENDBRANCH   8   9
ENDBRANCH   7   8
ENDBRANCH   6   7
ENDBRANCH   5   6
ENDBRANCH   4   5
ENDBRANCH   3   4
ENDBRANCH   2   3
ENDBRANCH   1   2
BRANCH   1  12
ATOM     12  C   UNL     1      50.747  30.227  42.209  1.00  0.00     0.000 C 
BRANCH  12  13
ATOM     13  C   UNL     1      52.211  29.900  41.869  1.00  0.00    -0.000 C 
BRANCH  13  14
ATOM     14  C   UNL     1      53.137  29.849  43.102  1.00  0.00    -0.000 C 
BRANCH  14  15
ATOM     15  C   UNL     1      54.599  30.170  42.740  1.00  0.00    -0.000 C 
BRANCH  15  16
ATOM     16  C   UNL     1      55.257  31.148  43.727  1.00  0.00    -0.000 C 
BRANCH  16  17
ATOM     17  C   UNL     1      54.826  32.606  43.491  1.00  0.00    -0.000 C 
BRANCH  17  18
ATOM     18  C   UNL     1      55.743  33.338  42.499  1.00  0.00    -0.000 C 
BRANCH  18  19
ATOM     19  C   UNL     1      55.342  34.806  42.294  1.00  0.00    -0.003 C 
ATOM     20  C   UNL     1      56.340  35.746  42.966  1.00  0.00     0.004 C 
ENDBRANCH  18  19
ENDBRANCH  17  18
ENDBRANCH  16  17
ENDBRANCH  15  16
ENDBRANCH  14  15
ENDBRANCH  13  14
ENDBRANCH  12  13
ENDBRANCH   1  12
TORSDOF 16
ENDMDL
MODEL 5
REMARK VINA RESULT:    -5.107      1.499      2.093
REMARK INTER + INTRA:         -12.208
REMARK INTER:                 -10.224
REMARK INTRA:                  -1.985
REMARK UNBOUND:                -2.325
REMARK SMILES CCCCCCCCCCCCCCCCCC(=O)[O-]
REMARK SMILES IDX 10 1 11 2 12 3 13 4 14 5 15 6 16 7 17 8 18 9 19 10 20 11
REMARK SMILES IDX 9 12 8 13 7 14 6 15 5 16 4 17 3 18 2 19 1 20
REMARK H PARENT
REMARK Flexibility Score: inf
ROOT
ATOM      1  C   UNL     1      55.534  33.601  42.549  1.00  0.00     0.000 C 
ENDROOT
BRANCH   1   2
ATOM      2  C   UNL     1      55.945  35.075  42.728  1.00  0.00     0.000 C 
BRANCH   2   3
ATOM      3  C   UNL     1      55.576  36.006  41.559  1.00  0.00     0.000 C 
BRANCH   3   4
ATOM      4  C   UNL     1      55.127  37.401  42.019  1.00  0.00     0.000 C 
BRANCH   4   5
ATOM      5  C   UNL     1      53.598  37.521  41.995  1.00  0.00     0.000 C 
BRANCH   5   6
ATOM      6  C   UNL     1      53.073  38.128  43.305  1.00  0.00     0.000 C 
BRANCH   6   7
ATOM      7  C   UNL     1      54.113  38.105  44.439  1.00  0.00     0.006 C 
BRANCH   7   8
ATOM      8  C   UNL     1      53.747  38.995  45.641  1.00  0.00     0.053 C 
BRANCH   8   9
ATOM      9  C   UNL     1      53.266  38.202  46.818  1.00  0.00     0.041 C 
ATOM     10  O   UNL     1      52.757  38.788  47.810  1.00  0.00    -0.550 OA
ATOM     11  O   UNL     1      53.347  36.816  46.808  1.00  0.00    -0.550 OA
ENDBRANCH   8   9
ENDBRANCH   7   8
ENDBRANCH   6   7
ENDBRANCH   5   6
ENDBRANCH   4   5
ENDBRANCH   3   4
ENDBRANCH   2   3
ENDBRANCH   1   2
BRANCH   1  12
ATOM     12  C   UNL     1      54.516  33.130  43.600  1.00  0.00     0.000 C 
BRANCH  12  13
ATOM     13  C   UNL     1      53.812  34.296  44.315  1.00  0.00    -0.000 C 
BRANCH  13  14
ATOM     14  C   UNL     1      52.389  34.577  43.787  1.00  0.00    -0.000 C 
BRANCH  14  15
ATOM     15  C   UNL     1      51.987  33.604  42.663  1.00  0.00    -0.000 C 
BRANCH  15  16
ATOM     16  C   UNL     1      50.748  32.765  43.015  1.00  0.00    -0.000 C 
BRANCH  16  17
ATOM     17  C   UNL     1      50.599  31.525  42.116  1.00  0.00    -0.000 C 
BRANCH  17  18
ATOM     18  C   UNL     1      50.505  30.220  42.922  1.00  0.00    -0.000 C 
BRANCH  18  19
ATOM     19  C   UNL     1      51.782  29.372  42.827  1.00  0.00    -0.003 C 
ATOM     20  C   UNL     1      52.319  29.346  41.399  1.00  0.00     0.004 C 
ENDBRANCH  18  19
ENDBRANCH  17  18
ENDBRANCH  16  17
ENDBRANCH  15  16
ENDBRANCH  14  15
ENDBRANCH  13  14
ENDBRANCH  12  13
ENDBRANCH   1  12
TORSDOF 16
ENDMDL
MODEL 6
REMARK VINA RESULT:    -5.070      2.436      6.591
REMARK INTER + INTRA:         -12.137
REMARK INTER:                  -9.924
REMARK INTRA:                  -2.213
REMARK UNBOUND:                -2.325
REMARK SMILES CCCCCCCCCCCCCCCCCC(=O)[O-]
REMARK SMILES IDX 10 1 11 2 12 3 13 4 14 5 15 6 16 7 17 8 18 9 19 10 20 11
REMARK SMILES IDX 9 12 8 13 7 14 6 15 5 16 4 17 3 18 2 19 1 20
REMARK H PARENT
REMARK Flexibility Score: inf
ROOT
ATOM      1  C   UNL     1      52.464  34.284  43.328  1.00  0.00     0.000 C 
ENDROOT
BRANCH   1   2
ATOM      2  C   UNL     1      53.858  33.918  43.870  1.00  0.00     0.000 C 
BRANCH   2   3
ATOM      3  C   UNL     1      54.979  33.865  42.815  1.00  0.00     0.000 C 
BRANCH   3   4
ATOM      4  C   UNL     1      55.634  32.480  42.703  1.00  0.00     0.000 C 
BRANCH   4   5
ATOM      5  C   UNL     1      55.012  31.496  43.703  1.00  0.00     0.000 C 
BRANCH   5   6
ATOM      6  C   UNL     1      54.806  30.116  43.060  1.00  0.00     0.000 C 
BRANCH   6   7
ATOM      7  C   UNL     1      53.371  29.584  43.219  1.00  0.00     0.006 C 
BRANCH   7   8
ATOM      8  C   UNL     1      52.444  29.924  42.037  1.00  0.00     0.053 C 
BRANCH   8   9
ATOM      9  C   UNL     1      51.121  30.468  42.482  1.00  0.00     0.041 C 
ATOM     10  O   UNL     1      50.437  29.848  43.338  1.00  0.00    -0.550 OA
ATOM     11  O   UNL     1      50.658  31.678  41.979  1.00  0.00    -0.550 OA
ENDBRANCH   8   9
ENDBRANCH   7   8
ENDBRANCH   6   7
ENDBRANCH   5   6
ENDBRANCH   4   5
ENDBRANCH   3   4
ENDBRANCH   2   3
ENDBRANCH   1   2
BRANCH   1  12
ATOM     12  C   UNL     1      51.440  34.559  44.442  1.00  0.00     0.000 C 
BRANCH  12  13
ATOM     13  C   UNL     1      51.257  36.060  44.726  1.00  0.00    -0.000 C 
BRANCH  13  14
ATOM     14  C   UNL     1      51.823  36.505  46.091  1.00  0.00    -0.000 C 
BRANCH  14  15
ATOM     15  C   UNL     1      53.345  36.727  46.041  1.00  0.00    -0.000 C 
BRANCH  15  16
ATOM     16  C   UNL     1      53.751  37.860  45.083  1.00  0.00    -0.000 C 
BRANCH  16  17
ATOM     17  C   UNL     1      54.851  37.434  44.096  1.00  0.00    -0.000 C 
BRANCH  17  18
ATOM     18  C   UNL     1      54.382  37.483  42.633  1.00  0.00    -0.000 C 
BRANCH  18  19
ATOM     19  C   UNL     1      53.065  38.254  42.459  1.00  0.00    -0.003 C 
ATOM     20  C   UNL     1      53.323  39.676  41.967  1.00  0.00     0.004 C 
ENDBRANCH  18  19
ENDBRANCH  17  18
ENDBRANCH  16  17
ENDBRANCH  15  16
ENDBRANCH  14  15
ENDBRANCH  13  14
ENDBRANCH  12  13
ENDBRANCH   1  12
TORSDOF 16
ENDMDL
MODEL 7
REMARK VINA RESULT:    -5.021      6.560      9.532
REMARK INTER + INTRA:         -12.042
REMARK INTER:                 -10.325
REMARK INTRA:                  -1.717
REMARK UNBOUND:                -2.325
REMARK SMILES CCCCCCCCCCCCCCCCCC(=O)[O-]
REMARK SMILES IDX 10 1 11 2 12 3 13 4 14 5 15 6 16 7 17 8 18 9 19 10 20 11
REMARK SMILES IDX 9 12 8 13 7 14 6 15 5 16 4 17 3 18 2 19 1 20
REMARK H PARENT
REMARK Flexibility Score: inf
ROOT
ATOM      1  C   UNL     1      58.396  38.363  38.500  1.00  0.00     0.000 C 
ENDROOT
BRANCH   1   2
ATOM      2  C   UNL     1      57.152  37.711  37.868  1.00  0.00     0.000 C 
BRANCH   2   3
ATOM      3  C   UNL     1      56.032  37.338  38.856  1.00  0.00     0.000 C 
BRANCH   3   4
ATOM      4  C   UNL     1      56.342  37.755  40.302  1.00  0.00     0.000 C 
BRANCH   4   5
ATOM      5  C   UNL     1      55.207  37.342  41.248  1.00  0.00     0.000 C 
BRANCH   5   6
ATOM      6  C   UNL     1      55.662  36.220  42.194  1.00  0.00     0.000 C 
BRANCH   6   7
ATOM      7  C   UNL     1      55.713  36.657  43.668  1.00  0.00     0.006 C 
BRANCH   7   8
ATOM      8  C   UNL     1      54.567  37.599  44.081  1.00  0.00     0.053 C 
BRANCH   8   9
ATOM      9  C   UNL     1      53.657  36.985  45.100  1.00  0.00     0.041 C 
ATOM     10  O   UNL     1      52.691  37.646  45.566  1.00  0.00    -0.550 OA
ATOM     11  O   UNL     1      53.851  35.673  45.512  1.00  0.00    -0.550 OA
ENDBRANCH   8   9
ENDBRANCH   7   8
ENDBRANCH   6   7
ENDBRANCH   5   6
ENDBRANCH   4   5
ENDBRANCH   3   4
ENDBRANCH   2   3
ENDBRANCH   1   2
BRANCH   1  12
ATOM     12  C   UNL     1      59.655  38.223  37.630  1.00  0.00     0.000 C 
BRANCH  12  13
ATOM     13  C   UNL     1      59.525  37.122  36.564  1.00  0.00    -0.000 C 
BRANCH  13  14
ATOM     14  C   UNL     1      60.863  36.755  35.887  1.00  0.00    -0.000 C 
BRANCH  14  15
ATOM     15  C   UNL     1      61.116  37.590  34.619  1.00  0.00    -0.000 C 
BRANCH  15  16
ATOM     16  C   UNL     1      61.954  38.850  34.892  1.00  0.00    -0.000 C 
BRANCH  16  17
ATOM     17  C   UNL     1      61.134  40.145  34.764  1.00  0.00    -0.000 C 
BRANCH  17  18
ATOM     18  C   UNL     1      59.824  39.940  33.987  1.00  0.00    -0.000 C 
BRANCH  18  19
ATOM     19  C   UNL     1      58.594  40.440  34.758  1.00  0.00    -0.003 C 
ATOM     20  C   UNL     1      57.401  39.511  34.552  1.00  0.00     0.004 C 
ENDBRANCH  18  19
ENDBRANCH  17  18
ENDBRANCH  16  17
ENDBRANCH  15  16
ENDBRANCH  14  15
ENDBRANCH  13  14
ENDBRANCH  12  13
ENDBRANCH   1  12
TORSDOF 16
ENDMDL
MODEL 8
REMARK VINA RESULT:    -5.006      6.565      9.455
REMARK INTER + INTRA:         -12.014
REMARK INTER:                 -10.302
REMARK INTRA:                  -1.712
REMARK UNBOUND:                -2.325
REMARK SMILES CCCCCCCCCCCCCCCCCC(=O)[O-]
REMARK SMILES IDX 10 1 11 2 12 3 13 4 14 5 15 6 16 7 17 8 18 9 19 10 20 11
REMARK SMILES IDX 9 12 8 13 7 14 6 15 5 16 4 17 3 18 2 19 1 20
REMARK H PARENT
REMARK Flexibility Score: inf
ROOT
ATOM      1  C   UNL     1      58.724  38.876  37.971  1.00  0.00     0.000 C 
ENDROOT
BRANCH   1   2
ATOM      2  C   UNL     1      57.457  38.059  38.285  1.00  0.00     0.000 C 
BRANCH   2   3
ATOM      3  C   UNL     1      56.979  38.124  39.747  1.00  0.00     0.000 C 
BRANCH   3   4
ATOM      4  C   UNL     1      55.999  36.998  40.110  1.00  0.00     0.000 C 
BRANCH   4   5
ATOM      5  C   UNL     1      55.453  37.183  41.532  1.00  0.00     0.000 C 
BRANCH   5   6
ATOM      6  C   UNL     1      56.030  36.125  42.484  1.00  0.00     0.000 C 
BRANCH   6   7
ATOM      7  C   UNL     1      55.493  34.709  42.210  1.00  0.00     0.006 C 
BRANCH   7   8
ATOM      8  C   UNL     1      54.533  34.184  43.293  1.00  0.00     0.053 C 
BRANCH   8   9
ATOM      9  C   UNL     1      53.093  34.389  42.934  1.00  0.00     0.041 C 
ATOM     10  O   UNL     1      52.601  35.548  42.928  1.00  0.00    -0.550 OA
ATOM     11  O   UNL     1      52.302  33.306  42.572  1.00  0.00    -0.550 OA
ENDBRANCH   8   9
ENDBRANCH   7   8
ENDBRANCH   6   7
ENDBRANCH   5   6
ENDBRANCH   4   5
ENDBRANCH   3   4
ENDBRANCH   2   3
ENDBRANCH   1   2
BRANCH   1  12
ATOM     12  C   UNL     1      60.014  38.193  38.453  1.00  0.00     0.000 C 
BRANCH  12  13
ATOM     13  C   UNL     1      61.261  39.074  38.271  1.00  0.00    -0.000 C 
BRANCH  13  14
ATOM     14  C   UNL     1      61.244  39.909  36.972  1.00  0.00    -0.000 C 
BRANCH  14  15
ATOM     15  C   UNL     1      62.294  39.419  35.958  1.00  0.00    -0.000 C 
BRANCH  15  16
ATOM     16  C   UNL     1      61.668  38.694  34.755  1.00  0.00    -0.000 C 
BRANCH  16  17
ATOM     17  C   UNL     1      61.337  37.223  35.058  1.00  0.00    -0.000 C 
BRANCH  17  18
ATOM     18  C   UNL     1      59.853  36.893  34.831  1.00  0.00    -0.000 C 
BRANCH  18  19
ATOM     19  C   UNL     1      59.053  38.096  34.311  1.00  0.00    -0.003 C 
ATOM     20  C   UNL     1      57.557  37.905  34.551  1.00  0.00     0.004 C 
ENDBRANCH  18  19
ENDBRANCH  17  18
ENDBRANCH  16  17
ENDBRANCH  15  16
ENDBRANCH  14  15
ENDBRANCH  13  14
ENDBRANCH  12  13
ENDBRANCH   1  12
TORSDOF 16
ENDMDL
MODEL 9
REMARK VINA RESULT:    -4.999      5.656      7.909
REMARK INTER + INTRA:         -12.000
REMARK INTER:                 -10.062
REMARK INTRA:                  -1.939
REMARK UNBOUND:                -2.325
REMARK SMILES CCCCCCCCCCCCCCCCCC(=O)[O-]
REMARK SMILES IDX 10 1 11 2 12 3 13 4 14 5 15 6 16 7 17 8 18 9 19 10 20 11
REMARK SMILES IDX 9 12 8 13 7 14 6 15 5 16 4 17 3 18 2 19 1 20
REMARK H PARENT
REMARK Flexibility Score: inf
ROOT
ATOM      1  C   UNL     1      56.387  36.920  42.169  1.00  0.00     0.000 C 
ENDROOT
BRANCH   1   2
ATOM      2  C   UNL     1      55.380  37.011  41.007  1.00  0.00     0.000 C 
BRANCH   2   3
ATOM      3  C   UNL     1      55.978  37.434  39.652  1.00  0.00     0.000 C 
BRANCH   3   4
ATOM      4  C   UNL     1      57.092  38.483  39.787  1.00  0.00     0.000 C 
BRANCH   4   5
ATOM      5  C   UNL     1      57.997  38.484  38.549  1.00  0.00     0.000 C 
BRANCH   5   6
ATOM      6  C   UNL     1      57.323  37.760  37.373  1.00  0.00     0.000 C 
BRANCH   6   7
ATOM      7  C   UNL     1      58.294  37.447  36.221  1.00  0.00     0.006 C 
BRANCH   7   8
ATOM      8  C   UNL     1      57.635  37.453  34.829  1.00  0.00     0.053 C 
BRANCH   8   9
ATOM      9  C   UNL     1      57.130  38.808  34.438  1.00  0.00     0.041 C 
ATOM     10  O   UNL     1      57.909  39.799  34.442  1.00  0.00    -0.550 OA
ATOM     11  O   UNL     1      55.811  38.974  34.035  1.00  0.00    -0.550 OA
ENDBRANCH   8   9
ENDBRANCH   7   8
ENDBRANCH   6   7
ENDBRANCH   5   6
ENDBRANCH   4   5
ENDBRANCH   3   4
ENDBRANCH   2   3
ENDBRANCH   1   2
BRANCH   1  12
ATOM     12  C   UNL     1      56.046  35.809  43.174  1.00  0.00     0.000 C 
BRANCH  12  13
ATOM     13  C   UNL     1      55.610  34.501  42.492  1.00  0.00    -0.000 C 
BRANCH  13  14
ATOM     14  C   UNL     1      54.204  34.022  42.912  1.00  0.00    -0.000 C 
BRANCH  14  15
ATOM     15  C   UNL     1      53.872  34.409  44.364  1.00  0.00    -0.000 C 
BRANCH  15  16
ATOM     16  C   UNL     1      52.613  35.285  44.475  1.00  0.00    -0.000 C 
BRANCH  16  17
ATOM     17  C   UNL     1      52.255  35.977  43.149  1.00  0.00    -0.000 C 
BRANCH  17  18
ATOM     18  C   UNL     1      52.547  37.486  43.172  1.00  0.00    -0.000 C 
BRANCH  18  19
ATOM     19  C   UNL     1      52.726  38.032  44.596  1.00  0.00    -0.003 C 
ATOM     20  C   UNL     1      54.150  38.537  44.815  1.00  0.00     0.004 C 
ENDBRANCH  18  19
ENDBRANCH  17  18
ENDBRANCH  16  17
ENDBRANCH  15  16
ENDBRANCH  14  15
ENDBRANCH  13  14
ENDBRANCH  12  13
ENDBRANCH   1  12
TORSDOF 16
ENDMDL
