MODEL 1
REMARK VINA RESULT:    -4.652      0.000      0.000
REMARK INTER + INTRA:         -10.406
REMARK INTER:                  -8.460
REMARK INTRA:                  -1.946
REMARK UNBOUND:                -1.946
REMARK SMILES CCCCCCCCCCCCCCCC(=O)[O-]
REMARK SMILES IDX 9 1 10 2 11 3 12 4 13 5 14 6 15 7 16 8 17 9 18 10 8 11 7 12
REMARK SMILES IDX 6 13 5 14 4 15 3 16 2 17 1 18
REMARK H PARENT
REMARK Flexibility Score: inf
ROOT
ATOM      1  C   UNL     1      17.405 -31.830  21.957  1.00  0.00     0.000 C 
ENDROOT
BRANCH   1   2
ATOM      2  C   UNL     1      17.199 -30.482  22.666  1.00  0.00     0.000 C 
BRANCH   2   3
ATOM      3  C   UNL     1      16.424 -29.473  21.803  1.00  0.00     0.000 C 
BRANCH   3   4
ATOM      4  C   UNL     1      14.997 -29.220  22.319  1.00  0.00     0.000 C 
BRANCH   4   5
ATOM      5  C   UNL     1      14.591 -30.134  23.495  1.00  0.00     0.000 C 
BRANCH   5   6
ATOM      6  C   UNL     1      13.131 -29.910  23.926  1.00  0.00     0.006 C 
BRANCH   6   7
ATOM      7  C   UNL     1      12.453 -28.793  23.123  1.00  0.00     0.053 C 
BRANCH   7   8
ATOM      8  C   UNL     1      11.996 -27.672  24.007  1.00  0.00     0.041 C 
ATOM      9  O   UNL     1      10.991 -26.984  23.691  1.00  0.00    -0.550 OA
ATOM     10  O   UNL     1      12.704 -27.368  25.164  1.00  0.00    -0.550 OA
ENDBRANCH   7   8
ENDBRANCH   6   7
ENDBRANCH   5   6
ENDBRANCH   4   5
ENDBRANCH   3   4
ENDBRANCH   2   3
ENDBRANCH   1   2
BRANCH   1  11
ATOM     11  C   UNL     1      17.927 -31.672  20.521  1.00  0.00     0.000 C 
BRANCH  11  12
ATOM     12  C   UNL     1      18.349 -33.030  19.940  1.00  0.00    -0.000 C 
BRANCH  12  13
ATOM     13  C   UNL     1      17.829 -34.218  20.764  1.00  0.00    -0.000 C 
BRANCH  13  14
ATOM     14  C   UNL     1      16.805 -35.068  19.994  1.00  0.00    -0.000 C 
BRANCH  14  15
ATOM     15  C   UNL     1      15.362 -34.870  20.494  1.00  0.00    -0.000 C 
BRANCH  15  16
ATOM     16  C   UNL     1      14.631 -33.646  19.911  1.00  0.00    -0.000 C 
BRANCH  16  17
ATOM     17  C   UNL     1      14.126 -32.679  20.991  1.00  0.00    -0.003 C 
ATOM     18  C   UNL     1      13.081 -31.721  20.426  1.00  0.00     0.004 C 
ENDBRANCH  16  17
ENDBRANCH  15  16
ENDBRANCH  14  15
ENDBRANCH  13  14
ENDBRANCH  12  13
ENDBRANCH  11  12
ENDBRANCH   1  11
TORSDOF 14
ENDMDL
MODEL 2
REMARK VINA RESULT:    -4.618      1.145      3.266
REMARK INTER + INTRA:         -10.343
REMARK INTER:                  -8.192
REMARK INTRA:                  -2.151
REMARK UNBOUND:                -1.946
REMARK SMILES CCCCCCCCCCCCCCCC(=O)[O-]
REMARK SMILES IDX 9 1 10 2 11 3 12 4 13 5 14 6 15 7 16 8 17 9 18 10 8 11 7 12
REMARK SMILES IDX 6 13 5 14 4 15 3 16 2 17 1 18
REMARK H PARENT
REMARK Flexibility Score: inf
ROOT
ATOM      1  C   UNL     1      15.207 -34.853  20.713  1.00  0.00     0.000 C 
ENDROOT
BRANCH   1   2
ATOM      2  C   UNL     1      14.640 -33.576  20.073  1.00  0.00     0.000 C 
BRANCH   2   3
ATOM      3  C   UNL     1      14.239 -32.521  21.117  1.00  0.00     0.000 C 
BRANCH   3   4
ATOM      4  C   UNL     1      14.650 -32.911  22.548  1.00  0.00     0.000 C 
BRANCH   4   5
ATOM      5  C   UNL     1      14.360 -31.815  23.596  1.00  0.00     0.000 C 
BRANCH   5   6
ATOM      6  C   UNL     1      13.121 -30.978  23.232  1.00  0.00     0.006 C 
BRANCH   6   7
ATOM      7  C   UNL     1      13.290 -29.499  23.601  1.00  0.00     0.053 C 
BRANCH   7   8
ATOM      8  C   UNL     1      12.003 -28.743  23.463  1.00  0.00     0.041 C 
ATOM      9  O   UNL     1      11.653 -27.920  24.349  1.00  0.00    -0.550 OA
ATOM     10  O   UNL     1      11.175 -28.974  22.371  1.00  0.00    -0.550 OA
ENDBRANCH   7   8
ENDBRANCH   6   7
ENDBRANCH   5   6
ENDBRANCH   4   5
ENDBRANCH   3   4
ENDBRANCH   2   3
ENDBRANCH   1   2
BRANCH   1  11
ATOM     11  C   UNL     1      16.115 -35.644  19.758  1.00  0.00     0.000 C 
BRANCH  11  12
ATOM     12  C   UNL     1      17.590 -35.269  19.971  1.00  0.00    -0.000 C 
BRANCH  12  13
ATOM     13  C   UNL     1      18.058 -34.141  19.037  1.00  0.00    -0.000 C 
BRANCH  13  14
ATOM     14  C   UNL     1      18.550 -32.904  19.806  1.00  0.00    -0.000 C 
BRANCH  14  15
ATOM     15  C   UNL     1      18.179 -32.939  21.300  1.00  0.00    -0.000 C 
BRANCH  15  16
ATOM     16  C   UNL     1      18.041 -31.560  21.972  1.00  0.00    -0.000 C 
BRANCH  16  17
ATOM     17  C   UNL     1      17.392 -30.511  21.058  1.00  0.00    -0.003 C 
ATOM     18  C   UNL     1      16.607 -29.485  21.871  1.00  0.00     0.004 C 
ENDBRANCH  16  17
ENDBRANCH  15  16
ENDBRANCH  14  15
ENDBRANCH  13  14
ENDBRANCH  12  13
ENDBRANCH  11  12
ENDBRANCH   1  11
TORSDOF 14
ENDMDL
MODEL 3
REMARK VINA RESULT:    -4.517      1.845      3.317
REMARK INTER + INTRA:         -10.159
REMARK INTER:                  -7.803
REMARK INTRA:                  -2.356
REMARK UNBOUND:                -1.946
REMARK SMILES CCCCCCCCCCCCCCCC(=O)[O-]
REMARK SMILES IDX 9 1 10 2 11 3 12 4 13 5 14 6 15 7 16 8 17 9 18 10 8 11 7 12
REMARK SMILES IDX 6 13 5 14 4 15 3 16 2 17 1 18
REMARK H PARENT
REMARK Flexibility Score: inf
ROOT
ATOM      1  C   UNL     1      17.664 -33.261  19.277  1.00  0.00     0.000 C 
ENDROOT
BRANCH   1   2
ATOM      2  C   UNL     1      18.440 -32.671  20.465  1.00  0.00     0.000 C 
BRANCH   2   3
ATOM      3  C   UNL     1      18.196 -31.163  20.639  1.00  0.00     0.000 C 
BRANCH   3   4
ATOM      4  C   UNL     1      17.335 -30.836  21.872  1.00  0.00     0.000 C 
BRANCH   4   5
ATOM      5  C   UNL     1      16.532 -29.524  21.737  1.00  0.00     0.000 C 
BRANCH   5   6
ATOM      6  C   UNL     1      15.026 -29.783  21.560  1.00  0.00     0.006 C 
BRANCH   6   7
ATOM      7  C   UNL     1      14.249 -29.620  22.873  1.00  0.00     0.053 C 
BRANCH   7   8
ATOM      8  C   UNL     1      12.779 -29.836  22.679  1.00  0.00     0.041 C 
ATOM      9  O   UNL     1      12.340 -30.977  22.377  1.00  0.00    -0.550 OA
ATOM     10  O   UNL     1      11.898 -28.768  22.798  1.00  0.00    -0.550 OA
ENDBRANCH   7   8
ENDBRANCH   6   7
ENDBRANCH   5   6
ENDBRANCH   4   5
ENDBRANCH   3   4
ENDBRANCH   2   3
ENDBRANCH   1   2
BRANCH   1  11
ATOM     11  C   UNL     1      17.457 -34.779  19.398  1.00  0.00     0.000 C 
BRANCH  11  12
ATOM     12  C   UNL     1      16.006 -35.105  19.784  1.00  0.00    -0.000 C 
BRANCH  12  13
ATOM     13  C   UNL     1      15.050 -33.922  19.558  1.00  0.00    -0.000 C 
BRANCH  13  14
ATOM     14  C   UNL     1      14.539 -33.316  20.875  1.00  0.00    -0.000 C 
BRANCH  14  15
ATOM     15  C   UNL     1      15.167 -33.970  22.120  1.00  0.00    -0.000 C 
BRANCH  15  16
ATOM     16  C   UNL     1      15.040 -33.155  23.421  1.00  0.00    -0.000 C 
BRANCH  16  17
ATOM     17  C   UNL     1      16.260 -33.301  24.341  1.00  0.00    -0.003 C 
ATOM     18  C   UNL     1      17.276 -34.277  23.756  1.00  0.00     0.004 C 
ENDBRANCH  16  17
ENDBRANCH  15  16
ENDBRANCH  14  15
ENDBRANCH  13  14
ENDBRANCH  12  13
ENDBRANCH  11  12
ENDBRANCH   1  11
TORSDOF 14
ENDMDL
MODEL 4
REMARK VINA RESULT:    -4.486      2.392      3.856
REMARK INTER + INTRA:         -10.104
REMARK INTER:                  -7.989
REMARK INTRA:                  -2.115
REMARK UNBOUND:                -1.946
REMARK SMILES CCCCCCCCCCCCCCCC(=O)[O-]
REMARK SMILES IDX 9 1 10 2 11 3 12 4 13 5 14 6 15 7 16 8 17 9 18 10 8 11 7 12
REMARK SMILES IDX 6 13 5 14 4 15 3 16 2 17 1 18
REMARK H PARENT
REMARK Flexibility Score: inf
ROOT
ATOM      1  C   UNL     1      15.371 -34.618  20.079  1.00  0.00     0.000 C 
ENDROOT
BRANCH   1   2
ATOM      2  C   UNL     1      15.473 -33.896  21.432  1.00  0.00     0.000 C 
BRANCH   2   3
ATOM      3  C   UNL     1      15.872 -32.419  21.284  1.00  0.00     0.000 C 
BRANCH   3   4
ATOM      4  C   UNL     1      15.869 -31.663  22.625  1.00  0.00     0.000 C 
BRANCH   4   5
ATOM      5  C   UNL     1      14.996 -32.329  23.710  1.00  0.00     0.000 C 
BRANCH   5   6
ATOM      6  C   UNL     1      13.541 -31.831  23.669  1.00  0.00     0.006 C 
BRANCH   6   7
ATOM      7  C   UNL     1      13.405 -30.493  22.931  1.00  0.00     0.053 C 
BRANCH   7   8
ATOM      8  C   UNL     1      12.394 -30.569  21.827  1.00  0.00     0.041 C 
ATOM      9  O   UNL     1      11.300 -29.954  21.926  1.00  0.00    -0.550 OA
ATOM     10  O   UNL     1      12.648 -31.347  20.704  1.00  0.00    -0.550 OA
ENDBRANCH   7   8
ENDBRANCH   6   7
ENDBRANCH   5   6
ENDBRANCH   4   5
ENDBRANCH   3   4
ENDBRANCH   2   3
ENDBRANCH   1   2
BRANCH   1  11
ATOM     11  C   UNL     1      16.514 -34.248  19.121  1.00  0.00     0.000 C 
BRANCH  11  12
ATOM     12  C   UNL     1      17.670 -35.254  19.233  1.00  0.00    -0.000 C 
BRANCH  12  13
ATOM     13  C   UNL     1      17.191 -36.674  19.577  1.00  0.00    -0.000 C 
BRANCH  13  14
ATOM     14  C   UNL     1      17.959 -37.285  20.761  1.00  0.00    -0.000 C 
BRANCH  14  15
ATOM     15  C   UNL     1      18.758 -36.241  21.561  1.00  0.00    -0.000 C 
BRANCH  15  16
ATOM     16  C   UNL     1      18.086 -35.758  22.860  1.00  0.00    -0.000 C 
BRANCH  16  17
ATOM     17  C   UNL     1      18.752 -34.507  23.451  1.00  0.00    -0.003 C 
ATOM     18  C   UNL     1      19.205 -33.554  22.349  1.00  0.00     0.004 C 
ENDBRANCH  16  17
ENDBRANCH  15  16
ENDBRANCH  14  15
ENDBRANCH  13  14
ENDBRANCH  12  13
ENDBRANCH  11  12
ENDBRANCH   1  11
TORSDOF 14
ENDMDL
MODEL 5
REMARK VINA RESULT:    -4.477      4.337      6.989
REMARK INTER + INTRA:         -10.087
REMARK INTER:                  -8.054
REMARK INTRA:                  -2.034
REMARK UNBOUND:                -1.946
REMARK SMILES CCCCCCCCCCCCCCCC(=O)[O-]
REMARK SMILES IDX 9 1 10 2 11 3 12 4 13 5 14 6 15 7 16 8 17 9 18 10 8 11 7 12
REMARK SMILES IDX 6 13 5 14 4 15 3 16 2 17 1 18
REMARK H PARENT
REMARK Flexibility Score: inf
ROOT
ATOM      1  C   UNL     1      18.047 -32.806  20.035  1.00  0.00     0.000 C 
ENDROOT
BRANCH   1   2
ATOM      2  C   UNL     1      17.532 -33.868  19.049  1.00  0.00     0.000 C 
BRANCH   2   3
ATOM      3  C   UNL     1      16.110 -34.345  19.386  1.00  0.00     0.000 C 
BRANCH   3   4
ATOM      4  C   UNL     1      16.065 -35.818  19.829  1.00  0.00     0.000 C 
BRANCH   4   5
ATOM      5  C   UNL     1      17.369 -36.593  19.540  1.00  0.00     0.000 C 
BRANCH   5   6
ATOM      6  C   UNL     1      17.943 -37.252  20.806  1.00  0.00     0.006 C 
BRANCH   6   7
ATOM      7  C   UNL     1      18.786 -36.277  21.638  1.00  0.00     0.053 C 
BRANCH   7   8
ATOM      8  C   UNL     1      19.030 -36.797  23.023  1.00  0.00     0.041 C 
ATOM      9  O   UNL     1      18.379 -36.338  23.997  1.00  0.00    -0.550 OA
ATOM     10  O   UNL     1      20.002 -37.767  23.239  1.00  0.00    -0.550 OA
ENDBRANCH   7   8
ENDBRANCH   6   7
ENDBRANCH   5   6
ENDBRANCH   4   5
ENDBRANCH   3   4
ENDBRANCH   2   3
ENDBRANCH   1   2
BRANCH   1  11
ATOM     11  C   UNL     1      17.002 -32.424  21.095  1.00  0.00     0.000 C 
BRANCH  11  12
ATOM     12  C   UNL     1      17.447 -32.883  22.492  1.00  0.00    -0.000 C 
BRANCH  12  13
ATOM     13  C   UNL     1      16.334 -33.613  23.261  1.00  0.00    -0.000 C 
BRANCH  13  14
ATOM     14  C   UNL     1      14.931 -33.274  22.733  1.00  0.00    -0.000 C 
BRANCH  14  15
ATOM     15  C   UNL     1      14.135 -32.363  23.685  1.00  0.00    -0.000 C 
BRANCH  15  16
ATOM     16  C   UNL     1      13.958 -30.910  23.205  1.00  0.00    -0.000 C 
BRANCH  16  17
ATOM     17  C   UNL     1      13.464 -30.815  21.754  1.00  0.00    -0.003 C 
ATOM     18  C   UNL     1      11.959 -30.567  21.701  1.00  0.00     0.004 C 
ENDBRANCH  16  17
ENDBRANCH  15  16
ENDBRANCH  14  15
ENDBRANCH  13  14
ENDBRANCH  12  13
ENDBRANCH  11  12
ENDBRANCH   1  11
TORSDOF 14
ENDMDL
MODEL 6
REMARK VINA RESULT:    -4.471      2.095      3.625
REMARK INTER + INTRA:         -10.077
REMARK INTER:                  -7.618
REMARK INTRA:                  -2.459
REMARK UNBOUND:                -1.946
REMARK SMILES CCCCCCCCCCCCCCCC(=O)[O-]
REMARK SMILES IDX 9 1 10 2 11 3 12 4 13 5 14 6 15 7 16 8 17 9 18 10 8 11 7 12
REMARK SMILES IDX 6 13 5 14 4 15 3 16 2 17 1 18
REMARK H PARENT
REMARK Flexibility Score: inf
ROOT
ATOM      1  C   UNL     1      17.619 -32.159  20.667  1.00  0.00     0.000 C 
ENDROOT
BRANCH   1   2
ATOM      2  C   UNL     1      18.225 -32.125  22.080  1.00  0.00     0.000 C 
BRANCH   2   3
ATOM      3  C   UNL     1      17.152 -32.062  23.179  1.00  0.00     0.000 C 
BRANCH   3   4
ATOM      4  C   UNL     1      16.325 -33.355  23.281  1.00  0.00     0.000 C 
BRANCH   4   5
ATOM      5  C   UNL     1      14.817 -33.110  23.508  1.00  0.00     0.000 C 
BRANCH   5   6
ATOM      6  C   UNL     1      14.177 -32.326  22.349  1.00  0.00     0.006 C 
BRANCH   6   7
ATOM      7  C   UNL     1      13.442 -31.069  22.832  1.00  0.00     0.053 C 
BRANCH   7   8
ATOM      8  C   UNL     1      14.081 -29.818  22.311  1.00  0.00     0.041 C 
ATOM      9  O   UNL     1      14.904 -29.875  21.359  1.00  0.00    -0.550 OA
ATOM     10  O   UNL     1      13.792 -28.593  22.900  1.00  0.00    -0.550 OA
ENDBRANCH   7   8
ENDBRANCH   6   7
ENDBRANCH   5   6
ENDBRANCH   4   5
ENDBRANCH   3   4
ENDBRANCH   2   3
ENDBRANCH   1   2
BRANCH   1  11
ATOM     11  C   UNL     1      18.254 -33.237  19.775  1.00  0.00     0.000 C 
BRANCH  11  12
ATOM     12  C   UNL     1      17.211 -33.842  18.822  1.00  0.00    -0.000 C 
BRANCH  12  13
ATOM     13  C   UNL     1      15.856 -34.091  19.503  1.00  0.00    -0.000 C 
BRANCH  13  14
ATOM     14  C   UNL     1      15.811 -35.430  20.258  1.00  0.00    -0.000 C 
BRANCH  14  15
ATOM     15  C   UNL     1      16.679 -36.519  19.601  1.00  0.00    -0.000 C 
BRANCH  15  16
ATOM     16  C   UNL     1      17.837 -37.045  20.470  1.00  0.00    -0.000 C 
BRANCH  16  17
ATOM     17  C   UNL     1      18.000 -36.269  21.785  1.00  0.00    -0.003 C 
ATOM     18  C   UNL     1      19.439 -35.796  21.969  1.00  0.00     0.004 C 
ENDBRANCH  16  17
ENDBRANCH  15  16
ENDBRANCH  14  15
ENDBRANCH  13  14
ENDBRANCH  12  13
ENDBRANCH  11  12
ENDBRANCH   1  11
TORSDOF 14
ENDMDL
MODEL 7
REMARK VINA RESULT:    -4.465      1.474      3.773
REMARK INTER + INTRA:         -10.066
REMARK INTER:                  -7.832
REMARK INTRA:                  -2.234
REMARK UNBOUND:                -1.946
REMARK SMILES CCCCCCCCCCCCCCCC(=O)[O-]
REMARK SMILES IDX 9 1 10 2 11 3 12 4 13 5 14 6 15 7 16 8 17 9 18 10 8 11 7 12
REMARK SMILES IDX 6 13 5 14 4 15 3 16 2 17 1 18
REMARK H PARENT
REMARK Flexibility Score: inf
ROOT
ATOM      1  C   UNL     1      16.821 -34.918  19.813  1.00  0.00     0.000 C 
ENDROOT
BRANCH   1   2
ATOM      2  C   UNL     1      15.342 -34.953  20.233  1.00  0.00     0.000 C 
BRANCH   2   3
ATOM      3  C   UNL     1      14.600 -33.651  19.890  1.00  0.00     0.000 C 
BRANCH   3   4
ATOM      4  C   UNL     1      14.205 -32.843  21.138  1.00  0.00     0.000 C 
BRANCH   4   5
ATOM      5  C   UNL     1      13.410 -31.558  20.819  1.00  0.00     0.000 C 
BRANCH   5   6
ATOM      6  C   UNL     1      12.647 -31.030  22.046  1.00  0.00     0.006 C 
BRANCH   6   7
ATOM      7  C   UNL     1      13.581 -30.390  23.081  1.00  0.00     0.053 C 
BRANCH   7   8
ATOM      8  C   UNL     1      13.763 -28.923  22.833  1.00  0.00     0.041 C 
ATOM      9  O   UNL     1      12.966 -28.091  23.339  1.00  0.00    -0.550 OA
ATOM     10  O   UNL     1      14.795 -28.480  22.014  1.00  0.00    -0.550 OA
ENDBRANCH   7   8
ENDBRANCH   6   7
ENDBRANCH   5   6
ENDBRANCH   4   5
ENDBRANCH   3   4
ENDBRANCH   2   3
ENDBRANCH   1   2
BRANCH   1  11
ATOM     11  C   UNL     1      17.780 -35.017  21.009  1.00  0.00     0.000 C 
BRANCH  11  12
ATOM     12  C   UNL     1      18.678 -33.774  21.094  1.00  0.00    -0.000 C 
BRANCH  12  13
ATOM     13  C   UNL     1      18.260 -32.669  20.111  1.00  0.00    -0.000 C 
BRANCH  13  14
ATOM     14  C   UNL     1      18.227 -31.278  20.766  1.00  0.00    -0.000 C 
BRANCH  14  15
ATOM     15  C   UNL     1      17.035 -31.093  21.722  1.00  0.00    -0.000 C 
BRANCH  15  16
ATOM     16  C   UNL     1      17.401 -30.611  23.139  1.00  0.00    -0.000 C 
BRANCH  16  17
ATOM     17  C   UNL     1      17.534 -31.761  24.147  1.00  0.00    -0.003 C 
ATOM     18  C   UNL     1      16.455 -32.817  23.921  1.00  0.00     0.004 C 
ENDBRANCH  16  17
ENDBRANCH  15  16
ENDBRANCH  14  15
ENDBRANCH  13  14
ENDBRANCH  12  13
ENDBRANCH  11  12
ENDBRANCH   1  11
TORSDOF 14
ENDMDL
MODEL 8
REMARK VINA RESULT:    -4.451      1.649      4.128
REMARK INTER + INTRA:         -10.040
REMARK INTER:                  -7.688
REMARK INTRA:                  -2.352
REMARK UNBOUND:                -1.946
REMARK SMILES CCCCCCCCCCCCCCCC(=O)[O-]
REMARK SMILES IDX 9 1 10 2 11 3 12 4 13 5 14 6 15 7 16 8 17 9 18 10 8 11 7 12
REMARK SMILES IDX 6 13 5 14 4 15 3 16 2 17 1 18
REMARK H PARENT
REMARK Flexibility Score: inf
ROOT
ATOM      1  C   UNL     1      17.976 -35.396  20.038  1.00  0.00     0.000 C 
ENDROOT
BRANCH   1   2
ATOM      2  C   UNL     1      16.805 -34.788  19.249  1.00  0.00     0.000 C 
BRANCH   2   3
ATOM      3  C   UNL     1      15.458 -34.949  19.973  1.00  0.00     0.000 C 
BRANCH   3   4
ATOM      4  C   UNL     1      14.589 -33.682  19.905  1.00  0.00     0.000 C 
BRANCH   4   5
ATOM      5  C   UNL     1      14.487 -32.928  21.249  1.00  0.00     0.000 C 
BRANCH   5   6
ATOM      6  C   UNL     1      13.513 -31.739  21.173  1.00  0.00     0.006 C 
BRANCH   6   7
ATOM      7  C   UNL     1      13.095 -31.240  22.562  1.00  0.00     0.053 C 
BRANCH   7   8
ATOM      8  C   UNL     1      12.843 -29.762  22.568  1.00  0.00     0.041 C 
ATOM      9  O   UNL     1      13.802 -28.955  22.685  1.00  0.00    -0.550 OA
ATOM     10  O   UNL     1      11.543 -29.279  22.477  1.00  0.00    -0.550 OA
ENDBRANCH   7   8
ENDBRANCH   6   7
ENDBRANCH   5   6
ENDBRANCH   4   5
ENDBRANCH   3   4
ENDBRANCH   2   3
ENDBRANCH   1   2
BRANCH   1  11
ATOM     11  C   UNL     1      17.619 -35.677  21.507  1.00  0.00     0.000 C 
BRANCH  11  12
ATOM     12  C   UNL     1      18.061 -34.514  22.408  1.00  0.00    -0.000 C 
BRANCH  12  13
ATOM     13  C   UNL     1      17.228 -34.409  23.696  1.00  0.00    -0.000 C 
BRANCH  13  14
ATOM     14  C   UNL     1      16.784 -32.967  23.996  1.00  0.00    -0.000 C 
BRANCH  14  15
ATOM     15  C   UNL     1      17.629 -31.913  23.257  1.00  0.00    -0.000 C 
BRANCH  15  16
ATOM     16  C   UNL     1      16.876 -30.626  22.872  1.00  0.00    -0.000 C 
BRANCH  16  17
ATOM     17  C   UNL     1      17.109 -30.208  21.413  1.00  0.00    -0.003 C 
ATOM     18  C   UNL     1      17.760 -31.336  20.616  1.00  0.00     0.004 C 
ENDBRANCH  16  17
ENDBRANCH  15  16
ENDBRANCH  14  15
ENDBRANCH  13  14
ENDBRANCH  12  13
ENDBRANCH  11  12
ENDBRANCH   1  11
TORSDOF 14
ENDMDL
MODEL 9
REMARK VINA RESULT:    -4.448      1.792      3.053
REMARK INTER + INTRA:         -10.035
REMARK INTER:                  -7.642
REMARK INTRA:                  -2.393
REMARK UNBOUND:                -1.946
REMARK SMILES CCCCCCCCCCCCCCCC(=O)[O-]
REMARK SMILES IDX 9 1 10 2 11 3 12 4 13 5 14 6 15 7 16 8 17 9 18 10 8 11 7 12
REMARK SMILES IDX 6 13 5 14 4 15 3 16 2 17 1 18
REMARK H PARENT
REMARK Flexibility Score: inf
ROOT
ATOM      1  C   UNL     1      18.155 -33.898  23.895  1.00  0.00     0.000 C 
ENDROOT
BRANCH   1   2
ATOM      2  C   UNL     1      17.040 -32.927  24.317  1.00  0.00     0.000 C 
BRANCH   2   3
ATOM      3  C   UNL     1      15.644 -33.569  24.252  1.00  0.00     0.000 C 
BRANCH   3   4
ATOM      4  C   UNL     1      14.690 -32.826  23.299  1.00  0.00     0.000 C 
BRANCH   4   5
ATOM      5  C   UNL     1      13.808 -31.773  24.003  1.00  0.00     0.000 C 
BRANCH   5   6
ATOM      6  C   UNL     1      13.239 -30.740  23.015  1.00  0.00     0.006 C 
BRANCH   6   7
ATOM      7  C   UNL     1      13.610 -29.302  23.398  1.00  0.00     0.053 C 
BRANCH   7   8
ATOM      8  C   UNL     1      12.398 -28.488  23.738  1.00  0.00     0.041 C 
ATOM      9  O   UNL     1      12.400 -27.740  24.750  1.00  0.00    -0.550 OA
ATOM     10  O   UNL     1      11.256 -28.582  22.952  1.00  0.00    -0.550 OA
ENDBRANCH   7   8
ENDBRANCH   6   7
ENDBRANCH   5   6
ENDBRANCH   4   5
ENDBRANCH   3   4
ENDBRANCH   2   3
ENDBRANCH   1   2
BRANCH   1  11
ATOM     11  C   UNL     1      17.610 -35.214  23.318  1.00  0.00     0.000 C 
BRANCH  11  12
ATOM     12  C   UNL     1      17.884 -35.306  21.809  1.00  0.00    -0.000 C 
BRANCH  12  13
ATOM     13  C   UNL     1      16.624 -35.072  20.960  1.00  0.00    -0.000 C 
BRANCH  13  14
ATOM     14  C   UNL     1      16.642 -33.715  20.238  1.00  0.00    -0.000 C 
BRANCH  14  15
ATOM     15  C   UNL     1      18.055 -33.115  20.122  1.00  0.00    -0.000 C 
BRANCH  15  16
ATOM     16  C   UNL     1      18.219 -31.706  20.723  1.00  0.00    -0.000 C 
BRANCH  16  17
ATOM     17  C   UNL     1      16.878 -31.033  21.046  1.00  0.00    -0.003 C 
ATOM     18  C   UNL     1      17.036 -29.998  22.157  1.00  0.00     0.004 C 
ENDBRANCH  16  17
ENDBRANCH  15  16
ENDBRANCH  14  15
ENDBRANCH  13  14
ENDBRANCH  12  13
ENDBRANCH  11  12
ENDBRANCH   1  11
TORSDOF 14
ENDMDL
