MODEL 1
REMARK VINA RESULT:    -4.658      0.000      0.000
REMARK INTER + INTRA:          -4.658
REMARK INTER:                  -4.658
REMARK INTRA:                   0.000
REMARK UNBOUND:                 0.000
REMARK SMILES C=C1CC[C@@H]2C[C@H]1C2(C)C
REMARK SMILES IDX 9 1 8 2 5 3 4 4 3 5 2 6 1 7 7 8 6 9 10 10
REMARK H PARENT
REMARK Flexibility Score: inf
ROOT
ATOM      1  C   UNL     1     180.393 180.222 177.523  1.00  0.00     0.012 C 
ATOM      2  C   UNL     1     179.897 180.823 176.179  1.00  0.00    -0.026 C 
ATOM      3  C   UNL     1     180.234 180.079 174.862  1.00  0.00    -0.004 C 
ATOM      4  C   UNL     1     181.657 179.439 174.927  1.00  0.00     0.008 C 
ATOM      5  C   UNL     1     182.764 180.469 175.373  1.00  0.00     0.031 C 
ATOM      6  C   UNL     1     182.167 181.817 175.804  1.00  0.00    -0.074 C 
ATOM      7  C   UNL     1     182.928 182.774 176.347  1.00  0.00     0.008 C 
ATOM      8  C   UNL     1     180.673 182.019 175.579  1.00  0.00     0.021 C 
ATOM      9  C   UNL     1     180.401 181.446 174.179  1.00  0.00     0.012 C 
ATOM     10  C   UNL     1     178.382 181.118 176.306  1.00  0.00     0.012 C 
ENDROOT
TORSDOF 0
ENDMDL
MODEL 2
REMARK VINA RESULT:    -4.652      1.013      3.077
REMARK INTER + INTRA:          -4.652
REMARK INTER:                  -4.652
REMARK INTRA:                   0.000
REMARK UNBOUND:                 0.000
REMARK SMILES C=C1CC[C@@H]2C[C@H]1C2(C)C
REMARK SMILES IDX 9 1 8 2 5 3 4 4 3 5 2 6 1 7 7 8 6 9 10 10
REMARK H PARENT
REMARK Flexibility Score: inf
ROOT
ATOM      1  C   UNL     1     182.960 180.326 175.154  1.00  0.00     0.012 C 
ATOM      2  C   UNL     1     181.900 181.331 175.683  1.00  0.00    -0.026 C 
ATOM      3  C   UNL     1     180.832 180.826 176.686  1.00  0.00    -0.004 C 
ATOM      4  C   UNL     1     180.392 179.366 176.349  1.00  0.00     0.008 C 
ATOM      5  C   UNL     1     179.973 179.193 174.839  1.00  0.00     0.031 C 
ATOM      6  C   UNL     1     180.255 180.453 174.007  1.00  0.00    -0.074 C 
ATOM      7  C   UNL     1     180.101 180.460 172.679  1.00  0.00     0.008 C 
ATOM      8  C   UNL     1     180.712 181.696 174.763  1.00  0.00     0.021 C 
ATOM      9  C   UNL     1     179.813 181.757 176.008  1.00  0.00     0.012 C 
ATOM     10  C   UNL     1     182.638 182.588 176.206  1.00  0.00     0.012 C 
ENDROOT
TORSDOF 0
ENDMDL
MODEL 3
REMARK VINA RESULT:    -4.609      9.120     10.744
REMARK INTER + INTRA:          -4.609
REMARK INTER:                  -4.609
REMARK INTRA:                   0.000
REMARK UNBOUND:                 0.000
REMARK SMILES C=C1CC[C@@H]2C[C@H]1C2(C)C
REMARK SMILES IDX 9 1 8 2 5 3 4 4 3 5 2 6 1 7 7 8 6 9 10 10
REMARK H PARENT
REMARK Flexibility Score: inf
ROOT
ATOM      1  C   UNL     1     171.634 174.256 175.078  1.00  0.00     0.012 C 
ATOM      2  C   UNL     1     172.621 173.190 175.629  1.00  0.00    -0.026 C 
ATOM      3  C   UNL     1     173.731 173.642 176.612  1.00  0.00    -0.004 C 
ATOM      4  C   UNL     1     174.274 175.057 176.233  1.00  0.00     0.008 C 
ATOM      5  C   UNL     1     174.693 175.159 174.717  1.00  0.00     0.031 C 
ATOM      6  C   UNL     1     174.314 173.901 173.921  1.00  0.00    -0.074 C 
ATOM      7  C   UNL     1     174.458 173.847 172.593  1.00  0.00     0.008 C 
ATOM      8  C   UNL     1     173.773 172.715 174.713  1.00  0.00     0.021 C 
ATOM      9  C   UNL     1     174.675 172.622 175.955  1.00  0.00     0.012 C 
ATOM     10  C   UNL     1     171.798 172.005 176.191  1.00  0.00     0.012 C 
ENDROOT
TORSDOF 0
ENDMDL
MODEL 4
REMARK VINA RESULT:    -4.600      6.151      7.753
REMARK INTER + INTRA:          -4.600
REMARK INTER:                  -4.600
REMARK INTRA:                   0.000
REMARK UNBOUND:                 0.000
REMARK SMILES C=C1CC[C@@H]2C[C@H]1C2(C)C
REMARK SMILES IDX 9 1 8 2 5 3 4 4 3 5 2 6 1 7 7 8 6 9 10 10
REMARK H PARENT
REMARK Flexibility Score: inf
ROOT
ATOM      1  C   UNL     1     174.217 182.835 175.085  1.00  0.00     0.012 C 
ATOM      2  C   UNL     1     173.165 181.822 175.614  1.00  0.00    -0.026 C 
ATOM      3  C   UNL     1     173.625 180.720 176.603  1.00  0.00    -0.004 C 
ATOM      4  C   UNL     1     175.059 180.211 176.249  1.00  0.00     0.008 C 
ATOM      5  C   UNL     1     175.197 179.798 174.734  1.00  0.00     0.031 C 
ATOM      6  C   UNL     1     173.945 180.151 173.916  1.00  0.00    -0.074 C 
ATOM      7  C   UNL     1     173.919 180.009 172.587  1.00  0.00     0.008 C 
ATOM      8  C   UNL     1     172.733 180.661 174.687  1.00  0.00     0.021 C 
ATOM      9  C   UNL     1     172.638 179.755 175.925  1.00  0.00     0.012 C 
ATOM     10  C   UNL     1     171.951 182.616 176.156  1.00  0.00     0.012 C 
ENDROOT
TORSDOF 0
ENDMDL
MODEL 5
REMARK VINA RESULT:    -4.579      6.591      8.085
REMARK INTER + INTRA:          -4.579
REMARK INTER:                  -4.579
REMARK INTRA:                   0.000
REMARK UNBOUND:                 0.000
REMARK SMILES C=C1CC[C@@H]2C[C@H]1C2(C)C
REMARK SMILES IDX 9 1 8 2 5 3 4 4 3 5 2 6 1 7 7 8 6 9 10 10
REMARK H PARENT
REMARK Flexibility Score: inf
ROOT
ATOM      1  C   UNL     1     180.283 171.565 175.098  1.00  0.00     0.012 C 
ATOM      2  C   UNL     1     181.288 172.602 175.669  1.00  0.00    -0.026 C 
ATOM      3  C   UNL     1     180.766 173.684 176.649  1.00  0.00    -0.004 C 
ATOM      4  C   UNL     1     179.332 174.157 176.249  1.00  0.00     0.008 C 
ATOM      5  C   UNL     1     179.234 174.577 174.733  1.00  0.00     0.031 C 
ATOM      6  C   UNL     1     180.522 174.264 173.956  1.00  0.00    -0.074 C 
ATOM      7  C   UNL     1     180.590 174.417 172.630  1.00  0.00     0.008 C 
ATOM      8  C   UNL     1     181.721 173.780 174.766  1.00  0.00     0.021 C 
ATOM      9  C   UNL     1     181.748 174.680 176.012  1.00  0.00     0.012 C 
ATOM     10  C   UNL     1     182.504 171.837 176.248  1.00  0.00     0.012 C 
ENDROOT
TORSDOF 0
ENDMDL
MODEL 6
REMARK VINA RESULT:    -4.573      9.323     11.112
REMARK INTER + INTRA:          -4.573
REMARK INTER:                  -4.573
REMARK INTRA:                   0.000
REMARK UNBOUND:                 0.000
REMARK SMILES C=C1CC[C@@H]2C[C@H]1C2(C)C
REMARK SMILES IDX 9 1 8 2 5 3 4 4 3 5 2 6 1 7 7 8 6 9 10 10
REMARK H PARENT
REMARK Flexibility Score: inf
ROOT
ATOM      1  C   UNL     1     174.047 174.186 177.542  1.00  0.00     0.012 C 
ATOM      2  C   UNL     1     174.576 173.608 176.200  1.00  0.00    -0.026 C 
ATOM      3  C   UNL     1     174.286 174.384 174.890  1.00  0.00    -0.004 C 
ATOM      4  C   UNL     1     172.868 175.040 174.929  1.00  0.00     0.008 C 
ATOM      5  C   UNL     1     171.737 174.014 175.320  1.00  0.00     0.031 C 
ATOM      6  C   UNL     1     172.306 172.649 175.738  1.00  0.00    -0.074 C 
ATOM      7  C   UNL     1     171.520 171.690 176.238  1.00  0.00     0.008 C 
ATOM      8  C   UNL     1     173.804 172.435 175.552  1.00  0.00     0.021 C 
ATOM      9  C   UNL     1     174.123 173.034 174.173  1.00  0.00     0.012 C 
ATOM     10  C   UNL     1     176.083 173.293 176.364  1.00  0.00     0.012 C 
ENDROOT
TORSDOF 0
ENDMDL
MODEL 7
REMARK VINA RESULT:    -4.550      6.236      7.811
REMARK INTER + INTRA:          -4.550
REMARK INTER:                  -4.550
REMARK INTRA:                   0.000
REMARK UNBOUND:                 0.000
REMARK SMILES C=C1CC[C@@H]2C[C@H]1C2(C)C
REMARK SMILES IDX 9 1 8 2 5 3 4 4 3 5 2 6 1 7 7 8 6 9 10 10
REMARK H PARENT
REMARK Flexibility Score: inf
ROOT
ATOM      1  C   UNL     1     174.282 180.384 177.519  1.00  0.00     0.012 C 
ATOM      2  C   UNL     1     173.699 179.834 176.188  1.00  0.00    -0.026 C 
ATOM      3  C   UNL     1     174.455 180.127 174.867  1.00  0.00    -0.004 C 
ATOM      4  C   UNL     1     175.086 181.556 174.887  1.00  0.00     0.008 C 
ATOM      5  C   UNL     1     174.044 182.672 175.280  1.00  0.00     0.031 C 
ATOM      6  C   UNL     1     172.695 182.083 175.718  1.00  0.00    -0.074 C 
ATOM      7  C   UNL     1     171.728 182.856 176.222  1.00  0.00     0.008 C 
ATOM      8  C   UNL     1     172.505 180.580 175.547  1.00  0.00     0.021 C 
ATOM      9  C   UNL     1     173.094 180.260 174.164  1.00  0.00     0.012 C 
ATOM     10  C   UNL     1     173.412 178.323 176.368  1.00  0.00     0.012 C 
ENDROOT
TORSDOF 0
ENDMDL
MODEL 8
REMARK VINA RESULT:    -4.265      8.525     10.158
REMARK INTER + INTRA:          -4.265
REMARK INTER:                  -4.265
REMARK INTRA:                   0.000
REMARK UNBOUND:                 0.000
REMARK SMILES C=C1CC[C@@H]2C[C@H]1C2(C)C
REMARK SMILES IDX 9 1 8 2 5 3 4 4 3 5 2 6 1 7 7 8 6 9 10 10
REMARK H PARENT
REMARK Flexibility Score: inf
ROOT
ATOM      1  C   UNL     1     175.520 175.056 174.415  1.00  0.00     0.012 C 
ATOM      2  C   UNL     1     174.484 173.899 174.452  1.00  0.00    -0.026 C 
ATOM      3  C   UNL     1     173.115 174.147 175.134  1.00  0.00    -0.004 C 
ATOM      4  C   UNL     1     173.271 175.067 176.387  1.00  0.00     0.008 C 
ATOM      5  C   UNL     1     174.387 174.557 177.377  1.00  0.00     0.031 C 
ATOM      6  C   UNL     1     175.180 173.373 176.802  1.00  0.00    -0.074 C 
ATOM      7  C   UNL     1     176.258 172.888 177.427  1.00  0.00     0.008 C 
ATOM      8  C   UNL     1     174.679 172.772 175.493  1.00  0.00     0.021 C 
ATOM      9  C   UNL     1     173.152 172.699 175.648  1.00  0.00     0.012 C 
ATOM     10  C   UNL     1     174.322 173.341 173.016  1.00  0.00     0.012 C 
ENDROOT
TORSDOF 0
ENDMDL
MODEL 9
REMARK VINA RESULT:    -4.265      5.481      7.100
REMARK INTER + INTRA:          -4.265
REMARK INTER:                  -4.265
REMARK INTRA:                   0.000
REMARK UNBOUND:                 0.000
REMARK SMILES C=C1CC[C@@H]2C[C@H]1C2(C)C
REMARK SMILES IDX 9 1 8 2 5 3 4 4 3 5 2 6 1 7 7 8 6 9 10 10
REMARK H PARENT
REMARK Flexibility Score: inf
ROOT
ATOM      1  C   UNL     1     179.398 175.530 174.420  1.00  0.00     0.012 C 
ATOM      2  C   UNL     1     180.546 174.483 174.427  1.00  0.00    -0.026 C 
ATOM      3  C   UNL     1     180.297 173.111 175.103  1.00  0.00    -0.004 C 
ATOM      4  C   UNL     1     179.403 173.266 176.375  1.00  0.00     0.008 C 
ATOM      5  C   UNL     1     179.941 174.369 177.363  1.00  0.00     0.031 C 
ATOM      6  C   UNL     1     181.122 175.156 176.773  1.00  0.00    -0.074 C 
ATOM      7  C   UNL     1     181.629 176.224 177.397  1.00  0.00     0.008 C 
ATOM      8  C   UNL     1     181.693 174.660 175.449  1.00  0.00     0.021 C 
ATOM      9  C   UNL     1     181.755 173.131 175.590  1.00  0.00     0.012 C 
ATOM     10  C   UNL     1     181.075 174.328 172.980  1.00  0.00     0.012 C 
ENDROOT
TORSDOF 0
ENDMDL
