MODEL 1
REMARK VINA RESULT:    46.969      0.000      0.000
REMARK INTER + INTRA:          62.483
REMARK INTER:                  62.070
REMARK INTRA:                   0.413
REMARK UNBOUND:                 0.413
REMARK SMILES CC[C@H](C=C[C@@H](C)[C@H]1CC[C@@H]2[C@@H]3CC=C4C[C@@H](O)CC[C@@]4(C)[C@@H]3CC[C@@]21C)C(C)C
REMARK SMILES IDX 6 1 7 2 5 3 4 4 3 5 2 6 1 7 28 8 29 9 30 10 8 11 9 12 26 13
REMARK SMILES IDX 10 14 11 15 25 16 27 17 12 18 24 19 23 20 13 21 21 22 14 23
REMARK SMILES IDX 15 24 20 25 22 26 16 27 19 28 17 29 18 30
REMARK H PARENT 18 31
REMARK Flexibility Score: inf
ROOT
ATOM      1  C   UNL     1     -20.960 -39.915  33.395  1.00  0.00     0.012 C 
ATOM      2  C   UNL     1     -20.946 -40.596  32.019  1.00  0.00     0.012 C 
ENDROOT
BRANCH   1   3
ATOM      3  C   UNL     1     -21.240 -40.974  34.443  1.00  0.00    -0.028 C 
ATOM      4  C   UNL     1     -21.556 -42.238  34.108  1.00  0.00    -0.027 C 
BRANCH   4   5
ATOM      5  C   UNL     1     -21.926 -43.305  35.122  1.00  0.00     0.014 C 
BRANCH   5   6
ATOM      6  C   UNL     1     -23.412 -43.728  34.961  1.00  0.00     0.004 C 
ATOM      7  C   UNL     1     -23.604 -45.009  34.150  1.00  0.00     0.004 C 
ENDBRANCH   5   6
BRANCH   5   8
ATOM      8  C   UNL     1     -20.861 -44.456  35.124  1.00  0.00    -0.011 C 
ATOM      9  C   UNL     1     -21.508 -45.852  35.121  1.00  0.00     0.008 C 
ATOM     10  C   UNL     1     -19.807 -44.358  34.009  1.00  0.00     0.008 C 
ENDBRANCH   5   8
ENDBRANCH   4   5
ENDBRANCH   1   3
BRANCH   1  11
ATOM     11  C   UNL     1     -21.953 -38.705  33.413  1.00  0.00     0.002 C 
ATOM     12  C   UNL     1     -23.169 -38.861  34.333  1.00  0.00     0.005 C 
ATOM     13  C   UNL     1     -21.376 -37.269  33.697  1.00  0.00    -0.026 C 
ATOM     14  C   UNL     1     -23.723 -37.457  34.467  1.00  0.00     0.005 C 
ATOM     15  C   UNL     1     -22.486 -36.563  34.542  1.00  0.00    -0.001 C 
ATOM     16  C   UNL     1     -21.104 -36.510  32.358  1.00  0.00     0.007 C 
ATOM     17  C   UNL     1     -20.060 -37.283  34.513  1.00  0.00     0.012 C 
ATOM     18  C   UNL     1     -22.712 -35.075  34.145  1.00  0.00     0.000 C 
ATOM     19  C   UNL     1     -22.390 -35.937  31.742  1.00  0.00     0.005 C 
ATOM     20  C   UNL     1     -23.048 -34.837  32.636  1.00  0.00     0.003 C 
ATOM     21  C   UNL     1     -23.652 -34.336  35.092  1.00  0.00     0.031 C 
ATOM     22  C   UNL     1     -24.583 -34.471  32.298  1.00  0.00    -0.008 C 
ATOM     23  C   UNL     1     -25.081 -34.598  34.769  1.00  0.00    -0.027 C 
ATOM     24  C   UNL     1     -25.529 -34.594  33.502  1.00  0.00    -0.065 C 
ATOM     25  C   UNL     1     -24.669 -32.975  31.859  1.00  0.00     0.014 C 
ATOM     26  C   UNL     1     -25.133 -35.354  31.137  1.00  0.00     0.016 C 
ATOM     27  C   UNL     1     -26.984 -34.240  33.282  1.00  0.00     0.063 C 
ATOM     28  C   UNL     1     -26.113 -32.456  31.635  1.00  0.00     0.033 C 
ATOM     29  C   UNL     1     -27.086 -32.778  32.799  1.00  0.00     0.118 C 
BRANCH  29  30
ATOM     30  O   UNL     1     -26.911 -31.881  33.867  1.00  0.00    -0.393 OA
ATOM     31  H   UNL     1     -26.919 -30.960  33.501  1.00  0.00     0.210 HD
ENDBRANCH  29  30
ENDBRANCH   1  11
TORSDOF 6
ENDMDL
