MODEL 1
REMARK VINA RESULT:    59.402      0.000      0.000
REMARK INTER + INTRA:          89.149
REMARK INTER:                  87.183
REMARK INTRA:                   1.966
REMARK UNBOUND:                 1.966
REMARK SMILES O=c1c(O[C@H]2O[C@@H](CO)[C@@H](O)[C@@H](O)[C@@H]2O)c(-c2ccc(O)c(O)c2)oc2cc(O)cc(O)c12
REMARK SMILES IDX 4 1 3 2 16 3 25 4 2 5 26 6 1 7 33 8 27 9 31 10 28 11 30 12
REMARK SMILES IDX 17 13 18 14 19 15 20 16 24 17 22 18 21 19 23 21 32 23 29 25
REMARK SMILES IDX 5 27 14 28 6 29 12 30 7 31 10 32 15 33 13 35 8 37 9 38 11 40
REMARK H PARENT 21 20 23 22 32 24 29 26 15 34 13 36 9 39 11 41
REMARK Flexibility Score: inf
ROOT
ATOM      1  O   UNL     1      -7.049  -5.473  22.144  1.00  0.00    -0.454 OA
ENDROOT
BRANCH   1   2
ATOM      2  C   UNL     1      -7.060  -4.208  21.549  1.00  0.00     0.214 A 
ATOM      3  C   UNL     1      -7.173  -4.086  20.154  1.00  0.00     0.180 A 
ATOM      4  O   UNL     1      -7.096  -2.887  19.591  1.00  0.00    -0.452 OA
ATOM      5  C   UNL     1      -6.921  -3.049  22.326  1.00  0.00     0.239 A 
ATOM      6  C   UNL     1      -6.955  -1.762  20.281  1.00  0.00     0.146 A 
ATOM      7  O   UNL     1      -6.794  -3.173  23.572  1.00  0.00    -0.285 OA
ATOM      8  C   UNL     1      -6.894  -1.780  21.700  1.00  0.00     0.111 A 
ATOM      9  C   UNL     1      -6.855  -0.558  19.580  1.00  0.00     0.094 A 
ATOM     10  C   UNL     1      -6.772  -0.535  22.389  1.00  0.00     0.134 A 
ATOM     11  C   UNL     1      -6.681   0.646  20.264  1.00  0.00     0.123 A 
ATOM     12  C   UNL     1      -6.636   0.650  21.657  1.00  0.00     0.093 A 
BRANCH   3  13
ATOM     13  C   UNL     1      -7.316  -5.271  19.274  1.00  0.00     0.025 A 
ATOM     14  C   UNL     1      -8.600  -5.734  18.947  1.00  0.00     0.016 A 
ATOM     15  C   UNL     1      -8.761  -6.837  18.105  1.00  0.00     0.051 A 
ATOM     16  C   UNL     1      -7.640  -7.501  17.589  1.00  0.00     0.157 A 
ATOM     17  C   UNL     1      -6.194  -5.957  18.777  1.00  0.00     0.062 A 
ATOM     18  C   UNL     1      -6.352  -7.061  17.932  1.00  0.00     0.158 A 
BRANCH  16  19
ATOM     19  O   UNL     1      -7.804  -8.599  16.744  1.00  0.00    -0.504 OA
ATOM     20  H   UNL     1      -8.713  -9.020  16.590  1.00  0.00     0.293 HD
ENDBRANCH  16  19
BRANCH  18  21
ATOM     21  O   UNL     1      -5.216  -7.707  17.440  1.00  0.00    -0.504 OA
ATOM     22  H   UNL     1      -4.450  -7.983  18.043  1.00  0.00     0.293 HD
ENDBRANCH  18  21
ENDBRANCH   3  13
BRANCH  10  23
ATOM     23  O   UNL     1      -6.799  -0.405  23.782  1.00  0.00    -0.507 OA
ATOM     24  H   UNL     1      -6.038  -0.056  24.346  1.00  0.00     0.293 HD
ENDBRANCH  10  23
BRANCH  11  25
ATOM     25  O   UNL     1      -6.558   1.846  19.568  1.00  0.00    -0.508 OA
ATOM     26  H   UNL     1      -5.906   1.949  18.799  1.00  0.00     0.293 HD
ENDBRANCH  11  25
ENDBRANCH   1   2
BRANCH   1  27
ATOM     27  C   UNL     1      -8.189  -6.007  22.818  1.00  0.00     0.339 C 
ATOM     28  C   UNL     1      -7.727  -7.009  23.909  1.00  0.00     0.214 C 
ATOM     29  O   UNL     1      -9.120  -6.538  21.877  1.00  0.00    -0.332 OA
ATOM     30  C   UNL     1      -8.782  -8.114  24.086  1.00  0.00     0.180 C 
ATOM     31  C   UNL     1      -8.878  -7.891  21.516  1.00  0.00     0.179 C 
ATOM     32  C   UNL     1      -9.013  -8.851  22.743  1.00  0.00     0.177 C 
BRANCH  28  33
ATOM     33  O   UNL     1      -7.471  -6.347  25.125  1.00  0.00    -0.384 OA
ATOM     34  H   UNL     1      -7.519  -7.020  25.855  1.00  0.00     0.211 HD
ENDBRANCH  28  33
BRANCH  30  35
ATOM     35  O   UNL     1      -8.453  -9.009  25.123  1.00  0.00    -0.387 OA
ATOM     36  H   UNL     1      -7.781  -8.571  25.709  1.00  0.00     0.211 HD
ENDBRANCH  30  35
BRANCH  31  37
ATOM     37  C   UNL     1      -7.587  -8.033  20.679  1.00  0.00     0.191 C 
BRANCH  37  38
ATOM     38  O   UNL     1      -6.461  -7.888  21.501  1.00  0.00    -0.394 OA
ATOM     39  H   UNL     1      -5.779  -8.519  21.152  1.00  0.00     0.210 HD
ENDBRANCH  37  38
ENDBRANCH  31  37
BRANCH  32  40
ATOM     40  O   UNL     1      -8.207  -9.999  22.618  1.00  0.00    -0.387 OA
ATOM     41  H   UNL     1      -8.438 -10.446  21.762  1.00  0.00     0.211 HD
ENDBRANCH  32  40
ENDBRANCH   1  27
TORSDOF 12
ENDMDL
MODEL 2
REMARK VINA RESULT:    59.822      0.654      1.134
REMARK INTER + INTRA:          89.766
REMARK INTER:                  83.070
REMARK INTRA:                   6.696
REMARK UNBOUND:                 1.966
REMARK SMILES O=c1c(O[C@H]2O[C@@H](CO)[C@@H](O)[C@@H](O)[C@@H]2O)c(-c2ccc(O)c(O)c2)oc2cc(O)cc(O)c12
REMARK SMILES IDX 4 1 3 2 16 3 25 4 2 5 26 6 1 7 33 8 27 9 31 10 28 11 30 12
REMARK SMILES IDX 17 13 18 14 19 15 20 16 24 17 22 18 21 19 23 21 32 23 29 25
REMARK SMILES IDX 5 27 14 28 6 29 12 30 7 31 10 32 15 33 13 35 8 37 9 38 11 40
REMARK H PARENT 21 20 23 22 32 24 29 26 15 34 13 36 9 39 11 41
REMARK Flexibility Score: inf
ROOT
ATOM      1  O   UNL     1      -7.129  -5.485  22.191  1.00  0.00    -0.454 OA
ENDROOT
BRANCH   1   2
ATOM      2  C   UNL     1      -7.092  -4.202  21.634  1.00  0.00     0.214 A 
ATOM      3  C   UNL     1      -7.117  -4.040  20.239  1.00  0.00     0.180 A 
ATOM      4  O   UNL     1      -6.996  -2.825  19.717  1.00  0.00    -0.452 OA
ATOM      5  C   UNL     1      -6.993  -3.068  22.452  1.00  0.00     0.239 A 
ATOM      6  C   UNL     1      -6.889  -1.723  20.448  1.00  0.00     0.146 A 
ATOM      7  O   UNL     1      -6.944  -3.230  23.699  1.00  0.00    -0.285 OA
ATOM      8  C   UNL     1      -6.916  -1.782  21.867  1.00  0.00     0.111 A 
ATOM      9  C   UNL     1      -6.735  -0.500  19.791  1.00  0.00     0.094 A 
ATOM     10  C   UNL     1      -6.827  -0.559  22.599  1.00  0.00     0.134 A 
ATOM     11  C   UNL     1      -6.595   0.682  20.519  1.00  0.00     0.123 A 
ATOM     12  C   UNL     1      -6.637   0.646  21.912  1.00  0.00     0.093 A 
BRANCH   3  13
ATOM     13  C   UNL     1      -7.215  -5.196  19.317  1.00  0.00     0.025 A 
ATOM     14  C   UNL     1      -6.381  -5.250  18.190  1.00  0.00     0.016 A 
ATOM     15  C   UNL     1      -6.442  -6.339  17.315  1.00  0.00     0.051 A 
ATOM     16  C   UNL     1      -7.348  -7.381  17.548  1.00  0.00     0.157 A 
ATOM     17  C   UNL     1      -8.143  -6.232  19.532  1.00  0.00     0.062 A 
ATOM     18  C   UNL     1      -8.205  -7.324  18.659  1.00  0.00     0.158 A 
BRANCH  16  19
ATOM     19  O   UNL     1      -7.403  -8.470  16.678  1.00  0.00    -0.504 OA
ATOM     20  H   UNL     1      -8.188  -8.610  16.052  1.00  0.00     0.293 HD
ENDBRANCH  16  19
BRANCH  18  21
ATOM     21  O   UNL     1      -9.124  -8.343  18.914  1.00  0.00    -0.504 OA
ATOM     22  H   UNL     1      -8.851  -9.219  19.343  1.00  0.00     0.293 HD
ENDBRANCH  18  21
ENDBRANCH   3  13
BRANCH  10  23
ATOM     23  O   UNL     1      -6.939  -0.469  23.991  1.00  0.00    -0.507 OA
ATOM     24  H   UNL     1      -7.628  -0.953  24.549  1.00  0.00     0.293 HD
ENDBRANCH  10  23
BRANCH  11  25
ATOM     25  O   UNL     1      -6.419   1.901  19.868  1.00  0.00    -0.508 OA
ATOM     26  H   UNL     1      -5.498   2.300  19.729  1.00  0.00     0.293 HD
ENDBRANCH  11  25
ENDBRANCH   1   2
BRANCH   1  27
ATOM     27  C   UNL     1      -8.344  -6.088  22.633  1.00  0.00     0.339 C 
ATOM     28  C   UNL     1      -8.074  -6.935  23.905  1.00  0.00     0.214 C 
ATOM     29  O   UNL     1      -8.964  -6.800  21.564  1.00  0.00    -0.332 OA
ATOM     30  C   UNL     1      -9.034  -8.136  23.948  1.00  0.00     0.180 C 
ATOM     31  C   UNL     1      -8.518  -8.142  21.419  1.00  0.00     0.179 C 
ATOM     32  C   UNL     1      -8.860  -9.005  22.678  1.00  0.00     0.177 C 
BRANCH  28  33
ATOM     33  O   UNL     1      -8.185  -6.149  25.067  1.00  0.00    -0.384 OA
ATOM     34  H   UNL     1      -8.016  -6.736  25.851  1.00  0.00     0.211 HD
ENDBRANCH  28  33
BRANCH  30  35
ATOM     35  O   UNL     1      -8.888  -8.897  25.125  1.00  0.00    -0.387 OA
ATOM     36  H   UNL     1      -8.039  -8.629  25.564  1.00  0.00     0.211 HD
ENDBRANCH  30  35
BRANCH  31  37
ATOM     37  C   UNL     1      -7.054  -8.203  20.929  1.00  0.00     0.191 C 
BRANCH  37  38
ATOM     38  O   UNL     1      -6.272  -8.933  21.835  1.00  0.00    -0.394 OA
ATOM     39  H   UNL     1      -6.898  -9.288  22.519  1.00  0.00     0.210 HD
ENDBRANCH  37  38
ENDBRANCH  31  37
BRANCH  32  40
ATOM     40  O   UNL     1      -7.946 -10.059  22.871  1.00  0.00    -0.387 OA
ATOM     41  H   UNL     1      -7.461 -10.206  22.018  1.00  0.00     0.211 HD
ENDBRANCH  32  40
ENDBRANCH   1  27
TORSDOF 12
ENDMDL
