MODEL 1
REMARK VINA RESULT:    39.828      0.000      0.000
REMARK INTER + INTRA:          43.478
REMARK INTER:                  43.320
REMARK INTRA:                   0.158
REMARK UNBOUND:                 0.158
REMARK SMILES C[C@@H]1[C@H]2C3=CC[C@H]4[C@@]5(C)CC[C@H](O)C(C)(C)[C@@H]5CC[C@]4(C)[C@@]3(C)CC[C@@]2(C(=O)[O-])CC[C@@H]1C
REMARK SMILES IDX 26 1 30 2 25 3 3 4 31 5 24 6 4 7 2 8 32 9 22 10 5 11 1 12
REMARK SMILES IDX 33 13 23 14 20 15 6 16 7 17 19 18 21 19 8 20 18 21 17 22
REMARK SMILES IDX 10 23 9 24 14 25 11 26 12 27 15 28 16 29 27 30 28 31 29 32
REMARK SMILES IDX 13 33
REMARK H PARENT 13 34
REMARK Flexibility Score: inf
ROOT
ATOM      1  C   UNL     1      61.180 -49.871 311.748  1.00  0.00     0.017 C 
ATOM      2  C   UNL     1      62.036 -51.018 312.380  1.00  0.00     0.014 C 
ATOM      3  C   UNL     1      61.948 -48.526 311.799  1.00  0.00     0.014 C 
ATOM      4  C   UNL     1      59.805 -49.777 312.519  1.00  0.00     0.030 C 
ATOM      5  C   UNL     1      61.313 -52.372 312.340  1.00  0.00     0.004 C 
ATOM      6  C   UNL     1      62.119 -47.972 313.211  1.00  0.00     0.013 C 
ATOM      7  C   UNL     1      59.971 -49.067 313.903  1.00  0.00    -0.063 C 
ATOM      8  C   UNL     1      59.060 -51.170 312.548  1.00  0.00    -0.003 C 
ATOM      9  C   UNL     1      59.983 -52.297 313.108  1.00  0.00    -0.011 C 
ATOM     10  C   UNL     1      60.769 -47.729 313.946  1.00  0.00    -0.006 C 
ATOM     11  C   UNL     1      59.294 -49.504 315.010  1.00  0.00    -0.027 C 
ATOM     12  C   UNL     1      58.406 -51.535 311.193  1.00  0.00     0.008 C 
ATOM     13  C   UNL     1      59.301 -53.674 313.146  1.00  0.00     0.008 C 
ATOM     14  C   UNL     1      59.973 -46.646 313.124  1.00  0.00     0.017 C 
ATOM     15  C   UNL     1      61.055 -47.224 315.457  1.00  0.00    -0.020 C 
ATOM     16  C   UNL     1      59.249 -48.803 316.335  1.00  0.00     0.032 C 
ATOM     17  C   UNL     1      59.712 -47.342 316.272  1.00  0.00     0.006 C 
ATOM     18  C   UNL     1      61.623 -45.737 315.465  1.00  0.00     0.008 C 
ATOM     19  C   UNL     1      62.125 -48.147 316.138  1.00  0.00     0.012 C 
ATOM     20  C   UNL     1      59.576 -46.550 317.666  1.00  0.00    -0.025 C 
ATOM     21  C   UNL     1      60.913 -44.774 316.431  1.00  0.00     0.005 C 
ATOM     22  C   UNL     1      60.718 -45.483 317.779  1.00  0.00     0.003 C 
ATOM     23  C   UNL     1      59.683 -47.464 318.928  1.00  0.00     0.010 C 
ATOM     24  C   UNL     1      58.141 -45.925 317.659  1.00  0.00     0.012 C 
ATOM     25  C   UNL     1      60.743 -44.596 319.082  1.00  0.00    -0.006 C 
ATOM     26  C   UNL     1      59.662 -46.678 320.258  1.00  0.00     0.033 C 
ATOM     27  C   UNL     1      60.733 -45.564 320.319  1.00  0.00     0.120 C 
ATOM     28  C   UNL     1      62.082 -43.804 319.138  1.00  0.00     0.014 C 
ATOM     29  C   UNL     1      59.591 -43.559 319.139  1.00  0.00     0.014 C 
ENDROOT
BRANCH   1  30
ATOM     30  C   UNL     1      60.983 -50.127 310.259  1.00  0.00     0.048 C 
ATOM     31  O   UNL     1      60.075 -49.522 309.618  1.00  0.00    -0.550 OA
ATOM     32  O   UNL     1      61.915 -50.866 309.546  1.00  0.00    -0.550 OA
ENDBRANCH   1  30
BRANCH  27  33
ATOM     33  O   UNL     1      60.656 -44.859 321.537  1.00  0.00    -0.393 OA
ATOM     34  H   UNL     1      59.800 -45.107 321.984  1.00  0.00     0.210 HD
ENDBRANCH  27  33
TORSDOF 2
ENDMDL
