MODEL 1
REMARK VINA RESULT:    -5.613      0.000      0.000
REMARK INTER + INTRA:          -6.139
REMARK INTER:                  -6.105
REMARK INTRA:                  -0.034
REMARK UNBOUND:                -0.034
REMARK SMILES C[C@@H]1[C@@H](C)CC[C@@]2(C(=O)[O-])CC[C@]3(C)C(=CC[C@@H]4[C@@]5(C)CC[C@H](O)C(C)(C)[C@H]5CC[C@]43C)[C@@H]12
REMARK SMILES IDX 7 1 6 2 11 3 33 4 5 5 12 6 15 7 2 8 3 9 13 10 16 11 1 12
REMARK SMILES IDX 4 13 14 14 31 15 17 16 18 17 30 18 32 19 19 20 29 21 28 22
REMARK SMILES IDX 21 23 20 24 25 25 22 26 23 27 26 28 27 29 8 30 9 31 10 32
REMARK SMILES IDX 24 33
REMARK H PARENT 24 34
REMARK Flexibility Score: inf
ROOT
ATOM      1  C   UNL     1      23.280   0.200 124.775  1.00  0.00     0.017 C 
ATOM      2  C   UNL     1      24.033   1.022 123.698  1.00  0.00     0.014 C 
ATOM      3  C   UNL     1      22.485  -0.917 124.053  1.00  0.00     0.014 C 
ATOM      4  C   UNL     1      24.231  -0.464 125.875  1.00  0.00     0.030 C 
ATOM      5  C   UNL     1      25.261   0.312 123.168  1.00  0.00     0.004 C 
ATOM      6  C   UNL     1      21.522  -1.646 124.988  1.00  0.00     0.013 C 
ATOM      7  C   UNL     1      23.684  -1.846 126.391  1.00  0.00    -0.063 C 
ATOM      8  C   UNL     1      25.787  -0.537 125.514  1.00  0.00    -0.003 C 
ATOM      9  C   UNL     1      26.296   0.265 124.276  1.00  0.00    -0.011 C 
ATOM     10  C   UNL     1      22.173  -2.182 126.320  1.00  0.00    -0.006 C 
ATOM     11  C   UNL     1      24.491  -2.661 127.127  1.00  0.00    -0.027 C 
ATOM     12  C   UNL     1      26.647  -0.112 126.738  1.00  0.00     0.008 C 
ATOM     13  C   UNL     1      27.610  -0.315 123.722  1.00  0.00     0.008 C 
ATOM     14  C   UNL     1      21.521  -1.394 127.501  1.00  0.00     0.017 C 
ATOM     15  C   UNL     1      21.931  -3.775 126.430  1.00  0.00    -0.020 C 
ATOM     16  C   UNL     1      24.149  -4.041 127.618  1.00  0.00     0.032 C 
ATOM     17  C   UNL     1      22.636  -4.355 127.695  1.00  0.00     0.006 C 
ATOM     18  C   UNL     1      20.424  -4.081 126.611  1.00  0.00     0.008 C 
ATOM     19  C   UNL     1      22.493  -4.469 125.135  1.00  0.00     0.012 C 
ATOM     20  C   UNL     1      22.222  -5.871 128.121  1.00  0.00    -0.025 C 
ATOM     21  C   UNL     1      20.071  -5.566 126.646  1.00  0.00     0.005 C 
ATOM     22  C   UNL     1      21.180  -6.556 127.124  1.00  0.00     0.003 C 
ATOM     23  C   UNL     1      21.555  -5.808 129.532  1.00  0.00     0.010 C 
ATOM     24  C   UNL     1      23.511  -6.745 128.226  1.00  0.00     0.012 C 
ATOM     25  C   UNL     1      20.529  -7.930 127.631  1.00  0.00    -0.006 C 
ATOM     26  C   UNL     1      20.999  -7.145 130.044  1.00  0.00     0.033 C 
ATOM     27  C   UNL     1      19.972  -7.756 129.081  1.00  0.00     0.120 C 
ATOM     28  C   UNL     1      21.542  -9.122 127.565  1.00  0.00     0.014 C 
ATOM     29  C   UNL     1      19.349  -8.352 126.699  1.00  0.00     0.014 C 
ENDROOT
BRANCH   1  30
ATOM     30  C   UNL     1      22.316   1.214 125.399  1.00  0.00     0.048 C 
ATOM     31  O   UNL     1      22.350   1.451 126.637  1.00  0.00    -0.550 OA
ATOM     32  O   UNL     1      21.280   1.761 124.651  1.00  0.00    -0.550 OA
ENDBRANCH   1  30
BRANCH  27  33
ATOM     33  O   UNL     1      19.552  -8.994 129.606  1.00  0.00    -0.393 OA
ATOM     34  H   UNL     1      19.884  -9.702 128.996  1.00  0.00     0.210 HD
ENDBRANCH  27  33
TORSDOF 2
ENDMDL
MODEL 2
REMARK VINA RESULT:    -5.368      4.310      6.961
REMARK INTER + INTRA:          -5.873
REMARK INTER:                  -6.001
REMARK INTRA:                   0.128
REMARK UNBOUND:                -0.034
REMARK SMILES C[C@@H]1[C@@H](C)CC[C@@]2(C(=O)[O-])CC[C@]3(C)C(=CC[C@@H]4[C@@]5(C)CC[C@H](O)C(C)(C)[C@H]5CC[C@]43C)[C@@H]12
REMARK SMILES IDX 7 1 6 2 11 3 33 4 5 5 12 6 15 7 2 8 3 9 13 10 16 11 1 12
REMARK SMILES IDX 4 13 14 14 31 15 17 16 18 17 30 18 32 19 19 20 29 21 28 22
REMARK SMILES IDX 21 23 20 24 25 25 22 26 23 27 26 28 27 29 8 30 9 31 10 32
REMARK SMILES IDX 24 33
REMARK H PARENT 24 34
REMARK Flexibility Score: inf
ROOT
ATOM      1  C   UNL     1      24.469  -7.132 129.257  1.00  0.00     0.017 C 
ATOM      2  C   UNL     1      25.742  -6.473 129.848  1.00  0.00     0.014 C 
ATOM      3  C   UNL     1      23.504  -7.439 130.430  1.00  0.00     0.014 C 
ATOM      4  C   UNL     1      23.707  -6.232 128.178  1.00  0.00     0.030 C 
ATOM      5  C   UNL     1      25.533  -5.022 130.226  1.00  0.00     0.004 C 
ATOM      6  C   UNL     1      22.316  -8.298 130.000  1.00  0.00     0.013 C 
ATOM      7  C   UNL     1      22.148  -6.440 128.211  1.00  0.00    -0.063 C 
ATOM      8  C   UNL     1      24.100  -4.682 128.145  1.00  0.00    -0.003 C 
ATOM      9  C   UNL     1      25.355  -4.221 128.951  1.00  0.00    -0.011 C 
ATOM     10  C   UNL     1      21.531  -7.757 128.745  1.00  0.00    -0.006 C 
ATOM     11  C   UNL     1      21.335  -5.570 127.546  1.00  0.00    -0.027 C 
ATOM     12  C   UNL     1      24.279  -4.201 126.677  1.00  0.00     0.008 C 
ATOM     13  C   UNL     1      25.292  -2.721 129.295  1.00  0.00     0.008 C 
ATOM     14  C   UNL     1      21.725  -8.798 127.596  1.00  0.00     0.017 C 
ATOM     15  C   UNL     1      19.977  -7.548 129.136  1.00  0.00    -0.020 C 
ATOM     16  C   UNL     1      19.831  -5.582 127.550  1.00  0.00     0.032 C 
ATOM     17  C   UNL     1      19.185  -6.933 127.942  1.00  0.00     0.006 C 
ATOM     18  C   UNL     1      19.306  -8.913 129.426  1.00  0.00     0.008 C 
ATOM     19  C   UNL     1      19.887  -6.601 130.387  1.00  0.00     0.012 C 
ATOM     20  C   UNL     1      17.562  -6.961 128.061  1.00  0.00    -0.025 C 
ATOM     21  C   UNL     1      17.852  -8.827 129.886  1.00  0.00     0.005 C 
ATOM     22  C   UNL     1      17.030  -7.579 129.433  1.00  0.00     0.003 C 
ATOM     23  C   UNL     1      17.011  -7.848 126.899  1.00  0.00     0.010 C 
ATOM     24  C   UNL     1      17.007  -5.514 127.878  1.00  0.00     0.012 C 
ATOM     25  C   UNL     1      15.458  -7.886 129.498  1.00  0.00    -0.006 C 
ATOM     26  C   UNL     1      15.493  -8.077 126.925  1.00  0.00     0.033 C 
ATOM     27  C   UNL     1      15.020  -8.707 128.242  1.00  0.00     0.120 C 
ATOM     28  C   UNL     1      14.607  -6.579 129.630  1.00  0.00     0.014 C 
ATOM     29  C   UNL     1      15.117  -8.721 130.773  1.00  0.00     0.014 C 
ENDROOT
BRANCH   1  30
ATOM     30  C   UNL     1      24.985  -8.436 128.642  1.00  0.00     0.048 C 
ATOM     31  O   UNL     1      25.857  -9.124 129.239  1.00  0.00    -0.550 OA
ATOM     32  O   UNL     1      24.633  -8.797 127.346  1.00  0.00    -0.550 OA
ENDBRANCH   1  30
BRANCH  27  33
ATOM     33  O   UNL     1      13.619  -8.839 128.195  1.00  0.00    -0.393 OA
ATOM     34  H   UNL     1      13.368  -9.563 128.825  1.00  0.00     0.210 HD
ENDBRANCH  27  33
TORSDOF 2
ENDMDL
MODEL 3
REMARK VINA RESULT:    -4.983      5.500      9.730
REMARK INTER + INTRA:          -5.454
REMARK INTER:                  -6.071
REMARK INTRA:                   0.617
REMARK UNBOUND:                -0.034
REMARK SMILES C[C@@H]1[C@@H](C)CC[C@@]2(C(=O)[O-])CC[C@]3(C)C(=CC[C@@H]4[C@@]5(C)CC[C@H](O)C(C)(C)[C@H]5CC[C@]43C)[C@@H]12
REMARK SMILES IDX 7 1 6 2 11 3 33 4 5 5 12 6 15 7 2 8 3 9 13 10 16 11 1 12
REMARK SMILES IDX 4 13 14 14 31 15 17 16 18 17 30 18 32 19 19 20 29 21 28 22
REMARK SMILES IDX 21 23 20 24 25 25 22 26 23 27 26 28 27 29 8 30 9 31 10 32
REMARK SMILES IDX 24 33
REMARK H PARENT 24 34
REMARK Flexibility Score: inf
ROOT
ATOM      1  C   UNL     1      20.506  -7.155 129.743  1.00  0.00     0.017 C 
ATOM      2  C   UNL     1      21.595  -6.452 128.892  1.00  0.00     0.014 C 
ATOM      3  C   UNL     1      19.984  -6.134 130.785  1.00  0.00     0.014 C 
ATOM      4  C   UNL     1      19.271  -7.712 128.894  1.00  0.00     0.030 C 
ATOM      5  C   UNL     1      21.018  -5.502 127.865  1.00  0.00     0.004 C 
ATOM      6  C   UNL     1      19.074  -6.780 131.829  1.00  0.00     0.013 C 
ATOM      7  C   UNL     1      17.914  -7.642 129.687  1.00  0.00    -0.063 C 
ATOM      8  C   UNL     1      19.122  -7.144 127.406  1.00  0.00    -0.003 C 
ATOM      9  C   UNL     1      20.307  -6.324 126.807  1.00  0.00    -0.011 C 
ATOM     10  C   UNL     1      17.894  -7.639 131.236  1.00  0.00    -0.006 C 
ATOM     11  C   UNL     1      16.735  -7.828 129.027  1.00  0.00    -0.027 C 
ATOM     12  C   UNL     1      18.799  -8.300 126.417  1.00  0.00     0.008 C 
ATOM     13  C   UNL     1      19.840  -5.397 125.669  1.00  0.00     0.008 C 
ATOM     14  C   UNL     1      18.151  -9.124 131.652  1.00  0.00     0.017 C 
ATOM     15  C   UNL     1      16.487  -7.075 131.794  1.00  0.00    -0.020 C 
ATOM     16  C   UNL     1      15.358  -7.709 129.621  1.00  0.00     0.032 C 
ATOM     17  C   UNL     1      15.291  -7.849 131.160  1.00  0.00     0.006 C 
ATOM     18  C   UNL     1      16.379  -7.310 133.321  1.00  0.00     0.008 C 
ATOM     19  C   UNL     1      16.380  -5.544 131.453  1.00  0.00     0.012 C 
ATOM     20  C   UNL     1      13.836  -7.622 131.854  1.00  0.00    -0.025 C 
ATOM     21  C   UNL     1      15.119  -6.741 133.969  1.00  0.00     0.005 C 
ATOM     22  C   UNL     1      13.857  -6.580 133.063  1.00  0.00     0.003 C 
ATOM     23  C   UNL     1      13.356  -8.996 132.422  1.00  0.00     0.010 C 
ATOM     24  C   UNL     1      12.815  -7.157 130.769  1.00  0.00     0.012 C 
ATOM     25  C   UNL     1      12.527  -6.521 133.956  1.00  0.00    -0.006 C 
ATOM     26  C   UNL     1      12.041  -8.943 133.213  1.00  0.00     0.033 C 
ATOM     27  C   UNL     1      12.108  -7.962 134.391  1.00  0.00     0.120 C 
ATOM     28  C   UNL     1      11.351  -5.802 133.214  1.00  0.00     0.014 C 
ATOM     29  C   UNL     1      12.771  -5.670 135.244  1.00  0.00     0.014 C 
ENDROOT
BRANCH   1  30
ATOM     30  C   UNL     1      21.265  -8.285 130.445  1.00  0.00     0.048 C 
ATOM     31  O   UNL     1      21.258  -8.377 131.703  1.00  0.00    -0.550 OA
ATOM     32  O   UNL     1      22.110  -9.125 129.727  1.00  0.00    -0.550 OA
ENDBRANCH   1  30
BRANCH  27  33
ATOM     33  O   UNL     1      10.853  -7.946 135.029  1.00  0.00    -0.393 OA
ATOM     34  H   UNL     1      10.785  -8.774 135.570  1.00  0.00     0.210 HD
ENDBRANCH  27  33
TORSDOF 2
ENDMDL
MODEL 4
REMARK VINA RESULT:    -4.925      2.488      3.623
REMARK INTER + INTRA:          -5.391
REMARK INTER:                  -5.196
REMARK INTRA:                  -0.195
REMARK UNBOUND:                -0.034
REMARK SMILES C[C@@H]1[C@@H](C)CC[C@@]2(C(=O)[O-])CC[C@]3(C)C(=CC[C@@H]4[C@@]5(C)CC[C@H](O)C(C)(C)[C@H]5CC[C@]43C)[C@@H]12
REMARK SMILES IDX 7 1 6 2 11 3 33 4 5 5 12 6 15 7 2 8 3 9 13 10 16 11 1 12
REMARK SMILES IDX 4 13 14 14 31 15 17 16 18 17 30 18 32 19 19 20 29 21 28 22
REMARK SMILES IDX 21 23 20 24 25 25 22 26 23 27 26 28 27 29 8 30 9 31 10 32
REMARK SMILES IDX 24 33
REMARK H PARENT 24 34
REMARK Flexibility Score: inf
ROOT
ATOM      1  C   UNL     1      26.637  -1.702 125.164  1.00  0.00     0.017 C 
ATOM      2  C   UNL     1      26.987  -0.892 123.889  1.00  0.00     0.014 C 
ATOM      3  C   UNL     1      25.093  -1.755 125.284  1.00  0.00     0.014 C 
ATOM      4  C   UNL     1      27.211  -3.194 125.169  1.00  0.00     0.030 C 
ATOM      5  C   UNL     1      26.785  -1.683 122.614  1.00  0.00     0.004 C 
ATOM      6  C   UNL     1      24.631  -2.328 126.623  1.00  0.00     0.013 C 
ATOM      7  C   UNL     1      26.264  -4.203 125.917  1.00  0.00    -0.063 C 
ATOM      8  C   UNL     1      27.699  -3.769 123.758  1.00  0.00    -0.003 C 
ATOM      9  C   UNL     1      27.835  -2.775 122.563  1.00  0.00    -0.011 C 
ATOM     10  C   UNL     1      25.278  -3.713 127.007  1.00  0.00    -0.006 C 
ATOM     11  C   UNL     1      26.470  -5.545 125.790  1.00  0.00    -0.027 C 
ATOM     12  C   UNL     1      29.060  -4.506 123.917  1.00  0.00     0.008 C 
ATOM     13  C   UNL     1      27.751  -3.500 121.207  1.00  0.00     0.008 C 
ATOM     14  C   UNL     1      26.157  -3.474 128.277  1.00  0.00     0.017 C 
ATOM     15  C   UNL     1      24.110  -4.799 127.258  1.00  0.00    -0.020 C 
ATOM     16  C   UNL     1      25.607  -6.633 126.368  1.00  0.00     0.032 C 
ATOM     17  C   UNL     1      24.715  -6.204 127.558  1.00  0.00     0.006 C 
ATOM     18  C   UNL     1      23.283  -4.421 128.512  1.00  0.00     0.008 C 
ATOM     19  C   UNL     1      23.193  -4.868 125.982  1.00  0.00     0.012 C 
ATOM     20  C   UNL     1      23.689  -7.323 128.145  1.00  0.00    -0.025 C 
ATOM     21  C   UNL     1      22.096  -5.339 128.797  1.00  0.00     0.005 C 
ATOM     22  C   UNL     1      22.184  -6.808 128.273  1.00  0.00     0.003 C 
ATOM     23  C   UNL     1      24.177  -7.717 129.576  1.00  0.00     0.010 C 
ATOM     24  C   UNL     1      23.742  -8.594 127.242  1.00  0.00     0.012 C 
ATOM     25  C   UNL     1      21.188  -7.760 129.094  1.00  0.00    -0.006 C 
ATOM     26  C   UNL     1      23.255  -8.688 130.328  1.00  0.00     0.033 C 
ATOM     27  C   UNL     1      21.826  -8.146 130.467  1.00  0.00     0.120 C 
ATOM     28  C   UNL     1      20.796  -9.040 128.284  1.00  0.00     0.014 C 
ATOM     29  C   UNL     1      19.836  -7.027 129.369  1.00  0.00     0.014 C 
ENDROOT
BRANCH   1  30
ATOM     30  C   UNL     1      27.227  -0.865 126.302  1.00  0.00     0.048 C 
ATOM     31  O   UNL     1      26.753   0.271 126.574  1.00  0.00    -0.550 OA
ATOM     32  O   UNL     1      28.398  -1.262 126.941  1.00  0.00    -0.550 OA
ENDBRANCH   1  30
BRANCH  27  33
ATOM     33  O   UNL     1      21.045  -9.114 131.126  1.00  0.00    -0.393 OA
ATOM     34  H   UNL     1      20.462  -9.538 130.444  1.00  0.00     0.210 HD
ENDBRANCH  27  33
TORSDOF 2
ENDMDL
MODEL 5
REMARK VINA RESULT:    -4.432      3.847      7.151
REMARK INTER + INTRA:          -4.855
REMARK INTER:                  -4.968
REMARK INTRA:                   0.113
REMARK UNBOUND:                -0.034
REMARK SMILES C[C@@H]1[C@@H](C)CC[C@@]2(C(=O)[O-])CC[C@]3(C)C(=CC[C@@H]4[C@@]5(C)CC[C@H](O)C(C)(C)[C@H]5CC[C@]43C)[C@@H]12
REMARK SMILES IDX 7 1 6 2 11 3 33 4 5 5 12 6 15 7 2 8 3 9 13 10 16 11 1 12
REMARK SMILES IDX 4 13 14 14 31 15 17 16 18 17 30 18 32 19 19 20 29 21 28 22
REMARK SMILES IDX 21 23 20 24 25 25 22 26 23 27 26 28 27 29 8 30 9 31 10 32
REMARK SMILES IDX 24 33
REMARK H PARENT 24 34
REMARK Flexibility Score: inf
ROOT
ATOM      1  C   UNL     1      28.062  -4.523 124.391  1.00  0.00     0.017 C 
ATOM      2  C   UNL     1      29.540  -4.765 123.990  1.00  0.00     0.014 C 
ATOM      3  C   UNL     1      28.046  -3.500 125.555  1.00  0.00     0.014 C 
ATOM      4  C   UNL     1      27.143  -3.975 123.203  1.00  0.00     0.030 C 
ATOM      5  C   UNL     1      30.122  -3.631 123.173  1.00  0.00     0.004 C 
ATOM      6  C   UNL     1      26.663  -3.357 126.188  1.00  0.00     0.013 C 
ATOM      7  C   UNL     1      26.018  -3.000 123.711  1.00  0.00    -0.063 C 
ATOM      8  C   UNL     1      27.911  -3.387 121.929  1.00  0.00    -0.003 C 
ATOM      9  C   UNL     1      29.448  -3.631 121.815  1.00  0.00    -0.011 C 
ATOM     10  C   UNL     1      25.496  -3.074 125.168  1.00  0.00    -0.006 C 
ATOM     11  C   UNL     1      25.320  -2.247 122.814  1.00  0.00    -0.027 C 
ATOM     12  C   UNL     1      27.252  -3.901 120.617  1.00  0.00     0.008 C 
ATOM     13  C   UNL     1      30.125  -2.587 120.909  1.00  0.00     0.008 C 
ATOM     14  C   UNL     1      24.545  -4.315 125.200  1.00  0.00     0.017 C 
ATOM     15  C   UNL     1      24.743  -1.706 125.581  1.00  0.00    -0.020 C 
ATOM     16  C   UNL     1      24.280  -1.211 123.144  1.00  0.00     0.032 C 
ATOM     17  C   UNL     1      23.635  -1.350 124.543  1.00  0.00     0.006 C 
ATOM     18  C   UNL     1      24.011  -1.882 126.934  1.00  0.00     0.008 C 
ATOM     19  C   UNL     1      25.800  -0.545 125.661  1.00  0.00     0.012 C 
ATOM     20  C   UNL     1      22.581  -0.190 124.982  1.00  0.00    -0.025 C 
ATOM     21  C   UNL     1      23.330  -0.621 127.462  1.00  0.00     0.005 C 
ATOM     22  C   UNL     1      22.888   0.448 126.413  1.00  0.00     0.003 C 
ATOM     23  C   UNL     1      21.159  -0.834 125.048  1.00  0.00     0.010 C 
ATOM     24  C   UNL     1      22.563   0.928 123.894  1.00  0.00     0.012 C 
ATOM     25  C   UNL     1      21.741   1.391 127.018  1.00  0.00    -0.006 C 
ATOM     26  C   UNL     1      20.051   0.099 125.558  1.00  0.00     0.033 C 
ATOM     27  C   UNL     1      20.359   0.664 126.951  1.00  0.00     0.120 C 
ATOM     28  C   UNL     1      21.674   2.777 126.293  1.00  0.00     0.014 C 
ATOM     29  C   UNL     1      22.046   1.732 128.512  1.00  0.00     0.014 C 
ENDROOT
BRANCH   1  30
ATOM     30  C   UNL     1      27.589  -5.893 124.886  1.00  0.00     0.048 C 
ATOM     31  O   UNL     1      28.340  -6.610 125.601  1.00  0.00    -0.550 OA
ATOM     32  O   UNL     1      26.400  -6.444 124.419  1.00  0.00    -0.550 OA
ENDBRANCH   1  30
BRANCH  27  33
ATOM     33  O   UNL     1      19.318   1.538 127.318  1.00  0.00    -0.393 OA
ATOM     34  H   UNL     1      19.336   2.302 126.686  1.00  0.00     0.210 HD
ENDBRANCH  27  33
TORSDOF 2
ENDMDL
MODEL 6
REMARK VINA RESULT:    -4.270      3.223      5.744
REMARK INTER + INTRA:          -4.679
REMARK INTER:                  -4.544
REMARK INTRA:                  -0.135
REMARK UNBOUND:                -0.034
REMARK SMILES C[C@@H]1[C@@H](C)CC[C@@]2(C(=O)[O-])CC[C@]3(C)C(=CC[C@@H]4[C@@]5(C)CC[C@H](O)C(C)(C)[C@H]5CC[C@]43C)[C@@H]12
REMARK SMILES IDX 7 1 6 2 11 3 33 4 5 5 12 6 15 7 2 8 3 9 13 10 16 11 1 12
REMARK SMILES IDX 4 13 14 14 31 15 17 16 18 17 30 18 32 19 19 20 29 21 28 22
REMARK SMILES IDX 21 23 20 24 25 25 22 26 23 27 26 28 27 29 8 30 9 31 10 32
REMARK SMILES IDX 24 33
REMARK H PARENT 24 34
REMARK Flexibility Score: inf
ROOT
ATOM      1  C   UNL     1      28.960  -1.257 126.195  1.00  0.00     0.017 C 
ATOM      2  C   UNL     1      30.125  -0.643 127.013  1.00  0.00     0.014 C 
ATOM      3  C   UNL     1      28.077  -2.078 127.168  1.00  0.00     0.014 C 
ATOM      4  C   UNL     1      28.047  -0.180 125.445  1.00  0.00     0.030 C 
ATOM      5  C   UNL     1      29.698   0.553 127.839  1.00  0.00     0.004 C 
ATOM      6  C   UNL     1      27.030  -2.919 126.439  1.00  0.00     0.013 C 
ATOM      7  C   UNL     1      26.541  -0.625 125.354  1.00  0.00    -0.063 C 
ATOM      8  C   UNL     1      28.193   1.335 125.937  1.00  0.00    -0.003 C 
ATOM      9  C   UNL     1      29.374   1.692 126.892  1.00  0.00    -0.011 C 
ATOM     10  C   UNL     1      26.147  -2.122 125.405  1.00  0.00    -0.006 C 
ATOM     11  C   UNL     1      25.590   0.280 124.984  1.00  0.00    -0.027 C 
ATOM     12  C   UNL     1      28.267   2.294 124.714  1.00  0.00     0.008 C 
ATOM     13  C   UNL     1      29.084   2.965 127.706  1.00  0.00     0.008 C 
ATOM     14  C   UNL     1      26.481  -2.684 123.985  1.00  0.00     0.017 C 
ATOM     15  C   UNL     1      24.587  -2.295 125.789  1.00  0.00    -0.020 C 
ATOM     16  C   UNL     1      24.106   0.036 124.932  1.00  0.00     0.032 C 
ATOM     17  C   UNL     1      23.687  -1.450 124.836  1.00  0.00     0.006 C 
ATOM     18  C   UNL     1      24.143  -3.766 125.592  1.00  0.00     0.008 C 
ATOM     19  C   UNL     1      24.373  -1.838 127.278  1.00  0.00     0.012 C 
ATOM     20  C   UNL     1      22.091  -1.765 124.883  1.00  0.00    -0.025 C 
ATOM     21  C   UNL     1      22.703  -4.060 126.004  1.00  0.00     0.005 C 
ATOM     22  C   UNL     1      21.687  -2.875 125.958  1.00  0.00     0.003 C 
ATOM     23  C   UNL     1      21.664  -2.294 123.476  1.00  0.00     0.010 C 
ATOM     24  C   UNL     1      21.313  -0.443 125.166  1.00  0.00     0.012 C 
ATOM     25  C   UNL     1      20.184  -3.424 125.863  1.00  0.00    -0.006 C 
ATOM     26  C   UNL     1      20.201  -2.748 123.373  1.00  0.00     0.033 C 
ATOM     27  C   UNL     1      19.857  -3.842 124.393  1.00  0.00     0.120 C 
ATOM     28  C   UNL     1      19.141  -2.380 126.388  1.00  0.00     0.014 C 
ATOM     29  C   UNL     1      20.000  -4.674 126.782  1.00  0.00     0.014 C 
ENDROOT
BRANCH   1  30
ATOM     30  C   UNL     1      29.662  -2.191 125.205  1.00  0.00     0.048 C 
ATOM     31  O   UNL     1      30.100  -3.311 125.581  1.00  0.00    -0.550 OA
ATOM     32  O   UNL     1      29.981  -1.754 123.923  1.00  0.00    -0.550 OA
ENDBRANCH   1  30
BRANCH  27  33
ATOM     33  O   UNL     1      18.493  -4.164 124.258  1.00  0.00    -0.393 OA
ATOM     34  H   UNL     1      18.214  -4.629 125.089  1.00  0.00     0.210 HD
ENDBRANCH  27  33
TORSDOF 2
ENDMDL
MODEL 7
REMARK VINA RESULT:    -4.195      2.205      8.349
REMARK INTER + INTRA:          -4.597
REMARK INTER:                  -4.488
REMARK INTRA:                  -0.108
REMARK UNBOUND:                -0.034
REMARK SMILES C[C@@H]1[C@@H](C)CC[C@@]2(C(=O)[O-])CC[C@]3(C)C(=CC[C@@H]4[C@@]5(C)CC[C@H](O)C(C)(C)[C@H]5CC[C@]43C)[C@@H]12
REMARK SMILES IDX 7 1 6 2 11 3 33 4 5 5 12 6 15 7 2 8 3 9 13 10 16 11 1 12
REMARK SMILES IDX 4 13 14 14 31 15 17 16 18 17 30 18 32 19 19 20 29 21 28 22
REMARK SMILES IDX 21 23 20 24 25 25 22 26 23 27 26 28 27 29 8 30 9 31 10 32
REMARK SMILES IDX 24 33
REMARK H PARENT 24 34
REMARK Flexibility Score: inf
ROOT
ATOM      1  C   UNL     1      21.730  -7.442 128.624  1.00  0.00     0.017 C 
ATOM      2  C   UNL     1      21.015  -8.814 128.518  1.00  0.00     0.014 C 
ATOM      3  C   UNL     1      23.154  -7.600 128.036  1.00  0.00     0.014 C 
ATOM      4  C   UNL     1      20.980  -6.254 127.861  1.00  0.00     0.030 C 
ATOM      5  C   UNL     1      20.542  -9.125 127.114  1.00  0.00     0.004 C 
ATOM      6  C   UNL     1      24.033  -6.378 128.296  1.00  0.00     0.013 C 
ATOM      7  C   UNL     1      21.979  -5.195 127.265  1.00  0.00    -0.063 C 
ATOM      8  C   UNL     1      19.866  -6.687 126.799  1.00  0.00    -0.003 C 
ATOM      9  C   UNL     1      19.406  -8.178 126.777  1.00  0.00    -0.011 C 
ATOM     10  C   UNL     1      23.392  -5.002 127.870  1.00  0.00    -0.006 C 
ATOM     11  C   UNL     1      21.529  -4.269 126.371  1.00  0.00    -0.027 C 
ATOM     12  C   UNL     1      18.596  -5.803 126.956  1.00  0.00     0.008 C 
ATOM     13  C   UNL     1      18.803  -8.569 125.415  1.00  0.00     0.008 C 
ATOM     14  C   UNL     1      23.170  -4.173 129.176  1.00  0.00     0.017 C 
ATOM     15  C   UNL     1      24.371  -4.258 126.823  1.00  0.00    -0.020 C 
ATOM     16  C   UNL     1      22.369  -3.250 125.650  1.00  0.00     0.032 C 
ATOM     17  C   UNL     1      23.730  -2.931 126.314  1.00  0.00     0.006 C 
ATOM     18  C   UNL     1      25.692  -3.846 127.519  1.00  0.00     0.008 C 
ATOM     19  C   UNL     1      24.651  -5.220 125.612  1.00  0.00     0.012 C 
ATOM     20  C   UNL     1      24.715  -1.913 125.512  1.00  0.00    -0.025 C 
ATOM     21  C   UNL     1      26.728  -3.204 126.599  1.00  0.00     0.005 C 
ATOM     22  C   UNL     1      26.199  -2.471 125.325  1.00  0.00     0.003 C 
ATOM     23  C   UNL     1      24.809  -0.589 126.336  1.00  0.00     0.010 C 
ATOM     24  C   UNL     1      24.092  -1.582 124.121  1.00  0.00     0.012 C 
ATOM     25  C   UNL     1      27.280  -1.414 124.792  1.00  0.00    -0.006 C 
ATOM     26  C   UNL     1      25.793   0.450 125.777  1.00  0.00     0.033 C 
ATOM     27  C   UNL     1      27.217  -0.107 125.646  1.00  0.00     0.120 C 
ATOM     28  C   UNL     1      27.092  -1.094 123.272  1.00  0.00     0.014 C 
ATOM     29  C   UNL     1      28.722  -2.005 124.905  1.00  0.00     0.014 C 
ENDROOT
BRANCH   1  30
ATOM     30  C   UNL     1      21.806  -7.186 130.132  1.00  0.00     0.048 C 
ATOM     31  O   UNL     1      22.694  -7.745 130.832  1.00  0.00    -0.550 OA
ATOM     32  O   UNL     1      20.803  -6.476 130.783  1.00  0.00    -0.550 OA
ENDBRANCH   1  30
BRANCH  27  33
ATOM     33  O   UNL     1      28.037   0.893 125.088  1.00  0.00    -0.393 OA
ATOM     34  H   UNL     1      28.224   0.633 124.150  1.00  0.00     0.210 HD
ENDBRANCH  27  33
TORSDOF 2
ENDMDL
MODEL 8
REMARK VINA RESULT:    -3.799      1.588      2.312
REMARK INTER + INTRA:          -4.166
REMARK INTER:                  -4.635
REMARK INTRA:                   0.469
REMARK UNBOUND:                -0.034
REMARK SMILES C[C@@H]1[C@@H](C)CC[C@@]2(C(=O)[O-])CC[C@]3(C)C(=CC[C@@H]4[C@@]5(C)CC[C@H](O)C(C)(C)[C@H]5CC[C@]43C)[C@@H]12
REMARK SMILES IDX 7 1 6 2 11 3 33 4 5 5 12 6 15 7 2 8 3 9 13 10 16 11 1 12
REMARK SMILES IDX 4 13 14 14 31 15 17 16 18 17 30 18 32 19 19 20 29 21 28 22
REMARK SMILES IDX 21 23 20 24 25 25 22 26 23 27 26 28 27 29 8 30 9 31 10 32
REMARK SMILES IDX 24 33
REMARK H PARENT 24 34
REMARK Flexibility Score: inf
ROOT
ATOM      1  C   UNL     1      22.716   0.523 125.213  1.00  0.00     0.017 C 
ATOM      2  C   UNL     1      22.503   1.444 123.984  1.00  0.00     0.014 C 
ATOM      3  C   UNL     1      21.708  -0.649 125.109  1.00  0.00     0.014 C 
ATOM      4  C   UNL     1      24.195  -0.072 125.337  1.00  0.00     0.030 C 
ATOM      5  C   UNL     1      23.096   0.875 122.712  1.00  0.00     0.004 C 
ATOM      6  C   UNL     1      21.664  -1.496 126.380  1.00  0.00     0.013 C 
ATOM      7  C   UNL     1      24.215  -1.515 125.963  1.00  0.00    -0.063 C 
ATOM      8  C   UNL     1      25.107   0.021 124.026  1.00  0.00    -0.003 C 
ATOM      9  C   UNL     1      24.607   0.903 122.840  1.00  0.00    -0.011 C 
ATOM     10  C   UNL     1      23.069  -1.999 126.887  1.00  0.00    -0.006 C 
ATOM     11  C   UNL     1      25.352  -2.265 125.899  1.00  0.00    -0.027 C 
ATOM     12  C   UNL     1      26.540   0.498 124.398  1.00  0.00     0.008 C 
ATOM     13  C   UNL     1      25.240   0.473 121.504  1.00  0.00     0.008 C 
ATOM     14  C   UNL     1      23.335  -1.312 128.265  1.00  0.00     0.017 C 
ATOM     15  C   UNL     1      23.055  -3.611 126.991  1.00  0.00    -0.020 C 
ATOM     16  C   UNL     1      25.506  -3.685 126.371  1.00  0.00     0.032 C 
ATOM     17  C   UNL     1      24.457  -4.151 127.408  1.00  0.00     0.006 C 
ATOM     18  C   UNL     1      22.079  -4.071 128.102  1.00  0.00     0.008 C 
ATOM     19  C   UNL     1      22.640  -4.210 125.597  1.00  0.00     0.012 C 
ATOM     20  C   UNL     1      24.523  -5.711 127.867  1.00  0.00    -0.025 C 
ATOM     21  C   UNL     1      21.926  -5.585 128.234  1.00  0.00     0.005 C 
ATOM     22  C   UNL     1      23.123  -6.470 127.763  1.00  0.00     0.003 C 
ATOM     23  C   UNL     1      24.973  -5.753 129.362  1.00  0.00     0.010 C 
ATOM     24  C   UNL     1      25.596  -6.454 127.011  1.00  0.00     0.012 C 
ATOM     25  C   UNL     1      23.060  -7.916 128.453  1.00  0.00    -0.006 C 
ATOM     26  C   UNL     1      24.981  -7.152 129.995  1.00  0.00     0.033 C 
ATOM     27  C   UNL     1      23.611  -7.838 129.913  1.00  0.00     0.120 C 
ATOM     28  C   UNL     1      23.831  -8.998 127.625  1.00  0.00     0.014 C 
ATOM     29  C   UNL     1      21.585  -8.429 128.511  1.00  0.00     0.014 C 
ENDROOT
BRANCH   1  30
ATOM     30  C   UNL     1      22.365   1.418 126.405  1.00  0.00     0.048 C 
ATOM     31  O   UNL     1      21.530   2.354 126.278  1.00  0.00    -0.550 OA
ATOM     32  O   UNL     1      23.080   1.327 127.594  1.00  0.00    -0.550 OA
ENDBRANCH   1  30
BRANCH  27  33
ATOM     33  O   UNL     1      23.723  -9.125 130.473  1.00  0.00    -0.393 OA
ATOM     34  H   UNL     1      23.359  -9.079 131.395  1.00  0.00     0.210 HD
ENDBRANCH  27  33
TORSDOF 2
ENDMDL
MODEL 9
REMARK VINA RESULT:    -3.477      1.477      1.699
REMARK INTER + INTRA:          -3.816
REMARK INTER:                  -3.685
REMARK INTRA:                  -0.131
REMARK UNBOUND:                -0.034
REMARK SMILES C[C@@H]1[C@@H](C)CC[C@@]2(C(=O)[O-])CC[C@]3(C)C(=CC[C@@H]4[C@@]5(C)CC[C@H](O)C(C)(C)[C@H]5CC[C@]43C)[C@@H]12
REMARK SMILES IDX 7 1 6 2 11 3 33 4 5 5 12 6 15 7 2 8 3 9 13 10 16 11 1 12
REMARK SMILES IDX 4 13 14 14 31 15 17 16 18 17 30 18 32 19 19 20 29 21 28 22
REMARK SMILES IDX 21 23 20 24 25 25 22 26 23 27 26 28 27 29 8 30 9 31 10 32
REMARK SMILES IDX 24 33
REMARK H PARENT 24 34
REMARK Flexibility Score: inf
ROOT
ATOM      1  C   UNL     1      23.438  -0.883 124.090  1.00  0.00     0.017 C 
ATOM      2  C   UNL     1      24.104  -0.332 122.803  1.00  0.00     0.014 C 
ATOM      3  C   UNL     1      22.142  -1.624 123.676  1.00  0.00     0.014 C 
ATOM      4  C   UNL     1      24.363  -1.880 124.929  1.00  0.00     0.030 C 
ATOM      5  C   UNL     1      24.817  -1.402 122.004  1.00  0.00     0.004 C 
ATOM      6  C   UNL     1      21.280  -2.011 124.877  1.00  0.00     0.013 C 
ATOM      7  C   UNL     1      23.536  -3.006 125.653  1.00  0.00    -0.063 C 
ATOM      8  C   UNL     1      25.637  -2.475 124.166  1.00  0.00    -0.003 C 
ATOM      9  C   UNL     1      26.032  -1.850 122.792  1.00  0.00    -0.011 C 
ATOM     10  C   UNL     1      22.044  -2.793 126.012  1.00  0.00    -0.006 C 
ATOM     11  C   UNL     1      24.181  -4.080 126.190  1.00  0.00    -0.027 C 
ATOM     12  C   UNL     1      26.890  -2.425 125.086  1.00  0.00     0.008 C 
ATOM     13  C   UNL     1      26.861  -2.828 121.939  1.00  0.00     0.008 C 
ATOM     14  C   UNL     1      22.053  -1.876 127.278  1.00  0.00     0.017 C 
ATOM     15  C   UNL     1      21.307  -4.206 126.277  1.00  0.00    -0.020 C 
ATOM     16  C   UNL     1      23.531  -5.274 126.836  1.00  0.00     0.032 C 
ATOM     17  C   UNL     1      22.085  -5.045 127.336  1.00  0.00     0.006 C 
ATOM     18  C   UNL     1      19.897  -3.975 126.876  1.00  0.00     0.008 C 
ATOM     19  C   UNL     1      21.218  -4.998 124.921  1.00  0.00     0.012 C 
ATOM     20  C   UNL     1      21.307  -6.339 127.945  1.00  0.00    -0.025 C 
ATOM     21  C   UNL     1      19.077  -5.245 127.091  1.00  0.00     0.005 C 
ATOM     22  C   UNL     1      19.863  -6.578 127.309  1.00  0.00     0.003 C 
ATOM     23  C   UNL     1      21.115  -6.105 129.478  1.00  0.00     0.010 C 
ATOM     24  C   UNL     1      22.191  -7.610 127.750  1.00  0.00     0.012 C 
ATOM     25  C   UNL     1      18.942  -7.659 128.052  1.00  0.00    -0.006 C 
ATOM     26  C   UNL     1      20.294  -7.185 130.198  1.00  0.00     0.033 C 
ATOM     27  C   UNL     1      18.898  -7.362 129.586  1.00  0.00     0.120 C 
ATOM     28  C   UNL     1      19.422  -9.125 127.785  1.00  0.00     0.014 C 
ATOM     29  C   UNL     1      17.482  -7.606 127.499  1.00  0.00     0.014 C 
ENDROOT
BRANCH   1  30
ATOM     30  C   UNL     1      23.093   0.376 124.890  1.00  0.00     0.048 C 
ATOM     31  O   UNL     1      22.398   1.293 124.374  1.00  0.00    -0.550 OA
ATOM     32  O   UNL     1      23.677   0.610 126.131  1.00  0.00    -0.550 OA
ENDBRANCH   1  30
BRANCH  27  33
ATOM     33  O   UNL     1      18.237  -8.396 130.276  1.00  0.00    -0.393 OA
ATOM     34  H   UNL     1      17.286  -8.131 130.366  1.00  0.00     0.210 HD
ENDBRANCH  27  33
TORSDOF 2
ENDMDL
