MODEL 1
REMARK VINA RESULT:    -3.891      0.000      0.000
REMARK INTER + INTRA:          -9.186
REMARK INTER:                  -7.075
REMARK INTRA:                  -2.111
REMARK UNBOUND:                -2.111
REMARK SMILES CCCCCCCCCCCCCCCC(=O)[O-]
REMARK SMILES IDX 9 1 10 2 11 3 12 4 13 5 14 6 15 7 16 8 17 9 18 10 8 11 7 12
REMARK SMILES IDX 6 13 5 14 4 15 3 16 2 17 1 18
REMARK H PARENT
REMARK Flexibility Score: inf
ROOT
ATOM      1  C   UNL     1       1.259   6.695  -2.879  1.00  0.00     0.000 C 
ENDROOT
BRANCH   1   2
ATOM      2  C   UNL     1       0.535   7.339  -1.692  1.00  0.00     0.000 C 
BRANCH   2   3
ATOM      3  C   UNL     1       1.003   6.731  -0.365  1.00  0.00     0.000 C 
BRANCH   3   4
ATOM      4  C   UNL     1       0.978   7.774   0.759  1.00  0.00     0.000 C 
BRANCH   4   5
ATOM      5  C   UNL     1       1.576   7.207   2.052  1.00  0.00     0.000 C 
BRANCH   5   6
ATOM      6  C   UNL     1       1.200   5.728   2.229  1.00  0.00     0.006 C 
BRANCH   6   7
ATOM      7  C   UNL     1      -0.138   5.554   2.960  1.00  0.00     0.053 C 
BRANCH   7   8
ATOM      8  C   UNL     1      -0.430   4.113   3.248  1.00  0.00     0.041 C 
ATOM      9  O   UNL     1      -0.624   3.304   2.303  1.00  0.00    -0.550 OA
ATOM     10  O   UNL     1      -0.454   3.658   4.560  1.00  0.00    -0.550 OA
ENDBRANCH   7   8
ENDBRANCH   6   7
ENDBRANCH   5   6
ENDBRANCH   4   5
ENDBRANCH   3   4
ENDBRANCH   2   3
ENDBRANCH   1   2
BRANCH   1  11
ATOM     11  C   UNL     1       1.761   7.759  -3.862  1.00  0.00     0.000 C 
BRANCH  11  12
ATOM     12  C   UNL     1       1.650   9.166  -3.255  1.00  0.00    -0.000 C 
BRANCH  12  13
ATOM     13  C   UNL     1       3.024   9.789  -2.961  1.00  0.00    -0.000 C 
BRANCH  13  14
ATOM     14  C   UNL     1       3.600   9.337  -1.608  1.00  0.00    -0.000 C 
BRANCH  14  15
ATOM     15  C   UNL     1       4.805   8.393  -1.762  1.00  0.00    -0.000 C 
BRANCH  15  16
ATOM     16  C   UNL     1       4.633   7.013  -1.101  1.00  0.00    -0.000 C 
BRANCH  16  17
ATOM     17  C   UNL     1       4.746   5.831  -2.087  1.00  0.00    -0.003 C 
ATOM     18  C   UNL     1       4.996   6.289  -3.524  1.00  0.00     0.004 C 
ENDBRANCH  16  17
ENDBRANCH  15  16
ENDBRANCH  14  15
ENDBRANCH  13  14
ENDBRANCH  12  13
ENDBRANCH  11  12
ENDBRANCH   1  11
TORSDOF 14
ENDMDL
MODEL 2
REMARK VINA RESULT:    -3.807      1.660      2.517
REMARK INTER + INTRA:          -9.033
REMARK INTER:                  -7.500
REMARK INTRA:                  -1.533
REMARK UNBOUND:                -2.111
REMARK SMILES CCCCCCCCCCCCCCCC(=O)[O-]
REMARK SMILES IDX 9 1 10 2 11 3 12 4 13 5 14 6 15 7 16 8 17 9 18 10 8 11 7 12
REMARK SMILES IDX 6 13 5 14 4 15 3 16 2 17 1 18
REMARK H PARENT
REMARK Flexibility Score: inf
ROOT
ATOM      1  C   UNL     1       1.053   6.789  -1.310  1.00  0.00     0.000 C 
ENDROOT
BRANCH   1   2
ATOM      2  C   UNL     1       1.185   7.497   0.044  1.00  0.00     0.000 C 
BRANCH   2   3
ATOM      3  C   UNL     1       1.058   6.500   1.202  1.00  0.00     0.000 C 
BRANCH   3   4
ATOM      4  C   UNL     1       0.502   7.183   2.457  1.00  0.00     0.000 C 
BRANCH   4   5
ATOM      5  C   UNL     1      -0.398   6.227   3.251  1.00  0.00     0.000 C 
BRANCH   5   6
ATOM      6  C   UNL     1      -0.190   4.774   2.798  1.00  0.00     0.006 C 
BRANCH   6   7
ATOM      7  C   UNL     1       0.332   3.883   3.933  1.00  0.00     0.053 C 
BRANCH   7   8
ATOM      8  C   UNL     1       1.743   4.224   4.303  1.00  0.00     0.041 C 
ATOM      9  O   UNL     1       2.003   4.701   5.438  1.00  0.00    -0.550 OA
ATOM     10  O   UNL     1       2.775   3.982   3.405  1.00  0.00    -0.550 OA
ENDBRANCH   7   8
ENDBRANCH   6   7
ENDBRANCH   5   6
ENDBRANCH   4   5
ENDBRANCH   3   4
ENDBRANCH   2   3
ENDBRANCH   1   2
BRANCH   1  11
ATOM     11  C   UNL     1       0.711   7.786  -2.423  1.00  0.00     0.000 C 
BRANCH  11  12
ATOM     12  C   UNL     1       1.799   7.796  -3.507  1.00  0.00    -0.000 C 
BRANCH  12  13
ATOM     13  C   UNL     1       2.377   6.397  -3.773  1.00  0.00    -0.000 C 
BRANCH  13  14
ATOM     14  C   UNL     1       3.914   6.369  -3.701  1.00  0.00    -0.000 C 
BRANCH  14  15
ATOM     15  C   UNL     1       4.477   7.364  -2.673  1.00  0.00    -0.000 C 
BRANCH  15  16
ATOM     16  C   UNL     1       5.670   6.838  -1.851  1.00  0.00    -0.000 C 
BRANCH  16  17
ATOM     17  C   UNL     1       5.297   5.714  -0.861  1.00  0.00    -0.003 C 
ATOM     18  C   UNL     1       4.703   6.253   0.441  1.00  0.00     0.004 C 
ENDBRANCH  16  17
ENDBRANCH  15  16
ENDBRANCH  14  15
ENDBRANCH  13  14
ENDBRANCH  12  13
ENDBRANCH  11  12
ENDBRANCH   1  11
TORSDOF 14
ENDMDL
MODEL 3
REMARK VINA RESULT:    -3.743      1.088      2.114
REMARK INTER + INTRA:          -8.917
REMARK INTER:                  -7.052
REMARK INTRA:                  -1.865
REMARK UNBOUND:                -2.111
REMARK SMILES CCCCCCCCCCCCCCCC(=O)[O-]
REMARK SMILES IDX 9 1 10 2 11 3 12 4 13 5 14 6 15 7 16 8 17 9 18 10 8 11 7 12
REMARK SMILES IDX 6 13 5 14 4 15 3 16 2 17 1 18
REMARK H PARENT
REMARK Flexibility Score: inf
ROOT
ATOM      1  C   UNL     1       0.016   8.029  -1.810  1.00  0.00     0.000 C 
ENDROOT
BRANCH   1   2
ATOM      2  C   UNL     1       0.279   8.208  -0.311  1.00  0.00     0.000 C 
BRANCH   2   3
ATOM      3  C   UNL     1       1.153   7.073   0.235  1.00  0.00     0.000 C 
BRANCH   3   4
ATOM      4  C   UNL     1       1.588   7.358   1.677  1.00  0.00     0.000 C 
BRANCH   4   5
ATOM      5  C   UNL     1       0.431   7.948   2.495  1.00  0.00     0.000 C 
BRANCH   5   6
ATOM      6  C   UNL     1      -0.505   6.841   3.000  1.00  0.00     0.006 C 
BRANCH   6   7
ATOM      7  C   UNL     1       0.250   5.749   3.771  1.00  0.00     0.053 C 
BRANCH   7   8
ATOM      8  C   UNL     1       0.299   4.462   3.006  1.00  0.00     0.041 C 
ATOM      9  O   UNL     1       1.402   3.991   2.625  1.00  0.00    -0.550 OA
ATOM     10  O   UNL     1      -0.874   3.764   2.745  1.00  0.00    -0.550 OA
ENDBRANCH   7   8
ENDBRANCH   6   7
ENDBRANCH   5   6
ENDBRANCH   4   5
ENDBRANCH   3   4
ENDBRANCH   2   3
ENDBRANCH   1   2
BRANCH   1  11
ATOM     11  C   UNL     1       0.891   8.974  -2.642  1.00  0.00     0.000 C 
BRANCH  11  12
ATOM     12  C   UNL     1       1.606   8.213  -3.769  1.00  0.00    -0.000 C 
BRANCH  12  13
ATOM     13  C   UNL     1       1.748   6.713  -3.468  1.00  0.00    -0.000 C 
BRANCH  13  14
ATOM     14  C   UNL     1       3.011   6.101  -4.098  1.00  0.00    -0.000 C 
BRANCH  14  15
ATOM     15  C   UNL     1       4.297   6.496  -3.351  1.00  0.00    -0.000 C 
BRANCH  15  16
ATOM     16  C   UNL     1       4.375   6.000  -1.895  1.00  0.00    -0.000 C 
BRANCH  16  17
ATOM     17  C   UNL     1       4.864   7.073  -0.897  1.00  0.00    -0.003 C 
ATOM     18  C   UNL     1       4.316   8.464  -1.218  1.00  0.00     0.004 C 
ENDBRANCH  16  17
ENDBRANCH  15  16
ENDBRANCH  14  15
ENDBRANCH  13  14
ENDBRANCH  12  13
ENDBRANCH  11  12
ENDBRANCH   1  11
TORSDOF 14
ENDMDL
MODEL 4
REMARK VINA RESULT:    -3.720      2.525      5.368
REMARK INTER + INTRA:          -8.875
REMARK INTER:                  -7.105
REMARK INTRA:                  -1.770
REMARK UNBOUND:                -2.111
REMARK SMILES CCCCCCCCCCCCCCCC(=O)[O-]
REMARK SMILES IDX 9 1 10 2 11 3 12 4 13 5 14 6 15 7 16 8 17 9 18 10 8 11 7 12
REMARK SMILES IDX 6 13 5 14 4 15 3 16 2 17 1 18
REMARK H PARENT
REMARK Flexibility Score: inf
ROOT
ATOM      1  C   UNL     1       0.660   9.018  -2.764  1.00  0.00     0.000 C 
ENDROOT
BRANCH   1   2
ATOM      2  C   UNL     1       1.627   8.213  -3.641  1.00  0.00     0.000 C 
BRANCH   2   3
ATOM      3  C   UNL     1       1.672   6.744  -3.208  1.00  0.00     0.000 C 
BRANCH   3   4
ATOM      4  C   UNL     1       3.069   6.360  -2.708  1.00  0.00     0.000 C 
BRANCH   4   5
ATOM      5  C   UNL     1       3.823   7.589  -2.183  1.00  0.00     0.000 C 
BRANCH   5   6
ATOM      6  C   UNL     1       4.546   7.270  -0.867  1.00  0.00     0.006 C 
BRANCH   6   7
ATOM      7  C   UNL     1       5.169   5.868  -0.872  1.00  0.00     0.053 C 
BRANCH   7   8
ATOM      8  C   UNL     1       5.506   5.404   0.512  1.00  0.00     0.041 C 
ATOM      9  O   UNL     1       6.120   4.319   0.686  1.00  0.00    -0.550 OA
ATOM     10  O   UNL     1       5.172   6.189   1.608  1.00  0.00    -0.550 OA
ENDBRANCH   7   8
ENDBRANCH   6   7
ENDBRANCH   5   6
ENDBRANCH   4   5
ENDBRANCH   3   4
ENDBRANCH   2   3
ENDBRANCH   1   2
BRANCH   1  11
ATOM     11  C   UNL     1      -0.181   8.092  -1.878  1.00  0.00     0.000 C 
BRANCH  11  12
ATOM     12  C   UNL     1      -0.200   8.588  -0.424  1.00  0.00    -0.000 C 
BRANCH  12  13
ATOM     13  C   UNL     1       1.069   8.195   0.348  1.00  0.00    -0.000 C 
BRANCH  13  14
ATOM     14  C   UNL     1       1.134   6.686   0.646  1.00  0.00    -0.000 C 
BRANCH  14  15
ATOM     15  C   UNL     1       1.426   6.387   2.126  1.00  0.00    -0.000 C 
BRANCH  15  16
ATOM     16  C   UNL     1       0.281   5.687   2.882  1.00  0.00    -0.000 C 
BRANCH  16  17
ATOM     17  C   UNL     1       0.457   4.159   3.006  1.00  0.00    -0.003 C 
ATOM     18  C   UNL     1      -0.835   3.394   2.716  1.00  0.00     0.004 C 
ENDBRANCH  16  17
ENDBRANCH  15  16
ENDBRANCH  14  15
ENDBRANCH  13  14
ENDBRANCH  12  13
ENDBRANCH  11  12
ENDBRANCH   1  11
TORSDOF 14
ENDMDL
MODEL 5
REMARK VINA RESULT:    -3.704      2.519      5.621
REMARK INTER + INTRA:          -8.847
REMARK INTER:                  -7.500
REMARK INTRA:                  -1.347
REMARK UNBOUND:                -2.111
REMARK SMILES CCCCCCCCCCCCCCCC(=O)[O-]
REMARK SMILES IDX 9 1 10 2 11 3 12 4 13 5 14 6 15 7 16 8 17 9 18 10 8 11 7 12
REMARK SMILES IDX 6 13 5 14 4 15 3 16 2 17 1 18
REMARK H PARENT
REMARK Flexibility Score: inf
ROOT
ATOM      1  C   UNL     1       1.416   6.353  -2.558  1.00  0.00     0.000 C 
ENDROOT
BRANCH   1   2
ATOM      2  C   UNL     1       2.323   6.581  -3.773  1.00  0.00     0.000 C 
BRANCH   2   3
ATOM      3  C   UNL     1       3.800   6.603  -3.362  1.00  0.00     0.000 C 
BRANCH   3   4
ATOM      4  C   UNL     1       4.133   7.876  -2.576  1.00  0.00     0.000 C 
BRANCH   4   5
ATOM      5  C   UNL     1       5.127   7.582  -1.446  1.00  0.00     0.000 C 
BRANCH   5   6
ATOM      6  C   UNL     1       5.205   6.075  -1.161  1.00  0.00     0.006 C 
BRANCH   6   7
ATOM      7  C   UNL     1       6.368   5.721  -0.225  1.00  0.00     0.053 C 
BRANCH   7   8
ATOM      8  C   UNL     1       5.905   4.940   0.967  1.00  0.00     0.041 C 
ATOM      9  O   UNL     1       4.835   5.252   1.553  1.00  0.00    -0.550 OA
ATOM     10  O   UNL     1       6.638   3.846   1.409  1.00  0.00    -0.550 OA
ENDBRANCH   7   8
ENDBRANCH   6   7
ENDBRANCH   5   6
ENDBRANCH   4   5
ENDBRANCH   3   4
ENDBRANCH   2   3
ENDBRANCH   1   2
BRANCH   1  11
ATOM     11  C   UNL     1       0.554   7.588  -2.274  1.00  0.00     0.000 C 
BRANCH  11  12
ATOM     12  C   UNL     1       0.560   7.931  -0.777  1.00  0.00    -0.000 C 
BRANCH  12  13
ATOM     13  C   UNL     1       1.310   6.885   0.063  1.00  0.00    -0.000 C 
BRANCH  13  14
ATOM     14  C   UNL     1       1.269   7.198   1.569  1.00  0.00    -0.000 C 
BRANCH  14  15
ATOM     15  C   UNL     1       1.228   5.929   2.437  1.00  0.00    -0.000 C 
BRANCH  15  16
ATOM     16  C   UNL     1      -0.140   5.629   3.078  1.00  0.00    -0.000 C 
BRANCH  16  17
ATOM     17  C   UNL     1      -0.241   4.220   3.701  1.00  0.00    -0.003 C 
ATOM     18  C   UNL     1      -0.903   3.211   2.763  1.00  0.00     0.004 C 
ENDBRANCH  16  17
ENDBRANCH  15  16
ENDBRANCH  14  15
ENDBRANCH  13  14
ENDBRANCH  12  13
ENDBRANCH  11  12
ENDBRANCH   1  11
TORSDOF 14
ENDMDL
MODEL 6
REMARK VINA RESULT:    -3.699      1.505      2.301
REMARK INTER + INTRA:          -8.837
REMARK INTER:                  -7.374
REMARK INTRA:                  -1.463
REMARK UNBOUND:                -2.111
REMARK SMILES CCCCCCCCCCCCCCCC(=O)[O-]
REMARK SMILES IDX 9 1 10 2 11 3 12 4 13 5 14 6 15 7 16 8 17 9 18 10 8 11 7 12
REMARK SMILES IDX 6 13 5 14 4 15 3 16 2 17 1 18
REMARK H PARENT
REMARK Flexibility Score: inf
ROOT
ATOM      1  C   UNL     1       1.009   7.760  -2.643  1.00  0.00     0.000 C 
ENDROOT
BRANCH   1   2
ATOM      2  C   UNL     1       0.334   7.877  -1.271  1.00  0.00     0.000 C 
BRANCH   2   3
ATOM      3  C   UNL     1       1.023   6.977  -0.239  1.00  0.00     0.000 C 
BRANCH   3   4
ATOM      4  C   UNL     1       1.562   7.801   0.936  1.00  0.00     0.000 C 
BRANCH   4   5
ATOM      5  C   UNL     1       1.053   7.251   2.274  1.00  0.00     0.000 C 
BRANCH   5   6
ATOM      6  C   UNL     1       0.735   5.752   2.167  1.00  0.00     0.006 C 
BRANCH   6   7
ATOM      7  C   UNL     1      -0.384   5.326   3.127  1.00  0.00     0.053 C 
BRANCH   7   8
ATOM      8  C   UNL     1      -0.419   3.840   3.315  1.00  0.00     0.041 C 
ATOM      9  O   UNL     1      -0.802   3.091   2.379  1.00  0.00    -0.550 OA
ATOM     10  O   UNL     1       0.005   3.281   4.514  1.00  0.00    -0.550 OA
ENDBRANCH   7   8
ENDBRANCH   6   7
ENDBRANCH   5   6
ENDBRANCH   4   5
ENDBRANCH   3   4
ENDBRANCH   2   3
ENDBRANCH   1   2
BRANCH   1  11
ATOM     11  C   UNL     1       1.541   6.341  -2.877  1.00  0.00     0.000 C 
BRANCH  11  12
ATOM     12  C   UNL     1       2.957   6.376  -3.470  1.00  0.00    -0.000 C 
BRANCH  12  13
ATOM     13  C   UNL     1       4.003   6.885  -2.466  1.00  0.00    -0.000 C 
BRANCH  13  14
ATOM     14  C   UNL     1       5.072   5.827  -2.139  1.00  0.00    -0.000 C 
BRANCH  14  15
ATOM     15  C   UNL     1       5.686   6.016  -0.742  1.00  0.00    -0.000 C 
BRANCH  15  16
ATOM     16  C   UNL     1       4.663   6.107   0.406  1.00  0.00    -0.000 C 
BRANCH  16  17
ATOM     17  C   UNL     1       5.083   5.340   1.678  1.00  0.00    -0.003 C 
ATOM     18  C   UNL     1       6.293   4.434   1.443  1.00  0.00     0.004 C 
ENDBRANCH  16  17
ENDBRANCH  15  16
ENDBRANCH  14  15
ENDBRANCH  13  14
ENDBRANCH  12  13
ENDBRANCH  11  12
ENDBRANCH   1  11
TORSDOF 14
ENDMDL
MODEL 7
REMARK VINA RESULT:    -3.696      1.468      2.626
REMARK INTER + INTRA:          -8.831
REMARK INTER:                  -6.808
REMARK INTRA:                  -2.023
REMARK UNBOUND:                -2.111
REMARK SMILES CCCCCCCCCCCCCCCC(=O)[O-]
REMARK SMILES IDX 9 1 10 2 11 3 12 4 13 5 14 6 15 7 16 8 17 9 18 10 8 11 7 12
REMARK SMILES IDX 6 13 5 14 4 15 3 16 2 17 1 18
REMARK H PARENT
REMARK Flexibility Score: inf
ROOT
ATOM      1  C   UNL     1       1.302   8.674  -2.950  1.00  0.00     0.000 C 
ENDROOT
BRANCH   1   2
ATOM      2  C   UNL     1       0.217   9.590  -2.374  1.00  0.00     0.000 C 
BRANCH   2   3
ATOM      3  C   UNL     1      -0.598   8.869  -1.293  1.00  0.00     0.000 C 
BRANCH   3   4
ATOM      4  C   UNL     1      -0.477   9.585   0.057  1.00  0.00     0.000 C 
BRANCH   4   5
ATOM      5  C   UNL     1      -0.364   8.577   1.207  1.00  0.00     0.000 C 
BRANCH   5   6
ATOM      6  C   UNL     1       1.040   7.957   1.258  1.00  0.00     0.006 C 
BRANCH   6   7
ATOM      7  C   UNL     1       1.013   6.440   1.027  1.00  0.00     0.053 C 
BRANCH   7   8
ATOM      8  C   UNL     1       0.707   5.692   2.289  1.00  0.00     0.041 C 
ATOM      9  O   UNL     1       0.281   4.508   2.237  1.00  0.00    -0.550 OA
ATOM     10  O   UNL     1       0.924   6.292   3.523  1.00  0.00    -0.550 OA
ENDBRANCH   7   8
ENDBRANCH   6   7
ENDBRANCH   5   6
ENDBRANCH   4   5
ENDBRANCH   3   4
ENDBRANCH   2   3
ENDBRANCH   1   2
BRANCH   1  11
ATOM     11  C   UNL     1       0.950   7.197  -2.733  1.00  0.00     0.000 C 
BRANCH  11  12
ATOM     12  C   UNL     1       2.219   6.349  -2.559  1.00  0.00    -0.000 C 
BRANCH  12  13
ATOM     13  C   UNL     1       3.137   6.405  -3.789  1.00  0.00    -0.000 C 
BRANCH  13  14
ATOM     14  C   UNL     1       4.629   6.432  -3.411  1.00  0.00    -0.000 C 
BRANCH  14  15
ATOM     15  C   UNL     1       4.921   5.692  -2.095  1.00  0.00    -0.000 C 
BRANCH  15  16
ATOM     16  C   UNL     1       5.458   6.584  -0.959  1.00  0.00    -0.000 C 
BRANCH  16  17
ATOM     17  C   UNL     1       5.395   8.095  -1.270  1.00  0.00    -0.003 C 
ATOM     18  C   UNL     1       4.183   8.774  -0.631  1.00  0.00     0.004 C 
ENDBRANCH  16  17
ENDBRANCH  15  16
ENDBRANCH  14  15
ENDBRANCH  13  14
ENDBRANCH  12  13
ENDBRANCH  11  12
ENDBRANCH   1  11
TORSDOF 14
ENDMDL
MODEL 8
REMARK VINA RESULT:    -3.660      3.004      5.999
REMARK INTER + INTRA:          -8.767
REMARK INTER:                  -7.304
REMARK INTRA:                  -1.463
REMARK UNBOUND:                -2.111
REMARK SMILES CCCCCCCCCCCCCCCC(=O)[O-]
REMARK SMILES IDX 9 1 10 2 11 3 12 4 13 5 14 6 15 7 16 8 17 9 18 10 8 11 7 12
REMARK SMILES IDX 6 13 5 14 4 15 3 16 2 17 1 18
REMARK H PARENT
REMARK Flexibility Score: inf
ROOT
ATOM      1  C   UNL     1      -0.878   9.793  -0.435  1.00  0.00     0.000 C 
ENDROOT
BRANCH   1   2
ATOM      2  C   UNL     1      -1.326   8.728  -1.442  1.00  0.00     0.000 C 
BRANCH   2   3
ATOM      3  C   UNL     1      -0.155   7.826  -1.850  1.00  0.00     0.000 C 
BRANCH   3   4
ATOM      4  C   UNL     1       0.895   8.613  -2.642  1.00  0.00     0.000 C 
BRANCH   4   5
ATOM      5  C   UNL     1       1.678   7.691  -3.585  1.00  0.00     0.000 C 
BRANCH   5   6
ATOM      6  C   UNL     1       2.161   6.433  -2.849  1.00  0.00     0.006 C 
BRANCH   6   7
ATOM      7  C   UNL     1       3.325   6.730  -1.894  1.00  0.00     0.053 C 
BRANCH   7   8
ATOM      8  C   UNL     1       4.587   6.051  -2.328  1.00  0.00     0.041 C 
ATOM      9  O   UNL     1       5.365   5.552  -1.473  1.00  0.00    -0.550 OA
ATOM     10  O   UNL     1       4.886   5.938  -3.680  1.00  0.00    -0.550 OA
ENDBRANCH   7   8
ENDBRANCH   6   7
ENDBRANCH   5   6
ENDBRANCH   4   5
ENDBRANCH   3   4
ENDBRANCH   2   3
ENDBRANCH   1   2
BRANCH   1  11
ATOM     11  C   UNL     1      -0.631   9.176   0.947  1.00  0.00     0.000 C 
BRANCH  11  12
ATOM     12  C   UNL     1       0.745   9.584   1.494  1.00  0.00    -0.000 C 
BRANCH  12  13
ATOM     13  C   UNL     1       1.360   8.506   2.400  1.00  0.00    -0.000 C 
BRANCH  13  14
ATOM     14  C   UNL     1       2.012   7.365   1.599  1.00  0.00    -0.000 C 
BRANCH  14  15
ATOM     15  C   UNL     1       1.024   6.233   1.270  1.00  0.00    -0.000 C 
BRANCH  15  16
ATOM     16  C   UNL     1       0.160   5.764   2.456  1.00  0.00    -0.000 C 
BRANCH  16  17
ATOM     17  C   UNL     1       0.523   4.355   2.973  1.00  0.00    -0.003 C 
ATOM     18  C   UNL     1      -0.614   3.351   2.787  1.00  0.00     0.004 C 
ENDBRANCH  16  17
ENDBRANCH  15  16
ENDBRANCH  14  15
ENDBRANCH  13  14
ENDBRANCH  12  13
ENDBRANCH  11  12
ENDBRANCH   1  11
TORSDOF 14
ENDMDL
MODEL 9
REMARK VINA RESULT:    -3.641      3.072      4.929
REMARK INTER + INTRA:          -8.731
REMARK INTER:                  -6.326
REMARK INTRA:                  -2.405
REMARK UNBOUND:                -2.111
REMARK SMILES CCCCCCCCCCCCCCCC(=O)[O-]
REMARK SMILES IDX 9 1 10 2 11 3 12 4 13 5 14 6 15 7 16 8 17 9 18 10 8 11 7 12
REMARK SMILES IDX 6 13 5 14 4 15 3 16 2 17 1 18
REMARK H PARENT
REMARK Flexibility Score: inf
ROOT
ATOM      1  C   UNL     1       1.066   6.566  -2.311  1.00  0.00     0.000 C 
ENDROOT
BRANCH   1   2
ATOM      2  C   UNL     1       1.781   6.944  -3.613  1.00  0.00     0.000 C 
BRANCH   2   3
ATOM      3  C   UNL     1       3.296   6.741  -3.490  1.00  0.00     0.000 C 
BRANCH   3   4
ATOM      4  C   UNL     1       3.676   6.280  -2.078  1.00  0.00     0.000 C 
BRANCH   4   5
ATOM      5  C   UNL     1       5.103   5.718  -2.047  1.00  0.00     0.000 C 
BRANCH   5   6
ATOM      6  C   UNL     1       5.904   6.316  -0.881  1.00  0.00     0.006 C 
BRANCH   6   7
ATOM      7  C   UNL     1       5.579   5.635   0.455  1.00  0.00     0.053 C 
BRANCH   7   8
ATOM      8  C   UNL     1       6.586   4.582   0.802  1.00  0.00     0.041 C 
ATOM      9  O   UNL     1       6.209   3.459   1.227  1.00  0.00    -0.550 OA
ATOM     10  O   UNL     1       7.941   4.831   0.623  1.00  0.00    -0.550 OA
ENDBRANCH   7   8
ENDBRANCH   6   7
ENDBRANCH   5   6
ENDBRANCH   4   5
ENDBRANCH   3   4
ENDBRANCH   2   3
ENDBRANCH   1   2
BRANCH   1  11
ATOM     11  C   UNL     1       0.069   7.653  -1.894  1.00  0.00     0.000 C 
BRANCH  11  12
ATOM     12  C   UNL     1       0.612   9.052  -2.219  1.00  0.00    -0.000 C 
BRANCH  12  13
ATOM     13  C   UNL     1       1.179   9.765  -0.981  1.00  0.00    -0.000 C 
BRANCH  13  14
ATOM     14  C   UNL     1       2.711   9.657  -0.887  1.00  0.00    -0.000 C 
BRANCH  14  15
ATOM     15  C   UNL     1       3.177   8.909   0.373  1.00  0.00    -0.000 C 
BRANCH  15  16
ATOM     16  C   UNL     1       2.043   8.303   1.221  1.00  0.00    -0.000 C 
BRANCH  16  17
ATOM     17  C   UNL     1       2.016   6.759   1.213  1.00  0.00    -0.003 C 
ATOM     18  C   UNL     1       0.810   6.190   1.961  1.00  0.00     0.004 C 
ENDBRANCH  16  17
ENDBRANCH  15  16
ENDBRANCH  14  15
ENDBRANCH  13  14
ENDBRANCH  12  13
ENDBRANCH  11  12
ENDBRANCH   1  11
TORSDOF 14
ENDMDL
