MODEL 1
REMARK VINA RESULT:    -3.408      0.000      0.000
REMARK INTER + INTRA:          -6.880
REMARK INTER:                  -6.198
REMARK INTRA:                  -0.682
REMARK UNBOUND:                -0.682
REMARK SMILES CCCCCCCCCCCCCCCC(=O)[O-]
REMARK SMILES IDX 9 1 10 2 11 3 12 4 13 5 14 6 15 7 16 8 17 9 18 10 8 11 7 12
REMARK SMILES IDX 6 13 5 14 4 15 3 16 2 17 1 18
REMARK H PARENT
REMARK Flexibility Score: inf
ROOT
ATOM      1  C   UNL     1       4.049  14.168  15.960  1.00  0.00     0.000 C 
ENDROOT
BRANCH   1   2
ATOM      2  C   UNL     1       2.570  14.047  15.572  1.00  0.00     0.000 C 
BRANCH   2   3
ATOM      3  C   UNL     1       2.383  13.054  14.418  1.00  0.00     0.000 C 
BRANCH   3   4
ATOM      4  C   UNL     1       3.403  13.254  13.284  1.00  0.00     0.000 C 
BRANCH   4   5
ATOM      5  C   UNL     1       3.423  12.101  12.259  1.00  0.00     0.000 C 
BRANCH   5   6
ATOM      6  C   UNL     1       3.522  12.612  10.811  1.00  0.00     0.006 C 
BRANCH   6   7
ATOM      7  C   UNL     1       4.314  13.923  10.710  1.00  0.00     0.053 C 
BRANCH   7   8
ATOM      8  C   UNL     1       5.486  13.795   9.787  1.00  0.00     0.041 C 
ATOM      9  O   UNL     1       6.057  14.825   9.341  1.00  0.00    -0.550 OA
ATOM     10  O   UNL     1       5.926  12.538   9.390  1.00  0.00    -0.550 OA
ENDBRANCH   7   8
ENDBRANCH   6   7
ENDBRANCH   5   6
ENDBRANCH   4   5
ENDBRANCH   3   4
ENDBRANCH   2   3
ENDBRANCH   1   2
BRANCH   1  11
ATOM     11  C   UNL     1       4.220  14.150  17.486  1.00  0.00     0.000 C 
BRANCH  11  12
ATOM     12  C   UNL     1       5.683  13.963  17.923  1.00  0.00    -0.000 C 
BRANCH  12  13
ATOM     13  C   UNL     1       5.876  13.395  19.344  1.00  0.00    -0.000 C 
BRANCH  13  14
ATOM     14  C   UNL     1       5.728  14.416  20.488  1.00  0.00    -0.000 C 
BRANCH  14  15
ATOM     15  C   UNL     1       6.918  15.384  20.584  1.00  0.00    -0.000 C 
BRANCH  15  16
ATOM     16  C   UNL     1       6.583  16.663  21.369  1.00  0.00    -0.000 C 
BRANCH  16  17
ATOM     17  C   UNL     1       5.069  16.933  21.497  1.00  0.00    -0.003 C 
ATOM     18  C   UNL     1       4.689  17.462  22.880  1.00  0.00     0.004 C 
ENDBRANCH  16  17
ENDBRANCH  15  16
ENDBRANCH  14  15
ENDBRANCH  13  14
ENDBRANCH  12  13
ENDBRANCH  11  12
ENDBRANCH   1  11
TORSDOF 14
ENDMDL
MODEL 2
REMARK VINA RESULT:    -2.910      4.251      9.439
REMARK INTER + INTRA:          -5.975
REMARK INTER:                  -5.426
REMARK INTRA:                  -0.548
REMARK UNBOUND:                -0.682
REMARK SMILES CCCCCCCCCCCCCCCC(=O)[O-]
REMARK SMILES IDX 9 1 10 2 11 3 12 4 13 5 14 6 15 7 16 8 17 9 18 10 8 11 7 12
REMARK SMILES IDX 6 13 5 14 4 15 3 16 2 17 1 18
REMARK H PARENT
REMARK Flexibility Score: inf
ROOT
ATOM      1  C   UNL     1       3.834  14.138  16.141  1.00  0.00     0.000 C 
ENDROOT
BRANCH   1   2
ATOM      2  C   UNL     1       4.233  14.161  17.621  1.00  0.00     0.000 C 
BRANCH   2   3
ATOM      3  C   UNL     1       5.701  13.753  17.802  1.00  0.00     0.000 C 
BRANCH   3   4
ATOM      4  C   UNL     1       6.063  13.453  19.267  1.00  0.00     0.000 C 
BRANCH   4   5
ATOM      5  C   UNL     1       5.749  14.615  20.232  1.00  0.00     0.000 C 
BRANCH   5   6
ATOM      6  C   UNL     1       6.998  15.454  20.556  1.00  0.00     0.006 C 
BRANCH   6   7
ATOM      7  C   UNL     1       6.794  16.348  21.786  1.00  0.00     0.053 C 
BRANCH   7   8
ATOM      8  C   UNL     1       5.642  17.289  21.606  1.00  0.00     0.041 C 
ATOM      9  O   UNL     1       5.478  17.888  20.511  1.00  0.00    -0.550 OA
ATOM     10  O   UNL     1       4.771  17.533  22.661  1.00  0.00    -0.550 OA
ENDBRANCH   7   8
ENDBRANCH   6   7
ENDBRANCH   5   6
ENDBRANCH   4   5
ENDBRANCH   3   4
ENDBRANCH   2   3
ENDBRANCH   1   2
BRANCH   1  11
ATOM     11  C   UNL     1       2.340  13.823  15.979  1.00  0.00     0.000 C 
BRANCH  11  12
ATOM     12  C   UNL     1       2.036  12.988  14.723  1.00  0.00    -0.000 C 
BRANCH  12  13
ATOM     13  C   UNL     1       3.118  13.040  13.624  1.00  0.00    -0.000 C 
BRANCH  13  14
ATOM     14  C   UNL     1       3.028  11.932  12.558  1.00  0.00    -0.000 C 
BRANCH  14  15
ATOM     15  C   UNL     1       3.797  12.275  11.272  1.00  0.00    -0.000 C 
BRANCH  15  16
ATOM     16  C   UNL     1       3.954  13.789  11.058  1.00  0.00    -0.000 C 
BRANCH  16  17
ATOM     17  C   UNL     1       4.448  14.168   9.646  1.00  0.00    -0.003 C 
ATOM     18  C   UNL     1       5.952  13.954   9.480  1.00  0.00     0.004 C 
ENDBRANCH  16  17
ENDBRANCH  15  16
ENDBRANCH  14  15
ENDBRANCH  13  14
ENDBRANCH  12  13
ENDBRANCH  11  12
ENDBRANCH   1  11
TORSDOF 14
ENDMDL
MODEL 3
REMARK VINA RESULT:    -2.862      0.760      1.364
REMARK INTER + INTRA:          -5.886
REMARK INTER:                  -5.296
REMARK INTRA:                  -0.590
REMARK UNBOUND:                -0.682
REMARK SMILES CCCCCCCCCCCCCCCC(=O)[O-]
REMARK SMILES IDX 9 1 10 2 11 3 12 4 13 5 14 6 15 7 16 8 17 9 18 10 8 11 7 12
REMARK SMILES IDX 6 13 5 14 4 15 3 16 2 17 1 18
REMARK H PARENT
REMARK Flexibility Score: inf
ROOT
ATOM      1  C   UNL     1       2.856  14.042  15.564  1.00  0.00     0.000 C 
ENDROOT
BRANCH   1   2
ATOM      2  C   UNL     1       2.817  13.988  14.032  1.00  0.00     0.000 C 
BRANCH   2   3
ATOM      3  C   UNL     1       2.910  12.541  13.529  1.00  0.00     0.000 C 
BRANCH   3   4
ATOM      4  C   UNL     1       3.435  12.440  12.087  1.00  0.00     0.000 C 
BRANCH   4   5
ATOM      5  C   UNL     1       3.967  13.777  11.528  1.00  0.00     0.000 C 
BRANCH   5   6
ATOM      6  C   UNL     1       3.685  13.930  10.023  1.00  0.00     0.006 C 
BRANCH   6   7
ATOM      7  C   UNL     1       4.640  13.090   9.165  1.00  0.00     0.053 C 
BRANCH   7   8
ATOM      8  C   UNL     1       6.036  13.631   9.193  1.00  0.00     0.041 C 
ATOM      9  O   UNL     1       6.234  14.873   9.239  1.00  0.00    -0.550 OA
ATOM     10  O   UNL     1       7.120  12.763   9.131  1.00  0.00    -0.550 OA
ENDBRANCH   7   8
ENDBRANCH   6   7
ENDBRANCH   5   6
ENDBRANCH   4   5
ENDBRANCH   3   4
ENDBRANCH   2   3
ENDBRANCH   1   2
BRANCH   1  11
ATOM     11  C   UNL     1       4.299  14.162  16.073  1.00  0.00     0.000 C 
BRANCH  11  12
ATOM     12  C   UNL     1       4.399  14.120  17.607  1.00  0.00    -0.000 C 
BRANCH  12  13
ATOM     13  C   UNL     1       5.828  13.962  18.168  1.00  0.00    -0.000 C 
BRANCH  13  14
ATOM     14  C   UNL     1       5.915  13.692  19.682  1.00  0.00    -0.000 C 
BRANCH  14  15
ATOM     15  C   UNL     1       5.718  14.959  20.529  1.00  0.00    -0.000 C 
BRANCH  15  16
ATOM     16  C   UNL     1       7.048  15.623  20.924  1.00  0.00    -0.000 C 
BRANCH  16  17
ATOM     17  C   UNL     1       6.897  17.091  21.377  1.00  0.00    -0.003 C 
ATOM     18  C   UNL     1       5.592  17.333  22.136  1.00  0.00     0.004 C 
ENDBRANCH  16  17
ENDBRANCH  15  16
ENDBRANCH  14  15
ENDBRANCH  13  14
ENDBRANCH  12  13
ENDBRANCH  11  12
ENDBRANCH   1  11
TORSDOF 14
ENDMDL
MODEL 4
REMARK VINA RESULT:    -2.794      4.060      9.330
REMARK INTER + INTRA:          -5.763
REMARK INTER:                  -5.027
REMARK INTRA:                  -0.736
REMARK UNBOUND:                -0.682
REMARK SMILES CCCCCCCCCCCCCCCC(=O)[O-]
REMARK SMILES IDX 9 1 10 2 11 3 12 4 13 5 14 6 15 7 16 8 17 9 18 10 8 11 7 12
REMARK SMILES IDX 6 13 5 14 4 15 3 16 2 17 1 18
REMARK H PARENT
REMARK Flexibility Score: inf
ROOT
ATOM      1  C   UNL     1       2.335  13.998  16.010  1.00  0.00     0.000 C 
ENDROOT
BRANCH   1   2
ATOM      2  C   UNL     1       3.850  14.147  16.185  1.00  0.00     0.000 C 
BRANCH   2   3
ATOM      3  C   UNL     1       4.235  14.163  17.671  1.00  0.00     0.000 C 
BRANCH   3   4
ATOM      4  C   UNL     1       5.743  13.969  17.902  1.00  0.00     0.000 C 
BRANCH   4   5
ATOM      5  C   UNL     1       6.085  13.371  19.283  1.00  0.00     0.000 C 
BRANCH   5   6
ATOM      6  C   UNL     1       5.649  14.290  20.438  1.00  0.00     0.006 C 
BRANCH   6   7
ATOM      7  C   UNL     1       6.646  15.431  20.681  1.00  0.00     0.053 C 
BRANCH   7   8
ATOM      8  C   UNL     1       5.950  16.730  20.953  1.00  0.00     0.041 C 
ATOM      9  O   UNL     1       6.237  17.400  21.979  1.00  0.00    -0.550 OA
ATOM     10  O   UNL     1       4.958  17.181  20.091  1.00  0.00    -0.550 OA
ENDBRANCH   7   8
ENDBRANCH   6   7
ENDBRANCH   5   6
ENDBRANCH   4   5
ENDBRANCH   3   4
ENDBRANCH   2   3
ENDBRANCH   1   2
BRANCH   1  11
ATOM     11  C   UNL     1       2.007  13.011  14.880  1.00  0.00     0.000 C 
BRANCH  11  12
ATOM     12  C   UNL     1       3.086  12.977  13.784  1.00  0.00    -0.000 C 
BRANCH  12  13
ATOM     13  C   UNL     1       2.848  11.945  12.661  1.00  0.00    -0.000 C 
BRANCH  13  14
ATOM     14  C   UNL     1       3.879  11.967  11.517  1.00  0.00    -0.000 C 
BRANCH  14  15
ATOM     15  C   UNL     1       3.228  12.030  10.126  1.00  0.00    -0.000 C 
BRANCH  15  16
ATOM     16  C   UNL     1       3.661  13.267   9.322  1.00  0.00    -0.000 C 
BRANCH  16  17
ATOM     17  C   UNL     1       4.726  14.127  10.034  1.00  0.00    -0.003 C 
ATOM     18  C   UNL     1       6.124  13.923   9.451  1.00  0.00     0.004 C 
ENDBRANCH  16  17
ENDBRANCH  15  16
ENDBRANCH  14  15
ENDBRANCH  13  14
ENDBRANCH  12  13
ENDBRANCH  11  12
ENDBRANCH   1  11
TORSDOF 14
ENDMDL
MODEL 5
REMARK VINA RESULT:    -2.569      1.095      1.774
REMARK INTER + INTRA:          -5.355
REMARK INTER:                  -4.948
REMARK INTRA:                  -0.406
REMARK UNBOUND:                -0.682
REMARK SMILES CCCCCCCCCCCCCCCC(=O)[O-]
REMARK SMILES IDX 9 1 10 2 11 3 12 4 13 5 14 6 15 7 16 8 17 9 18 10 8 11 7 12
REMARK SMILES IDX 6 13 5 14 4 15 3 16 2 17 1 18
REMARK H PARENT
REMARK Flexibility Score: inf
ROOT
ATOM      1  C   UNL     1       4.165  14.128  17.273  1.00  0.00     0.000 C 
ENDROOT
BRANCH   1   2
ATOM      2  C   UNL     1       4.226  14.167  15.742  1.00  0.00     0.000 C 
BRANCH   2   3
ATOM      3  C   UNL     1       2.824  14.329  15.138  1.00  0.00     0.000 C 
BRANCH   3   4
ATOM      4  C   UNL     1       2.033  13.011  15.098  1.00  0.00     0.000 C 
BRANCH   4   5
ATOM      5  C   UNL     1       2.340  12.143  13.859  1.00  0.00     0.000 C 
BRANCH   5   6
ATOM      6  C   UNL     1       3.288  12.850  12.875  1.00  0.00     0.006 C 
BRANCH   6   7
ATOM      7  C   UNL     1       3.616  11.979  11.655  1.00  0.00     0.053 C 
BRANCH   7   8
ATOM      8  C   UNL     1       3.763  12.798  10.409  1.00  0.00     0.041 C 
ATOM      9  O   UNL     1       3.704  12.248   9.278  1.00  0.00    -0.550 OA
ATOM     10  O   UNL     1       4.004  14.164  10.499  1.00  0.00    -0.550 OA
ENDBRANCH   7   8
ENDBRANCH   6   7
ENDBRANCH   5   6
ENDBRANCH   4   5
ENDBRANCH   3   4
ENDBRANCH   2   3
ENDBRANCH   1   2
BRANCH   1  11
ATOM     11  C   UNL     1       5.576  14.116  17.879  1.00  0.00     0.000 C 
BRANCH  11  12
ATOM     12  C   UNL     1       5.762  13.018  18.940  1.00  0.00    -0.000 C 
BRANCH  12  13
ATOM     13  C   UNL     1       5.849  13.521  20.396  1.00  0.00    -0.000 C 
BRANCH  13  14
ATOM     14  C   UNL     1       5.812  15.050  20.569  1.00  0.00    -0.000 C 
BRANCH  14  15
ATOM     15  C   UNL     1       7.189  15.650  20.893  1.00  0.00    -0.000 C 
BRANCH  15  16
ATOM     16  C   UNL     1       7.099  17.079  21.454  1.00  0.00    -0.000 C 
BRANCH  16  17
ATOM     17  C   UNL     1       5.678  17.677  21.402  1.00  0.00    -0.003 C 
ATOM     18  C   UNL     1       4.936  17.527  22.730  1.00  0.00     0.004 C 
ENDBRANCH  16  17
ENDBRANCH  15  16
ENDBRANCH  14  15
ENDBRANCH  13  14
ENDBRANCH  12  13
ENDBRANCH  11  12
ENDBRANCH   1  11
TORSDOF 14
ENDMDL
MODEL 6
REMARK VINA RESULT:    -2.518      4.720      9.722
REMARK INTER + INTRA:          -5.262
REMARK INTER:                  -4.597
REMARK INTRA:                  -0.664
REMARK UNBOUND:                -0.682
REMARK SMILES CCCCCCCCCCCCCCCC(=O)[O-]
REMARK SMILES IDX 9 1 10 2 11 3 12 4 13 5 14 6 15 7 16 8 17 9 18 10 8 11 7 12
REMARK SMILES IDX 6 13 5 14 4 15 3 16 2 17 1 18
REMARK H PARENT
REMARK Flexibility Score: inf
ROOT
ATOM      1  C   UNL     1       5.647  14.027  17.881  1.00  0.00     0.000 C 
ENDROOT
BRANCH   1   2
ATOM      2  C   UNL     1       5.793  13.590  19.343  1.00  0.00     0.000 C 
BRANCH   2   3
ATOM      3  C   UNL     1       5.812  14.805  20.282  1.00  0.00     0.000 C 
BRANCH   3   4
ATOM      4  C   UNL     1       7.217  15.122  20.822  1.00  0.00     0.000 C 
BRANCH   4   5
ATOM      5  C   UNL     1       7.417  16.607  21.191  1.00  0.00     0.000 C 
BRANCH   5   6
ATOM      6  C   UNL     1       6.205  17.471  20.798  1.00  0.00     0.006 C 
BRANCH   6   7
ATOM      7  C   UNL     1       5.607  18.214  22.000  1.00  0.00     0.053 C 
BRANCH   7   8
ATOM      8  C   UNL     1       4.611  17.371  22.736  1.00  0.00     0.041 C 
ATOM      9  O   UNL     1       4.608  17.346  23.995  1.00  0.00    -0.550 OA
ATOM     10  O   UNL     1       3.710  16.583  22.030  1.00  0.00    -0.550 OA
ENDBRANCH   7   8
ENDBRANCH   6   7
ENDBRANCH   5   6
ENDBRANCH   4   5
ENDBRANCH   3   4
ENDBRANCH   2   3
ENDBRANCH   1   2
BRANCH   1  11
ATOM     11  C   UNL     1       4.168  14.121  17.481  1.00  0.00     0.000 C 
BRANCH  11  12
ATOM     12  C   UNL     1       3.966  14.273  15.964  1.00  0.00    -0.000 C 
BRANCH  12  13
ATOM     13  C   UNL     1       2.567  13.880  15.445  1.00  0.00    -0.000 C 
BRANCH  13  14
ATOM     14  C   UNL     1       2.554  13.058  14.143  1.00  0.00    -0.000 C 
BRANCH  14  15
ATOM     15  C   UNL     1       3.793  13.304  13.267  1.00  0.00    -0.000 C 
BRANCH  15  16
ATOM     16  C   UNL     1       3.479  14.130  12.009  1.00  0.00    -0.000 C 
BRANCH  16  17
ATOM     17  C   UNL     1       3.748  13.376  10.690  1.00  0.00    -0.003 C 
ATOM     18  C   UNL     1       5.060  13.804  10.033  1.00  0.00     0.004 C 
ENDBRANCH  16  17
ENDBRANCH  15  16
ENDBRANCH  14  15
ENDBRANCH  13  14
ENDBRANCH  12  13
ENDBRANCH  11  12
ENDBRANCH   1  11
TORSDOF 14
ENDMDL
MODEL 7
REMARK VINA RESULT:    -1.614      1.114      2.115
REMARK INTER + INTRA:          -3.618
REMARK INTER:                  -2.956
REMARK INTRA:                  -0.661
REMARK UNBOUND:                -0.682
REMARK SMILES CCCCCCCCCCCCCCCC(=O)[O-]
REMARK SMILES IDX 9 1 10 2 11 3 12 4 13 5 14 6 15 7 16 8 17 9 18 10 8 11 7 12
REMARK SMILES IDX 6 13 5 14 4 15 3 16 2 17 1 18
REMARK H PARENT
REMARK Flexibility Score: inf
ROOT
ATOM      1  C   UNL     1       4.137  14.104  17.355  1.00  0.00     0.000 C 
ENDROOT
BRANCH   1   2
ATOM      2  C   UNL     1       3.897  14.258  15.849  1.00  0.00     0.000 C 
BRANCH   2   3
ATOM      3  C   UNL     1       2.519  13.711  15.452  1.00  0.00     0.000 C 
BRANCH   3   4
ATOM      4  C   UNL     1       2.441  13.302  13.971  1.00  0.00     0.000 C 
BRANCH   4   5
ATOM      5  C   UNL     1       3.819  13.202  13.284  1.00  0.00     0.000 C 
BRANCH   5   6
ATOM      6  C   UNL     1       3.795  12.257  12.069  1.00  0.00     0.006 C 
BRANCH   6   7
ATOM      7  C   UNL     1       3.132  12.902  10.845  1.00  0.00     0.053 C 
BRANCH   7   8
ATOM      8  C   UNL     1       4.140  13.527   9.930  1.00  0.00     0.041 C 
ATOM      9  O   UNL     1       5.248  12.965   9.728  1.00  0.00    -0.550 OA
ATOM     10  O   UNL     1       3.869  14.750   9.328  1.00  0.00    -0.550 OA
ENDBRANCH   7   8
ENDBRANCH   6   7
ENDBRANCH   5   6
ENDBRANCH   4   5
ENDBRANCH   3   4
ENDBRANCH   2   3
ENDBRANCH   1   2
BRANCH   1  11
ATOM     11  C   UNL     1       5.639  14.045  17.669  1.00  0.00     0.000 C 
BRANCH  11  12
ATOM     12  C   UNL     1       5.938  13.460  19.060  1.00  0.00    -0.000 C 
BRANCH  12  13
ATOM     13  C   UNL     1       5.403  14.287  20.248  1.00  0.00    -0.000 C 
BRANCH  13  14
ATOM     14  C   UNL     1       5.487  15.815  20.078  1.00  0.00    -0.000 C 
BRANCH  14  15
ATOM     15  C   UNL     1       5.744  16.551  21.403  1.00  0.00    -0.000 C 
BRANCH  15  16
ATOM     16  C   UNL     1       7.162  17.138  21.493  1.00  0.00    -0.000 C 
BRANCH  16  17
ATOM     17  C   UNL     1       8.279  16.097  21.270  1.00  0.00    -0.003 C 
ATOM     18  C   UNL     1       9.499  16.695  20.570  1.00  0.00     0.004 C 
ENDBRANCH  16  17
ENDBRANCH  15  16
ENDBRANCH  14  15
ENDBRANCH  13  14
ENDBRANCH  12  13
ENDBRANCH  11  12
ENDBRANCH   1  11
TORSDOF 14
ENDMDL
MODEL 8
REMARK VINA RESULT:    -1.205      4.152      9.022
REMARK INTER + INTRA:          -2.873
REMARK INTER:                  -2.601
REMARK INTRA:                  -0.271
REMARK UNBOUND:                -0.682
REMARK SMILES CCCCCCCCCCCCCCCC(=O)[O-]
REMARK SMILES IDX 9 1 10 2 11 3 12 4 13 5 14 6 15 7 16 8 17 9 18 10 8 11 7 12
REMARK SMILES IDX 6 13 5 14 4 15 3 16 2 17 1 18
REMARK H PARENT
REMARK Flexibility Score: inf
ROOT
ATOM      1  C   UNL     1       3.728  14.104  13.437  1.00  0.00     0.000 C 
ENDROOT
BRANCH   1   2
ATOM      2  C   UNL     1       2.541  14.770  14.142  1.00  0.00     0.000 C 
BRANCH   2   3
ATOM      3  C   UNL     1       1.850  13.792  15.103  1.00  0.00     0.000 C 
BRANCH   3   4
ATOM      4  C   UNL     1       2.624  13.597  16.418  1.00  0.00     0.000 C 
BRANCH   4   5
ATOM      5  C   UNL     1       4.049  14.191  16.391  1.00  0.00     0.000 C 
BRANCH   5   6
ATOM      6  C   UNL     1       4.550  14.562  17.798  1.00  0.00     0.006 C 
BRANCH   6   7
ATOM      7  C   UNL     1       5.703  13.661  18.260  1.00  0.00     0.053 C 
BRANCH   7   8
ATOM      8  C   UNL     1       5.808  13.614  19.754  1.00  0.00     0.041 C 
ATOM      9  O   UNL     1       5.524  12.558  20.377  1.00  0.00    -0.550 OA
ATOM     10  O   UNL     1       6.184  14.750  20.461  1.00  0.00    -0.550 OA
ENDBRANCH   7   8
ENDBRANCH   6   7
ENDBRANCH   5   6
ENDBRANCH   4   5
ENDBRANCH   3   4
ENDBRANCH   2   3
ENDBRANCH   1   2
BRANCH   1  11
ATOM     11  C   UNL     1       3.521  12.586  13.330  1.00  0.00     0.000 C 
BRANCH  11  12
ATOM     12  C   UNL     1       2.611  12.187  12.156  1.00  0.00    -0.000 C 
BRANCH  12  13
ATOM     13  C   UNL     1       3.311  12.093  10.785  1.00  0.00    -0.000 C 
BRANCH  13  14
ATOM     14  C   UNL     1       2.860  13.132   9.742  1.00  0.00    -0.000 C 
BRANCH  14  15
ATOM     15  C   UNL     1       4.019  13.659   8.880  1.00  0.00    -0.000 C 
BRANCH  15  16
ATOM     16  C   UNL     1       5.190  14.195   9.721  1.00  0.00    -0.000 C 
BRANCH  16  17
ATOM     17  C   UNL     1       6.576  13.759   9.202  1.00  0.00    -0.003 C 
ATOM     18  C   UNL     1       6.631  12.267   8.875  1.00  0.00     0.004 C 
ENDBRANCH  16  17
ENDBRANCH  15  16
ENDBRANCH  14  15
ENDBRANCH  13  14
ENDBRANCH  12  13
ENDBRANCH  11  12
ENDBRANCH   1  11
TORSDOF 14
ENDMDL
MODEL 9
REMARK VINA RESULT:    -0.688      4.196      9.390
REMARK INTER + INTRA:          -1.934
REMARK INTER:                  -1.748
REMARK INTRA:                  -0.185
REMARK UNBOUND:                -0.682
REMARK SMILES CCCCCCCCCCCCCCCC(=O)[O-]
REMARK SMILES IDX 9 1 10 2 11 3 12 4 13 5 14 6 15 7 16 8 17 9 18 10 8 11 7 12
REMARK SMILES IDX 6 13 5 14 4 15 3 16 2 17 1 18
REMARK H PARENT
REMARK Flexibility Score: inf
ROOT
ATOM      1  C   UNL     1       4.857  14.486  17.797  1.00  0.00     0.000 C 
ENDROOT
BRANCH   1   2
ATOM      2  C   UNL     1       5.640  13.666  18.829  1.00  0.00     0.000 C 
BRANCH   2   3
ATOM      3  C   UNL     1       5.767  14.428  20.156  1.00  0.00     0.000 C 
BRANCH   3   4
ATOM      4  C   UNL     1       5.282  15.884  20.059  1.00  0.00     0.000 C 
BRANCH   4   5
ATOM      5  C   UNL     1       4.844  16.481  21.413  1.00  0.00     0.000 C 
BRANCH   5   6
ATOM      6  C   UNL     1       5.969  17.291  22.082  1.00  0.00     0.006 C 
BRANCH   6   7
ATOM      7  C   UNL     1       7.101  17.631  21.103  1.00  0.00     0.053 C 
BRANCH   7   8
ATOM      8  C   UNL     1       8.208  16.623  21.162  1.00  0.00     0.041 C 
ATOM      9  O   UNL     1       9.191  16.715  20.380  1.00  0.00    -0.550 OA
ATOM     10  O   UNL     1       8.137  15.562  22.055  1.00  0.00    -0.550 OA
ENDBRANCH   7   8
ENDBRANCH   6   7
ENDBRANCH   5   6
ENDBRANCH   4   5
ENDBRANCH   3   4
ENDBRANCH   2   3
ENDBRANCH   1   2
BRANCH   1  11
ATOM     11  C   UNL     1       4.184  13.571  16.764  1.00  0.00     0.000 C 
BRANCH  11  12
ATOM     12  C   UNL     1       2.856  14.139  16.235  1.00  0.00    -0.000 C 
BRANCH  12  13
ATOM     13  C   UNL     1       2.533  13.793  14.766  1.00  0.00    -0.000 C 
BRANCH  13  14
ATOM     14  C   UNL     1       3.470  14.422  13.719  1.00  0.00    -0.000 C 
BRANCH  14  15
ATOM     15  C   UNL     1       3.916  13.424  12.639  1.00  0.00    -0.000 C 
BRANCH  15  16
ATOM     16  C   UNL     1       3.728  13.968  11.213  1.00  0.00    -0.000 C 
BRANCH  16  17
ATOM     17  C   UNL     1       4.603  13.259  10.158  1.00  0.00    -0.003 C 
ATOM     18  C   UNL     1       5.836  14.079   9.780  1.00  0.00     0.004 C 
ENDBRANCH  16  17
ENDBRANCH  15  16
ENDBRANCH  14  15
ENDBRANCH  13  14
ENDBRANCH  12  13
ENDBRANCH  11  12
ENDBRANCH   1  11
TORSDOF 14
ENDMDL
