MODEL 1
REMARK VINA RESULT:     5.804      0.000      0.000
REMARK INTER + INTRA:          11.796
REMARK INTER:                  13.270
REMARK INTRA:                  -1.474
REMARK UNBOUND:                -1.474
REMARK SMILES CCCCCCCCCCCCCCCCCCCCCCCC(=O)[O-]
REMARK SMILES IDX 13 1 14 2 15 3 16 4 17 5 18 6 19 7 20 8 21 9 22 10 23 11
REMARK SMILES IDX 24 12 25 13 26 14 12 15 11 16 10 17 9 18 8 19 7 20 6 21 5 22
REMARK SMILES IDX 4 23 3 24 2 25 1 26
REMARK H PARENT
REMARK Flexibility Score: inf
ROOT
ATOM      1  C   UNL     1       3.620   1.810  -0.056  1.00  0.00     0.000 C 
ENDROOT
BRANCH   1   2
ATOM      2  C   UNL     1       2.671   0.661  -0.433  1.00  0.00     0.000 C 
BRANCH   2   3
ATOM      3  C   UNL     1       2.088   0.819  -1.849  1.00  0.00     0.000 C 
BRANCH   3   4
ATOM      4  C   UNL     1       1.231  -0.385  -2.272  1.00  0.00     0.000 C 
BRANCH   4   5
ATOM      5  C   UNL     1       1.873  -1.731  -1.906  1.00  0.00     0.000 C 
BRANCH   5   6
ATOM      6  C   UNL     1       0.802  -2.759  -1.510  1.00  0.00     0.000 C 
BRANCH   6   7
ATOM      7  C   UNL     1       0.005  -2.326  -0.268  1.00  0.00     0.000 C 
BRANCH   7   8
ATOM      8  C   UNL     1      -0.736  -3.505   0.389  1.00  0.00     0.000 C 
BRANCH   8   9
ATOM      9  C   UNL     1      -0.556  -4.823  -0.379  1.00  0.00     0.000 C 
BRANCH   9  10
ATOM     10  C   UNL     1      -1.828  -5.257  -1.122  1.00  0.00     0.006 C 
BRANCH  10  11
ATOM     11  C   UNL     1      -3.074  -4.994  -0.271  1.00  0.00     0.053 C 
BRANCH  11  12
ATOM     12  C   UNL     1      -4.011  -6.160  -0.334  1.00  0.00     0.041 C 
ATOM     13  O   UNL     1      -5.200  -6.035   0.060  1.00  0.00    -0.550 OA
ATOM     14  O   UNL     1      -3.561  -7.393  -0.789  1.00  0.00    -0.550 OA
ENDBRANCH  11  12
ENDBRANCH  10  11
ENDBRANCH   9  10
ENDBRANCH   8   9
ENDBRANCH   7   8
ENDBRANCH   6   7
ENDBRANCH   5   6
ENDBRANCH   4   5
ENDBRANCH   3   4
ENDBRANCH   2   3
ENDBRANCH   1   2
BRANCH   1  15
ATOM     15  C   UNL     1       3.384   3.075  -0.895  1.00  0.00     0.000 C 
BRANCH  15  16
ATOM     16  C   UNL     1       3.664   4.340  -0.068  1.00  0.00     0.000 C 
BRANCH  16  17
ATOM     17  C   UNL     1       2.657   5.469  -0.346  1.00  0.00     0.000 C 
BRANCH  17  18
ATOM     18  C   UNL     1       1.352   4.953  -0.979  1.00  0.00    -0.000 C 
BRANCH  18  19
ATOM     19  C   UNL     1       0.285   4.585   0.068  1.00  0.00    -0.000 C 
BRANCH  19  20
ATOM     20  C   UNL     1       0.042   3.074   0.250  1.00  0.00    -0.000 C 
BRANCH  20  21
ATOM     21  C   UNL     1      -0.603   2.420  -0.984  1.00  0.00    -0.000 C 
BRANCH  21  22
ATOM     22  C   UNL     1      -0.954   0.941  -0.755  1.00  0.00    -0.000 C 
BRANCH  22  23
ATOM     23  C   UNL     1      -2.239   0.513  -1.481  1.00  0.00    -0.000 C 
BRANCH  23  24
ATOM     24  C   UNL     1      -2.023  -0.802  -2.245  1.00  0.00    -0.000 C 
BRANCH  24  25
ATOM     25  C   UNL     1      -2.919  -1.940  -1.731  1.00  0.00    -0.003 C 
ATOM     26  C   UNL     1      -3.731  -1.545  -0.498  1.00  0.00     0.004 C 
ENDBRANCH  24  25
ENDBRANCH  23  24
ENDBRANCH  22  23
ENDBRANCH  21  22
ENDBRANCH  20  21
ENDBRANCH  19  20
ENDBRANCH  18  19
ENDBRANCH  17  18
ENDBRANCH  16  17
ENDBRANCH  15  16
ENDBRANCH   1  15
TORSDOF 22
ENDMDL
MODEL 2
REMARK VINA RESULT:     5.824      4.399      8.918
REMARK INTER + INTRA:          11.840
REMARK INTER:                  13.118
REMARK INTRA:                  -1.279
REMARK UNBOUND:                -1.474
REMARK SMILES CCCCCCCCCCCCCCCCCCCCCCCC(=O)[O-]
REMARK SMILES IDX 13 1 14 2 15 3 16 4 17 5 18 6 19 7 20 8 21 9 22 10 23 11
REMARK SMILES IDX 24 12 25 13 26 14 12 15 11 16 10 17 9 18 8 19 7 20 6 21 5 22
REMARK SMILES IDX 4 23 3 24 2 25 1 26
REMARK H PARENT
REMARK Flexibility Score: inf
ROOT
ATOM      1  C   UNL     1      -3.342  -2.131  -0.250  1.00  0.00     0.000 C 
ENDROOT
BRANCH   1   2
ATOM      2  C   UNL     1      -3.248  -2.189  -1.784  1.00  0.00     0.000 C 
BRANCH   2   3
ATOM      3  C   UNL     1      -2.287  -1.132  -2.355  1.00  0.00     0.000 C 
BRANCH   3   4
ATOM      4  C   UNL     1      -1.786  -0.149  -1.285  1.00  0.00     0.000 C 
BRANCH   4   5
ATOM      5  C   UNL     1      -2.030   1.319  -1.662  1.00  0.00     0.000 C 
BRANCH   5   6
ATOM      6  C   UNL     1      -0.785   2.173  -1.374  1.00  0.00     0.000 C 
BRANCH   6   7
ATOM      7  C   UNL     1      -0.275   1.997   0.067  1.00  0.00     0.000 C 
BRANCH   7   8
ATOM      8  C   UNL     1       0.658   3.142   0.499  1.00  0.00     0.000 C 
BRANCH   8   9
ATOM      9  C   UNL     1       0.242   4.501  -0.086  1.00  0.00     0.000 C 
BRANCH   9  10
ATOM     10  C   UNL     1       1.376   5.189  -0.860  1.00  0.00     0.006 C 
BRANCH  10  11
ATOM     11  C   UNL     1       2.744   4.699  -0.374  1.00  0.00     0.053 C 
BRANCH  11  12
ATOM     12  C   UNL     1       3.688   5.849  -0.214  1.00  0.00     0.041 C 
ATOM     13  O   UNL     1       3.406   6.971  -0.711  1.00  0.00    -0.550 OA
ATOM     14  O   UNL     1       4.896   5.673   0.450  1.00  0.00    -0.550 OA
ENDBRANCH  11  12
ENDBRANCH  10  11
ENDBRANCH   9  10
ENDBRANCH   8   9
ENDBRANCH   7   8
ENDBRANCH   6   7
ENDBRANCH   5   6
ENDBRANCH   4   5
ENDBRANCH   3   4
ENDBRANCH   2   3
ENDBRANCH   1   2
BRANCH   1  15
ATOM     15  C   UNL     1      -3.316  -3.524   0.398  1.00  0.00     0.000 C 
BRANCH  15  16
ATOM     16  C   UNL     1      -3.505  -4.623  -0.659  1.00  0.00     0.000 C 
BRANCH  16  17
ATOM     17  C   UNL     1      -2.255  -5.503  -0.833  1.00  0.00     0.000 C 
BRANCH  17  18
ATOM     18  C   UNL     1      -1.030  -4.943  -0.090  1.00  0.00    -0.000 C 
BRANCH  18  19
ATOM     19  C   UNL     1      -0.112  -4.104  -0.997  1.00  0.00    -0.000 C 
BRANCH  19  20
ATOM     20  C   UNL     1       0.064  -2.634  -0.570  1.00  0.00    -0.000 C 
BRANCH  20  21
ATOM     21  C   UNL     1       1.196  -1.923  -1.331  1.00  0.00    -0.000 C 
BRANCH  21  22
ATOM     22  C   UNL     1       1.216  -0.406  -1.084  1.00  0.00    -0.000 C 
BRANCH  22  23
ATOM     23  C   UNL     1       1.735   0.390  -2.292  1.00  0.00    -0.000 C 
BRANCH  23  24
ATOM     24  C   UNL     1       2.723   1.478  -1.845  1.00  0.00    -0.000 C 
BRANCH  24  25
ATOM     25  C   UNL     1       3.365   1.172  -0.483  1.00  0.00    -0.003 C 
ATOM     26  C   UNL     1       4.798   0.654  -0.606  1.00  0.00     0.004 C 
ENDBRANCH  24  25
ENDBRANCH  23  24
ENDBRANCH  22  23
ENDBRANCH  21  22
ENDBRANCH  20  21
ENDBRANCH  19  20
ENDBRANCH  18  19
ENDBRANCH  17  18
ENDBRANCH  16  17
ENDBRANCH  15  16
ENDBRANCH   1  15
TORSDOF 22
ENDMDL
MODEL 3
REMARK VINA RESULT:     6.017      0.843      3.873
REMARK INTER + INTRA:          12.281
REMARK INTER:                  14.282
REMARK INTRA:                  -2.001
REMARK UNBOUND:                -1.474
REMARK SMILES CCCCCCCCCCCCCCCCCCCCCCCC(=O)[O-]
REMARK SMILES IDX 13 1 14 2 15 3 16 4 17 5 18 6 19 7 20 8 21 9 22 10 23 11
REMARK SMILES IDX 24 12 25 13 26 14 12 15 11 16 10 17 9 18 8 19 7 20 6 21 5 22
REMARK SMILES IDX 4 23 3 24 2 25 1 26
REMARK H PARENT
REMARK Flexibility Score: inf
ROOT
ATOM      1  C   UNL     1       1.659  -1.440  -1.511  1.00  0.00     0.000 C 
ENDROOT
BRANCH   1   2
ATOM      2  C   UNL     1       0.414  -1.847  -0.707  1.00  0.00     0.000 C 
BRANCH   2   3
ATOM      3  C   UNL     1      -0.089  -0.720   0.212  1.00  0.00     0.000 C 
BRANCH   3   4
ATOM      4  C   UNL     1      -1.343  -0.024  -0.340  1.00  0.00     0.000 C 
BRANCH   4   5
ATOM      5  C   UNL     1      -1.580  -0.317  -1.829  1.00  0.00     0.000 C 
BRANCH   5   6
ATOM      6  C   UNL     1      -2.921  -1.036  -2.039  1.00  0.00     0.000 C 
BRANCH   6   7
ATOM      7  C   UNL     1      -3.730  -1.159  -0.736  1.00  0.00     0.000 C 
BRANCH   7   8
ATOM      8  C   UNL     1      -3.652  -2.574  -0.134  1.00  0.00     0.000 C 
BRANCH   8   9
ATOM      9  C   UNL     1      -2.915  -3.569  -1.044  1.00  0.00     0.000 C 
BRANCH   9  10
ATOM     10  C   UNL     1      -2.233  -4.700  -0.260  1.00  0.00     0.006 C 
BRANCH  10  11
ATOM     11  C   UNL     1      -2.303  -6.020  -1.035  1.00  0.00     0.053 C 
BRANCH  11  12
ATOM     12  C   UNL     1      -3.503  -6.812  -0.618  1.00  0.00     0.041 C 
ATOM     13  O   UNL     1      -3.476  -8.070  -0.666  1.00  0.00    -0.550 OA
ATOM     14  O   UNL     1      -4.663  -6.162  -0.214  1.00  0.00    -0.550 OA
ENDBRANCH  11  12
ENDBRANCH  10  11
ENDBRANCH   9  10
ENDBRANCH   8   9
ENDBRANCH   7   8
ENDBRANCH   6   7
ENDBRANCH   5   6
ENDBRANCH   4   5
ENDBRANCH   3   4
ENDBRANCH   2   3
ENDBRANCH   1   2
BRANCH   1  15
ATOM     15  C   UNL     1       1.386  -0.281  -2.481  1.00  0.00     0.000 C 
BRANCH  15  16
ATOM     16  C   UNL     1       2.142   0.986  -2.047  1.00  0.00     0.000 C 
BRANCH  16  17
ATOM     17  C   UNL     1       3.131   0.725  -0.899  1.00  0.00     0.000 C 
BRANCH  17  18
ATOM     18  C   UNL     1       3.406   1.985  -0.059  1.00  0.00    -0.000 C 
BRANCH  18  19
ATOM     19  C   UNL     1       3.376   3.278  -0.894  1.00  0.00    -0.000 C 
BRANCH  19  20
ATOM     20  C   UNL     1       3.631   4.575  -0.101  1.00  0.00    -0.000 C 
BRANCH  20  21
ATOM     21  C   UNL     1       2.673   5.713  -0.495  1.00  0.00    -0.000 C 
BRANCH  21  22
ATOM     22  C   UNL     1       1.269   5.205  -0.864  1.00  0.00    -0.000 C 
BRANCH  22  23
ATOM     23  C   UNL     1       0.425   4.839   0.367  1.00  0.00    -0.000 C 
BRANCH  23  24
ATOM     24  C   UNL     1      -0.016   3.368   0.308  1.00  0.00    -0.000 C 
BRANCH  24  25
ATOM     25  C   UNL     1      -0.187   2.858  -1.131  1.00  0.00    -0.003 C 
ATOM     26  C   UNL     1      -1.549   3.209  -1.728  1.00  0.00     0.004 C 
ENDBRANCH  24  25
ENDBRANCH  23  24
ENDBRANCH  22  23
ENDBRANCH  21  22
ENDBRANCH  20  21
ENDBRANCH  19  20
ENDBRANCH  18  19
ENDBRANCH  17  18
ENDBRANCH  16  17
ENDBRANCH  15  16
ENDBRANCH   1  15
TORSDOF 22
ENDMDL
MODEL 4
REMARK VINA RESULT:     6.096      1.821      4.315
REMARK INTER + INTRA:          12.462
REMARK INTER:                  11.739
REMARK INTRA:                   0.723
REMARK UNBOUND:                -1.474
REMARK SMILES CCCCCCCCCCCCCCCCCCCCCCCC(=O)[O-]
REMARK SMILES IDX 13 1 14 2 15 3 16 4 17 5 18 6 19 7 20 8 21 9 22 10 23 11
REMARK SMILES IDX 24 12 25 13 26 14 12 15 11 16 10 17 9 18 8 19 7 20 6 21 5 22
REMARK SMILES IDX 4 23 3 24 2 25 1 26
REMARK H PARENT
REMARK Flexibility Score: inf
ROOT
ATOM      1  C   UNL     1      -0.458   0.688   0.416  1.00  0.00     0.000 C 
ENDROOT
BRANCH   1   2
ATOM      2  C   UNL     1      -0.046  -0.792   0.362  1.00  0.00     0.000 C 
BRANCH   2   3
ATOM      3  C   UNL     1       0.159  -1.295  -1.077  1.00  0.00     0.000 C 
BRANCH   3   4
ATOM      4  C   UNL     1       0.291  -2.824  -1.155  1.00  0.00     0.000 C 
BRANCH   4   5
ATOM      5  C   UNL     1      -0.072  -3.522   0.163  1.00  0.00     0.000 C 
BRANCH   5   6
ATOM      6  C   UNL     1      -0.507  -4.974  -0.087  1.00  0.00     0.000 C 
BRANCH   6   7
ATOM      7  C   UNL     1      -1.560  -5.086  -1.202  1.00  0.00     0.000 C 
BRANCH   7   8
ATOM      8  C   UNL     1      -2.671  -6.094  -0.855  1.00  0.00     0.000 C 
BRANCH   8   9
ATOM      9  C   UNL     1      -3.884  -5.435  -0.180  1.00  0.00     0.000 C 
BRANCH   9  10
ATOM     10  C   UNL     1      -3.731  -3.914  -0.036  1.00  0.00     0.006 C 
BRANCH  10  11
ATOM     11  C   UNL     1      -3.405  -3.267  -1.386  1.00  0.00     0.053 C 
BRANCH  11  12
ATOM     12  C   UNL     1      -3.154  -1.801  -1.221  1.00  0.00     0.041 C 
ATOM     13  O   UNL     1      -3.569  -1.202  -0.194  1.00  0.00    -0.550 OA
ATOM     14  O   UNL     1      -2.499  -1.088  -2.217  1.00  0.00    -0.550 OA
ENDBRANCH  11  12
ENDBRANCH  10  11
ENDBRANCH   9  10
ENDBRANCH   8   9
ENDBRANCH   7   8
ENDBRANCH   6   7
ENDBRANCH   5   6
ENDBRANCH   4   5
ENDBRANCH   3   4
ENDBRANCH   2   3
ENDBRANCH   1   2
BRANCH   1  15
ATOM     15  C   UNL     1      -0.820   1.254  -0.966  1.00  0.00     0.000 C 
BRANCH  15  16
ATOM     16  C   UNL     1      -0.408   2.731  -1.076  1.00  0.00     0.000 C 
BRANCH  16  17
ATOM     17  C   UNL     1       0.040   3.327   0.269  1.00  0.00     0.000 C 
BRANCH  17  18
ATOM     18  C   UNL     1       0.486   4.795   0.146  1.00  0.00    -0.000 C 
BRANCH  18  19
ATOM     19  C   UNL     1       1.478   5.023  -1.009  1.00  0.00    -0.000 C 
BRANCH  19  20
ATOM     20  C   UNL     1       2.688   5.913  -0.665  1.00  0.00    -0.000 C 
BRANCH  20  21
ATOM     21  C   UNL     1       3.831   5.132   0.006  1.00  0.00    -0.000 C 
BRANCH  21  22
ATOM     22  C   UNL     1       3.431   3.693   0.372  1.00  0.00    -0.000 C 
BRANCH  22  23
ATOM     23  C   UNL     1       3.327   2.773  -0.855  1.00  0.00    -0.000 C 
BRANCH  23  24
ATOM     24  C   UNL     1       3.401   1.296  -0.437  1.00  0.00    -0.000 C 
BRANCH  24  25
ATOM     25  C   UNL     1       2.608   0.375  -1.376  1.00  0.00    -0.003 C 
ATOM     26  C   UNL     1       2.055   1.106  -2.598  1.00  0.00     0.004 C 
ENDBRANCH  24  25
ENDBRANCH  23  24
ENDBRANCH  22  23
ENDBRANCH  21  22
ENDBRANCH  20  21
ENDBRANCH  19  20
ENDBRANCH  18  19
ENDBRANCH  17  18
ENDBRANCH  16  17
ENDBRANCH  15  16
ENDBRANCH   1  15
TORSDOF 22
ENDMDL
MODEL 5
REMARK VINA RESULT:     6.105      0.843      4.770
REMARK INTER + INTRA:          12.483
REMARK INTER:                  13.000
REMARK INTRA:                  -0.517
REMARK UNBOUND:                -1.474
REMARK SMILES CCCCCCCCCCCCCCCCCCCCCCCC(=O)[O-]
REMARK SMILES IDX 13 1 14 2 15 3 16 4 17 5 18 6 19 7 20 8 21 9 22 10 23 11
REMARK SMILES IDX 24 12 25 13 26 14 12 15 11 16 10 17 9 18 8 19 7 20 6 21 5 22
REMARK SMILES IDX 4 23 3 24 2 25 1 26
REMARK H PARENT
REMARK Flexibility Score: inf
ROOT
ATOM      1  C   UNL     1      -0.013  -2.365  -0.010  1.00  0.00     0.000 C 
ENDROOT
BRANCH   1   2
ATOM      2  C   UNL     1       0.335  -1.000   0.606  1.00  0.00     0.000 C 
BRANCH   2   3
ATOM      3  C   UNL     1      -0.798   0.028   0.438  1.00  0.00     0.000 C 
BRANCH   3   4
ATOM      4  C   UNL     1      -0.586   0.946  -0.777  1.00  0.00     0.000 C 
BRANCH   4   5
ATOM      5  C   UNL     1      -1.637   0.732  -1.876  1.00  0.00     0.000 C 
BRANCH   5   6
ATOM      6  C   UNL     1      -2.252  -0.672  -1.780  1.00  0.00     0.000 C 
BRANCH   6   7
ATOM      7  C   UNL     1      -3.416  -0.734  -0.776  1.00  0.00     0.000 C 
BRANCH   7   8
ATOM      8  C   UNL     1      -3.904  -2.175  -0.537  1.00  0.00     0.000 C 
BRANCH   8   9
ATOM      9  C   UNL     1      -2.997  -3.227  -1.195  1.00  0.00     0.000 C 
BRANCH   9  10
ATOM     10  C   UNL     1      -2.631  -4.376  -0.243  1.00  0.00     0.006 C 
BRANCH  10  11
ATOM     11  C   UNL     1      -2.546  -5.705  -1.001  1.00  0.00     0.053 C 
BRANCH  11  12
ATOM     12  C   UNL     1      -3.672  -6.608  -0.607  1.00  0.00     0.041 C 
ATOM     13  O   UNL     1      -3.576  -7.851  -0.787  1.00  0.00    -0.550 OA
ATOM     14  O   UNL     1      -4.842  -6.077  -0.079  1.00  0.00    -0.550 OA
ENDBRANCH  11  12
ENDBRANCH  10  11
ENDBRANCH   9  10
ENDBRANCH   8   9
ENDBRANCH   7   8
ENDBRANCH   6   7
ENDBRANCH   5   6
ENDBRANCH   4   5
ENDBRANCH   3   4
ENDBRANCH   2   3
ENDBRANCH   1   2
BRANCH   1  15
ATOM     15  C   UNL     1       0.547  -2.535  -1.431  1.00  0.00     0.000 C 
BRANCH  15  16
ATOM     16  C   UNL     1       1.731  -1.584  -1.669  1.00  0.00     0.000 C 
BRANCH  16  17
ATOM     17  C   UNL     1       1.386  -0.433  -2.629  1.00  0.00     0.000 C 
BRANCH  17  18
ATOM     18  C   UNL     1       2.084   0.884  -2.245  1.00  0.00    -0.000 C 
BRANCH  18  19
ATOM     19  C   UNL     1       2.993   0.743  -1.011  1.00  0.00    -0.000 C 
BRANCH  19  20
ATOM     20  C   UNL     1       3.028   1.970  -0.080  1.00  0.00    -0.000 C 
BRANCH  20  21
ATOM     21  C   UNL     1       3.429   3.262  -0.812  1.00  0.00    -0.000 C 
BRANCH  21  22
ATOM     22  C   UNL     1       3.718   4.424   0.153  1.00  0.00    -0.000 C 
BRANCH  22  23
ATOM     23  C   UNL     1       3.162   5.767  -0.348  1.00  0.00    -0.000 C 
BRANCH  23  24
ATOM     24  C   UNL     1       1.728   5.601  -0.877  1.00  0.00    -0.000 C 
BRANCH  24  25
ATOM     25  C   UNL     1       0.830   4.809   0.085  1.00  0.00    -0.003 C 
ATOM     26  C   UNL     1      -0.169   3.909  -0.641  1.00  0.00     0.004 C 
ENDBRANCH  24  25
ENDBRANCH  23  24
ENDBRANCH  22  23
ENDBRANCH  21  22
ENDBRANCH  20  21
ENDBRANCH  19  20
ENDBRANCH  18  19
ENDBRANCH  17  18
ENDBRANCH  16  17
ENDBRANCH  15  16
ENDBRANCH   1  15
TORSDOF 22
ENDMDL
MODEL 6
REMARK VINA RESULT:     6.130      4.489      8.239
REMARK INTER + INTRA:          12.540
REMARK INTER:                  13.859
REMARK INTRA:                  -1.320
REMARK UNBOUND:                -1.474
REMARK SMILES CCCCCCCCCCCCCCCCCCCCCCCC(=O)[O-]
REMARK SMILES IDX 13 1 14 2 15 3 16 4 17 5 18 6 19 7 20 8 21 9 22 10 23 11
REMARK SMILES IDX 24 12 25 13 26 14 12 15 11 16 10 17 9 18 8 19 7 20 6 21 5 22
REMARK SMILES IDX 4 23 3 24 2 25 1 26
REMARK H PARENT
REMARK Flexibility Score: inf
ROOT
ATOM      1  C   UNL     1      -0.488   1.564  -1.122  1.00  0.00     0.000 C 
ENDROOT
BRANCH   1   2
ATOM      2  C   UNL     1      -0.160   0.631   0.054  1.00  0.00     0.000 C 
BRANCH   2   3
ATOM      3  C   UNL     1       0.887  -0.435  -0.313  1.00  0.00     0.000 C 
BRANCH   3   4
ATOM      4  C   UNL     1       1.324  -0.350  -1.784  1.00  0.00     0.000 C 
BRANCH   4   5
ATOM      5  C   UNL     1       2.396   0.723  -2.027  1.00  0.00     0.000 C 
BRANCH   5   6
ATOM      6  C   UNL     1       3.452   0.704  -0.911  1.00  0.00     0.000 C 
BRANCH   6   7
ATOM      7  C   UNL     1       3.428   1.986  -0.061  1.00  0.00     0.000 C 
BRANCH   7   8
ATOM      8  C   UNL     1       2.672   3.132  -0.756  1.00  0.00     0.000 C 
BRANCH   8   9
ATOM      9  C   UNL     1       1.527   3.696   0.100  1.00  0.00     0.000 C 
BRANCH   9  10
ATOM     10  C   UNL     1       1.304   5.200  -0.119  1.00  0.00     0.006 C 
BRANCH  10  11
ATOM     11  C   UNL     1       2.308   5.758  -1.133  1.00  0.00     0.053 C 
BRANCH  11  12
ATOM     12  C   UNL     1       3.402   6.504  -0.434  1.00  0.00     0.041 C 
ATOM     13  O   UNL     1       4.384   5.880   0.046  1.00  0.00    -0.550 OA
ATOM     14  O   UNL     1       3.318   7.882  -0.279  1.00  0.00    -0.550 OA
ENDBRANCH  11  12
ENDBRANCH  10  11
ENDBRANCH   9  10
ENDBRANCH   8   9
ENDBRANCH   7   8
ENDBRANCH   6   7
ENDBRANCH   5   6
ENDBRANCH   4   5
ENDBRANCH   3   4
ENDBRANCH   2   3
ENDBRANCH   1   2
BRANCH   1  15
ATOM     15  C   UNL     1      -1.802   1.191  -1.827  1.00  0.00     0.000 C 
BRANCH  15  16
ATOM     16  C   UNL     1      -1.626  -0.081  -2.672  1.00  0.00     0.000 C 
BRANCH  16  17
ATOM     17  C   UNL     1      -2.274  -1.318  -2.027  1.00  0.00     0.000 C 
BRANCH  17  18
ATOM     18  C   UNL     1      -3.041  -0.978  -0.737  1.00  0.00    -0.000 C 
BRANCH  18  19
ATOM     19  C   UNL     1      -3.715  -2.207  -0.100  1.00  0.00    -0.000 C 
BRANCH  19  20
ATOM     20  C   UNL     1      -3.694  -3.485  -0.962  1.00  0.00    -0.000 C 
BRANCH  20  21
ATOM     21  C   UNL     1      -3.791  -4.771  -0.124  1.00  0.00    -0.000 C 
BRANCH  21  22
ATOM     22  C   UNL     1      -3.029  -5.948  -0.754  1.00  0.00    -0.000 C 
BRANCH  22  23
ATOM     23  C   UNL     1      -1.588  -5.585  -1.147  1.00  0.00    -0.000 C 
BRANCH  23  24
ATOM     24  C   UNL     1      -0.820  -5.020   0.058  1.00  0.00    -0.000 C 
BRANCH  24  25
ATOM     25  C   UNL     1      -0.227  -3.629  -0.216  1.00  0.00    -0.003 C 
ATOM     26  C   UNL     1       0.626  -3.588  -1.483  1.00  0.00     0.004 C 
ENDBRANCH  24  25
ENDBRANCH  23  24
ENDBRANCH  22  23
ENDBRANCH  21  22
ENDBRANCH  20  21
ENDBRANCH  19  20
ENDBRANCH  18  19
ENDBRANCH  17  18
ENDBRANCH  16  17
ENDBRANCH  15  16
ENDBRANCH   1  15
TORSDOF 22
ENDMDL
MODEL 7
REMARK VINA RESULT:     6.311      0.871      3.096
REMARK INTER + INTRA:          12.954
REMARK INTER:                  14.136
REMARK INTRA:                  -1.182
REMARK UNBOUND:                -1.474
REMARK SMILES CCCCCCCCCCCCCCCCCCCCCCCC(=O)[O-]
REMARK SMILES IDX 13 1 14 2 15 3 16 4 17 5 18 6 19 7 20 8 21 9 22 10 23 11
REMARK SMILES IDX 24 12 25 13 26 14 12 15 11 16 10 17 9 18 8 19 7 20 6 21 5 22
REMARK SMILES IDX 4 23 3 24 2 25 1 26
REMARK H PARENT
REMARK Flexibility Score: inf
ROOT
ATOM      1  C   UNL     1       0.374   4.331   0.375  1.00  0.00     0.000 C 
ENDROOT
BRANCH   1   2
ATOM      2  C   UNL     1      -0.237   2.922   0.329  1.00  0.00     0.000 C 
BRANCH   2   3
ATOM      3  C   UNL     1      -0.392   2.394  -1.108  1.00  0.00     0.000 C 
BRANCH   3   4
ATOM      4  C   UNL     1      -1.641   1.515  -1.282  1.00  0.00     0.000 C 
BRANCH   4   5
ATOM      5  C   UNL     1      -1.518   0.528  -2.452  1.00  0.00     0.000 C 
BRANCH   5   6
ATOM      6  C   UNL     1      -2.131  -0.833  -2.088  1.00  0.00     0.000 C 
BRANCH   6   7
ATOM      7  C   UNL     1      -3.225  -0.713  -1.014  1.00  0.00     0.000 C 
BRANCH   7   8
ATOM      8  C   UNL     1      -3.432  -2.030  -0.244  1.00  0.00     0.000 C 
BRANCH   8   9
ATOM      9  C   UNL     1      -3.066  -3.269  -1.076  1.00  0.00     0.000 C 
BRANCH   9  10
ATOM     10  C   UNL     1      -2.608  -4.453  -0.211  1.00  0.00     0.006 C 
BRANCH  10  11
ATOM     11  C   UNL     1      -2.554  -5.742  -1.036  1.00  0.00     0.053 C 
BRANCH  11  12
ATOM     12  C   UNL     1      -3.663  -6.667  -0.642  1.00  0.00     0.041 C 
ATOM     13  O   UNL     1      -4.751  -6.201  -0.212  1.00  0.00    -0.550 OA
ATOM     14  O   UNL     1      -3.482  -8.043  -0.710  1.00  0.00    -0.550 OA
ENDBRANCH  11  12
ENDBRANCH  10  11
ENDBRANCH   9  10
ENDBRANCH   8   9
ENDBRANCH   7   8
ENDBRANCH   6   7
ENDBRANCH   5   6
ENDBRANCH   4   5
ENDBRANCH   3   4
ENDBRANCH   2   3
ENDBRANCH   1   2
BRANCH   1  15
ATOM     15  C   UNL     1       1.141   4.689  -0.907  1.00  0.00     0.000 C 
BRANCH  15  16
ATOM     16  C   UNL     1       2.344   5.593  -0.591  1.00  0.00     0.000 C 
BRANCH  16  17
ATOM     17  C   UNL     1       3.585   4.800  -0.149  1.00  0.00     0.000 C 
BRANCH  17  18
ATOM     18  C   UNL     1       3.235   3.391   0.361  1.00  0.00    -0.000 C 
BRANCH  18  19
ATOM     19  C   UNL     1       3.757   2.274  -0.562  1.00  0.00    -0.000 C 
BRANCH  19  20
ATOM     20  C   UNL     1       2.779   1.105  -0.791  1.00  0.00    -0.000 C 
BRANCH  20  21
ATOM     21  C   UNL     1       2.152   1.119  -2.196  1.00  0.00    -0.000 C 
BRANCH  21  22
ATOM     22  C   UNL     1       1.378  -0.171  -2.512  1.00  0.00    -0.000 C 
BRANCH  22  23
ATOM     23  C   UNL     1       1.703  -1.315  -1.539  1.00  0.00    -0.000 C 
BRANCH  23  24
ATOM     24  C   UNL     1       0.424  -2.056  -1.121  1.00  0.00    -0.000 C 
BRANCH  24  25
ATOM     25  C   UNL     1       0.095  -1.877   0.369  1.00  0.00    -0.003 C 
ATOM     26  C   UNL     1      -0.010  -0.409   0.780  1.00  0.00     0.004 C 
ENDBRANCH  24  25
ENDBRANCH  23  24
ENDBRANCH  22  23
ENDBRANCH  21  22
ENDBRANCH  20  21
ENDBRANCH  19  20
ENDBRANCH  18  19
ENDBRANCH  17  18
ENDBRANCH  16  17
ENDBRANCH  15  16
ENDBRANCH   1  15
TORSDOF 22
ENDMDL
MODEL 8
REMARK VINA RESULT:     6.335      4.477      7.789
REMARK INTER + INTRA:          13.008
REMARK INTER:                  14.451
REMARK INTRA:                  -1.443
REMARK UNBOUND:                -1.474
REMARK SMILES CCCCCCCCCCCCCCCCCCCCCCCC(=O)[O-]
REMARK SMILES IDX 13 1 14 2 15 3 16 4 17 5 18 6 19 7 20 8 21 9 22 10 23 11
REMARK SMILES IDX 24 12 25 13 26 14 12 15 11 16 10 17 9 18 8 19 7 20 6 21 5 22
REMARK SMILES IDX 4 23 3 24 2 25 1 26
REMARK H PARENT
REMARK Flexibility Score: inf
ROOT
ATOM      1  C   UNL     1      -0.189   1.362   0.332  1.00  0.00     0.000 C 
ENDROOT
BRANCH   1   2
ATOM      2  C   UNL     1      -0.630  -0.079   0.635  1.00  0.00     0.000 C 
BRANCH   2   3
ATOM      3  C   UNL     1       0.498  -1.101   0.411  1.00  0.00     0.000 C 
BRANCH   3   4
ATOM      4  C   UNL     1       0.469  -1.712  -0.998  1.00  0.00     0.000 C 
BRANCH   4   5
ATOM      5  C   UNL     1       1.740  -1.411  -1.806  1.00  0.00     0.000 C 
BRANCH   5   6
ATOM      6  C   UNL     1       1.934   0.103  -1.979  1.00  0.00     0.000 C 
BRANCH   6   7
ATOM      7  C   UNL     1       3.261   0.597  -1.378  1.00  0.00     0.000 C 
BRANCH   7   8
ATOM      8  C   UNL     1       3.055   1.749  -0.378  1.00  0.00     0.000 C 
BRANCH   8   9
ATOM      9  C   UNL     1       2.690   3.074  -1.065  1.00  0.00     0.000 C 
BRANCH   9  10
ATOM     10  C   UNL     1       2.307   4.176  -0.066  1.00  0.00     0.006 C 
BRANCH  10  11
ATOM     11  C   UNL     1       2.276   5.546  -0.751  1.00  0.00     0.053 C 
BRANCH  11  12
ATOM     12  C   UNL     1       3.451   6.373  -0.331  1.00  0.00     0.041 C 
ATOM     13  O   UNL     1       3.409   7.627  -0.434  1.00  0.00    -0.550 OA
ATOM     14  O   UNL     1       4.605   5.757   0.137  1.00  0.00    -0.550 OA
ENDBRANCH  11  12
ENDBRANCH  10  11
ENDBRANCH   9  10
ENDBRANCH   8   9
ENDBRANCH   7   8
ENDBRANCH   6   7
ENDBRANCH   5   6
ENDBRANCH   4   5
ENDBRANCH   3   4
ENDBRANCH   2   3
ENDBRANCH   1   2
BRANCH   1  15
ATOM     15  C   UNL     1      -0.622   1.834  -1.065  1.00  0.00     0.000 C 
BRANCH  15  16
ATOM     16  C   UNL     1      -1.871   1.071  -1.537  1.00  0.00     0.000 C 
BRANCH  16  17
ATOM     17  C   UNL     1      -1.555   0.023  -2.616  1.00  0.00     0.000 C 
BRANCH  17  18
ATOM     18  C   UNL     1      -2.185  -1.348  -2.311  1.00  0.00    -0.000 C 
BRANCH  18  19
ATOM     19  C   UNL     1      -3.475  -1.240  -1.477  1.00  0.00    -0.000 C 
BRANCH  19  20
ATOM     20  C   UNL     1      -3.400  -1.868  -0.072  1.00  0.00    -0.000 C 
BRANCH  20  21
ATOM     21  C   UNL     1      -3.180  -3.390  -0.109  1.00  0.00    -0.000 C 
BRANCH  21  22
ATOM     22  C   UNL     1      -1.721  -3.786   0.171  1.00  0.00    -0.000 C 
BRANCH  22  23
ATOM     23  C   UNL     1      -1.335  -5.130  -0.466  1.00  0.00    -0.000 C 
BRANCH  23  24
ATOM     24  C   UNL     1      -2.479  -5.670  -1.338  1.00  0.00    -0.000 C 
BRANCH  24  25
ATOM     25  C   UNL     1      -3.254  -6.809  -0.658  1.00  0.00    -0.003 C 
ATOM     26  C   UNL     1      -4.647  -6.386  -0.195  1.00  0.00     0.004 C 
ENDBRANCH  24  25
ENDBRANCH  23  24
ENDBRANCH  22  23
ENDBRANCH  21  22
ENDBRANCH  20  21
ENDBRANCH  19  20
ENDBRANCH  18  19
ENDBRANCH  17  18
ENDBRANCH  16  17
ENDBRANCH  15  16
ENDBRANCH   1  15
TORSDOF 22
ENDMDL
MODEL 9
REMARK VINA RESULT:     6.429      4.467      8.612
REMARK INTER + INTRA:          13.223
REMARK INTER:                  13.786
REMARK INTRA:                  -0.563
REMARK UNBOUND:                -1.474
REMARK SMILES CCCCCCCCCCCCCCCCCCCCCCCC(=O)[O-]
REMARK SMILES IDX 13 1 14 2 15 3 16 4 17 5 18 6 19 7 20 8 21 9 22 10 23 11
REMARK SMILES IDX 24 12 25 13 26 14 12 15 11 16 10 17 9 18 8 19 7 20 6 21 5 22
REMARK SMILES IDX 4 23 3 24 2 25 1 26
REMARK H PARENT
REMARK Flexibility Score: inf
ROOT
ATOM      1  C   UNL     1      -1.887   0.861  -1.867  1.00  0.00     0.000 C 
ENDROOT
BRANCH   1   2
ATOM      2  C   UNL     1      -0.763   1.567  -1.094  1.00  0.00     0.000 C 
BRANCH   2   3
ATOM      3  C   UNL     1      -0.158   0.680   0.009  1.00  0.00     0.000 C 
BRANCH   3   4
ATOM      4  C   UNL     1       1.143  -0.007  -0.435  1.00  0.00     0.000 C 
BRANCH   4   5
ATOM      5  C   UNL     1       1.480   0.250  -1.911  1.00  0.00     0.000 C 
BRANCH   5   6
ATOM      6  C   UNL     1       2.603   1.291  -2.043  1.00  0.00     0.000 C 
BRANCH   6   7
ATOM      7  C   UNL     1       3.335   1.534  -0.713  1.00  0.00     0.000 C 
BRANCH   7   8
ATOM      8  C   UNL     1       3.402   3.028  -0.349  1.00  0.00     0.000 C 
BRANCH   8   9
ATOM      9  C   UNL     1       2.156   3.513   0.408  1.00  0.00     0.000 C 
BRANCH   9  10
ATOM     10  C   UNL     1       1.551   4.790  -0.195  1.00  0.00     0.006 C 
BRANCH  10  11
ATOM     11  C   UNL     1       2.536   5.456  -1.160  1.00  0.00     0.053 C 
BRANCH  11  12
ATOM     12  C   UNL     1       3.443   6.393  -0.425  1.00  0.00     0.041 C 
ATOM     13  O   UNL     1       4.446   5.945   0.193  1.00  0.00    -0.550 OA
ATOM     14  O   UNL     1       3.161   7.753  -0.387  1.00  0.00    -0.550 OA
ENDBRANCH  11  12
ENDBRANCH  10  11
ENDBRANCH   9  10
ENDBRANCH   8   9
ENDBRANCH   7   8
ENDBRANCH   6   7
ENDBRANCH   5   6
ENDBRANCH   4   5
ENDBRANCH   3   4
ENDBRANCH   2   3
ENDBRANCH   1   2
BRANCH   1  15
ATOM     15  C   UNL     1      -1.604  -0.632  -2.095  1.00  0.00     0.000 C 
BRANCH  15  16
ATOM     16  C   UNL     1      -2.890  -1.461  -1.951  1.00  0.00     0.000 C 
BRANCH  16  17
ATOM     17  C   UNL     1      -3.147  -1.916  -0.504  1.00  0.00     0.000 C 
BRANCH  17  18
ATOM     18  C   UNL     1      -4.189  -3.045  -0.416  1.00  0.00    -0.000 C 
BRANCH  18  19
ATOM     19  C   UNL     1      -3.716  -4.229   0.448  1.00  0.00    -0.000 C 
BRANCH  19  20
ATOM     20  C   UNL     1      -4.005  -5.623  -0.140  1.00  0.00    -0.000 C 
BRANCH  20  21
ATOM     21  C   UNL     1      -2.794  -6.223  -0.876  1.00  0.00    -0.000 C 
BRANCH  21  22
ATOM     22  C   UNL     1      -1.766  -5.158  -1.291  1.00  0.00    -0.000 C 
BRANCH  22  23
ATOM     23  C   UNL     1      -0.566  -5.082  -0.334  1.00  0.00    -0.000 C 
BRANCH  23  24
ATOM     24  C   UNL     1      -0.358  -3.644   0.168  1.00  0.00    -0.000 C 
BRANCH  24  25
ATOM     25  C   UNL     1       0.322  -2.745  -0.875  1.00  0.00    -0.003 C 
ATOM     26  C   UNL     1       1.235  -3.521  -1.824  1.00  0.00     0.004 C 
ENDBRANCH  24  25
ENDBRANCH  23  24
ENDBRANCH  22  23
ENDBRANCH  21  22
ENDBRANCH  20  21
ENDBRANCH  19  20
ENDBRANCH  18  19
ENDBRANCH  17  18
ENDBRANCH  16  17
ENDBRANCH  15  16
ENDBRANCH   1  15
TORSDOF 22
ENDMDL
