MODEL 1
REMARK VINA RESULT:    -5.203      0.000      0.000
REMARK INTER + INTRA:          -5.715
REMARK INTER:                  -5.659
REMARK INTRA:                  -0.056
REMARK UNBOUND:                -0.056
REMARK SMILES COc1cc2ccc(=O)oc2cc1O
REMARK SMILES IDX 3 1 13 2 12 3 11 4 5 5 4 6 6 7 7 8 8 9 9 10 10 11 2 12 1 13
REMARK SMILES IDX 14 14
REMARK H PARENT 14 15
REMARK Flexibility Score: inf
ROOT
ATOM      1  C   UNL     1     -20.641 -14.837  21.016  1.00  0.00     0.161 A 
ATOM      2  C   UNL     1     -20.541 -14.941  22.412  1.00  0.00     0.161 A 
ATOM      3  C   UNL     1     -19.921 -13.926  23.155  1.00  0.00     0.098 A 
ATOM      4  C   UNL     1     -19.398 -12.801  22.512  1.00  0.00     0.142 A 
ATOM      5  C   UNL     1     -19.494 -12.689  21.109  1.00  0.00     0.022 A 
ATOM      6  C   UNL     1     -20.112 -13.703  20.365  1.00  0.00     0.062 A 
ATOM      7  C   UNL     1     -18.961 -11.551  20.494  1.00  0.00     0.019 A 
ATOM      8  C   UNL     1     -18.354 -10.570  21.277  1.00  0.00     0.094 A 
ATOM      9  C   UNL     1     -18.297 -10.750  22.663  1.00  0.00     0.336 A 
ATOM     10  O   UNL     1     -17.753  -9.875  23.388  1.00  0.00    -0.246 OA
ATOM     11  O   UNL     1     -18.812 -11.841  23.224  1.00  0.00    -0.423 OA
ENDROOT
BRANCH   1  12
ATOM     12  O   UNL     1     -21.269 -15.877  20.312  1.00  0.00    -0.493 OA
ATOM     13  C   UNL     1     -22.642 -15.884  19.937  1.00  0.00     0.278 C 
ENDBRANCH   1  12
BRANCH   2  14
ATOM     14  O   UNL     1     -21.063 -16.062  23.056  1.00  0.00    -0.504 OA
ATOM     15  H   UNL     1     -21.454 -16.838  22.536  1.00  0.00     0.293 HD
ENDBRANCH   2  14
TORSDOF 2
ENDMDL
MODEL 2
REMARK VINA RESULT:    -5.073      5.303      6.486
REMARK INTER + INTRA:          -5.574
REMARK INTER:                  -5.510
REMARK INTRA:                  -0.064
REMARK UNBOUND:                -0.056
REMARK SMILES COc1cc2ccc(=O)oc2cc1O
REMARK SMILES IDX 3 1 13 2 12 3 11 4 5 5 4 6 6 7 7 8 8 9 9 10 10 11 2 12 1 13
REMARK SMILES IDX 14 14
REMARK H PARENT 14 15
REMARK Flexibility Score: inf
ROOT
ATOM      1  C   UNL     1     -16.396 -20.005  23.611  1.00  0.00     0.161 A 
ATOM      2  C   UNL     1     -17.221 -19.597  24.671  1.00  0.00     0.161 A 
ATOM      3  C   UNL     1     -18.030 -18.460  24.542  1.00  0.00     0.098 A 
ATOM      4  C   UNL     1     -18.024 -17.721  23.355  1.00  0.00     0.142 A 
ATOM      5  C   UNL     1     -17.197 -18.124  22.285  1.00  0.00     0.022 A 
ATOM      6  C   UNL     1     -16.387 -19.261  22.413  1.00  0.00     0.062 A 
ATOM      7  C   UNL     1     -17.213 -17.365  21.111  1.00  0.00     0.019 A 
ATOM      8  C   UNL     1     -18.035 -16.241  21.031  1.00  0.00     0.094 A 
ATOM      9  C   UNL     1     -18.827 -15.903  22.134  1.00  0.00     0.336 A 
ATOM     10  O   UNL     1     -19.576 -14.893  22.082  1.00  0.00    -0.246 OA
ATOM     11  O   UNL     1     -18.795 -16.642  23.239  1.00  0.00    -0.423 OA
ENDROOT
BRANCH   1  12
ATOM     12  O   UNL     1     -15.602 -21.150  23.784  1.00  0.00    -0.493 OA
ATOM     13  C   UNL     1     -15.799 -22.380  23.096  1.00  0.00     0.278 C 
ENDBRANCH   1  12
BRANCH   2  14
ATOM     14  O   UNL     1     -17.230 -20.332  25.856  1.00  0.00    -0.504 OA
ATOM     15  H   UNL     1     -18.013 -20.925  26.106  1.00  0.00     0.293 HD
ENDBRANCH   2  14
TORSDOF 2
ENDMDL
MODEL 3
REMARK VINA RESULT:    -5.044      4.667      6.155
REMARK INTER + INTRA:          -5.542
REMARK INTER:                  -5.478
REMARK INTRA:                  -0.064
REMARK UNBOUND:                -0.056
REMARK SMILES COc1cc2ccc(=O)oc2cc1O
REMARK SMILES IDX 3 1 13 2 12 3 11 4 5 5 4 6 6 7 7 8 8 9 9 10 10 11 2 12 1 13
REMARK SMILES IDX 14 14
REMARK H PARENT 14 15
REMARK Flexibility Score: inf
ROOT
ATOM      1  C   UNL     1     -16.958 -19.219  23.873  1.00  0.00     0.161 A 
ATOM      2  C   UNL     1     -17.591 -19.387  25.115  1.00  0.00     0.161 A 
ATOM      3  C   UNL     1     -18.633 -18.532  25.499  1.00  0.00     0.098 A 
ATOM      4  C   UNL     1     -19.053 -17.505  24.649  1.00  0.00     0.142 A 
ATOM      5  C   UNL     1     -18.422 -17.330  23.400  1.00  0.00     0.022 A 
ATOM      6  C   UNL     1     -17.379 -18.183  23.014  1.00  0.00     0.062 A 
ATOM      7  C   UNL     1     -18.864 -16.293  22.571  1.00  0.00     0.019 A 
ATOM      8  C   UNL     1     -19.905 -15.470  22.999  1.00  0.00     0.094 A 
ATOM      9  C   UNL     1     -20.482 -15.705  24.251  1.00  0.00     0.336 A 
ATOM     10  O   UNL     1     -21.423 -14.973  24.656  1.00  0.00    -0.246 OA
ATOM     11  O   UNL     1     -20.044 -16.698  25.021  1.00  0.00    -0.423 OA
ENDROOT
BRANCH   1  12
ATOM     12  O   UNL     1     -15.918 -20.097  23.529  1.00  0.00    -0.493 OA
ATOM     13  C   UNL     1     -16.064 -21.225  22.672  1.00  0.00     0.278 C 
ENDBRANCH   1  12
BRANCH   2  14
ATOM     14  O   UNL     1     -17.174 -20.410  25.965  1.00  0.00    -0.504 OA
ATOM     15  H   UNL     1     -17.718 -21.257  26.082  1.00  0.00     0.293 HD
ENDBRANCH   2  14
TORSDOF 2
ENDMDL
MODEL 4
REMARK VINA RESULT:    -5.044      4.033      6.162
REMARK INTER + INTRA:          -5.542
REMARK INTER:                  -5.497
REMARK INTRA:                  -0.045
REMARK UNBOUND:                -0.056
REMARK SMILES COc1cc2ccc(=O)oc2cc1O
REMARK SMILES IDX 3 1 13 2 12 3 11 4 5 5 4 6 6 7 7 8 8 9 9 10 10 11 2 12 1 13
REMARK SMILES IDX 14 14
REMARK H PARENT 14 15
REMARK Flexibility Score: inf
ROOT
ATOM      1  C   UNL     1     -18.451 -15.775  21.323  1.00  0.00     0.161 A 
ATOM      2  C   UNL     1     -17.408 -16.615  20.899  1.00  0.00     0.161 A 
ATOM      3  C   UNL     1     -16.984 -17.679  21.707  1.00  0.00     0.098 A 
ATOM      4  C   UNL     1     -17.595 -17.913  22.942  1.00  0.00     0.142 A 
ATOM      5  C   UNL     1     -18.642 -17.074  23.375  1.00  0.00     0.022 A 
ATOM      6  C   UNL     1     -19.067 -16.009  22.569  1.00  0.00     0.062 A 
ATOM      7  C   UNL     1     -19.233 -17.334  24.616  1.00  0.00     0.019 A 
ATOM      8  C   UNL     1     -18.775 -18.404  25.383  1.00  0.00     0.094 A 
ATOM      9  C   UNL     1     -17.732 -19.194  24.887  1.00  0.00     0.336 A 
ATOM     10  O   UNL     1     -17.303 -20.165  25.564  1.00  0.00    -0.246 OA
ATOM     11  O   UNL     1     -17.186 -18.926  23.704  1.00  0.00    -0.423 OA
ENDROOT
BRANCH   1  12
ATOM     12  O   UNL     1     -18.843 -14.722  20.482  1.00  0.00    -0.493 OA
ATOM     13  C   UNL     1     -19.784 -13.713  20.836  1.00  0.00     0.278 C 
ENDBRANCH   1  12
BRANCH   2  14
ATOM     14  O   UNL     1     -16.797 -16.384  19.667  1.00  0.00    -0.504 OA
ATOM     15  H   UNL     1     -16.380 -15.488  19.443  1.00  0.00     0.293 HD
ENDBRANCH   2  14
TORSDOF 2
ENDMDL
MODEL 5
REMARK VINA RESULT:    -5.024      5.138      6.620
REMARK INTER + INTRA:          -5.520
REMARK INTER:                  -5.457
REMARK INTRA:                  -0.063
REMARK UNBOUND:                -0.056
REMARK SMILES COc1cc2ccc(=O)oc2cc1O
REMARK SMILES IDX 3 1 13 2 12 3 11 4 5 5 4 6 6 7 7 8 8 9 9 10 10 11 2 12 1 13
REMARK SMILES IDX 14 14
REMARK H PARENT 14 15
REMARK Flexibility Score: inf
ROOT
ATOM      1  C   UNL     1     -15.676 -19.009  21.870  1.00  0.00     0.161 A 
ATOM      2  C   UNL     1     -15.875 -18.153  20.774  1.00  0.00     0.161 A 
ATOM      3  C   UNL     1     -16.894 -17.190  20.805  1.00  0.00     0.098 A 
ATOM      4  C   UNL     1     -17.719 -17.072  21.926  1.00  0.00     0.142 A 
ATOM      5  C   UNL     1     -17.526 -17.929  23.030  1.00  0.00     0.022 A 
ATOM      6  C   UNL     1     -16.509 -18.893  23.001  1.00  0.00     0.062 A 
ATOM      7  C   UNL     1     -18.368 -17.787  24.138  1.00  0.00     0.019 A 
ATOM      8  C   UNL     1     -19.366 -16.813  24.120  1.00  0.00     0.094 A 
ATOM      9  C   UNL     1     -19.498 -16.000  22.989  1.00  0.00     0.336 A 
ATOM     10  O   UNL     1     -20.393 -15.115  22.952  1.00  0.00    -0.246 OA
ATOM     11  O   UNL     1     -18.684 -16.155  21.948  1.00  0.00    -0.423 OA
ENDROOT
BRANCH   1  12
ATOM     12  O   UNL     1     -14.645 -19.960  21.796  1.00  0.00    -0.493 OA
ATOM     13  C   UNL     1     -13.357 -19.800  22.381  1.00  0.00     0.278 C 
ENDBRANCH   1  12
BRANCH   2  14
ATOM     14  O   UNL     1     -15.053 -18.269  19.655  1.00  0.00    -0.504 OA
ATOM     15  H   UNL     1     -14.540 -17.475  19.290  1.00  0.00     0.293 HD
ENDBRANCH   2  14
TORSDOF 2
ENDMDL
MODEL 6
REMARK VINA RESULT:    -4.967      4.420      5.727
REMARK INTER + INTRA:          -5.458
REMARK INTER:                  -5.396
REMARK INTRA:                  -0.062
REMARK UNBOUND:                -0.056
REMARK SMILES COc1cc2ccc(=O)oc2cc1O
REMARK SMILES IDX 3 1 13 2 12 3 11 4 5 5 4 6 6 7 7 8 8 9 9 10 10 11 2 12 1 13
REMARK SMILES IDX 14 14
REMARK H PARENT 14 15
REMARK Flexibility Score: inf
ROOT
ATOM      1  C   UNL     1     -19.517 -16.812  24.200  1.00  0.00     0.161 A 
ATOM      2  C   UNL     1     -18.844 -17.943  24.689  1.00  0.00     0.161 A 
ATOM      3  C   UNL     1     -17.791 -18.511  23.958  1.00  0.00     0.098 A 
ATOM      4  C   UNL     1     -17.401 -17.955  22.736  1.00  0.00     0.142 A 
ATOM      5  C   UNL     1     -18.073 -16.819  22.238  1.00  0.00     0.022 A 
ATOM      6  C   UNL     1     -19.126 -16.251  22.967  1.00  0.00     0.062 A 
ATOM      7  C   UNL     1     -17.659 -16.286  21.013  1.00  0.00     0.019 A 
ATOM      8  C   UNL     1     -16.607 -16.887  20.324  1.00  0.00     0.094 A 
ATOM      9  C   UNL     1     -15.988 -18.011  20.881  1.00  0.00     0.336 A 
ATOM     10  O   UNL     1     -15.035 -18.569  20.275  1.00  0.00    -0.246 OA
ATOM     11  O   UNL     1     -16.400 -18.499  22.048  1.00  0.00    -0.423 OA
ENDROOT
BRANCH   1  12
ATOM     12  O   UNL     1     -20.567 -16.277  24.964  1.00  0.00    -0.493 OA
ATOM     13  C   UNL     1     -21.929 -16.244  24.553  1.00  0.00     0.278 C 
ENDBRANCH   1  12
BRANCH   2  14
ATOM     14  O   UNL     1     -19.231 -18.499  25.907  1.00  0.00    -0.504 OA
ATOM     15  H   UNL     1     -19.222 -17.957  26.763  1.00  0.00     0.293 HD
ENDBRANCH   2  14
TORSDOF 2
ENDMDL
MODEL 7
REMARK VINA RESULT:    -4.957      3.511      5.354
REMARK INTER + INTRA:          -5.447
REMARK INTER:                  -5.399
REMARK INTRA:                  -0.048
REMARK UNBOUND:                -0.056
REMARK SMILES COc1cc2ccc(=O)oc2cc1O
REMARK SMILES IDX 3 1 13 2 12 3 11 4 5 5 4 6 6 7 7 8 8 9 9 10 10 11 2 12 1 13
REMARK SMILES IDX 14 14
REMARK H PARENT 14 15
REMARK Flexibility Score: inf
ROOT
ATOM      1  C   UNL     1     -19.826 -14.707  22.582  1.00  0.00     0.161 A 
ATOM      2  C   UNL     1     -19.339 -14.104  21.411  1.00  0.00     0.161 A 
ATOM      3  C   UNL     1     -18.320 -14.720  20.670  1.00  0.00     0.098 A 
ATOM      4  C   UNL     1     -17.781 -15.939  21.090  1.00  0.00     0.142 A 
ATOM      5  C   UNL     1     -18.265 -16.550  22.266  1.00  0.00     0.022 A 
ATOM      6  C   UNL     1     -19.283 -15.936  23.008  1.00  0.00     0.062 A 
ATOM      7  C   UNL     1     -17.705 -17.769  22.660  1.00  0.00     0.019 A 
ATOM      8  C   UNL     1     -16.694 -18.341  21.889  1.00  0.00     0.094 A 
ATOM      9  C   UNL     1     -16.265 -17.676  20.735  1.00  0.00     0.336 A 
ATOM     10  O   UNL     1     -15.353 -18.175  20.025  1.00  0.00    -0.246 OA
ATOM     11  O   UNL     1     -16.814 -16.517  20.381  1.00  0.00    -0.423 OA
ENDROOT
BRANCH   1  12
ATOM     12  O   UNL     1     -20.847 -14.055  23.294  1.00  0.00    -0.493 OA
ATOM     13  C   UNL     1     -21.025 -14.135  24.704  1.00  0.00     0.278 C 
ENDBRANCH   1  12
BRANCH   2  14
ATOM     14  O   UNL     1     -19.876 -12.889  20.990  1.00  0.00    -0.504 OA
ATOM     15  H   UNL     1     -19.296 -12.168  20.576  1.00  0.00     0.293 HD
ENDBRANCH   2  14
TORSDOF 2
ENDMDL
MODEL 8
REMARK VINA RESULT:    -4.940      4.450      5.642
REMARK INTER + INTRA:          -5.429
REMARK INTER:                  -5.376
REMARK INTRA:                  -0.052
REMARK UNBOUND:                -0.056
REMARK SMILES COc1cc2ccc(=O)oc2cc1O
REMARK SMILES IDX 3 1 13 2 12 3 11 4 5 5 4 6 6 7 7 8 8 9 9 10 10 11 2 12 1 13
REMARK SMILES IDX 14 14
REMARK H PARENT 14 15
REMARK Flexibility Score: inf
ROOT
ATOM      1  C   UNL     1     -17.130 -19.156  23.767  1.00  0.00     0.161 A 
ATOM      2  C   UNL     1     -18.104 -18.673  24.655  1.00  0.00     0.161 A 
ATOM      3  C   UNL     1     -18.856 -17.535  24.330  1.00  0.00     0.098 A 
ATOM      4  C   UNL     1     -18.644 -16.873  23.118  1.00  0.00     0.142 A 
ATOM      5  C   UNL     1     -17.666 -17.351  22.221  1.00  0.00     0.022 A 
ATOM      6  C   UNL     1     -16.912 -18.487  22.545  1.00  0.00     0.062 A 
ATOM      7  C   UNL     1     -17.476 -16.666  21.016  1.00  0.00     0.019 A 
ATOM      8  C   UNL     1     -18.249 -15.539  20.739  1.00  0.00     0.094 A 
ATOM      9  C   UNL     1     -19.200 -15.124  21.677  1.00  0.00     0.336 A 
ATOM     10  O   UNL     1     -19.909 -14.109  21.446  1.00  0.00    -0.246 OA
ATOM     11  O   UNL     1     -19.362 -15.793  22.816  1.00  0.00    -0.423 OA
ENDROOT
BRANCH   1  12
ATOM     12  O   UNL     1     -16.399 -20.298  24.134  1.00  0.00    -0.493 OA
ATOM     13  C   UNL     1     -16.112 -21.386  23.262  1.00  0.00     0.278 C 
ENDBRANCH   1  12
BRANCH   2  14
ATOM     14  O   UNL     1     -18.319 -19.333  25.864  1.00  0.00    -0.504 OA
ATOM     15  H   UNL     1     -19.127 -19.927  26.007  1.00  0.00     0.293 HD
ENDBRANCH   2  14
TORSDOF 2
ENDMDL
MODEL 9
REMARK VINA RESULT:    -4.936      5.721      7.281
REMARK INTER + INTRA:          -5.424
REMARK INTER:                  -5.408
REMARK INTRA:                  -0.016
REMARK UNBOUND:                -0.056
REMARK SMILES COc1cc2ccc(=O)oc2cc1O
REMARK SMILES IDX 3 1 13 2 12 3 11 4 5 5 4 6 6 7 7 8 8 9 9 10 10 11 2 12 1 13
REMARK SMILES IDX 14 14
REMARK H PARENT 14 15
REMARK Flexibility Score: inf
ROOT
ATOM      1  C   UNL     1     -17.947 -18.429  24.853  1.00  0.00     0.161 A 
ATOM      2  C   UNL     1     -17.172 -19.600  24.815  1.00  0.00     0.161 A 
ATOM      3  C   UNL     1     -16.491 -19.960  23.643  1.00  0.00     0.098 A 
ATOM      4  C   UNL     1     -16.577 -19.157  22.503  1.00  0.00     0.142 A 
ATOM      5  C   UNL     1     -17.354 -17.980  22.533  1.00  0.00     0.022 A 
ATOM      6  C   UNL     1     -18.036 -17.619  23.702  1.00  0.00     0.062 A 
ATOM      7  C   UNL     1     -17.421 -17.198  21.375  1.00  0.00     0.019 A 
ATOM      8  C   UNL     1     -16.726 -17.600  20.235  1.00  0.00     0.094 A 
ATOM      9  C   UNL     1     -15.976 -18.780  20.280  1.00  0.00     0.336 A 
ATOM     10  O   UNL     1     -15.341 -19.160  19.262  1.00  0.00    -0.246 OA
ATOM     11  O   UNL     1     -15.928 -19.506  21.394  1.00  0.00    -0.423 OA
ENDROOT
BRANCH   1  12
ATOM     12  O   UNL     1     -18.612 -18.107  26.046  1.00  0.00    -0.493 OA
ATOM     13  C   UNL     1     -18.030 -17.379  27.123  1.00  0.00     0.278 C 
ENDBRANCH   1  12
BRANCH   2  14
ATOM     14  O   UNL     1     -17.084 -20.402  25.952  1.00  0.00    -0.504 OA
ATOM     15  H   UNL     1     -16.307 -21.036  26.094  1.00  0.00     0.293 HD
ENDBRANCH   2  14
TORSDOF 2
ENDMDL
