MODEL 1
REMARK VINA RESULT:    -5.331      0.000      0.000
REMARK INTER + INTRA:          -9.852
REMARK INTER:                  -8.447
REMARK INTRA:                  -1.406
REMARK UNBOUND:                -1.406
REMARK SMILES CCCCCCCCCCCC(=O)[O-]
REMARK SMILES IDX 7 1 8 2 9 3 10 4 11 5 12 6 13 7 14 8 6 9 5 10 4 11 3 12 2 13
REMARK SMILES IDX 1 14
REMARK H PARENT
REMARK Flexibility Score: inf
ROOT
ATOM      1  C   UNL     1     -18.257  -9.570   0.671  1.00  0.00     0.000 C 
ENDROOT
BRANCH   1   2
ATOM      2  C   UNL     1     -19.058  -9.490  -0.635  1.00  0.00     0.000 C 
BRANCH   2   3
ATOM      3  C   UNL     1     -18.674 -10.630  -1.588  1.00  0.00     0.000 C 
BRANCH   3   4
ATOM      4  C   UNL     1     -17.574 -11.547  -1.021  1.00  0.00     0.006 C 
BRANCH   4   5
ATOM      5  C   UNL     1     -17.962 -13.036  -0.978  1.00  0.00     0.053 C 
BRANCH   5   6
ATOM      6  C   UNL     1     -16.821 -13.921  -0.581  1.00  0.00     0.041 C 
ATOM      7  O   UNL     1     -16.329 -13.844   0.575  1.00  0.00    -0.550 OA
ATOM      8  O   UNL     1     -16.321 -14.857  -1.478  1.00  0.00    -0.550 OA
ENDBRANCH   5   6
ENDBRANCH   4   5
ENDBRANCH   3   4
ENDBRANCH   2   3
ENDBRANCH   1   2
BRANCH   1   9
ATOM      9  C   UNL     1     -17.990  -8.170   1.240  1.00  0.00     0.000 C 
BRANCH   9  10
ATOM     10  C   UNL     1     -16.646  -7.586   0.776  1.00  0.00    -0.000 C 
BRANCH  10  11
ATOM     11  C   UNL     1     -15.612  -8.674   0.437  1.00  0.00    -0.000 C 
BRANCH  11  12
ATOM     12  C   UNL     1     -15.174  -8.623  -1.042  1.00  0.00    -0.000 C 
BRANCH  12  13
ATOM     13  C   UNL     1     -16.054  -7.709  -1.911  1.00  0.00    -0.003 C 
ATOM     14  C   UNL     1     -16.309  -8.274  -3.307  1.00  0.00     0.004 C 
ENDBRANCH  12  13
ENDBRANCH  11  12
ENDBRANCH  10  11
ENDBRANCH   9  10
ENDBRANCH   1   9
TORSDOF 10
ENDMDL
MODEL 2
REMARK VINA RESULT:    -5.263      1.498      2.075
REMARK INTER + INTRA:          -9.746
REMARK INTER:                  -8.558
REMARK INTRA:                  -1.188
REMARK UNBOUND:                -1.406
REMARK SMILES CCCCCCCCCCCC(=O)[O-]
REMARK SMILES IDX 7 1 8 2 9 3 10 4 11 5 12 6 13 7 14 8 6 9 5 10 4 11 3 12 2 13
REMARK SMILES IDX 1 14
REMARK H PARENT
REMARK Flexibility Score: inf
ROOT
ATOM      1  C   UNL     1     -19.102  -9.528  -0.602  1.00  0.00     0.000 C 
ENDROOT
BRANCH   1   2
ATOM      2  C   UNL     1     -18.689 -10.623  -1.594  1.00  0.00     0.000 C 
BRANCH   2   3
ATOM      3  C   UNL     1     -17.563 -11.493  -1.017  1.00  0.00     0.000 C 
BRANCH   3   4
ATOM      4  C   UNL     1     -18.023 -12.920  -0.665  1.00  0.00     0.006 C 
BRANCH   4   5
ATOM      5  C   UNL     1     -17.377 -14.016  -1.531  1.00  0.00     0.053 C 
BRANCH   5   6
ATOM      6  C   UNL     1     -17.892 -14.024  -2.937  1.00  0.00     0.041 C 
ATOM      7  O   UNL     1     -17.092 -14.095  -3.907  1.00  0.00    -0.550 OA
ATOM      8  O   UNL     1     -19.260 -13.984  -3.178  1.00  0.00    -0.550 OA
ENDBRANCH   5   6
ENDBRANCH   4   5
ENDBRANCH   3   4
ENDBRANCH   2   3
ENDBRANCH   1   2
BRANCH   1   9
ATOM      9  C   UNL     1     -18.135  -9.474   0.590  1.00  0.00     0.000 C 
BRANCH   9  10
ATOM     10  C   UNL     1     -17.912  -8.043   1.108  1.00  0.00    -0.000 C 
BRANCH  10  11
ATOM     11  C   UNL     1     -16.462  -7.563   0.921  1.00  0.00    -0.000 C 
BRANCH  11  12
ATOM     12  C   UNL     1     -15.646  -8.513   0.019  1.00  0.00    -0.000 C 
BRANCH  12  13
ATOM     13  C   UNL     1     -15.197  -7.869  -1.304  1.00  0.00    -0.003 C 
ATOM     14  C   UNL     1     -16.276  -7.908  -2.385  1.00  0.00     0.004 C 
ENDBRANCH  12  13
ENDBRANCH  11  12
ENDBRANCH  10  11
ENDBRANCH   9  10
ENDBRANCH   1   9
TORSDOF 10
ENDMDL
MODEL 3
REMARK VINA RESULT:    -5.241      1.455      2.826
REMARK INTER + INTRA:          -9.711
REMARK INTER:                  -8.524
REMARK INTRA:                  -1.187
REMARK UNBOUND:                -1.406
REMARK SMILES CCCCCCCCCCCC(=O)[O-]
REMARK SMILES IDX 7 1 8 2 9 3 10 4 11 5 12 6 13 7 14 8 6 9 5 10 4 11 3 12 2 13
REMARK SMILES IDX 1 14
REMARK H PARENT
REMARK Flexibility Score: inf
ROOT
ATOM      1  C   UNL     1     -17.453 -10.467  -2.283  1.00  0.00     0.000 C 
ENDROOT
BRANCH   1   2
ATOM      2  C   UNL     1     -18.717 -10.675  -1.438  1.00  0.00     0.000 C 
BRANCH   2   3
ATOM      3  C   UNL     1     -18.520 -11.808  -0.422  1.00  0.00     0.000 C 
BRANCH   3   4
ATOM      4  C   UNL     1     -17.059 -11.960   0.038  1.00  0.00     0.006 C 
BRANCH   4   5
ATOM      5  C   UNL     1     -16.618 -13.420   0.247  1.00  0.00     0.053 C 
BRANCH   5   6
ATOM      6  C   UNL     1     -15.474 -13.549   1.205  1.00  0.00     0.041 C 
ATOM      7  O   UNL     1     -14.369 -13.001   0.953  1.00  0.00    -0.550 OA
ATOM      8  O   UNL     1     -15.637 -14.250   2.394  1.00  0.00    -0.550 OA
ENDBRANCH   5   6
ENDBRANCH   4   5
ENDBRANCH   3   4
ENDBRANCH   2   3
ENDBRANCH   1   2
BRANCH   1   9
ATOM      9  C   UNL     1     -17.176  -8.972  -2.499  1.00  0.00     0.000 C 
BRANCH   9  10
ATOM     10  C   UNL     1     -15.698  -8.606  -2.283  1.00  0.00    -0.000 C 
BRANCH  10  11
ATOM     11  C   UNL     1     -15.489  -7.660  -1.087  1.00  0.00    -0.000 C 
BRANCH  11  12
ATOM     12  C   UNL     1     -15.832  -8.336   0.257  1.00  0.00    -0.000 C 
BRANCH  12  13
ATOM     13  C   UNL     1     -16.867  -7.560   1.088  1.00  0.00    -0.003 C 
ATOM     14  C   UNL     1     -18.196  -8.299   1.232  1.00  0.00     0.004 C 
ENDBRANCH  12  13
ENDBRANCH  11  12
ENDBRANCH  10  11
ENDBRANCH   9  10
ENDBRANCH   1   9
TORSDOF 10
ENDMDL
MODEL 4
REMARK VINA RESULT:    -5.197      2.459      5.134
REMARK INTER + INTRA:          -9.641
REMARK INTER:                  -8.287
REMARK INTRA:                  -1.355
REMARK UNBOUND:                -1.406
REMARK SMILES CCCCCCCCCCCC(=O)[O-]
REMARK SMILES IDX 7 1 8 2 9 3 10 4 11 5 12 6 13 7 14 8 6 9 5 10 4 11 3 12 2 13
REMARK SMILES IDX 1 14
REMARK H PARENT
REMARK Flexibility Score: inf
ROOT
ATOM      1  C   UNL     1     -18.330 -11.606  -0.223  1.00  0.00     0.000 C 
ENDROOT
BRANCH   1   2
ATOM      2  C   UNL     1     -18.606 -10.624  -1.369  1.00  0.00     0.000 C 
BRANCH   2   3
ATOM      3  C   UNL     1     -17.303 -10.218  -2.073  1.00  0.00     0.000 C 
BRANCH   3   4
ATOM      4  C   UNL     1     -17.128  -8.692  -2.186  1.00  0.00     0.006 C 
BRANCH   4   5
ATOM      5  C   UNL     1     -15.920  -8.142  -1.407  1.00  0.00     0.053 C 
BRANCH   5   6
ATOM      6  C   UNL     1     -15.940  -8.527   0.040  1.00  0.00     0.041 C 
ATOM      7  O   UNL     1     -14.987  -9.184   0.536  1.00  0.00    -0.550 OA
ATOM      8  O   UNL     1     -16.997  -8.133   0.851  1.00  0.00    -0.550 OA
ENDBRANCH   5   6
ENDBRANCH   4   5
ENDBRANCH   3   4
ENDBRANCH   2   3
ENDBRANCH   1   2
BRANCH   1   9
ATOM      9  C   UNL     1     -16.876 -12.099  -0.260  1.00  0.00     0.000 C 
BRANCH   9  10
ATOM     10  C   UNL     1     -16.729 -13.547   0.235  1.00  0.00    -0.000 C 
BRANCH  10  11
ATOM     11  C   UNL     1     -16.169 -14.490  -0.845  1.00  0.00    -0.000 C 
BRANCH  11  12
ATOM     12  C   UNL     1     -16.493 -13.998  -2.271  1.00  0.00    -0.000 C 
BRANCH  12  13
ATOM     13  C   UNL     1     -17.619 -14.792  -2.955  1.00  0.00    -0.003 C 
ATOM     14  C   UNL     1     -18.954 -14.049  -2.966  1.00  0.00     0.004 C 
ENDBRANCH  12  13
ENDBRANCH  11  12
ENDBRANCH  10  11
ENDBRANCH   9  10
ENDBRANCH   1   9
TORSDOF 10
ENDMDL
MODEL 5
REMARK VINA RESULT:    -5.178      2.914      5.507
REMARK INTER + INTRA:          -9.610
REMARK INTER:                  -8.126
REMARK INTRA:                  -1.484
REMARK UNBOUND:                -1.406
REMARK SMILES CCCCCCCCCCCC(=O)[O-]
REMARK SMILES IDX 7 1 8 2 9 3 10 4 11 5 12 6 13 7 14 8 6 9 5 10 4 11 3 12 2 13
REMARK SMILES IDX 1 14
REMARK H PARENT
REMARK Flexibility Score: inf
ROOT
ATOM      1  C   UNL     1     -18.647 -13.058  -1.459  1.00  0.00     0.000 C 
ENDROOT
BRANCH   1   2
ATOM      2  C   UNL     1     -18.454 -11.536  -1.416  1.00  0.00     0.000 C 
BRANCH   2   3
ATOM      3  C   UNL     1     -17.319 -11.098  -2.352  1.00  0.00     0.000 C 
BRANCH   3   4
ATOM      4  C   UNL     1     -16.144 -10.437  -1.608  1.00  0.00     0.006 C 
BRANCH   4   5
ATOM      5  C   UNL     1     -16.473 -10.027  -0.161  1.00  0.00     0.053 C 
BRANCH   5   6
ATOM      6  C   UNL     1     -16.092  -8.610   0.140  1.00  0.00     0.041 C 
ATOM      7  O   UNL     1     -16.026  -8.209   1.332  1.00  0.00    -0.550 OA
ATOM      8  O   UNL     1     -15.780  -7.737  -0.896  1.00  0.00    -0.550 OA
ENDBRANCH   5   6
ENDBRANCH   4   5
ENDBRANCH   3   4
ENDBRANCH   2   3
ENDBRANCH   1   2
BRANCH   1   9
ATOM      9  C   UNL     1     -18.272 -13.621  -2.837  1.00  0.00     0.000 C 
BRANCH   9  10
ATOM     10  C   UNL     1     -17.149 -14.668  -2.765  1.00  0.00    -0.000 C 
BRANCH  10  11
ATOM     11  C   UNL     1     -16.530 -14.779  -1.360  1.00  0.00    -0.000 C 
BRANCH  11  12
ATOM     12  C   UNL     1     -15.074 -14.267  -1.322  1.00  0.00    -0.000 C 
BRANCH  12  13
ATOM     13  C   UNL     1     -14.732 -13.481  -0.046  1.00  0.00    -0.003 C 
ATOM     14  C   UNL     1     -15.681 -13.780   1.114  1.00  0.00     0.004 C 
ENDBRANCH  12  13
ENDBRANCH  11  12
ENDBRANCH  10  11
ENDBRANCH   9  10
ENDBRANCH   1   9
TORSDOF 10
ENDMDL
MODEL 6
REMARK VINA RESULT:    -5.175      1.571      2.906
REMARK INTER + INTRA:          -9.605
REMARK INTER:                  -8.196
REMARK INTRA:                  -1.410
REMARK UNBOUND:                -1.406
REMARK SMILES CCCCCCCCCCCC(=O)[O-]
REMARK SMILES IDX 7 1 8 2 9 3 10 4 11 5 12 6 13 7 14 8 6 9 5 10 4 11 3 12 2 13
REMARK SMILES IDX 1 14
REMARK H PARENT
REMARK Flexibility Score: inf
ROOT
ATOM      1  C   UNL     1     -18.807 -10.569  -1.412  1.00  0.00     0.000 C 
ENDROOT
BRANCH   1   2
ATOM      2  C   UNL     1     -18.582 -11.504  -0.217  1.00  0.00     0.000 C 
BRANCH   2   3
ATOM      3  C   UNL     1     -17.159 -12.082  -0.228  1.00  0.00     0.000 C 
BRANCH   3   4
ATOM      4  C   UNL     1     -17.130 -13.618  -0.133  1.00  0.00     0.006 C 
BRANCH   4   5
ATOM      5  C   UNL     1     -16.472 -14.307  -1.341  1.00  0.00     0.053 C 
BRANCH   5   6
ATOM      6  C   UNL     1     -17.194 -14.039  -2.626  1.00  0.00     0.041 C 
ATOM      7  O   UNL     1     -18.447 -14.142  -2.685  1.00  0.00    -0.550 OA
ATOM      8  O   UNL     1     -16.484 -13.643  -3.754  1.00  0.00    -0.550 OA
ENDBRANCH   5   6
ENDBRANCH   4   5
ENDBRANCH   3   4
ENDBRANCH   2   3
ENDBRANCH   1   2
BRANCH   1   9
ATOM      9  C   UNL     1     -17.502 -10.349  -2.191  1.00  0.00     0.000 C 
BRANCH   9  10
ATOM     10  C   UNL     1     -17.133  -8.863  -2.322  1.00  0.00    -0.000 C 
BRANCH  10  11
ATOM     11  C   UNL     1     -15.818  -8.511  -1.604  1.00  0.00    -0.000 C 
BRANCH  11  12
ATOM     12  C   UNL     1     -16.047  -7.585  -0.391  1.00  0.00    -0.000 C 
BRANCH  12  13
ATOM     13  C   UNL     1     -16.483  -8.333   0.880  1.00  0.00    -0.003 C 
ATOM     14  C   UNL     1     -17.953  -8.109   1.233  1.00  0.00     0.004 C 
ENDBRANCH  12  13
ENDBRANCH  11  12
ENDBRANCH  10  11
ENDBRANCH   9  10
ENDBRANCH   1   9
TORSDOF 10
ENDMDL
MODEL 7
REMARK VINA RESULT:    -5.158      3.156      5.346
REMARK INTER + INTRA:          -9.580
REMARK INTER:                  -8.271
REMARK INTRA:                  -1.309
REMARK UNBOUND:                -1.406
REMARK SMILES CCCCCCCCCCCC(=O)[O-]
REMARK SMILES IDX 7 1 8 2 9 3 10 4 11 5 12 6 13 7 14 8 6 9 5 10 4 11 3 12 2 13
REMARK SMILES IDX 1 14
REMARK H PARENT
REMARK Flexibility Score: inf
ROOT
ATOM      1  C   UNL     1     -16.949 -11.662   0.099  1.00  0.00     0.000 C 
ENDROOT
BRANCH   1   2
ATOM      2  C   UNL     1     -18.424 -11.459  -0.270  1.00  0.00     0.000 C 
BRANCH   2   3
ATOM      3  C   UNL     1     -18.569 -10.477  -1.441  1.00  0.00     0.000 C 
BRANCH   3   4
ATOM      4  C   UNL     1     -17.286 -10.347  -2.283  1.00  0.00     0.006 C 
BRANCH   4   5
ATOM      5  C   UNL     1     -16.874  -8.893  -2.575  1.00  0.00     0.053 C 
BRANCH   5   6
ATOM      6  C   UNL     1     -16.087  -8.756  -3.841  1.00  0.00     0.041 C 
ATOM      7  O   UNL     1     -16.555  -8.109  -4.815  1.00  0.00    -0.550 OA
ATOM      8  O   UNL     1     -14.819  -9.318  -3.937  1.00  0.00    -0.550 OA
ENDBRANCH   5   6
ENDBRANCH   4   5
ENDBRANCH   3   4
ENDBRANCH   2   3
ENDBRANCH   1   2
BRANCH   1   9
ATOM      9  C   UNL     1     -16.648 -13.144   0.362  1.00  0.00     0.000 C 
BRANCH   9  10
ATOM     10  C   UNL     1     -15.319 -13.600  -0.263  1.00  0.00    -0.000 C 
BRANCH  10  11
ATOM     11  C   UNL     1     -15.466 -14.006  -1.740  1.00  0.00    -0.000 C 
BRANCH  11  12
ATOM     12  C   UNL     1     -16.792 -14.749  -2.011  1.00  0.00    -0.000 C 
BRANCH  12  13
ATOM     13  C   UNL     1     -17.552 -14.222  -3.240  1.00  0.00    -0.003 C 
ATOM     14  C   UNL     1     -19.023 -13.925  -2.953  1.00  0.00     0.004 C 
ENDBRANCH  12  13
ENDBRANCH  11  12
ENDBRANCH  10  11
ENDBRANCH   9  10
ENDBRANCH   1   9
TORSDOF 10
ENDMDL
MODEL 8
REMARK VINA RESULT:    -5.149      1.039      1.663
REMARK INTER + INTRA:          -9.565
REMARK INTER:                  -8.458
REMARK INTRA:                  -1.107
REMARK UNBOUND:                -1.406
REMARK SMILES CCCCCCCCCCCC(=O)[O-]
REMARK SMILES IDX 7 1 8 2 9 3 10 4 11 5 12 6 13 7 14 8 6 9 5 10 4 11 3 12 2 13
REMARK SMILES IDX 1 14
REMARK H PARENT
REMARK Flexibility Score: inf
ROOT
ATOM      1  C   UNL     1     -18.993  -9.514  -0.686  1.00  0.00     0.000 C 
ENDROOT
BRANCH   1   2
ATOM      2  C   UNL     1     -18.637 -10.812  -1.422  1.00  0.00     0.000 C 
BRANCH   2   3
ATOM      3  C   UNL     1     -18.971 -12.041  -0.566  1.00  0.00     0.000 C 
BRANCH   3   4
ATOM      4  C   UNL     1     -18.000 -13.215  -0.789  1.00  0.00     0.006 C 
BRANCH   4   5
ATOM      5  C   UNL     1     -16.748 -13.168   0.105  1.00  0.00     0.053 C 
BRANCH   5   6
ATOM      6  C   UNL     1     -15.589 -13.915  -0.481  1.00  0.00     0.041 C 
ATOM      7  O   UNL     1     -15.778 -14.792  -1.364  1.00  0.00    -0.550 OA
ATOM      8  O   UNL     1     -14.293 -13.620  -0.073  1.00  0.00    -0.550 OA
ENDBRANCH   5   6
ENDBRANCH   4   5
ENDBRANCH   3   4
ENDBRANCH   2   3
ENDBRANCH   1   2
BRANCH   1   9
ATOM      9  C   UNL     1     -18.043  -9.274   0.496  1.00  0.00     0.000 C 
BRANCH   9  10
ATOM     10  C   UNL     1     -16.563  -9.283   0.080  1.00  0.00    -0.000 C 
BRANCH  10  11
ATOM     11  C   UNL     1     -16.013  -7.871  -0.185  1.00  0.00    -0.000 C 
BRANCH  11  12
ATOM     12  C   UNL     1     -16.039  -7.507  -1.685  1.00  0.00    -0.000 C 
BRANCH  12  13
ATOM     13  C   UNL     1     -15.732  -8.696  -2.611  1.00  0.00    -0.003 C 
ATOM     14  C   UNL     1     -16.452  -8.610  -3.955  1.00  0.00     0.004 C 
ENDBRANCH  12  13
ENDBRANCH  11  12
ENDBRANCH  10  11
ENDBRANCH   9  10
ENDBRANCH   1   9
TORSDOF 10
ENDMDL
MODEL 9
REMARK VINA RESULT:    -5.090      2.913      5.321
REMARK INTER + INTRA:          -9.471
REMARK INTER:                  -8.413
REMARK INTRA:                  -1.058
REMARK UNBOUND:                -1.406
REMARK SMILES CCCCCCCCCCCC(=O)[O-]
REMARK SMILES IDX 7 1 8 2 9 3 10 4 11 5 12 6 13 7 14 8 6 9 5 10 4 11 3 12 2 13
REMARK SMILES IDX 1 14
REMARK H PARENT
REMARK Flexibility Score: inf
ROOT
ATOM      1  C   UNL     1     -16.554 -11.148   0.119  1.00  0.00     0.000 C 
ENDROOT
BRANCH   1   2
ATOM      2  C   UNL     1     -15.634 -10.434  -0.881  1.00  0.00     0.000 C 
BRANCH   2   3
ATOM      3  C   UNL     1     -15.463  -8.954  -0.512  1.00  0.00     0.000 C 
BRANCH   3   4
ATOM      4  C   UNL     1     -15.662  -8.007  -1.709  1.00  0.00     0.006 C 
BRANCH   4   5
ATOM      5  C   UNL     1     -16.753  -8.466  -2.694  1.00  0.00     0.053 C 
BRANCH   5   6
ATOM      6  C   UNL     1     -16.240  -8.627  -4.092  1.00  0.00     0.041 C 
ATOM      7  O   UNL     1     -16.772  -7.993  -5.042  1.00  0.00    -0.550 OA
ATOM      8  O   UNL     1     -15.153  -9.455  -4.345  1.00  0.00    -0.550 OA
ENDBRANCH   5   6
ENDBRANCH   4   5
ENDBRANCH   3   4
ENDBRANCH   2   3
ENDBRANCH   1   2
BRANCH   1   9
ATOM      9  C   UNL     1     -17.950 -10.509   0.134  1.00  0.00     0.000 C 
BRANCH   9  10
ATOM     10  C   UNL     1     -19.037 -11.445  -0.419  1.00  0.00    -0.000 C 
BRANCH  10  11
ATOM     11  C   UNL     1     -18.516 -12.869  -0.683  1.00  0.00    -0.000 C 
BRANCH  11  12
ATOM     12  C   UNL     1     -18.677 -13.282  -2.161  1.00  0.00    -0.000 C 
BRANCH  12  13
ATOM     13  C   UNL     1     -17.429 -13.965  -2.748  1.00  0.00    -0.003 C 
ATOM     14  C   UNL     1     -16.569 -14.652  -1.689  1.00  0.00     0.004 C 
ENDBRANCH  12  13
ENDBRANCH  11  12
ENDBRANCH  10  11
ENDBRANCH   9  10
ENDBRANCH   1   9
TORSDOF 10
ENDMDL
