MODEL 1
REMARK VINA RESULT:    -6.210      0.000      0.000
REMARK INTER + INTRA:          -8.103
REMARK INTER:                  -7.663
REMARK INTRA:                  -0.441
REMARK UNBOUND:                -0.441
REMARK SMILES C=CC(=C)CCC=C(C)C
REMARK SMILES IDX 5 1 6 2 7 3 9 4 8 5 10 6 3 7 4 8 2 9 1 10
REMARK H PARENT
REMARK Flexibility Score: inf
ROOT
ATOM      1  C   UNL     1       1.124 -17.994  16.117  1.00  0.00     0.039 C 
ENDROOT
BRANCH   1   2
ATOM      2  C   UNL     1       2.514 -18.521  16.509  1.00  0.00     0.032 C 
BRANCH   2   3
ATOM      3  C   UNL     1       3.414 -17.438  17.058  1.00  0.00    -0.028 C 
ATOM      4  C   UNL     1       5.073 -17.763  15.219  1.00  0.00     0.039 C 
ATOM      5  C   UNL     1       4.580 -17.086  16.476  1.00  0.00    -0.080 C 
ATOM      6  C   UNL     1       5.400 -15.990  17.105  1.00  0.00     0.039 C 
ENDBRANCH   2   3
ENDBRANCH   1   2
BRANCH   1   7
ATOM      7  C   UNL     1       0.794 -18.266  14.661  1.00  0.00    -0.055 C 
ATOM      8  C   UNL     1       1.765 -18.722  13.861  1.00  0.00     0.012 C 
BRANCH   7   9
ATOM      9  C   UNL     1      -0.561 -18.065  14.076  1.00  0.00    -0.005 C 
ATOM     10  C   UNL     1      -1.544 -17.368  14.646  1.00  0.00     0.009 C 
ENDBRANCH   7   9
ENDBRANCH   1   7
TORSDOF 4
ENDMDL
MODEL 2
REMARK VINA RESULT:    -6.038      1.013      5.337
REMARK INTER + INTRA:          -7.890
REMARK INTER:                  -7.698
REMARK INTRA:                  -0.192
REMARK UNBOUND:                -0.441
REMARK SMILES C=CC(=C)CCC=C(C)C
REMARK SMILES IDX 5 1 6 2 7 3 9 4 8 5 10 6 3 7 4 8 2 9 1 10
REMARK H PARENT
REMARK Flexibility Score: inf
ROOT
ATOM      1  C   UNL     1       3.145 -18.401  15.065  1.00  0.00     0.039 C 
ENDROOT
BRANCH   1   2
ATOM      2  C   UNL     1       1.672 -18.380  15.506  1.00  0.00     0.032 C 
BRANCH   2   3
ATOM      3  C   UNL     1       0.714 -18.384  14.338  1.00  0.00    -0.028 C 
ATOM      4  C   UNL     1      -1.110 -17.376  15.716  1.00  0.00     0.039 C 
ATOM      5  C   UNL     1      -0.553 -17.927  14.425  1.00  0.00    -0.080 C 
ATOM      6  C   UNL     1      -1.425 -17.975  13.196  1.00  0.00     0.039 C 
ENDBRANCH   2   3
ENDBRANCH   1   2
BRANCH   1   7
ATOM      7  C   UNL     1       4.091 -18.051  16.199  1.00  0.00    -0.055 C 
ATOM      8  C   UNL     1       3.949 -18.686  17.367  1.00  0.00     0.012 C 
BRANCH   7   9
ATOM      9  C   UNL     1       5.181 -17.044  16.075  1.00  0.00    -0.005 C 
ATOM     10  C   UNL     1       5.599 -16.242  17.055  1.00  0.00     0.009 C 
ENDBRANCH   7   9
ENDBRANCH   1   7
TORSDOF 4
ENDMDL
MODEL 3
REMARK VINA RESULT:    -5.958      8.438      9.629
REMARK INTER + INTRA:          -7.792
REMARK INTER:                  -6.925
REMARK INTRA:                  -0.867
REMARK UNBOUND:                -0.441
REMARK SMILES C=CC(=C)CCC=C(C)C
REMARK SMILES IDX 5 1 6 2 7 3 9 4 8 5 10 6 3 7 4 8 2 9 1 10
REMARK H PARENT
REMARK Flexibility Score: inf
ROOT
ATOM      1  C   UNL     1      -4.963 -16.072   7.184  1.00  0.00     0.039 C 
ENDROOT
BRANCH   1   2
ATOM      2  C   UNL     1      -3.760 -15.162   6.887  1.00  0.00     0.032 C 
BRANCH   2   3
ATOM      3  C   UNL     1      -3.420 -14.248   8.042  1.00  0.00    -0.028 C 
ATOM      4  C   UNL     1      -1.223 -15.378   8.406  1.00  0.00     0.039 C 
ATOM      5  C   UNL     1      -2.268 -14.339   8.737  1.00  0.00    -0.080 C 
ATOM      6  C   UNL     1      -2.029 -13.375   9.871  1.00  0.00     0.039 C 
ENDBRANCH   2   3
ENDBRANCH   1   2
BRANCH   1   7
ATOM      7  C   UNL     1      -4.711 -16.992   8.365  1.00  0.00    -0.055 C 
ATOM      8  C   UNL     1      -3.862 -18.013   8.209  1.00  0.00     0.012 C 
BRANCH   7   9
ATOM      9  C   UNL     1      -5.353 -16.808   9.697  1.00  0.00    -0.005 C 
ATOM     10  C   UNL     1      -4.709 -16.482  10.818  1.00  0.00     0.009 C 
ENDBRANCH   7   9
ENDBRANCH   1   7
TORSDOF 4
ENDMDL
MODEL 4
REMARK VINA RESULT:    -5.930      7.505      8.671
REMARK INTER + INTRA:          -7.758
REMARK INTER:                  -6.842
REMARK INTRA:                  -0.915
REMARK UNBOUND:                -0.441
REMARK SMILES C=CC(=C)CCC=C(C)C
REMARK SMILES IDX 5 1 6 2 7 3 9 4 8 5 10 6 3 7 4 8 2 9 1 10
REMARK H PARENT
REMARK Flexibility Score: inf
ROOT
ATOM      1  C   UNL     1      -4.138 -17.403  10.272  1.00  0.00     0.039 C 
ENDROOT
BRANCH   1   2
ATOM      2  C   UNL     1      -2.784 -16.852  10.748  1.00  0.00     0.032 C 
BRANCH   2   3
ATOM      3  C   UNL     1      -2.733 -15.342  10.738  1.00  0.00    -0.028 C 
ATOM      4  C   UNL     1      -1.197 -15.317   8.768  1.00  0.00     0.039 C 
ATOM      5  C   UNL     1      -2.015 -14.636   9.840  1.00  0.00    -0.080 C 
ATOM      6  C   UNL     1      -2.037 -13.131   9.919  1.00  0.00     0.039 C 
ENDBRANCH   2   3
ENDBRANCH   1   2
BRANCH   1   7
ATOM      7  C   UNL     1      -4.224 -17.490   8.758  1.00  0.00    -0.055 C 
ATOM      8  C   UNL     1      -3.433 -18.361   8.123  1.00  0.00     0.012 C 
BRANCH   7   9
ATOM      9  C   UNL     1      -5.156 -16.663   7.943  1.00  0.00    -0.005 C 
ATOM     10  C   UNL     1      -4.878 -15.455   7.451  1.00  0.00     0.009 C 
ENDBRANCH   7   9
ENDBRANCH   1   7
TORSDOF 4
ENDMDL
MODEL 5
REMARK VINA RESULT:    -5.838      7.493      9.314
REMARK INTER + INTRA:          -7.644
REMARK INTER:                  -6.845
REMARK INTRA:                  -0.799
REMARK UNBOUND:                -0.441
REMARK SMILES C=CC(=C)CCC=C(C)C
REMARK SMILES IDX 5 1 6 2 7 3 9 4 8 5 10 6 3 7 4 8 2 9 1 10
REMARK H PARENT
REMARK Flexibility Score: inf
ROOT
ATOM      1  C   UNL     1      -3.840 -17.834   7.998  1.00  0.00     0.039 C 
ENDROOT
BRANCH   1   2
ATOM      2  C   UNL     1      -2.721 -17.617   9.030  1.00  0.00     0.032 C 
BRANCH   2   3
ATOM      3  C   UNL     1      -1.986 -16.312   8.827  1.00  0.00    -0.028 C 
ATOM      4  C   UNL     1      -2.648 -15.485  11.089  1.00  0.00     0.039 C 
ATOM      5  C   UNL     1      -1.947 -15.338   9.760  1.00  0.00    -0.080 C 
ATOM      6  C   UNL     1      -1.181 -14.075   9.454  1.00  0.00     0.039 C 
ENDBRANCH   2   3
ENDBRANCH   1   2
BRANCH   1   7
ATOM      7  C   UNL     1      -4.860 -16.710   8.009  1.00  0.00    -0.055 C 
ATOM      8  C   UNL     1      -5.626 -16.554   9.095  1.00  0.00     0.012 C 
BRANCH   7   9
ATOM      9  C   UNL     1      -5.043 -15.760   6.877  1.00  0.00    -0.005 C 
ATOM     10  C   UNL     1      -4.782 -14.453   6.924  1.00  0.00     0.009 C 
ENDBRANCH   7   9
ENDBRANCH   1   7
TORSDOF 4
ENDMDL
MODEL 6
REMARK VINA RESULT:    -5.783      7.200      9.769
REMARK INTER + INTRA:          -7.575
REMARK INTER:                  -6.870
REMARK INTRA:                  -0.706
REMARK UNBOUND:                -0.441
REMARK SMILES C=CC(=C)CCC=C(C)C
REMARK SMILES IDX 5 1 6 2 7 3 9 4 8 5 10 6 3 7 4 8 2 9 1 10
REMARK H PARENT
REMARK Flexibility Score: inf
ROOT
ATOM      1  C   UNL     1      -0.818 -15.002   9.105  1.00  0.00     0.039 C 
ENDROOT
BRANCH   1   2
ATOM      2  C   UNL     1      -1.614 -15.855   8.103  1.00  0.00     0.032 C 
BRANCH   2   3
ATOM      3  C   UNL     1      -2.670 -15.059   7.371  1.00  0.00    -0.028 C 
ATOM      4  C   UNL     1      -4.418 -16.782   7.836  1.00  0.00     0.039 C 
ATOM      5  C   UNL     1      -3.948 -15.474   7.246  1.00  0.00    -0.080 C 
ATOM      6  C   UNL     1      -4.922 -14.600   6.497  1.00  0.00     0.039 C 
ENDBRANCH   2   3
ENDBRANCH   1   2
BRANCH   1   7
ATOM      7  C   UNL     1      -1.690 -14.469  10.228  1.00  0.00    -0.055 C 
ATOM      8  C   UNL     1      -1.940 -13.155  10.272  1.00  0.00     0.012 C 
BRANCH   7   9
ATOM      9  C   UNL     1      -2.294 -15.335  11.277  1.00  0.00    -0.005 C 
ATOM     10  C   UNL     1      -3.545 -15.797  11.262  1.00  0.00     0.009 C 
ENDBRANCH   7   9
ENDBRANCH   1   7
TORSDOF 4
ENDMDL
MODEL 7
REMARK VINA RESULT:    -5.778      8.058     10.628
REMARK INTER + INTRA:          -7.569
REMARK INTER:                  -6.800
REMARK INTRA:                  -0.769
REMARK UNBOUND:                -0.441
REMARK SMILES C=CC(=C)CCC=C(C)C
REMARK SMILES IDX 5 1 6 2 7 3 9 4 8 5 10 6 3 7 4 8 2 9 1 10
REMARK H PARENT
REMARK Flexibility Score: inf
ROOT
ATOM      1  C   UNL     1      -3.366 -16.737   9.386  1.00  0.00     0.039 C 
ENDROOT
BRANCH   1   2
ATOM      2  C   UNL     1      -4.765 -16.209   9.028  1.00  0.00     0.032 C 
BRANCH   2   3
ATOM      3  C   UNL     1      -5.041 -16.251   7.543  1.00  0.00    -0.028 C 
ATOM      4  C   UNL     1      -4.795 -13.773   7.338  1.00  0.00     0.039 C 
ATOM      5  C   UNL     1      -5.055 -15.147   6.767  1.00  0.00    -0.080 C 
ATOM      6  C   UNL     1      -5.340 -15.302   5.295  1.00  0.00     0.039 C 
ENDBRANCH   2   3
ENDBRANCH   1   2
BRANCH   1   7
ATOM      7  C   UNL     1      -2.307 -15.651   9.321  1.00  0.00    -0.055 C 
ATOM      8  C   UNL     1      -1.414 -15.689   8.325  1.00  0.00     0.012 C 
BRANCH   7   9
ATOM      9  C   UNL     1      -2.218 -14.535  10.303  1.00  0.00    -0.005 C 
ATOM     10  C   UNL     1      -2.043 -13.251   9.988  1.00  0.00     0.009 C 
ENDBRANCH   7   9
ENDBRANCH   1   7
TORSDOF 4
ENDMDL
MODEL 8
REMARK VINA RESULT:    -5.742      8.368     10.286
REMARK INTER + INTRA:          -7.525
REMARK INTER:                  -6.593
REMARK INTRA:                  -0.932
REMARK UNBOUND:                -0.441
REMARK SMILES C=CC(=C)CCC=C(C)C
REMARK SMILES IDX 5 1 6 2 7 3 9 4 8 5 10 6 3 7 4 8 2 9 1 10
REMARK H PARENT
REMARK Flexibility Score: inf
ROOT
ATOM      1  C   UNL     1      -2.020 -16.419   8.959  1.00  0.00     0.039 C 
ENDROOT
BRANCH   1   2
ATOM      2  C   UNL     1      -2.095 -15.609   7.654  1.00  0.00     0.032 C 
BRANCH   2   3
ATOM      3  C   UNL     1      -3.128 -14.507   7.711  1.00  0.00    -0.028 C 
ATOM      4  C   UNL     1      -4.608 -15.689   6.083  1.00  0.00     0.039 C 
ATOM      5  C   UNL     1      -4.274 -14.537   7.000  1.00  0.00    -0.080 C 
ATOM      6  C   UNL     1      -5.237 -13.385   7.133  1.00  0.00     0.039 C 
ENDBRANCH   2   3
ENDBRANCH   1   2
BRANCH   1   7
ATOM      7  C   UNL     1      -3.204 -17.355   9.124  1.00  0.00    -0.055 C 
ATOM      8  C   UNL     1      -3.298 -18.414   8.313  1.00  0.00     0.012 C 
BRANCH   7   9
ATOM      9  C   UNL     1      -4.262 -17.162  10.155  1.00  0.00    -0.005 C 
ATOM     10  C   UNL     1      -5.451 -16.600   9.936  1.00  0.00     0.009 C 
ENDBRANCH   7   9
ENDBRANCH   1   7
TORSDOF 4
ENDMDL
MODEL 9
REMARK VINA RESULT:    -5.662      7.251      9.312
REMARK INTER + INTRA:          -7.427
REMARK INTER:                  -6.712
REMARK INTRA:                  -0.715
REMARK UNBOUND:                -0.441
REMARK SMILES C=CC(=C)CCC=C(C)C
REMARK SMILES IDX 5 1 6 2 7 3 9 4 8 5 10 6 3 7 4 8 2 9 1 10
REMARK H PARENT
REMARK Flexibility Score: inf
ROOT
ATOM      1  C   UNL     1      -2.373 -15.225  11.328  1.00  0.00     0.039 C 
ENDROOT
BRANCH   1   2
ATOM      2  C   UNL     1      -3.083 -16.493  10.827  1.00  0.00     0.032 C 
BRANCH   2   3
ATOM      3  C   UNL     1      -4.128 -16.199   9.776  1.00  0.00    -0.028 C 
ATOM      4  C   UNL     1      -3.494 -18.219   8.451  1.00  0.00     0.039 C 
ATOM      5  C   UNL     1      -4.323 -16.980   8.692  1.00  0.00    -0.080 C 
ATOM      6  C   UNL     1      -5.396 -16.594   7.706  1.00  0.00     0.039 C 
ENDBRANCH   2   3
ENDBRANCH   1   2
BRANCH   1   7
ATOM      7  C   UNL     1      -1.712 -14.452  10.201  1.00  0.00    -0.055 C 
ATOM      8  C   UNL     1      -2.035 -13.165  10.035  1.00  0.00     0.012 C 
BRANCH   7   9
ATOM      9  C   UNL     1      -0.709 -15.050   9.276  1.00  0.00    -0.005 C 
ATOM     10  C   UNL     1      -0.962 -15.459   8.032  1.00  0.00     0.009 C 
ENDBRANCH   7   9
ENDBRANCH   1   7
TORSDOF 4
ENDMDL
