MODEL 1
REMARK VINA RESULT:    -7.148      0.000      0.000
REMARK INTER + INTRA:         -10.894
REMARK INTER:                  -9.446
REMARK INTRA:                  -1.448
REMARK UNBOUND:                -1.448
REMARK SMILES CC[C@H](C=C[C@H](C)[C@H]1CC[C@@H]2C3=CC[C@@H]4C[C@H](O)CC[C@@]4(C)[C@@H]3CC[C@]21C)C(C)C
REMARK SMILES IDX 6 1 7 2 5 3 4 4 3 5 2 6 1 7 28 8 29 9 30 10 8 11 9 12 26 13
REMARK SMILES IDX 10 14 11 15 25 16 27 17 12 18 24 19 23 20 13 21 21 22 14 23
REMARK SMILES IDX 15 24 20 25 22 26 16 27 19 28 17 29 18 30
REMARK H PARENT 18 31
REMARK Flexibility Score: inf
ROOT
ATOM      1  C   UNL     1     148.994 140.014 137.632  1.00  0.00     0.012 C 
ATOM      2  C   UNL     1     147.803 140.926 137.260  1.00  0.00     0.012 C 
ENDROOT
BRANCH   1   3
ATOM      3  C   UNL     1     149.562 140.473 138.961  1.00  0.00    -0.028 C 
ATOM      4  C   UNL     1     148.840 141.225 139.809  1.00  0.00    -0.027 C 
BRANCH   4   5
ATOM      5  C   UNL     1     149.390 141.688 141.145  1.00  0.00     0.014 C 
BRANCH   5   6
ATOM      6  C   UNL     1     149.105 143.207 141.250  1.00  0.00     0.004 C 
ATOM      7  C   UNL     1     150.125 144.081 140.522  1.00  0.00     0.004 C 
ENDBRANCH   5   6
BRANCH   5   8
ATOM      8  C   UNL     1     148.800 140.879 142.358  1.00  0.00    -0.011 C 
ATOM      9  C   UNL     1     147.263 140.743 142.344  1.00  0.00     0.008 C 
ATOM     10  C   UNL     1     149.407 139.467 142.428  1.00  0.00     0.008 C 
ENDBRANCH   5   8
ENDBRANCH   4   5
ENDBRANCH   1   3
BRANCH   1  11
ATOM     11  C   UNL     1     148.690 138.473 137.686  1.00  0.00     0.002 C 
ATOM     12  C   UNL     1     149.864 137.625 138.248  1.00  0.00     0.005 C 
ATOM     13  C   UNL     1     147.450 137.999 138.504  1.00  0.00    -0.023 C 
ATOM     14  C   UNL     1     149.373 136.979 139.557  1.00  0.00     0.009 C 
ATOM     15  C   UNL     1     148.058 137.690 139.872  1.00  0.00     0.021 C 
ATOM     16  C   UNL     1     146.289 139.007 138.700  1.00  0.00     0.008 C 
ATOM     17  C   UNL     1     146.893 136.708 137.812  1.00  0.00     0.012 C 
ATOM     18  C   UNL     1     147.041 137.057 140.799  1.00  0.00    -0.067 C 
ATOM     19  C   UNL     1     145.188 138.421 139.614  1.00  0.00     0.009 C 
ATOM     20  C   UNL     1     145.723 137.835 140.964  1.00  0.00     0.021 C 
ATOM     21  C   UNL     1     147.409 136.097 141.679  1.00  0.00    -0.027 C 
ATOM     22  C   UNL     1     144.640 137.030 141.774  1.00  0.00    -0.023 C 
ATOM     23  C   UNL     1     146.485 135.536 142.727  1.00  0.00     0.031 C 
ATOM     24  C   UNL     1     145.344 136.508 143.070  1.00  0.00     0.002 C 
ATOM     25  C   UNL     1     143.477 137.982 142.188  1.00  0.00     0.010 C 
ATOM     26  C   UNL     1     144.072 135.857 140.917  1.00  0.00     0.012 C 
ATOM     27  C   UNL     1     144.371 135.877 144.088  1.00  0.00     0.036 C 
ATOM     28  C   UNL     1     142.503 137.336 143.184  1.00  0.00     0.032 C 
ATOM     29  C   UNL     1     143.237 136.851 144.445  1.00  0.00     0.114 C 
BRANCH  29  30
ATOM     30  O   UNL     1     142.338 136.255 145.346  1.00  0.00    -0.393 OA
ATOM     31  H   UNL     1     141.673 135.745 144.813  1.00  0.00     0.210 HD
ENDBRANCH  29  30
ENDBRANCH   1  11
TORSDOF 6
ENDMDL
MODEL 2
REMARK VINA RESULT:    -6.846      1.159      1.391
REMARK INTER + INTRA:         -10.495
REMARK INTER:                  -9.216
REMARK INTRA:                  -1.280
REMARK UNBOUND:                -1.448
REMARK SMILES CC[C@H](C=C[C@H](C)[C@H]1CC[C@@H]2C3=CC[C@@H]4C[C@H](O)CC[C@@]4(C)[C@@H]3CC[C@]21C)C(C)C
REMARK SMILES IDX 6 1 7 2 5 3 4 4 3 5 2 6 1 7 28 8 29 9 30 10 8 11 9 12 26 13
REMARK SMILES IDX 10 14 11 15 25 16 27 17 12 18 24 19 23 20 13 21 21 22 14 23
REMARK SMILES IDX 15 24 20 25 22 26 16 27 19 28 17 29 18 30
REMARK H PARENT 18 31
REMARK Flexibility Score: inf
ROOT
ATOM      1  C   UNL     1     148.785 139.968 137.354  1.00  0.00     0.012 C 
ATOM      2  C   UNL     1     147.662 140.949 136.949  1.00  0.00     0.012 C 
ENDROOT
BRANCH   1   3
ATOM      3  C   UNL     1     149.342 140.394 138.698  1.00  0.00    -0.028 C 
ATOM      4  C   UNL     1     148.582 141.038 139.599  1.00  0.00    -0.027 C 
BRANCH   4   5
ATOM      5  C   UNL     1     149.121 141.468 140.951  1.00  0.00     0.014 C 
BRANCH   5   6
ATOM      6  C   UNL     1     148.721 142.950 141.149  1.00  0.00     0.004 C 
ATOM      7  C   UNL     1     149.908 143.891 141.354  1.00  0.00     0.004 C 
ENDBRANCH   5   6
BRANCH   5   8
ATOM      8  C   UNL     1     148.621 140.547 142.125  1.00  0.00    -0.011 C 
ATOM      9  C   UNL     1     147.107 140.253 142.101  1.00  0.00     0.008 C 
ATOM     10  C   UNL     1     149.372 139.204 142.131  1.00  0.00     0.008 C 
ENDBRANCH   5   8
ENDBRANCH   4   5
ENDBRANCH   1   3
BRANCH   1  11
ATOM     11  C   UNL     1     148.387 138.448 137.400  1.00  0.00     0.002 C 
ATOM     12  C   UNL     1     149.348 137.578 138.255  1.00  0.00     0.005 C 
ATOM     13  C   UNL     1     146.967 138.078 137.926  1.00  0.00    -0.023 C 
ATOM     14  C   UNL     1     148.533 137.027 139.439  1.00  0.00     0.009 C 
ATOM     15  C   UNL     1     147.224 137.815 139.409  1.00  0.00     0.021 C 
ATOM     16  C   UNL     1     145.853 139.148 137.803  1.00  0.00     0.008 C 
ATOM     17  C   UNL     1     146.511 136.779 137.177  1.00  0.00     0.012 C 
ATOM     18  C   UNL     1     145.986 137.282 140.100  1.00  0.00    -0.067 C 
ATOM     19  C   UNL     1     144.538 138.665 138.458  1.00  0.00     0.009 C 
ATOM     20  C   UNL     1     144.713 138.129 139.920  1.00  0.00     0.021 C 
ATOM     21  C   UNL     1     146.084 136.354 141.080  1.00  0.00    -0.027 C 
ATOM     22  C   UNL     1     143.427 137.421 140.488  1.00  0.00    -0.023 C 
ATOM     23  C   UNL     1     144.912 135.895 141.907  1.00  0.00     0.031 C 
ATOM     24  C   UNL     1     143.782 136.937 141.933  1.00  0.00     0.002 C 
ATOM     25  C   UNL     1     142.258 138.447 140.579  1.00  0.00     0.010 C 
ATOM     26  C   UNL     1     143.005 136.231 139.572  1.00  0.00     0.012 C 
ATOM     27  C   UNL     1     142.565 136.408 142.722  1.00  0.00     0.036 C 
ATOM     28  C   UNL     1     141.044 137.902 141.347  1.00  0.00     0.032 C 
ATOM     29  C   UNL     1     141.438 137.453 142.764  1.00  0.00     0.114 C 
BRANCH  29  30
ATOM     30  O   UNL     1     140.323 136.949 143.454  1.00  0.00    -0.393 OA
ATOM     31  H   UNL     1     139.996 137.665 144.060  1.00  0.00     0.210 HD
ENDBRANCH  29  30
ENDBRANCH   1  11
TORSDOF 6
ENDMDL
MODEL 3
REMARK VINA RESULT:    -6.675      3.117      5.820
REMARK INTER + INTRA:         -10.270
REMARK INTER:                  -8.846
REMARK INTRA:                  -1.423
REMARK UNBOUND:                -1.448
REMARK SMILES CC[C@H](C=C[C@H](C)[C@H]1CC[C@@H]2C3=CC[C@@H]4C[C@H](O)CC[C@@]4(C)[C@@H]3CC[C@]21C)C(C)C
REMARK SMILES IDX 6 1 7 2 5 3 4 4 3 5 2 6 1 7 28 8 29 9 30 10 8 11 9 12 26 13
REMARK SMILES IDX 10 14 11 15 25 16 27 17 12 18 24 19 23 20 13 21 21 22 14 23
REMARK SMILES IDX 15 24 20 25 22 26 16 27 19 28 17 29 18 30
REMARK H PARENT 18 31
REMARK Flexibility Score: inf
ROOT
ATOM      1  C   UNL     1     148.241 141.893 140.844  1.00  0.00     0.012 C 
ATOM      2  C   UNL     1     149.595 142.377 140.280  1.00  0.00     0.012 C 
ENDROOT
BRANCH   1   3
ATOM      3  C   UNL     1     147.272 141.708 139.691  1.00  0.00    -0.028 C 
ATOM      4  C   UNL     1     147.695 141.695 138.416  1.00  0.00    -0.027 C 
BRANCH   4   5
ATOM      5  C   UNL     1     146.742 141.506 137.251  1.00  0.00     0.014 C 
BRANCH   5   6
ATOM      6  C   UNL     1     147.490 140.669 136.184  1.00  0.00     0.004 C 
ATOM      7  C   UNL     1     148.845 140.139 136.650  1.00  0.00     0.004 C 
ENDBRANCH   5   6
BRANCH   5   8
ATOM      8  C   UNL     1     145.377 140.852 137.683  1.00  0.00    -0.011 C 
ATOM      9  C   UNL     1     144.160 141.323 136.861  1.00  0.00     0.008 C 
ATOM     10  C   UNL     1     145.450 139.317 137.600  1.00  0.00     0.008 C 
ENDBRANCH   5   8
ENDBRANCH   4   5
ENDBRANCH   1   3
BRANCH   1  11
ATOM     11  C   UNL     1     148.285 140.587 141.716  1.00  0.00     0.002 C 
ATOM     12  C   UNL     1     146.912 140.200 142.332  1.00  0.00     0.005 C 
ATOM     13  C   UNL     1     148.785 139.272 141.044  1.00  0.00    -0.023 C 
ATOM     14  C   UNL     1     146.504 138.848 141.721  1.00  0.00     0.009 C 
ATOM     15  C   UNL     1     147.483 138.630 140.568  1.00  0.00     0.021 C 
ATOM     16  C   UNL     1     149.739 139.404 139.829  1.00  0.00     0.008 C 
ATOM     17  C   UNL     1     149.486 138.413 142.151  1.00  0.00     0.012 C 
ATOM     18  C   UNL     1     147.721 137.243 140.009  1.00  0.00    -0.067 C 
ATOM     19  C   UNL     1     150.060 138.020 139.217  1.00  0.00     0.009 C 
ATOM     20  C   UNL     1     148.795 137.149 138.910  1.00  0.00     0.021 C 
ATOM     21  C   UNL     1     146.816 136.254 140.198  1.00  0.00    -0.027 C 
ATOM     22  C   UNL     1     149.134 135.663 138.518  1.00  0.00    -0.023 C 
ATOM     23  C   UNL     1     146.919 134.902 139.546  1.00  0.00     0.031 C 
ATOM     24  C   UNL     1     147.769 134.942 138.266  1.00  0.00     0.002 C 
ATOM     25  C   UNL     1     149.960 135.644 137.196  1.00  0.00     0.010 C 
ATOM     26  C   UNL     1     149.950 134.968 139.651  1.00  0.00     0.012 C 
ATOM     27  C   UNL     1     147.921 133.529 137.661  1.00  0.00     0.036 C 
ATOM     28  C   UNL     1     150.124 134.230 136.616  1.00  0.00     0.032 C 
ATOM     29  C   UNL     1     148.757 133.568 136.372  1.00  0.00     0.114 C 
BRANCH  29  30
ATOM     30  O   UNL     1     148.919 132.274 135.849  1.00  0.00    -0.393 OA
ATOM     31  H   UNL     1     148.017 131.930 135.614  1.00  0.00     0.210 HD
ENDBRANCH  29  30
ENDBRANCH   1  11
TORSDOF 6
ENDMDL
MODEL 4
REMARK VINA RESULT:    -6.593      4.089      6.882
REMARK INTER + INTRA:         -10.161
REMARK INTER:                  -8.919
REMARK INTRA:                  -1.241
REMARK UNBOUND:                -1.448
REMARK SMILES CC[C@H](C=C[C@H](C)[C@H]1CC[C@@H]2C3=CC[C@@H]4C[C@H](O)CC[C@@]4(C)[C@@H]3CC[C@]21C)C(C)C
REMARK SMILES IDX 6 1 7 2 5 3 4 4 3 5 2 6 1 7 28 8 29 9 30 10 8 11 9 12 26 13
REMARK SMILES IDX 10 14 11 15 25 16 27 17 12 18 24 19 23 20 13 21 21 22 14 23
REMARK SMILES IDX 15 24 20 25 22 26 16 27 19 28 17 29 18 30
REMARK H PARENT 18 31
REMARK Flexibility Score: inf
ROOT
ATOM      1  C   UNL     1     144.025 138.206 143.553  1.00  0.00     0.012 C 
ATOM      2  C   UNL     1     144.439 137.380 144.791  1.00  0.00     0.012 C 
ENDROOT
BRANCH   1   3
ATOM      3  C   UNL     1     145.234 138.971 143.052  1.00  0.00    -0.028 C 
ATOM      4  C   UNL     1     145.813 138.675 141.876  1.00  0.00    -0.027 C 
BRANCH   4   5
ATOM      5  C   UNL     1     147.020 139.432 141.356  1.00  0.00     0.014 C 
BRANCH   5   6
ATOM      6  C   UNL     1     147.251 140.628 142.313  1.00  0.00     0.004 C 
ATOM      7  C   UNL     1     147.684 141.912 141.607  1.00  0.00     0.004 C 
ENDBRANCH   5   6
BRANCH   5   8
ATOM      8  C   UNL     1     148.294 138.521 141.212  1.00  0.00    -0.011 C 
ATOM      9  C   UNL     1     149.407 138.819 142.238  1.00  0.00     0.008 C 
ATOM     10  C   UNL     1     147.923 137.031 141.323  1.00  0.00     0.008 C 
ENDBRANCH   5   8
ENDBRANCH   4   5
ENDBRANCH   1   3
BRANCH   1  11
ATOM     11  C   UNL     1     143.379 137.397 142.371  1.00  0.00     0.002 C 
ATOM     12  C   UNL     1     143.639 135.867 142.446  1.00  0.00     0.005 C 
ATOM     13  C   UNL     1     141.838 137.512 142.160  1.00  0.00    -0.023 C 
ATOM     14  C   UNL     1     142.274 135.182 142.633  1.00  0.00     0.009 C 
ATOM     15  C   UNL     1     141.307 136.321 142.955  1.00  0.00     0.021 C 
ATOM     16  C   UNL     1     141.136 138.796 142.671  1.00  0.00     0.008 C 
ATOM     17  C   UNL     1     141.560 137.356 140.626  1.00  0.00     0.012 C 
ATOM     18  C   UNL     1     139.815 136.146 142.762  1.00  0.00    -0.067 C 
ATOM     19  C   UNL     1     139.604 138.710 142.478  1.00  0.00     0.009 C 
ATOM     20  C   UNL     1     138.962 137.397 143.040  1.00  0.00     0.021 C 
ATOM     21  C   UNL     1     139.263 134.912 142.710  1.00  0.00    -0.027 C 
ATOM     22  C   UNL     1     137.455 137.208 142.628  1.00  0.00    -0.023 C 
ATOM     23  C   UNL     1     137.777 134.670 142.671  1.00  0.00     0.031 C 
ATOM     24  C   UNL     1     136.985 135.852 143.253  1.00  0.00     0.002 C 
ATOM     25  C   UNL     1     136.596 138.359 143.233  1.00  0.00     0.010 C 
ATOM     26  C   UNL     1     137.305 137.207 141.076  1.00  0.00     0.012 C 
ATOM     27  C   UNL     1     135.466 135.610 143.129  1.00  0.00     0.036 C 
ATOM     28  C   UNL     1     135.085 138.118 143.084  1.00  0.00     0.032 C 
ATOM     29  C   UNL     1     134.670 136.783 143.724  1.00  0.00     0.114 C 
BRANCH  29  30
ATOM     30  O   UNL     1     133.289 136.569 143.575  1.00  0.00    -0.393 OA
ATOM     31  H   UNL     1     133.077 136.637 142.607  1.00  0.00     0.210 HD
ENDBRANCH  29  30
ENDBRANCH   1  11
TORSDOF 6
ENDMDL
MODEL 5
REMARK VINA RESULT:    -6.548      1.714      3.105
REMARK INTER + INTRA:         -10.102
REMARK INTER:                  -8.985
REMARK INTRA:                  -1.117
REMARK UNBOUND:                -1.448
REMARK SMILES CC[C@H](C=C[C@H](C)[C@H]1CC[C@@H]2C3=CC[C@@H]4C[C@H](O)CC[C@@]4(C)[C@@H]3CC[C@]21C)C(C)C
REMARK SMILES IDX 6 1 7 2 5 3 4 4 3 5 2 6 1 7 28 8 29 9 30 10 8 11 9 12 26 13
REMARK SMILES IDX 10 14 11 15 25 16 27 17 12 18 24 19 23 20 13 21 21 22 14 23
REMARK SMILES IDX 15 24 20 25 22 26 16 27 19 28 17 29 18 30
REMARK H PARENT 18 31
REMARK Flexibility Score: inf
ROOT
ATOM      1  C   UNL     1     149.701 138.088 138.741  1.00  0.00     0.012 C 
ATOM      2  C   UNL     1     149.668 137.170 137.500  1.00  0.00     0.012 C 
ENDROOT
BRANCH   1   3
ATOM      3  C   UNL     1     148.793 139.277 138.492  1.00  0.00    -0.028 C 
ATOM      4  C   UNL     1     149.091 140.498 138.967  1.00  0.00    -0.027 C 
BRANCH   4   5
ATOM      5  C   UNL     1     148.197 141.699 138.723  1.00  0.00     0.014 C 
BRANCH   5   6
ATOM      6  C   UNL     1     146.794 141.154 138.359  1.00  0.00     0.004 C 
ATOM      7  C   UNL     1     146.350 141.486 136.935  1.00  0.00     0.004 C 
ENDBRANCH   5   6
BRANCH   5   8
ATOM      8  C   UNL     1     148.160 142.687 139.947  1.00  0.00    -0.011 C 
ATOM      9  C   UNL     1     147.464 142.120 141.201  1.00  0.00     0.008 C 
ATOM     10  C   UNL     1     149.580 143.129 140.343  1.00  0.00     0.008 C 
ENDBRANCH   5   8
ENDBRANCH   4   5
ENDBRANCH   1   3
BRANCH   1  11
ATOM     11  C   UNL     1     149.328 137.410 140.109  1.00  0.00     0.002 C 
ATOM     12  C   UNL     1     149.774 138.227 141.353  1.00  0.00     0.005 C 
ATOM     13  C   UNL     1     147.827 137.089 140.383  1.00  0.00    -0.023 C 
ATOM     14  C   UNL     1     148.498 138.649 142.103  1.00  0.00     0.009 C 
ATOM     15  C   UNL     1     147.357 138.331 141.138  1.00  0.00     0.021 C 
ATOM     16  C   UNL     1     146.902 136.880 139.157  1.00  0.00     0.008 C 
ATOM     17  C   UNL     1     147.775 135.808 141.284  1.00  0.00     0.012 C 
ATOM     18  C   UNL     1     145.939 138.167 141.645  1.00  0.00    -0.067 C 
ATOM     19  C   UNL     1     145.433 136.672 139.594  1.00  0.00     0.009 C 
ATOM     20  C   UNL     1     144.901 137.763 140.584  1.00  0.00     0.021 C 
ATOM     21  C   UNL     1     145.565 138.689 142.837  1.00  0.00    -0.027 C 
ATOM     22  C   UNL     1     143.498 137.415 141.209  1.00  0.00    -0.023 C 
ATOM     23  C   UNL     1     144.143 138.693 143.329  1.00  0.00     0.031 C 
ATOM     24  C   UNL     1     143.133 138.590 142.175  1.00  0.00     0.002 C 
ATOM     25  C   UNL     1     142.423 137.343 140.082  1.00  0.00     0.010 C 
ATOM     26  C   UNL     1     143.555 136.050 141.961  1.00  0.00     0.012 C 
ATOM     27  C   UNL     1     141.687 138.518 142.713  1.00  0.00     0.036 C 
ATOM     28  C   UNL     1     140.991 137.249 140.629  1.00  0.00     0.032 C 
ATOM     29  C   UNL     1     140.674 138.431 141.561  1.00  0.00     0.114 C 
BRANCH  29  30
ATOM     30  O   UNL     1     139.364 138.331 142.062  1.00  0.00    -0.393 OA
ATOM     31  H   UNL     1     138.885 139.166 141.817  1.00  0.00     0.210 HD
ENDBRANCH  29  30
ENDBRANCH   1  11
TORSDOF 6
ENDMDL
MODEL 6
REMARK VINA RESULT:    -6.528      1.872      4.149
REMARK INTER + INTRA:         -10.075
REMARK INTER:                  -8.899
REMARK INTRA:                  -1.176
REMARK UNBOUND:                -1.448
REMARK SMILES CC[C@H](C=C[C@H](C)[C@H]1CC[C@@H]2C3=CC[C@@H]4C[C@H](O)CC[C@@]4(C)[C@@H]3CC[C@]21C)C(C)C
REMARK SMILES IDX 6 1 7 2 5 3 4 4 3 5 2 6 1 7 28 8 29 9 30 10 8 11 9 12 26 13
REMARK SMILES IDX 10 14 11 15 25 16 27 17 12 18 24 19 23 20 13 21 21 22 14 23
REMARK SMILES IDX 15 24 20 25 22 26 16 27 19 28 17 29 18 30
REMARK H PARENT 18 31
REMARK Flexibility Score: inf
ROOT
ATOM      1  C   UNL     1     148.533 140.900 138.537  1.00  0.00     0.012 C 
ATOM      2  C   UNL     1     148.987 139.933 137.420  1.00  0.00     0.012 C 
ENDROOT
BRANCH   1   3
ATOM      3  C   UNL     1     147.045 141.150 138.389  1.00  0.00    -0.028 C 
ATOM      4  C   UNL     1     146.275 140.363 137.617  1.00  0.00    -0.027 C 
BRANCH   4   5
ATOM      5  C   UNL     1     144.784 140.595 137.462  1.00  0.00     0.014 C 
BRANCH   5   6
ATOM      6  C   UNL     1     144.594 141.517 136.233  1.00  0.00     0.004 C 
ATOM      7  C   UNL     1     143.357 141.191 135.398  1.00  0.00     0.004 C 
ENDBRANCH   5   6
BRANCH   5   8
ATOM      8  C   UNL     1     143.971 139.253 137.340  1.00  0.00    -0.011 C 
ATOM      9  C   UNL     1     144.811 138.039 136.896  1.00  0.00     0.008 C 
ATOM     10  C   UNL     1     143.282 138.902 138.670  1.00  0.00     0.008 C 
ENDBRANCH   5   8
ENDBRANCH   4   5
ENDBRANCH   1   3
BRANCH   1  11
ATOM     11  C   UNL     1     148.854 140.451 140.008  1.00  0.00     0.002 C 
ATOM     12  C   UNL     1     148.652 141.575 141.061  1.00  0.00     0.005 C 
ATOM     13  C   UNL     1     148.070 139.236 140.592  1.00  0.00    -0.023 C 
ATOM     14  C   UNL     1     147.517 141.124 141.997  1.00  0.00     0.009 C 
ATOM     15  C   UNL     1     146.898 139.912 141.302  1.00  0.00     0.021 C 
ATOM     16  C   UNL     1     147.503 138.198 139.590  1.00  0.00     0.008 C 
ATOM     17  C   UNL     1     149.017 138.504 141.603  1.00  0.00     0.012 C 
ATOM     18  C   UNL     1     146.072 138.911 142.084  1.00  0.00    -0.067 C 
ATOM     19  C   UNL     1     146.670 137.116 140.316  1.00  0.00     0.009 C 
ATOM     20  C   UNL     1     145.580 137.692 141.282  1.00  0.00     0.021 C 
ATOM     21  C   UNL     1     145.515 139.248 143.270  1.00  0.00    -0.027 C 
ATOM     22  C   UNL     1     144.906 136.599 142.192  1.00  0.00    -0.023 C 
ATOM     23  C   UNL     1     144.564 138.355 144.022  1.00  0.00     0.031 C 
ATOM     24  C   UNL     1     143.868 137.345 143.095  1.00  0.00     0.002 C 
ATOM     25  C   UNL     1     144.144 135.570 141.303  1.00  0.00     0.010 C 
ATOM     26  C   UNL     1     145.979 135.855 143.046  1.00  0.00     0.012 C 
ATOM     27  C   UNL     1     142.959 136.394 143.904  1.00  0.00     0.036 C 
ATOM     28  C   UNL     1     143.260 134.615 142.120  1.00  0.00     0.032 C 
ATOM     29  C   UNL     1     142.249 135.392 142.979  1.00  0.00     0.114 C 
BRANCH  29  30
ATOM     30  O   UNL     1     141.452 134.509 143.727  1.00  0.00    -0.393 OA
ATOM     31  H   UNL     1     141.554 133.603 143.332  1.00  0.00     0.210 HD
ENDBRANCH  29  30
ENDBRANCH   1  11
TORSDOF 6
ENDMDL
MODEL 7
REMARK VINA RESULT:    -6.420      1.214      2.217
REMARK INTER + INTRA:          -9.933
REMARK INTER:                  -8.802
REMARK INTRA:                  -1.131
REMARK UNBOUND:                -1.448
REMARK SMILES CC[C@H](C=C[C@H](C)[C@H]1CC[C@@H]2C3=CC[C@@H]4C[C@H](O)CC[C@@]4(C)[C@@H]3CC[C@]21C)C(C)C
REMARK SMILES IDX 6 1 7 2 5 3 4 4 3 5 2 6 1 7 28 8 29 9 30 10 8 11 9 12 26 13
REMARK SMILES IDX 10 14 11 15 25 16 27 17 12 18 24 19 23 20 13 21 21 22 14 23
REMARK SMILES IDX 15 24 20 25 22 26 16 27 19 28 17 29 18 30
REMARK H PARENT 18 31
REMARK Flexibility Score: inf
ROOT
ATOM      1  C   UNL     1     149.338 139.706 137.773  1.00  0.00     0.012 C 
ATOM      2  C   UNL     1     148.294 140.285 136.792  1.00  0.00     0.012 C 
ENDROOT
BRANCH   1   3
ATOM      3  C   UNL     1     149.481 140.656 138.947  1.00  0.00    -0.028 C 
ATOM      4  C   UNL     1     148.435 141.363 139.407  1.00  0.00    -0.027 C 
BRANCH   4   5
ATOM      5  C   UNL     1     148.558 142.313 140.583  1.00  0.00     0.014 C 
BRANCH   5   6
ATOM      6  C   UNL     1     148.759 141.445 141.849  1.00  0.00     0.004 C 
ATOM      7  C   UNL     1     147.455 140.969 142.488  1.00  0.00     0.004 C 
ENDBRANCH   5   6
BRANCH   5   8
ATOM      8  C   UNL     1     149.705 143.373 140.391  1.00  0.00    -0.011 C 
ATOM      9  C   UNL     1     149.383 144.480 139.366  1.00  0.00     0.008 C 
ATOM     10  C   UNL     1     150.066 144.045 141.728  1.00  0.00     0.008 C 
ENDBRANCH   5   8
ENDBRANCH   4   5
ENDBRANCH   1   3
BRANCH   1  11
ATOM     11  C   UNL     1     149.058 138.251 138.296  1.00  0.00     0.002 C 
ATOM     12  C   UNL     1     149.916 137.856 139.529  1.00  0.00     0.005 C 
ATOM     13  C   UNL     1     147.600 137.890 138.715  1.00  0.00    -0.023 C 
ATOM     14  C   UNL     1     148.948 137.629 140.705  1.00  0.00     0.009 C 
ATOM     15  C   UNL     1     147.608 138.177 140.216  1.00  0.00     0.021 C 
ATOM     16  C   UNL     1     146.445 138.697 138.068  1.00  0.00     0.008 C 
ATOM     17  C   UNL     1     147.387 136.367 138.417  1.00  0.00     0.012 C 
ATOM     18  C   UNL     1     146.312 137.744 140.870  1.00  0.00    -0.067 C 
ATOM     19  C   UNL     1     145.077 138.289 138.661  1.00  0.00     0.009 C 
ATOM     20  C   UNL     1     145.030 138.302 140.227  1.00  0.00     0.021 C 
ATOM     21  C   UNL     1     146.307 137.222 142.118  1.00  0.00    -0.027 C 
ATOM     22  C   UNL     1     143.723 137.659 140.822  1.00  0.00    -0.023 C 
ATOM     23  C   UNL     1     145.046 136.912 142.880  1.00  0.00     0.031 C 
ATOM     24  C   UNL     1     143.851 137.740 142.379  1.00  0.00     0.002 C 
ATOM     25  C   UNL     1     142.479 138.489 140.381  1.00  0.00     0.010 C 
ATOM     26  C   UNL     1     143.564 136.186 140.335  1.00  0.00     0.012 C 
ATOM     27  C   UNL     1     142.558 137.347 143.126  1.00  0.00     0.036 C 
ATOM     28  C   UNL     1     141.194 138.075 141.114  1.00  0.00     0.032 C 
ATOM     29  C   UNL     1     141.364 138.184 142.638  1.00  0.00     0.114 C 
BRANCH  29  30
ATOM     30  O   UNL     1     140.186 137.795 143.299  1.00  0.00    -0.393 OA
ATOM     31  H   UNL     1     140.227 136.811 143.432  1.00  0.00     0.210 HD
ENDBRANCH  29  30
ENDBRANCH   1  11
TORSDOF 6
ENDMDL
MODEL 8
REMARK VINA RESULT:    -6.288      2.797      4.859
REMARK INTER + INTRA:          -9.758
REMARK INTER:                  -8.073
REMARK INTRA:                  -1.686
REMARK UNBOUND:                -1.448
REMARK SMILES CC[C@H](C=C[C@H](C)[C@H]1CC[C@@H]2C3=CC[C@@H]4C[C@H](O)CC[C@@]4(C)[C@@H]3CC[C@]21C)C(C)C
REMARK SMILES IDX 6 1 7 2 5 3 4 4 3 5 2 6 1 7 28 8 29 9 30 10 8 11 9 12 26 13
REMARK SMILES IDX 10 14 11 15 25 16 27 17 12 18 24 19 23 20 13 21 21 22 14 23
REMARK SMILES IDX 15 24 20 25 22 26 16 27 19 28 17 29 18 30
REMARK H PARENT 18 31
REMARK Flexibility Score: inf
ROOT
ATOM      1  C   UNL     1     149.210 140.767 140.031  1.00  0.00     0.012 C 
ATOM      2  C   UNL     1     149.076 142.279 140.318  1.00  0.00     0.012 C 
ENDROOT
BRANCH   1   3
ATOM      3  C   UNL     1     148.122 140.030 140.787  1.00  0.00    -0.028 C 
ATOM      4  C   UNL     1     148.351 138.834 141.356  1.00  0.00    -0.027 C 
BRANCH   4   5
ATOM      5  C   UNL     1     147.276 138.085 142.121  1.00  0.00     0.014 C 
BRANCH   5   6
ATOM      6  C   UNL     1     145.986 138.938 142.043  1.00  0.00     0.004 C 
ATOM      7  C   UNL     1     145.153 138.921 143.324  1.00  0.00     0.004 C 
ENDBRANCH   5   6
BRANCH   5   8
ATOM      8  C   UNL     1     147.063 136.619 141.591  1.00  0.00    -0.011 C 
ATOM      9  C   UNL     1     145.770 136.421 140.774  1.00  0.00     0.008 C 
ATOM     10  C   UNL     1     148.253 136.166 140.726  1.00  0.00     0.008 C 
ENDBRANCH   5   8
ENDBRANCH   4   5
ENDBRANCH   1   3
BRANCH   1  11
ATOM     11  C   UNL     1     149.183 140.349 138.516  1.00  0.00     0.002 C 
ATOM     12  C   UNL     1     150.124 139.160 138.180  1.00  0.00     0.005 C 
ATOM     13  C   UNL     1     147.814 139.938 137.894  1.00  0.00    -0.023 C 
ATOM     14  C   UNL     1     149.236 137.992 137.717  1.00  0.00     0.009 C 
ATOM     15  C   UNL     1     147.813 138.421 138.071  1.00  0.00     0.021 C 
ATOM     16  C   UNL     1     146.528 140.509 138.545  1.00  0.00     0.008 C 
ATOM     17  C   UNL     1     147.842 140.346 136.381  1.00  0.00     0.012 C 
ATOM     18  C   UNL     1     146.621 137.784 137.388  1.00  0.00    -0.067 C 
ATOM     19  C   UNL     1     145.259 139.930 137.878  1.00  0.00     0.009 C 
ATOM     20  C   UNL     1     145.249 138.367 137.773  1.00  0.00     0.021 C 
ATOM     21  C   UNL     1     146.731 136.578 136.784  1.00  0.00    -0.027 C 
ATOM     22  C   UNL     1     144.079 137.803 136.885  1.00  0.00    -0.023 C 
ATOM     23  C   UNL     1     145.556 135.823 136.220  1.00  0.00     0.031 C 
ATOM     24  C   UNL     1     144.231 136.246 136.875  1.00  0.00     0.002 C 
ATOM     25  C   UNL     1     142.707 138.166 137.530  1.00  0.00     0.010 C 
ATOM     26  C   UNL     1     144.148 138.395 135.443  1.00  0.00     0.012 C 
ATOM     27  C   UNL     1     143.038 135.514 136.225  1.00  0.00     0.036 C 
ATOM     28  C   UNL     1     141.524 137.448 136.860  1.00  0.00     0.032 C 
ATOM     29  C   UNL     1     141.713 135.922 136.887  1.00  0.00     0.114 C 
BRANCH  29  30
ATOM     30  O   UNL     1     140.630 135.277 136.266  1.00  0.00    -0.393 OA
ATOM     31  H   UNL     1     140.571 135.619 135.335  1.00  0.00     0.210 HD
ENDBRANCH  29  30
ENDBRANCH   1  11
TORSDOF 6
ENDMDL
MODEL 9
REMARK VINA RESULT:    -6.234      2.859      6.381
REMARK INTER + INTRA:          -9.686
REMARK INTER:                  -7.934
REMARK INTRA:                  -1.752
REMARK UNBOUND:                -1.448
REMARK SMILES CC[C@H](C=C[C@H](C)[C@H]1CC[C@@H]2C3=CC[C@@H]4C[C@H](O)CC[C@@]4(C)[C@@H]3CC[C@]21C)C(C)C
REMARK SMILES IDX 6 1 7 2 5 3 4 4 3 5 2 6 1 7 28 8 29 9 30 10 8 11 9 12 26 13
REMARK SMILES IDX 10 14 11 15 25 16 27 17 12 18 24 19 23 20 13 21 21 22 14 23
REMARK SMILES IDX 15 24 20 25 22 26 16 27 19 28 17 29 18 30
REMARK H PARENT 18 31
REMARK Flexibility Score: inf
ROOT
ATOM      1  C   UNL     1     145.503 134.062 138.514  1.00  0.00     0.012 C 
ATOM      2  C   UNL     1     144.945 133.068 139.556  1.00  0.00     0.012 C 
ENDROOT
BRANCH   1   3
ATOM      3  C   UNL     1     144.824 135.403 138.707  1.00  0.00    -0.028 C 
ATOM      4  C   UNL     1     144.432 136.148 137.660  1.00  0.00    -0.027 C 
BRANCH   4   5
ATOM      5  C   UNL     1     143.746 137.490 137.834  1.00  0.00     0.014 C 
BRANCH   5   6
ATOM      6  C   UNL     1     143.711 137.787 139.354  1.00  0.00     0.004 C 
ATOM      7  C   UNL     1     142.365 138.313 139.852  1.00  0.00     0.004 C 
ENDBRANCH   5   6
BRANCH   5   8
ATOM      8  C   UNL     1     144.438 138.638 137.012  1.00  0.00    -0.011 C 
ATOM      9  C   UNL     1     145.311 139.588 137.858  1.00  0.00     0.008 C 
ATOM     10  C   UNL     1     145.310 138.060 135.883  1.00  0.00     0.008 C 
ENDBRANCH   5   8
ENDBRANCH   4   5
ENDBRANCH   1   3
BRANCH   1  11
ATOM     11  C   UNL     1     147.063 134.251 138.510  1.00  0.00     0.002 C 
ATOM     12  C   UNL     1     147.667 134.426 137.089  1.00  0.00     0.005 C 
ATOM     13  C   UNL     1     147.660 135.437 139.326  1.00  0.00    -0.023 C 
ATOM     14  C   UNL     1     148.275 135.839 137.023  1.00  0.00     0.009 C 
ATOM     15  C   UNL     1     147.758 136.543 138.277  1.00  0.00     0.021 C 
ATOM     16  C   UNL     1     146.836 135.971 140.526  1.00  0.00     0.008 C 
ATOM     17  C   UNL     1     149.074 134.995 139.837  1.00  0.00     0.012 C 
ATOM     18  C   UNL     1     148.467 137.765 138.824  1.00  0.00    -0.067 C 
ATOM     19  C   UNL     1     147.513 137.206 141.165  1.00  0.00     0.009 C 
ATOM     20  C   UNL     1     147.896 138.326 140.139  1.00  0.00     0.021 C 
ATOM     21  C   UNL     1     149.282 138.503 138.036  1.00  0.00    -0.027 C 
ATOM     22  C   UNL     1     148.794 139.462 140.754  1.00  0.00    -0.023 C 
ATOM     23  C   UNL     1     149.896 139.808 138.472  1.00  0.00     0.031 C 
ATOM     24  C   UNL     1     149.092 140.475 139.600  1.00  0.00     0.002 C 
ATOM     25  C   UNL     1     148.007 140.205 141.877  1.00  0.00     0.010 C 
ATOM     26  C   UNL     1     150.107 138.865 141.347  1.00  0.00     0.012 C 
ATOM     27  C   UNL     1     149.785 141.769 140.078  1.00  0.00     0.036 C 
ATOM     28  C   UNL     1     148.717 141.478 142.361  1.00  0.00     0.032 C 
ATOM     29  C   UNL     1     148.976 142.447 141.195  1.00  0.00     0.114 C 
BRANCH  29  30
ATOM     30  O   UNL     1     149.632 143.604 141.647  1.00  0.00    -0.393 OA
ATOM     31  H   UNL     1     149.678 143.557 142.638  1.00  0.00     0.210 HD
ENDBRANCH  29  30
ENDBRANCH   1  11
TORSDOF 6
ENDMDL
