MODEL 1
REMARK VINA RESULT:    -4.310      0.000      0.000
REMARK INTER + INTRA:         -15.420
REMARK INTER:                 -11.365
REMARK INTRA:                  -4.055
REMARK UNBOUND:                -4.055
REMARK SMILES CCCCCCCCCCCCCCCCCCCCCCCCCCCCCC(=O)[O-]
REMARK SMILES IDX 16 1 17 2 18 3 19 4 20 5 21 6 22 7 23 8 24 9 25 10 26 11
REMARK SMILES IDX 27 12 28 13 29 14 30 15 31 16 32 17 15 18 14 19 13 20 12 21
REMARK SMILES IDX 11 22 10 23 9 24 8 25 7 26 6 27 5 28 4 29 3 30 2 31 1 32
REMARK H PARENT
REMARK Flexibility Score: inf
ROOT
ATOM      1  C   UNL     1     -33.358 -45.798  -6.448  1.00  0.00     0.000 C 
ENDROOT
BRANCH   1   2
ATOM      2  C   UNL     1     -33.860 -45.582  -7.891  1.00  0.00     0.000 C 
BRANCH   2   3
ATOM      3  C   UNL     1     -34.242 -44.128  -8.231  1.00  0.00     0.000 C 
BRANCH   3   4
ATOM      4  C   UNL     1     -34.633 -43.952  -9.709  1.00  0.00     0.000 C 
BRANCH   4   5
ATOM      5  C   UNL     1     -34.408 -45.221 -10.551  1.00  0.00     0.000 C 
BRANCH   5   6
ATOM      6  C   UNL     1     -35.679 -45.840 -11.160  1.00  0.00     0.000 C 
BRANCH   6   7
ATOM      7  C   UNL     1     -35.444 -46.456 -12.553  1.00  0.00     0.000 C 
BRANCH   7   8
ATOM      8  C   UNL     1     -35.778 -45.485 -13.706  1.00  0.00     0.000 C 
BRANCH   8   9
ATOM      9  C   UNL     1     -37.041 -45.858 -14.504  1.00  0.00     0.000 C 
BRANCH   9  10
ATOM     10  C   UNL     1     -37.327 -44.898 -15.667  1.00  0.00     0.000 C 
BRANCH  10  11
ATOM     11  C   UNL     1     -37.255 -45.625 -17.019  1.00  0.00     0.000 C 
BRANCH  11  12
ATOM     12  C   UNL     1     -35.811 -45.910 -17.470  1.00  0.00     0.000 C 
BRANCH  12  13
ATOM     13  C   UNL     1     -35.428 -47.401 -17.551  1.00  0.00     0.006 C 
BRANCH  13  14
ATOM     14  C   UNL     1     -34.432 -47.855 -16.467  1.00  0.00     0.053 C 
BRANCH  14  15
ATOM     15  C   UNL     1     -34.961 -48.994 -15.646  1.00  0.00     0.041 C 
ATOM     16  O   UNL     1     -35.859 -49.745 -16.108  1.00  0.00    -0.550 OA
ATOM     17  O   UNL     1     -34.495 -49.198 -14.353  1.00  0.00    -0.550 OA
ENDBRANCH  14  15
ENDBRANCH  13  14
ENDBRANCH  12  13
ENDBRANCH  11  12
ENDBRANCH  10  11
ENDBRANCH   9  10
ENDBRANCH   8   9
ENDBRANCH   7   8
ENDBRANCH   6   7
ENDBRANCH   5   6
ENDBRANCH   4   5
ENDBRANCH   3   4
ENDBRANCH   2   3
ENDBRANCH   1   2
BRANCH   1  18
ATOM     18  C   UNL     1     -34.315 -45.300  -5.346  1.00  0.00     0.000 C 
BRANCH  18  19
ATOM     19  C   UNL     1     -34.954 -46.406  -4.478  1.00  0.00     0.000 C 
BRANCH  19  20
ATOM     20  C   UNL     1     -34.460 -47.836  -4.777  1.00  0.00     0.000 C 
BRANCH  20  21
ATOM     21  C   UNL     1     -35.595 -48.873  -4.757  1.00  0.00     0.000 C 
BRANCH  21  22
ATOM     22  C   UNL     1     -35.473 -49.908  -5.897  1.00  0.00     0.000 C 
BRANCH  22  23
ATOM     23  C   UNL     1     -34.223 -49.721  -6.780  1.00  0.00     0.000 C 
BRANCH  23  24
ATOM     24  C   UNL     1     -34.413 -50.085  -8.264  1.00  0.00    -0.000 C 
BRANCH  24  25
ATOM     25  C   UNL     1     -34.520 -48.882  -9.228  1.00  0.00    -0.000 C 
BRANCH  25  26
ATOM     26  C   UNL     1     -33.390 -48.781 -10.270  1.00  0.00    -0.000 C 
BRANCH  26  27
ATOM     27  C   UNL     1     -32.070 -48.266  -9.670  1.00  0.00    -0.000 C 
BRANCH  27  28
ATOM     28  C   UNL     1     -31.073 -49.400  -9.374  1.00  0.00    -0.000 C 
BRANCH  28  29
ATOM     29  C   UNL     1     -30.138 -49.070  -8.201  1.00  0.00    -0.000 C 
BRANCH  29  30
ATOM     30  C   UNL     1     -30.854 -48.208  -7.150  1.00  0.00    -0.000 C 
BRANCH  30  31
ATOM     31  C   UNL     1     -30.170 -48.265  -5.774  1.00  0.00    -0.003 C 
ATOM     32  C   UNL     1     -28.686 -47.894  -5.832  1.00  0.00     0.004 C 
ENDBRANCH  30  31
ENDBRANCH  29  30
ENDBRANCH  28  29
ENDBRANCH  27  28
ENDBRANCH  26  27
ENDBRANCH  25  26
ENDBRANCH  24  25
ENDBRANCH  23  24
ENDBRANCH  22  23
ENDBRANCH  21  22
ENDBRANCH  20  21
ENDBRANCH  19  20
ENDBRANCH  18  19
ENDBRANCH   1  18
TORSDOF 28
ENDMDL
MODEL 2
REMARK VINA RESULT:    -3.954      3.231      9.691
REMARK INTER + INTRA:         -14.482
REMARK INTER:                 -10.127
REMARK INTRA:                  -4.354
REMARK UNBOUND:                -4.055
REMARK SMILES CCCCCCCCCCCCCCCCCCCCCCCCCCCCCC(=O)[O-]
REMARK SMILES IDX 16 1 17 2 18 3 19 4 20 5 21 6 22 7 23 8 24 9 25 10 26 11
REMARK SMILES IDX 27 12 28 13 29 14 30 15 31 16 32 17 15 18 14 19 13 20 12 21
REMARK SMILES IDX 11 22 10 23 9 24 8 25 7 26 6 27 5 28 4 29 3 30 2 31 1 32
REMARK H PARENT
REMARK Flexibility Score: inf
ROOT
ATOM      1  C   UNL     1     -37.283 -46.374 -12.214  1.00  0.00     0.000 C 
ENDROOT
BRANCH   1   2
ATOM      2  C   UNL     1     -35.758 -46.179 -12.081  1.00  0.00     0.000 C 
BRANCH   2   3
ATOM      3  C   UNL     1     -35.077 -47.098 -11.049  1.00  0.00     0.000 C 
BRANCH   3   4
ATOM      4  C   UNL     1     -34.276 -46.310  -9.997  1.00  0.00     0.000 C 
BRANCH   4   5
ATOM      5  C   UNL     1     -34.463 -44.786 -10.109  1.00  0.00     0.000 C 
BRANCH   5   6
ATOM      6  C   UNL     1     -34.719 -44.056  -8.778  1.00  0.00     0.000 C 
BRANCH   6   7
ATOM      7  C   UNL     1     -33.564 -44.213  -7.771  1.00  0.00     0.000 C 
BRANCH   7   8
ATOM      8  C   UNL     1     -33.859 -45.256  -6.673  1.00  0.00     0.000 C 
BRANCH   8   9
ATOM      9  C   UNL     1     -32.805 -46.373  -6.558  1.00  0.00     0.000 C 
BRANCH   9  10
ATOM     10  C   UNL     1     -33.419 -47.778  -6.474  1.00  0.00     0.000 C 
BRANCH  10  11
ATOM     11  C   UNL     1     -32.870 -48.691  -7.581  1.00  0.00     0.000 C 
BRANCH  11  12
ATOM     12  C   UNL     1     -31.665 -48.082  -8.319  1.00  0.00     0.000 C 
BRANCH  12  13
ATOM     13  C   UNL     1     -30.371 -48.919  -8.272  1.00  0.00     0.006 C 
BRANCH  13  14
ATOM     14  C   UNL     1     -30.022 -49.460  -6.873  1.00  0.00     0.053 C 
BRANCH  14  15
ATOM     15  C   UNL     1     -29.644 -48.369  -5.915  1.00  0.00     0.041 C 
ATOM     16  O   UNL     1     -30.278 -48.223  -4.838  1.00  0.00    -0.550 OA
ATOM     17  O   UNL     1     -28.621 -47.484  -6.233  1.00  0.00    -0.550 OA
ENDBRANCH  14  15
ENDBRANCH  13  14
ENDBRANCH  12  13
ENDBRANCH  11  12
ENDBRANCH  10  11
ENDBRANCH   9  10
ENDBRANCH   8   9
ENDBRANCH   7   8
ENDBRANCH   6   7
ENDBRANCH   5   6
ENDBRANCH   4   5
ENDBRANCH   3   4
ENDBRANCH   2   3
ENDBRANCH   1   2
BRANCH   1  18
ATOM     18  C   UNL     1     -37.856 -46.085 -13.617  1.00  0.00     0.000 C 
BRANCH  18  19
ATOM     19  C   UNL     1     -39.004 -47.016 -14.065  1.00  0.00     0.000 C 
BRANCH  19  20
ATOM     20  C   UNL     1     -38.664 -48.519 -14.061  1.00  0.00     0.000 C 
BRANCH  20  21
ATOM     21  C   UNL     1     -37.560 -48.882 -15.068  1.00  0.00     0.000 C 
BRANCH  21  22
ATOM     22  C   UNL     1     -36.342 -49.557 -14.398  1.00  0.00     0.000 C 
BRANCH  22  23
ATOM     23  C   UNL     1     -35.037 -48.744 -14.512  1.00  0.00     0.000 C 
BRANCH  23  24
ATOM     24  C   UNL     1     -35.084 -47.570 -15.507  1.00  0.00    -0.000 C 
BRANCH  24  25
ATOM     25  C   UNL     1     -34.481 -47.862 -16.899  1.00  0.00    -0.000 C 
BRANCH  25  26
ATOM     26  C   UNL     1     -35.504 -47.949 -18.047  1.00  0.00    -0.000 C 
BRANCH  26  27
ATOM     27  C   UNL     1     -36.428 -46.720 -18.116  1.00  0.00    -0.000 C 
BRANCH  27  28
ATOM     28  C   UNL     1     -37.915 -47.103 -18.197  1.00  0.00    -0.000 C 
BRANCH  28  29
ATOM     29  C   UNL     1     -38.837 -45.999 -17.658  1.00  0.00    -0.000 C 
BRANCH  29  30
ATOM     30  C   UNL     1     -38.025 -44.877 -16.993  1.00  0.00    -0.000 C 
BRANCH  30  31
ATOM     31  C   UNL     1     -38.761 -43.527 -17.007  1.00  0.00    -0.003 C 
ATOM     32  C   UNL     1     -38.833 -42.904 -18.403  1.00  0.00     0.004 C 
ENDBRANCH  30  31
ENDBRANCH  29  30
ENDBRANCH  28  29
ENDBRANCH  27  28
ENDBRANCH  26  27
ENDBRANCH  25  26
ENDBRANCH  24  25
ENDBRANCH  23  24
ENDBRANCH  22  23
ENDBRANCH  21  22
ENDBRANCH  20  21
ENDBRANCH  19  20
ENDBRANCH  18  19
ENDBRANCH   1  18
TORSDOF 28
ENDMDL
MODEL 3
REMARK VINA RESULT:    -3.941      3.077      9.470
REMARK INTER + INTRA:         -14.446
REMARK INTER:                 -10.328
REMARK INTRA:                  -4.118
REMARK UNBOUND:                -4.055
REMARK SMILES CCCCCCCCCCCCCCCCCCCCCCCCCCCCCC(=O)[O-]
REMARK SMILES IDX 16 1 17 2 18 3 19 4 20 5 21 6 22 7 23 8 24 9 25 10 26 11
REMARK SMILES IDX 27 12 28 13 29 14 30 15 31 16 32 17 15 18 14 19 13 20 12 21
REMARK SMILES IDX 11 22 10 23 9 24 8 25 7 26 6 27 5 28 4 29 3 30 2 31 1 32
REMARK H PARENT
REMARK Flexibility Score: inf
ROOT
ATOM      1  C   UNL     1     -34.350 -44.133 -11.333  1.00  0.00     0.000 C 
ENDROOT
BRANCH   1   2
ATOM      2  C   UNL     1     -34.894 -45.026 -10.198  1.00  0.00     0.000 C 
BRANCH   2   3
ATOM      3  C   UNL     1     -33.876 -46.028  -9.619  1.00  0.00     0.000 C 
BRANCH   3   4
ATOM      4  C   UNL     1     -34.400 -47.475  -9.635  1.00  0.00     0.000 C 
BRANCH   4   5
ATOM      5  C   UNL     1     -34.131 -48.203 -10.965  1.00  0.00     0.000 C 
BRANCH   5   6
ATOM      6  C   UNL     1     -33.189 -49.417 -10.869  1.00  0.00     0.000 C 
BRANCH   6   7
ATOM      7  C   UNL     1     -31.788 -49.056 -10.341  1.00  0.00     0.000 C 
BRANCH   7   8
ATOM      8  C   UNL     1     -31.489 -49.667  -8.957  1.00  0.00     0.000 C 
BRANCH   8   9
ATOM      9  C   UNL     1     -30.105 -49.303  -8.387  1.00  0.00     0.000 C 
BRANCH   9  10
ATOM     10  C   UNL     1     -30.059 -49.320  -6.852  1.00  0.00     0.000 C 
BRANCH  10  11
ATOM     11  C   UNL     1     -29.669 -47.943  -6.293  1.00  0.00     0.000 C 
BRANCH  11  12
ATOM     12  C   UNL     1     -30.886 -47.099  -5.873  1.00  0.00     0.000 C 
BRANCH  12  13
ATOM     13  C   UNL     1     -32.180 -47.894  -5.611  1.00  0.00     0.006 C 
BRANCH  13  14
ATOM     14  C   UNL     1     -33.468 -47.150  -6.012  1.00  0.00     0.053 C 
BRANCH  14  15
ATOM     15  C   UNL     1     -34.498 -47.161  -4.921  1.00  0.00     0.041 C 
ATOM     16  O   UNL     1     -34.795 -46.097  -4.319  1.00  0.00    -0.550 OA
ATOM     17  O   UNL     1     -35.096 -48.356  -4.538  1.00  0.00    -0.550 OA
ENDBRANCH  14  15
ENDBRANCH  13  14
ENDBRANCH  12  13
ENDBRANCH  11  12
ENDBRANCH  10  11
ENDBRANCH   9  10
ENDBRANCH   8   9
ENDBRANCH   7   8
ENDBRANCH   6   7
ENDBRANCH   5   6
ENDBRANCH   4   5
ENDBRANCH   3   4
ENDBRANCH   2   3
ENDBRANCH   1   2
BRANCH   1  18
ATOM     18  C   UNL     1     -34.842 -44.507 -12.746  1.00  0.00     0.000 C 
BRANCH  18  19
ATOM     19  C   UNL     1     -35.910 -45.621 -12.799  1.00  0.00     0.000 C 
BRANCH  19  20
ATOM     20  C   UNL     1     -35.750 -46.624 -13.958  1.00  0.00     0.000 C 
BRANCH  20  21
ATOM     21  C   UNL     1     -36.529 -47.929 -13.727  1.00  0.00     0.000 C 
BRANCH  21  22
ATOM     22  C   UNL     1     -36.006 -49.096 -14.594  1.00  0.00     0.000 C 
BRANCH  22  23
ATOM     23  C   UNL     1     -34.511 -49.408 -14.385  1.00  0.00     0.000 C 
BRANCH  23  24
ATOM     24  C   UNL     1     -33.686 -49.540 -15.678  1.00  0.00    -0.000 C 
BRANCH  24  25
ATOM     25  C   UNL     1     -33.789 -48.344 -16.650  1.00  0.00    -0.000 C 
BRANCH  25  26
ATOM     26  C   UNL     1     -34.413 -48.669 -18.020  1.00  0.00    -0.000 C 
BRANCH  26  27
ATOM     27  C   UNL     1     -35.869 -48.186 -18.143  1.00  0.00    -0.000 C 
BRANCH  27  28
ATOM     28  C   UNL     1     -36.094 -46.816 -17.481  1.00  0.00    -0.000 C 
BRANCH  28  29
ATOM     29  C   UNL     1     -37.582 -46.513 -17.249  1.00  0.00    -0.000 C 
BRANCH  29  30
ATOM     30  C   UNL     1     -37.891 -45.031 -17.510  1.00  0.00    -0.000 C 
BRANCH  30  31
ATOM     31  C   UNL     1     -38.240 -44.264 -16.224  1.00  0.00    -0.003 C 
ATOM     32  C   UNL     1     -38.879 -45.155 -15.156  1.00  0.00     0.004 C 
ENDBRANCH  30  31
ENDBRANCH  29  30
ENDBRANCH  28  29
ENDBRANCH  27  28
ENDBRANCH  26  27
ENDBRANCH  25  26
ENDBRANCH  24  25
ENDBRANCH  23  24
ENDBRANCH  22  23
ENDBRANCH  21  22
ENDBRANCH  20  21
ENDBRANCH  19  20
ENDBRANCH  18  19
ENDBRANCH   1  18
TORSDOF 28
ENDMDL
MODEL 4
REMARK VINA RESULT:    -3.941      2.797      8.255
REMARK INTER + INTRA:         -14.445
REMARK INTER:                 -10.549
REMARK INTRA:                  -3.897
REMARK UNBOUND:                -4.055
REMARK SMILES CCCCCCCCCCCCCCCCCCCCCCCCCCCCCC(=O)[O-]
REMARK SMILES IDX 16 1 17 2 18 3 19 4 20 5 21 6 22 7 23 8 24 9 25 10 26 11
REMARK SMILES IDX 27 12 28 13 29 14 30 15 31 16 32 17 15 18 14 19 13 20 12 21
REMARK SMILES IDX 11 22 10 23 9 24 8 25 7 26 6 27 5 28 4 29 3 30 2 31 1 32
REMARK H PARENT
REMARK Flexibility Score: inf
ROOT
ATOM      1  C   UNL     1     -34.592 -44.162  -9.984  1.00  0.00     0.000 C 
ENDROOT
BRANCH   1   2
ATOM      2  C   UNL     1     -34.253 -44.110  -8.479  1.00  0.00     0.000 C 
BRANCH   2   3
ATOM      3  C   UNL     1     -33.882 -45.469  -7.853  1.00  0.00     0.000 C 
BRANCH   3   4
ATOM      4  C   UNL     1     -33.528 -45.352  -6.360  1.00  0.00     0.000 C 
BRANCH   4   5
ATOM      5  C   UNL     1     -34.197 -46.432  -5.491  1.00  0.00     0.000 C 
BRANCH   5   6
ATOM      6  C   UNL     1     -33.546 -47.825  -5.558  1.00  0.00     0.000 C 
BRANCH   6   7
ATOM      7  C   UNL     1     -34.547 -48.943  -5.908  1.00  0.00     0.000 C 
BRANCH   7   8
ATOM      8  C   UNL     1     -34.021 -49.906  -6.994  1.00  0.00     0.000 C 
BRANCH   8   9
ATOM      9  C   UNL     1     -34.879 -49.950  -8.272  1.00  0.00     0.000 C 
BRANCH   9  10
ATOM     10  C   UNL     1     -34.426 -48.941  -9.338  1.00  0.00     0.000 C 
BRANCH  10  11
ATOM     11  C   UNL     1     -33.192 -49.452 -10.098  1.00  0.00     0.000 C 
BRANCH  11  12
ATOM     12  C   UNL     1     -32.031 -48.442 -10.103  1.00  0.00     0.000 C 
BRANCH  12  13
ATOM     13  C   UNL     1     -31.517 -48.021  -8.712  1.00  0.00     0.006 C 
BRANCH  13  14
ATOM     14  C   UNL     1     -30.527 -49.016  -8.078  1.00  0.00     0.053 C 
BRANCH  14  15
ATOM     15  C   UNL     1     -29.901 -48.480  -6.825  1.00  0.00     0.041 C 
ATOM     16  O   UNL     1     -29.042 -49.159  -6.204  1.00  0.00    -0.550 OA
ATOM     17  O   UNL     1     -30.298 -47.248  -6.318  1.00  0.00    -0.550 OA
ENDBRANCH  14  15
ENDBRANCH  13  14
ENDBRANCH  12  13
ENDBRANCH  11  12
ENDBRANCH  10  11
ENDBRANCH   9  10
ENDBRANCH   8   9
ENDBRANCH   7   8
ENDBRANCH   6   7
ENDBRANCH   5   6
ENDBRANCH   4   5
ENDBRANCH   3   4
ENDBRANCH   2   3
ENDBRANCH   1   2
BRANCH   1  18
ATOM     18  C   UNL     1     -34.896 -45.572 -10.533  1.00  0.00     0.000 C 
BRANCH  18  19
ATOM     19  C   UNL     1     -35.354 -45.619 -12.006  1.00  0.00     0.000 C 
BRANCH  19  20
ATOM     20  C   UNL     1     -35.959 -46.963 -12.459  1.00  0.00     0.000 C 
BRANCH  20  21
ATOM     21  C   UNL     1     -37.493 -46.989 -12.357  1.00  0.00     0.000 C 
BRANCH  21  22
ATOM     22  C   UNL     1     -38.150 -47.811 -13.488  1.00  0.00     0.000 C 
BRANCH  22  23
ATOM     23  C   UNL     1     -38.875 -46.953 -14.544  1.00  0.00     0.000 C 
BRANCH  23  24
ATOM     24  C   UNL     1     -38.510 -45.458 -14.531  1.00  0.00    -0.000 C 
BRANCH  24  25
ATOM     25  C   UNL     1     -37.734 -44.960 -15.771  1.00  0.00    -0.000 C 
BRANCH  25  26
ATOM     26  C   UNL     1     -36.252 -45.376 -15.821  1.00  0.00    -0.000 C 
BRANCH  26  27
ATOM     27  C   UNL     1     -36.031 -46.712 -16.553  1.00  0.00    -0.000 C 
BRANCH  27  28
ATOM     28  C   UNL     1     -34.723 -47.404 -16.137  1.00  0.00    -0.000 C 
BRANCH  28  29
ATOM     29  C   UNL     1     -34.781 -48.929 -16.316  1.00  0.00    -0.000 C 
BRANCH  29  30
ATOM     30  C   UNL     1     -33.639 -49.423 -17.216  1.00  0.00    -0.000 C 
BRANCH  30  31
ATOM     31  C   UNL     1     -32.450 -48.447 -17.252  1.00  0.00    -0.003 C 
ATOM     32  C   UNL     1     -31.101 -49.149 -17.088  1.00  0.00     0.004 C 
ENDBRANCH  30  31
ENDBRANCH  29  30
ENDBRANCH  28  29
ENDBRANCH  27  28
ENDBRANCH  26  27
ENDBRANCH  25  26
ENDBRANCH  24  25
ENDBRANCH  23  24
ENDBRANCH  22  23
ENDBRANCH  21  22
ENDBRANCH  20  21
ENDBRANCH  19  20
ENDBRANCH  18  19
ENDBRANCH   1  18
TORSDOF 28
ENDMDL
MODEL 5
REMARK VINA RESULT:    -3.929      3.039      8.880
REMARK INTER + INTRA:         -14.415
REMARK INTER:                 -10.733
REMARK INTRA:                  -3.681
REMARK UNBOUND:                -4.055
REMARK SMILES CCCCCCCCCCCCCCCCCCCCCCCCCCCCCC(=O)[O-]
REMARK SMILES IDX 16 1 17 2 18 3 19 4 20 5 21 6 22 7 23 8 24 9 25 10 26 11
REMARK SMILES IDX 27 12 28 13 29 14 30 15 31 16 32 17 15 18 14 19 13 20 12 21
REMARK SMILES IDX 11 22 10 23 9 24 8 25 7 26 6 27 5 28 4 29 3 30 2 31 1 32
REMARK H PARENT
REMARK Flexibility Score: inf
ROOT
ATOM      1  C   UNL     1     -34.618 -45.697 -10.659  1.00  0.00     0.000 C 
ENDROOT
BRANCH   1   2
ATOM      2  C   UNL     1     -34.471 -44.207 -10.283  1.00  0.00     0.000 C 
BRANCH   2   3
ATOM      3  C   UNL     1     -34.427 -43.924  -8.769  1.00  0.00     0.000 C 
BRANCH   3   4
ATOM      4  C   UNL     1     -33.846 -45.102  -7.967  1.00  0.00     0.000 C 
BRANCH   4   5
ATOM      5  C   UNL     1     -33.798 -44.839  -6.451  1.00  0.00     0.000 C 
BRANCH   5   6
ATOM      6  C   UNL     1     -34.127 -46.054  -5.563  1.00  0.00     0.000 C 
BRANCH   6   7
ATOM      7  C   UNL     1     -33.240 -47.278  -5.861  1.00  0.00     0.000 C 
BRANCH   7   8
ATOM      8  C   UNL     1     -34.049 -48.582  -6.028  1.00  0.00     0.000 C 
BRANCH   8   9
ATOM      9  C   UNL     1     -33.621 -49.444  -7.230  1.00  0.00     0.000 C 
BRANCH   9  10
ATOM     10  C   UNL     1     -33.817 -48.739  -8.580  1.00  0.00     0.000 C 
BRANCH  10  11
ATOM     11  C   UNL     1     -32.481 -48.581  -9.323  1.00  0.00     0.000 C 
BRANCH  11  12
ATOM     12  C   UNL     1     -31.368 -49.478  -8.753  1.00  0.00     0.000 C 
BRANCH  12  13
ATOM     13  C   UNL     1     -30.172 -48.730  -8.130  1.00  0.00     0.006 C 
BRANCH  13  14
ATOM     14  C   UNL     1     -29.550 -49.439  -6.913  1.00  0.00     0.053 C 
BRANCH  14  15
ATOM     15  C   UNL     1     -29.385 -48.521  -5.738  1.00  0.00     0.041 C 
ATOM     16  O   UNL     1     -30.372 -48.241  -5.009  1.00  0.00    -0.550 OA
ATOM     17  O   UNL     1     -28.152 -47.937  -5.476  1.00  0.00    -0.550 OA
ENDBRANCH  14  15
ENDBRANCH  13  14
ENDBRANCH  12  13
ENDBRANCH  11  12
ENDBRANCH  10  11
ENDBRANCH   9  10
ENDBRANCH   8   9
ENDBRANCH   7   8
ENDBRANCH   6   7
ENDBRANCH   5   6
ENDBRANCH   4   5
ENDBRANCH   3   4
ENDBRANCH   2   3
ENDBRANCH   1   2
BRANCH   1  18
ATOM     18  C   UNL     1     -35.874 -46.037 -11.486  1.00  0.00     0.000 C 
BRANCH  18  19
ATOM     19  C   UNL     1     -35.601 -46.683 -12.863  1.00  0.00     0.000 C 
BRANCH  19  20
ATOM     20  C   UNL     1     -35.842 -48.204 -12.930  1.00  0.00     0.000 C 
BRANCH  20  21
ATOM     21  C   UNL     1     -34.706 -49.016 -12.286  1.00  0.00     0.000 C 
BRANCH  21  22
ATOM     22  C   UNL     1     -34.004 -49.954 -13.291  1.00  0.00     0.000 C 
BRANCH  22  23
ATOM     23  C   UNL     1     -34.507 -49.807 -14.741  1.00  0.00     0.000 C 
BRANCH  23  24
ATOM     24  C   UNL     1     -33.408 -49.568 -15.792  1.00  0.00    -0.000 C 
BRANCH  24  25
ATOM     25  C   UNL     1     -33.753 -48.528 -16.881  1.00  0.00    -0.000 C 
BRANCH  25  26
ATOM     26  C   UNL     1     -34.633 -47.357 -16.406  1.00  0.00    -0.000 C 
BRANCH  26  27
ATOM     27  C   UNL     1     -35.787 -47.045 -17.376  1.00  0.00    -0.000 C 
BRANCH  27  28
ATOM     28  C   UNL     1     -36.148 -45.551 -17.402  1.00  0.00    -0.000 C 
BRANCH  28  29
ATOM     29  C   UNL     1     -37.299 -45.207 -16.445  1.00  0.00    -0.000 C 
BRANCH  29  30
ATOM     30  C   UNL     1     -38.451 -46.213 -16.582  1.00  0.00    -0.000 C 
BRANCH  30  31
ATOM     31  C   UNL     1     -38.779 -46.920 -15.256  1.00  0.00    -0.003 C 
ATOM     32  C   UNL     1     -38.888 -45.951 -14.078  1.00  0.00     0.004 C 
ENDBRANCH  30  31
ENDBRANCH  29  30
ENDBRANCH  28  29
ENDBRANCH  27  28
ENDBRANCH  26  27
ENDBRANCH  25  26
ENDBRANCH  24  25
ENDBRANCH  23  24
ENDBRANCH  22  23
ENDBRANCH  21  22
ENDBRANCH  20  21
ENDBRANCH  19  20
ENDBRANCH  18  19
ENDBRANCH   1  18
TORSDOF 28
ENDMDL
MODEL 6
REMARK VINA RESULT:    -3.915      1.543      2.318
REMARK INTER + INTRA:         -14.378
REMARK INTER:                  -9.758
REMARK INTRA:                  -4.620
REMARK UNBOUND:                -4.055
REMARK SMILES CCCCCCCCCCCCCCCCCCCCCCCCCCCCCC(=O)[O-]
REMARK SMILES IDX 16 1 17 2 18 3 19 4 20 5 21 6 22 7 23 8 24 9 25 10 26 11
REMARK SMILES IDX 27 12 28 13 29 14 30 15 31 16 32 17 15 18 14 19 13 20 12 21
REMARK SMILES IDX 11 22 10 23 9 24 8 25 7 26 6 27 5 28 4 29 3 30 2 31 1 32
REMARK H PARENT
REMARK Flexibility Score: inf
ROOT
ATOM      1  C   UNL     1     -33.456 -45.729  -6.429  1.00  0.00     0.000 C 
ENDROOT
BRANCH   1   2
ATOM      2  C   UNL     1     -33.914 -45.563  -7.893  1.00  0.00     0.000 C 
BRANCH   2   3
ATOM      3  C   UNL     1     -34.234 -44.114  -8.309  1.00  0.00     0.000 C 
BRANCH   3   4
ATOM      4  C   UNL     1     -34.629 -44.002  -9.793  1.00  0.00     0.000 C 
BRANCH   4   5
ATOM      5  C   UNL     1     -34.419 -45.310 -10.577  1.00  0.00     0.000 C 
BRANCH   5   6
ATOM      6  C   UNL     1     -35.697 -45.932 -11.169  1.00  0.00     0.000 C 
BRANCH   6   7
ATOM      7  C   UNL     1     -35.408 -47.050 -12.189  1.00  0.00     0.000 C 
BRANCH   7   8
ATOM      8  C   UNL     1     -36.533 -48.103 -12.265  1.00  0.00     0.000 C 
BRANCH   8   9
ATOM      9  C   UNL     1     -36.219 -49.303 -13.177  1.00  0.00     0.000 C 
BRANCH   9  10
ATOM     10  C   UNL     1     -34.834 -49.216 -13.836  1.00  0.00     0.000 C 
BRANCH  10  11
ATOM     11  C   UNL     1     -34.954 -49.001 -15.352  1.00  0.00     0.000 C 
BRANCH  11  12
ATOM     12  C   UNL     1     -36.413 -48.953 -15.838  1.00  0.00     0.000 C 
BRANCH  12  13
ATOM     13  C   UNL     1     -36.808 -47.680 -16.613  1.00  0.00     0.006 C 
BRANCH  13  14
ATOM     14  C   UNL     1     -37.938 -46.866 -15.954  1.00  0.00     0.053 C 
BRANCH  14  15
ATOM     15  C   UNL     1     -37.416 -45.799 -15.039  1.00  0.00     0.041 C 
ATOM     16  O   UNL     1     -38.171 -45.276 -14.179  1.00  0.00    -0.550 OA
ATOM     17  O   UNL     1     -36.106 -45.351 -15.164  1.00  0.00    -0.550 OA
ENDBRANCH  14  15
ENDBRANCH  13  14
ENDBRANCH  12  13
ENDBRANCH  11  12
ENDBRANCH  10  11
ENDBRANCH   9  10
ENDBRANCH   8   9
ENDBRANCH   7   8
ENDBRANCH   6   7
ENDBRANCH   5   6
ENDBRANCH   4   5
ENDBRANCH   3   4
ENDBRANCH   2   3
ENDBRANCH   1   2
BRANCH   1  18
ATOM     18  C   UNL     1     -34.474 -45.254  -5.372  1.00  0.00     0.000 C 
BRANCH  18  19
ATOM     19  C   UNL     1     -34.950 -46.338  -4.381  1.00  0.00     0.000 C 
BRANCH  19  20
ATOM     20  C   UNL     1     -34.549 -47.780  -4.750  1.00  0.00     0.000 C 
BRANCH  20  21
ATOM     21  C   UNL     1     -35.727 -48.764  -4.670  1.00  0.00     0.000 C 
BRANCH  21  22
ATOM     22  C   UNL     1     -35.663 -49.859  -5.758  1.00  0.00     0.000 C 
BRANCH  22  23
ATOM     23  C   UNL     1     -34.495 -49.685  -6.750  1.00  0.00     0.000 C 
BRANCH  23  24
ATOM     24  C   UNL     1     -34.798 -50.120  -8.196  1.00  0.00    -0.000 C 
BRANCH  24  25
ATOM     25  C   UNL     1     -34.512 -49.055  -9.277  1.00  0.00    -0.000 C 
BRANCH  25  26
ATOM     26  C   UNL     1     -33.319 -49.367 -10.199  1.00  0.00    -0.000 C 
BRANCH  26  27
ATOM     27  C   UNL     1     -32.271 -48.241 -10.221  1.00  0.00    -0.000 C 
BRANCH  27  28
ATOM     28  C   UNL     1     -31.357 -48.261  -8.984  1.00  0.00    -0.000 C 
BRANCH  28  29
ATOM     29  C   UNL     1     -31.076 -49.685  -8.483  1.00  0.00    -0.000 C 
BRANCH  29  30
ATOM     30  C   UNL     1     -30.058 -49.675  -7.332  1.00  0.00    -0.000 C 
BRANCH  30  31
ATOM     31  C   UNL     1     -30.180 -48.423  -6.447  1.00  0.00    -0.003 C 
ATOM     32  C   UNL     1     -28.988 -48.244  -5.505  1.00  0.00     0.004 C 
ENDBRANCH  30  31
ENDBRANCH  29  30
ENDBRANCH  28  29
ENDBRANCH  27  28
ENDBRANCH  26  27
ENDBRANCH  25  26
ENDBRANCH  24  25
ENDBRANCH  23  24
ENDBRANCH  22  23
ENDBRANCH  21  22
ENDBRANCH  20  21
ENDBRANCH  19  20
ENDBRANCH  18  19
ENDBRANCH   1  18
TORSDOF 28
ENDMDL
MODEL 7
REMARK VINA RESULT:    -3.832      1.918      4.948
REMARK INTER + INTRA:         -14.158
REMARK INTER:                 -10.368
REMARK INTRA:                  -3.790
REMARK UNBOUND:                -4.055
REMARK SMILES CCCCCCCCCCCCCCCCCCCCCCCCCCCCCC(=O)[O-]
REMARK SMILES IDX 16 1 17 2 18 3 19 4 20 5 21 6 22 7 23 8 24 9 25 10 26 11
REMARK SMILES IDX 27 12 28 13 29 14 30 15 31 16 32 17 15 18 14 19 13 20 12 21
REMARK SMILES IDX 11 22 10 23 9 24 8 25 7 26 6 27 5 28 4 29 3 30 2 31 1 32
REMARK H PARENT
REMARK Flexibility Score: inf
ROOT
ATOM      1  C   UNL     1     -34.162 -48.602 -11.280  1.00  0.00     0.000 C 
ENDROOT
BRANCH   1   2
ATOM      2  C   UNL     1     -35.604 -48.718 -11.817  1.00  0.00     0.000 C 
BRANCH   2   3
ATOM      3  C   UNL     1     -36.606 -47.724 -11.198  1.00  0.00     0.000 C 
BRANCH   3   4
ATOM      4  C   UNL     1     -37.939 -47.677 -11.966  1.00  0.00     0.000 C 
BRANCH   4   5
ATOM      5  C   UNL     1     -37.758 -47.504 -13.485  1.00  0.00     0.000 C 
BRANCH   5   6
ATOM      6  C   UNL     1     -37.322 -46.099 -13.939  1.00  0.00     0.000 C 
BRANCH   6   7
ATOM      7  C   UNL     1     -38.009 -45.643 -15.240  1.00  0.00     0.000 C 
BRANCH   7   8
ATOM      8  C   UNL     1     -37.070 -44.851 -16.173  1.00  0.00     0.000 C 
BRANCH   8   9
ATOM      9  C   UNL     1     -35.836 -45.639 -16.650  1.00  0.00     0.000 C 
BRANCH   9  10
ATOM     10  C   UNL     1     -36.169 -46.702 -17.707  1.00  0.00     0.000 C 
BRANCH  10  11
ATOM     11  C   UNL     1     -35.535 -48.056 -17.353  1.00  0.00     0.000 C 
BRANCH  11  12
ATOM     12  C   UNL     1     -34.918 -48.080 -15.943  1.00  0.00     0.000 C 
BRANCH  12  13
ATOM     13  C   UNL     1     -33.682 -48.985 -15.779  1.00  0.00     0.006 C 
BRANCH  13  14
ATOM     14  C   UNL     1     -32.932 -49.272 -17.094  1.00  0.00     0.053 C 
BRANCH  14  15
ATOM     15  C   UNL     1     -31.465 -48.976 -16.993  1.00  0.00     0.041 C 
ATOM     16  O   UNL     1     -30.857 -48.446 -17.959  1.00  0.00    -0.550 OA
ATOM     17  O   UNL     1     -30.760 -49.327 -15.848  1.00  0.00    -0.550 OA
ENDBRANCH  14  15
ENDBRANCH  13  14
ENDBRANCH  12  13
ENDBRANCH  11  12
ENDBRANCH  10  11
ENDBRANCH   9  10
ENDBRANCH   8   9
ENDBRANCH   7   8
ENDBRANCH   6   7
ENDBRANCH   5   6
ENDBRANCH   4   5
ENDBRANCH   3   4
ENDBRANCH   2   3
ENDBRANCH   1   2
BRANCH   1  18
ATOM     18  C   UNL     1     -34.046 -48.508  -9.745  1.00  0.00     0.000 C 
BRANCH  18  19
ATOM     19  C   UNL     1     -33.784 -49.848  -9.022  1.00  0.00     0.000 C 
BRANCH  19  20
ATOM     20  C   UNL     1     -32.335 -50.057  -8.540  1.00  0.00     0.000 C 
BRANCH  20  21
ATOM     21  C   UNL     1     -31.394 -48.921  -8.972  1.00  0.00     0.000 C 
BRANCH  21  22
ATOM     22  C   UNL     1     -30.145 -48.807  -8.071  1.00  0.00     0.000 C 
BRANCH  22  23
ATOM     23  C   UNL     1     -30.435 -49.027  -6.572  1.00  0.00     0.000 C 
BRANCH  23  24
ATOM     24  C   UNL     1     -30.979 -47.795  -5.826  1.00  0.00    -0.000 C 
BRANCH  24  25
ATOM     25  C   UNL     1     -32.494 -47.825  -5.524  1.00  0.00    -0.000 C 
BRANCH  25  26
ATOM     26  C   UNL     1     -33.363 -46.970  -6.464  1.00  0.00    -0.000 C 
BRANCH  26  27
ATOM     27  C   UNL     1     -33.101 -45.462  -6.313  1.00  0.00    -0.000 C 
BRANCH  27  28
ATOM     28  C   UNL     1     -33.936 -44.616  -7.288  1.00  0.00    -0.000 C 
BRANCH  28  29
ATOM     29  C   UNL     1     -33.975 -45.215  -8.702  1.00  0.00    -0.000 C 
BRANCH  29  30
ATOM     30  C   UNL     1     -34.887 -44.393  -9.625  1.00  0.00    -0.000 C 
BRANCH  30  31
ATOM     31  C   UNL     1     -34.116 -43.732 -10.780  1.00  0.00    -0.003 C 
ATOM     32  C   UNL     1     -34.543 -44.253 -12.154  1.00  0.00     0.004 C 
ENDBRANCH  30  31
ENDBRANCH  29  30
ENDBRANCH  28  29
ENDBRANCH  27  28
ENDBRANCH  26  27
ENDBRANCH  25  26
ENDBRANCH  24  25
ENDBRANCH  23  24
ENDBRANCH  22  23
ENDBRANCH  21  22
ENDBRANCH  20  21
ENDBRANCH  19  20
ENDBRANCH  18  19
ENDBRANCH   1  18
TORSDOF 28
ENDMDL
MODEL 8
REMARK VINA RESULT:    -3.733      3.690      9.111
REMARK INTER + INTRA:         -13.899
REMARK INTER:                 -11.130
REMARK INTRA:                  -2.769
REMARK UNBOUND:                -4.055
REMARK SMILES CCCCCCCCCCCCCCCCCCCCCCCCCCCCCC(=O)[O-]
REMARK SMILES IDX 16 1 17 2 18 3 19 4 20 5 21 6 22 7 23 8 24 9 25 10 26 11
REMARK SMILES IDX 27 12 28 13 29 14 30 15 31 16 32 17 15 18 14 19 13 20 12 21
REMARK SMILES IDX 11 22 10 23 9 24 8 25 7 26 6 27 5 28 4 29 3 30 2 31 1 32
REMARK H PARENT
REMARK Flexibility Score: inf
ROOT
ATOM      1  C   UNL     1     -35.427 -46.837 -11.176  1.00  0.00     0.000 C 
ENDROOT
BRANCH   1   2
ATOM      2  C   UNL     1     -34.983 -45.433 -11.638  1.00  0.00     0.000 C 
BRANCH   2   3
ATOM      3  C   UNL     1     -34.566 -44.481 -10.499  1.00  0.00     0.000 C 
BRANCH   3   4
ATOM      4  C   UNL     1     -34.185 -45.235  -9.213  1.00  0.00     0.000 C 
BRANCH   4   5
ATOM      5  C   UNL     1     -34.117 -44.324  -7.973  1.00  0.00     0.000 C 
BRANCH   5   6
ATOM      6  C   UNL     1     -33.761 -45.034  -6.655  1.00  0.00     0.000 C 
BRANCH   6   7
ATOM      7  C   UNL     1     -32.946 -46.325  -6.865  1.00  0.00     0.000 C 
BRANCH   7   8
ATOM      8  C   UNL     1     -33.527 -47.536  -6.104  1.00  0.00     0.000 C 
BRANCH   8   9
ATOM      9  C   UNL     1     -33.440 -48.868  -6.871  1.00  0.00     0.000 C 
BRANCH   9  10
ATOM     10  C   UNL     1     -33.749 -48.725  -8.368  1.00  0.00     0.000 C 
BRANCH  10  11
ATOM     11  C   UNL     1     -32.458 -48.625  -9.195  1.00  0.00     0.000 C 
BRANCH  11  12
ATOM     12  C   UNL     1     -31.331 -49.526  -8.658  1.00  0.00     0.000 C 
BRANCH  12  13
ATOM     13  C   UNL     1     -30.095 -48.782  -8.115  1.00  0.00     0.006 C 
BRANCH  13  14
ATOM     14  C   UNL     1     -29.463 -49.434  -6.870  1.00  0.00     0.053 C 
BRANCH  14  15
ATOM     15  C   UNL     1     -29.370 -48.484  -5.713  1.00  0.00     0.041 C 
ATOM     16  O   UNL     1     -30.401 -48.180  -5.057  1.00  0.00    -0.550 OA
ATOM     17  O   UNL     1     -28.153 -47.899  -5.385  1.00  0.00    -0.550 OA
ENDBRANCH  14  15
ENDBRANCH  13  14
ENDBRANCH  12  13
ENDBRANCH  11  12
ENDBRANCH  10  11
ENDBRANCH   9  10
ENDBRANCH   8   9
ENDBRANCH   7   8
ENDBRANCH   6   7
ENDBRANCH   5   6
ENDBRANCH   4   5
ENDBRANCH   3   4
ENDBRANCH   2   3
ENDBRANCH   1   2
BRANCH   1  18
ATOM     18  C   UNL     1     -36.452 -47.529 -12.098  1.00  0.00     0.000 C 
BRANCH  18  19
ATOM     19  C   UNL     1     -37.827 -46.832 -12.195  1.00  0.00     0.000 C 
BRANCH  19  20
ATOM     20  C   UNL     1     -38.131 -46.174 -13.555  1.00  0.00     0.000 C 
BRANCH  20  21
ATOM     21  C   UNL     1     -37.839 -47.105 -14.744  1.00  0.00     0.000 C 
BRANCH  21  22
ATOM     22  C   UNL     1     -36.994 -46.421 -15.841  1.00  0.00     0.000 C 
BRANCH  22  23
ATOM     23  C   UNL     1     -35.481 -46.407 -15.545  1.00  0.00     0.000 C 
BRANCH  23  24
ATOM     24  C   UNL     1     -34.647 -47.409 -16.365  1.00  0.00    -0.000 C 
BRANCH  24  25
ATOM     25  C   UNL     1     -34.452 -48.794 -15.709  1.00  0.00    -0.000 C 
BRANCH  25  26
ATOM     26  C   UNL     1     -33.327 -49.651 -16.321  1.00  0.00    -0.000 C 
BRANCH  26  27
ATOM     27  C   UNL     1     -32.221 -48.805 -16.975  1.00  0.00    -0.000 C 
BRANCH  27  28
ATOM     28  C   UNL     1     -31.871 -49.284 -18.393  1.00  0.00    -0.000 C 
BRANCH  28  29
ATOM     29  C   UNL     1     -30.636 -48.575 -18.966  1.00  0.00    -0.000 C 
BRANCH  29  30
ATOM     30  C   UNL     1     -29.390 -49.468 -18.866  1.00  0.00    -0.000 C 
BRANCH  30  31
ATOM     31  C   UNL     1     -28.126 -48.782 -19.412  1.00  0.00    -0.003 C 
ATOM     32  C   UNL     1     -28.352 -47.310 -19.761  1.00  0.00     0.004 C 
ENDBRANCH  30  31
ENDBRANCH  29  30
ENDBRANCH  28  29
ENDBRANCH  27  28
ENDBRANCH  26  27
ENDBRANCH  25  26
ENDBRANCH  24  25
ENDBRANCH  23  24
ENDBRANCH  22  23
ENDBRANCH  21  22
ENDBRANCH  20  21
ENDBRANCH  19  20
ENDBRANCH  18  19
ENDBRANCH   1  18
TORSDOF 28
ENDMDL
MODEL 9
REMARK VINA RESULT:    -3.716      2.124      4.516
REMARK INTER + INTRA:         -13.852
REMARK INTER:                 -10.026
REMARK INTRA:                  -3.827
REMARK UNBOUND:                -4.055
REMARK SMILES CCCCCCCCCCCCCCCCCCCCCCCCCCCCCC(=O)[O-]
REMARK SMILES IDX 16 1 17 2 18 3 19 4 20 5 21 6 22 7 23 8 24 9 25 10 26 11
REMARK SMILES IDX 27 12 28 13 29 14 30 15 31 16 32 17 15 18 14 19 13 20 12 21
REMARK SMILES IDX 11 22 10 23 9 24 8 25 7 26 6 27 5 28 4 29 3 30 2 31 1 32
REMARK H PARENT
REMARK Flexibility Score: inf
ROOT
ATOM      1  C   UNL     1     -34.404 -49.215 -12.132  1.00  0.00     0.000 C 
ENDROOT
BRANCH   1   2
ATOM      2  C   UNL     1     -35.786 -49.359 -12.803  1.00  0.00     0.000 C 
BRANCH   2   3
ATOM      3  C   UNL     1     -36.979 -49.370 -11.827  1.00  0.00     0.000 C 
BRANCH   3   4
ATOM      4  C   UNL     1     -38.183 -48.574 -12.361  1.00  0.00     0.000 C 
BRANCH   4   5
ATOM      5  C   UNL     1     -37.957 -47.051 -12.350  1.00  0.00     0.000 C 
BRANCH   5   6
ATOM      6  C   UNL     1     -38.669 -46.274 -13.471  1.00  0.00     0.000 C 
BRANCH   6   7
ATOM      7  C   UNL     1     -37.693 -45.557 -14.424  1.00  0.00     0.000 C 
BRANCH   7   8
ATOM      8  C   UNL     1     -36.213 -45.775 -14.046  1.00  0.00     0.000 C 
BRANCH   8   9
ATOM      9  C   UNL     1     -35.361 -46.415 -15.157  1.00  0.00     0.000 C 
BRANCH   9  10
ATOM     10  C   UNL     1     -36.122 -47.476 -15.966  1.00  0.00     0.000 C 
BRANCH  10  11
ATOM     11  C   UNL     1     -35.454 -47.722 -17.328  1.00  0.00     0.000 C 
BRANCH  11  12
ATOM     12  C   UNL     1     -34.562 -48.976 -17.340  1.00  0.00     0.000 C 
BRANCH  12  13
ATOM     13  C   UNL     1     -33.338 -48.924 -16.405  1.00  0.00     0.006 C 
BRANCH  13  14
ATOM     14  C   UNL     1     -31.997 -48.715 -17.133  1.00  0.00     0.053 C 
BRANCH  14  15
ATOM     15  C   UNL     1     -30.848 -49.354 -16.410  1.00  0.00     0.041 C 
ATOM     16  O   UNL     1     -29.781 -49.617 -17.023  1.00  0.00    -0.550 OA
ATOM     17  O   UNL     1     -30.973 -49.702 -15.070  1.00  0.00    -0.550 OA
ENDBRANCH  14  15
ENDBRANCH  13  14
ENDBRANCH  12  13
ENDBRANCH  11  12
ENDBRANCH  10  11
ENDBRANCH   9  10
ENDBRANCH   8   9
ENDBRANCH   7   8
ENDBRANCH   6   7
ENDBRANCH   5   6
ENDBRANCH   4   5
ENDBRANCH   3   4
ENDBRANCH   2   3
ENDBRANCH   1   2
BRANCH   1  18
ATOM     18  C   UNL     1     -34.440 -48.745 -10.664  1.00  0.00     0.000 C 
BRANCH  18  19
ATOM     19  C   UNL     1     -33.915 -47.313 -10.418  1.00  0.00     0.000 C 
BRANCH  19  20
ATOM     20  C   UNL     1     -35.001 -46.222 -10.351  1.00  0.00     0.000 C 
BRANCH  20  21
ATOM     21  C   UNL     1     -34.415 -44.808 -10.199  1.00  0.00     0.000 C 
BRANCH  21  22
ATOM     22  C   UNL     1     -34.507 -44.279  -8.751  1.00  0.00     0.000 C 
BRANCH  22  23
ATOM     23  C   UNL     1     -33.563 -44.994  -7.764  1.00  0.00     0.000 C 
BRANCH  23  24
ATOM     24  C   UNL     1     -33.996 -44.932  -6.287  1.00  0.00    -0.000 C 
BRANCH  24  25
ATOM     25  C   UNL     1     -34.113 -46.300  -5.579  1.00  0.00    -0.000 C 
BRANCH  25  26
ATOM     26  C   UNL     1     -33.008 -47.313  -5.932  1.00  0.00    -0.000 C 
BRANCH  26  27
ATOM     27  C   UNL     1     -33.536 -48.516  -6.734  1.00  0.00    -0.000 C 
BRANCH  27  28
ATOM     28  C   UNL     1     -32.416 -49.483  -7.154  1.00  0.00    -0.000 C 
BRANCH  28  29
ATOM     29  C   UNL     1     -31.541 -48.915  -8.282  1.00  0.00    -0.000 C 
BRANCH  29  30
ATOM     30  C   UNL     1     -30.053 -48.970  -7.907  1.00  0.00    -0.000 C 
BRANCH  30  31
ATOM     31  C   UNL     1     -29.684 -47.965  -6.802  1.00  0.00    -0.003 C 
ATOM     32  C   UNL     1     -29.257 -48.645  -5.500  1.00  0.00     0.004 C 
ENDBRANCH  30  31
ENDBRANCH  29  30
ENDBRANCH  28  29
ENDBRANCH  27  28
ENDBRANCH  26  27
ENDBRANCH  25  26
ENDBRANCH  24  25
ENDBRANCH  23  24
ENDBRANCH  22  23
ENDBRANCH  21  22
ENDBRANCH  20  21
ENDBRANCH  19  20
ENDBRANCH  18  19
ENDBRANCH   1  18
TORSDOF 28
ENDMDL
