MODEL 1
REMARK VINA RESULT:    -0.940      0.000      0.000
REMARK INTER + INTRA:          -1.381
REMARK INTER:                  -1.105
REMARK INTRA:                  -0.276
REMARK UNBOUND:                -0.276
REMARK SMILES O=c1cc(-c2ccc(O)c(O)c2)oc2cc(O)cc(O)c12
REMARK SMILES IDX 4 1 3 2 2 3 1 4 21 5 19 6 18 7 16 8 15 9 14 10 13 11 5 12
REMARK SMILES IDX 6 13 7 14 8 15 12 16 10 17 9 18 11 20 20 22 17 24
REMARK H PARENT 9 19 11 21 20 23 17 25
REMARK Flexibility Score: inf
ROOT
ATOM      1  C   UNL     1    -116.889 -99.549  37.198  1.00  0.00     0.138 A 
ATOM      2  C   UNL     1    -115.570 -99.874  36.854  1.00  0.00     0.100 A 
ATOM      3  C   UNL     1    -115.187 -99.882  35.512  1.00  0.00     0.197 A 
ATOM      4  O   UNL     1    -113.982-100.123  35.241  1.00  0.00    -0.289 OA
ATOM      5  C   UNL     1    -116.142 -99.597  34.507  1.00  0.00     0.107 A 
ATOM      6  C   UNL     1    -115.875 -99.609  33.104  1.00  0.00     0.134 A 
ATOM      7  C   UNL     1    -116.877 -99.213  32.208  1.00  0.00     0.093 A 
ATOM      8  C   UNL     1    -118.149 -98.863  32.658  1.00  0.00     0.123 A 
ATOM      9  C   UNL     1    -118.436 -98.897  34.023  1.00  0.00     0.094 A 
ATOM     10  C   UNL     1    -117.449 -99.253  34.944  1.00  0.00     0.146 A 
ATOM     11  O   UNL     1    -117.758 -99.255  36.237  1.00  0.00    -0.456 OA
ENDROOT
BRANCH   1  12
ATOM     12  C   UNL     1    -117.351 -99.529  38.608  1.00  0.00     0.021 A 
ATOM     13  C   UNL     1    -118.573-100.113  38.996  1.00  0.00     0.016 A 
ATOM     14  C   UNL     1    -118.978-100.088  40.334  1.00  0.00     0.051 A 
ATOM     15  C   UNL     1    -118.168 -99.489  41.305  1.00  0.00     0.157 A 
ATOM     16  C   UNL     1    -116.539 -98.941  39.595  1.00  0.00     0.062 A 
ATOM     17  C   UNL     1    -116.945 -98.916  40.936  1.00  0.00     0.158 A 
BRANCH  15  18
ATOM     18  O   UNL     1    -118.570 -99.460  42.640  1.00  0.00    -0.504 OA
ATOM     19  H   UNL     1    -118.024 -98.982  43.348  1.00  0.00     0.293 HD
ENDBRANCH  15  18
BRANCH  17  20
ATOM     20  O   UNL     1    -116.140 -98.323  41.907  1.00  0.00    -0.504 OA
ATOM     21  H   UNL     1    -116.532 -97.942  42.760  1.00  0.00     0.293 HD
ENDBRANCH  17  20
ENDBRANCH   1  12
BRANCH   6  22
ATOM     22  O   UNL     1    -114.663-100.018  32.540  1.00  0.00    -0.507 OA
ATOM     23  H   UNL     1    -114.399-100.974  32.364  1.00  0.00     0.293 HD
ENDBRANCH   6  22
BRANCH   8  24
ATOM     24  O   UNL     1    -119.125 -98.490  31.736  1.00  0.00    -0.508 OA
ATOM     25  H   UNL     1    -119.306 -97.516  31.522  1.00  0.00     0.293 HD
ENDBRANCH   8  24
TORSDOF 5
ENDMDL
MODEL 2
REMARK VINA RESULT:     1.400      1.340      1.440
REMARK INTER + INTRA:           1.370
REMARK INTER:                   1.633
REMARK INTRA:                  -0.263
REMARK UNBOUND:                -0.276
REMARK SMILES O=c1cc(-c2ccc(O)c(O)c2)oc2cc(O)cc(O)c12
REMARK SMILES IDX 4 1 3 2 2 3 1 4 21 5 19 6 18 7 16 8 15 9 14 10 13 11 5 12
REMARK SMILES IDX 6 13 7 14 8 15 12 16 10 17 9 18 11 20 20 22 17 24
REMARK H PARENT 9 19 11 21 20 23 17 25
REMARK Flexibility Score: inf
ROOT
ATOM      1  C   UNL     1    -116.816 -98.949  37.768  1.00  0.00     0.138 A 
ATOM      2  C   UNL     1    -115.534 -98.526  37.392  1.00  0.00     0.100 A 
ATOM      3  C   UNL     1    -115.180 -98.511  36.042  1.00  0.00     0.197 A 
ATOM      4  O   UNL     1    -114.042 -98.073  35.732  1.00  0.00    -0.289 OA
ATOM      5  C   UNL     1    -116.105 -98.959  35.067  1.00  0.00     0.107 A 
ATOM      6  C   UNL     1    -115.842 -99.021  33.665  1.00  0.00     0.134 A 
ATOM      7  C   UNL     1    -116.871 -99.389  32.787  1.00  0.00     0.093 A 
ATOM      8  C   UNL     1    -118.131 -99.750  33.263  1.00  0.00     0.123 A 
ATOM      9  C   UNL     1    -118.383 -99.741  34.635  1.00  0.00     0.094 A 
ATOM     10  C   UNL     1    -117.389 -99.346  35.534  1.00  0.00     0.146 A 
ATOM     11  O   UNL     1    -117.676 -99.334  36.832  1.00  0.00    -0.456 OA
ENDROOT
BRANCH   1  12
ATOM     12  C   UNL     1    -117.244 -98.988  39.189  1.00  0.00     0.021 A 
ATOM     13  C   UNL     1    -117.026-100.120  39.998  1.00  0.00     0.016 A 
ATOM     14  C   UNL     1    -117.431-100.124  41.336  1.00  0.00     0.051 A 
ATOM     15  C   UNL     1    -118.052 -98.999  41.890  1.00  0.00     0.157 A 
ATOM     16  C   UNL     1    -117.857 -97.857  39.759  1.00  0.00     0.062 A 
ATOM     17  C   UNL     1    -118.264 -97.862  41.100  1.00  0.00     0.158 A 
BRANCH  15  18
ATOM     18  O   UNL     1    -118.459 -99.000  43.223  1.00  0.00    -0.504 OA
ATOM     19  H   UNL     1    -118.981 -99.775  43.616  1.00  0.00     0.293 HD
ENDBRANCH  15  18
BRANCH  17  20
ATOM     20  O   UNL     1    -118.880 -96.742  41.655  1.00  0.00    -0.504 OA
ATOM     21  H   UNL     1    -118.905 -95.854  41.168  1.00  0.00     0.293 HD
ENDBRANCH  17  20
ENDBRANCH   1  12
BRANCH   6  22
ATOM     22  O   UNL     1    -114.597 -98.758  33.088  1.00  0.00    -0.507 OA
ATOM     23  H   UNL     1    -114.027 -99.435  32.607  1.00  0.00     0.293 HD
ENDBRANCH   6  22
BRANCH   8  24
ATOM     24  O   UNL     1    -119.124-100.125  32.361  1.00  0.00    -0.508 OA
ATOM     25  H   UNL     1    -119.283 -99.608  31.504  1.00  0.00     0.293 HD
ENDBRANCH   8  24
TORSDOF 5
ENDMDL
