MODEL 1
REMARK VINA RESULT:    -5.103      0.000      0.000
REMARK INTER + INTRA:         -18.168
REMARK INTER:                 -12.860
REMARK INTRA:                  -5.308
REMARK UNBOUND:                -5.308
REMARK SMILES CCCCCCCCCCCCCCCCCCCCCCCCCCCC(=O)[O-]
REMARK SMILES IDX 15 1 16 2 17 3 18 4 19 5 20 6 21 7 22 8 23 9 24 10 25 11
REMARK SMILES IDX 26 12 27 13 28 14 29 15 30 16 14 17 13 18 12 19 11 20 10 21
REMARK SMILES IDX 9 22 8 23 7 24 6 25 5 26 4 27 3 28 2 29 1 30
REMARK H PARENT
REMARK Flexibility Score: inf
ROOT
ATOM      1  C   UNL     1      21.923  -5.807  33.855  1.00  0.00     0.000 C 
ENDROOT
BRANCH   1   2
ATOM      2  C   UNL     1      21.048  -7.077  33.844  1.00  0.00     0.000 C 
BRANCH   2   3
ATOM      3  C   UNL     1      19.544  -6.828  33.632  1.00  0.00     0.000 C 
BRANCH   3   4
ATOM      4  C   UNL     1      18.841  -8.011  32.948  1.00  0.00     0.000 C 
BRANCH   4   5
ATOM      5  C   UNL     1      17.424  -8.207  33.501  1.00  0.00     0.000 C 
BRANCH   5   6
ATOM      6  C   UNL     1      16.759  -6.887  33.929  1.00  0.00     0.000 C 
BRANCH   6   7
ATOM      7  C   UNL     1      16.311  -6.862  35.405  1.00  0.00     0.000 C 
BRANCH   7   8
ATOM      8  C   UNL     1      16.387  -5.448  36.011  1.00  0.00     0.000 C 
BRANCH   8   9
ATOM      9  C   UNL     1      17.777  -4.810  35.851  1.00  0.00     0.000 C 
BRANCH   9  10
ATOM     10  C   UNL     1      18.601  -4.867  37.146  1.00  0.00     0.000 C 
BRANCH  10  11
ATOM     11  C   UNL     1      20.097  -5.029  36.845  1.00  0.00     0.000 C 
BRANCH  11  12
ATOM     12  C   UNL     1      20.908  -5.531  38.053  1.00  0.00     0.006 C 
BRANCH  12  13
ATOM     13  C   UNL     1      21.987  -6.571  37.697  1.00  0.00     0.053 C 
BRANCH  13  14
ATOM     14  C   UNL     1      22.241  -7.549  38.805  1.00  0.00     0.041 C 
ATOM     15  O   UNL     1      21.400  -7.696  39.734  1.00  0.00    -0.550 OA
ATOM     16  O   UNL     1      23.396  -8.322  38.799  1.00  0.00    -0.550 OA
ENDBRANCH  13  14
ENDBRANCH  12  13
ENDBRANCH  11  12
ENDBRANCH  10  11
ENDBRANCH   9  10
ENDBRANCH   8   9
ENDBRANCH   7   8
ENDBRANCH   6   7
ENDBRANCH   5   6
ENDBRANCH   4   5
ENDBRANCH   3   4
ENDBRANCH   2   3
ENDBRANCH   1   2
BRANCH   1  17
ATOM     17  C   UNL     1      22.508  -5.399  32.490  1.00  0.00     0.000 C 
BRANCH  17  18
ATOM     18  C   UNL     1      22.567  -6.573  31.496  1.00  0.00     0.000 C 
BRANCH  18  19
ATOM     19  C   UNL     1      22.169  -6.178  30.063  1.00  0.00     0.000 C 
BRANCH  19  20
ATOM     20  C   UNL     1      21.083  -5.092  29.956  1.00  0.00     0.000 C 
BRANCH  20  21
ATOM     21  C   UNL     1      19.655  -5.643  30.084  1.00  0.00     0.000 C 
BRANCH  21  22
ATOM     22  C   UNL     1      18.770  -4.699  30.915  1.00  0.00    -0.000 C 
BRANCH  22  23
ATOM     23  C   UNL     1      19.551  -3.489  31.471  1.00  0.00    -0.000 C 
BRANCH  23  24
ATOM     24  C   UNL     1      18.978  -2.922  32.781  1.00  0.00    -0.000 C 
BRANCH  24  25
ATOM     25  C   UNL     1      20.062  -2.607  33.824  1.00  0.00    -0.000 C 
BRANCH  25  26
ATOM     26  C   UNL     1      19.630  -1.455  34.745  1.00  0.00    -0.000 C 
BRANCH  26  27
ATOM     27  C   UNL     1      20.809  -0.845  35.519  1.00  0.00    -0.000 C 
BRANCH  27  28
ATOM     28  C   UNL     1      21.395  -1.803  36.565  1.00  0.00    -0.000 C 
BRANCH  28  29
ATOM     29  C   UNL     1      22.928  -1.792  36.522  1.00  0.00    -0.003 C 
ATOM     30  C   UNL     1      23.465  -2.962  35.702  1.00  0.00     0.004 C 
ENDBRANCH  28  29
ENDBRANCH  27  28
ENDBRANCH  26  27
ENDBRANCH  25  26
ENDBRANCH  24  25
ENDBRANCH  23  24
ENDBRANCH  22  23
ENDBRANCH  21  22
ENDBRANCH  20  21
ENDBRANCH  19  20
ENDBRANCH  18  19
ENDBRANCH  17  18
ENDBRANCH   1  17
TORSDOF 26
ENDMDL
MODEL 2
REMARK VINA RESULT:    -4.874      1.302      2.981
REMARK INTER + INTRA:         -17.589
REMARK INTER:                 -13.091
REMARK INTRA:                  -4.498
REMARK UNBOUND:                -5.308
REMARK SMILES CCCCCCCCCCCCCCCCCCCCCCCCCCCC(=O)[O-]
REMARK SMILES IDX 15 1 16 2 17 3 18 4 19 5 20 6 21 7 22 8 23 9 24 10 25 11
REMARK SMILES IDX 26 12 27 13 28 14 29 15 30 16 14 17 13 18 12 19 11 20 10 21
REMARK SMILES IDX 9 22 8 23 7 24 6 25 5 26 4 27 3 28 2 29 1 30
REMARK H PARENT
REMARK Flexibility Score: inf
ROOT
ATOM      1  C   UNL     1      18.489  -6.517  31.754  1.00  0.00     0.000 C 
ENDROOT
BRANCH   1   2
ATOM      2  C   UNL     1      19.034  -7.661  32.632  1.00  0.00     0.000 C 
BRANCH   2   3
ATOM      3  C   UNL     1      18.002  -8.742  33.004  1.00  0.00     0.000 C 
BRANCH   3   4
ATOM      4  C   UNL     1      16.611  -8.156  33.288  1.00  0.00     0.000 C 
BRANCH   4   5
ATOM      5  C   UNL     1      16.287  -8.201  34.786  1.00  0.00     0.000 C 
BRANCH   5   6
ATOM      6  C   UNL     1      15.460  -6.992  35.258  1.00  0.00     0.000 C 
BRANCH   6   7
ATOM      7  C   UNL     1      16.299  -5.722  35.514  1.00  0.00     0.000 C 
BRANCH   7   8
ATOM      8  C   UNL     1      17.472  -5.985  36.476  1.00  0.00     0.000 C 
BRANCH   8   9
ATOM      9  C   UNL     1      18.392  -4.764  36.635  1.00  0.00     0.000 C 
BRANCH   9  10
ATOM     10  C   UNL     1      18.867  -4.572  38.083  1.00  0.00     0.000 C 
BRANCH  10  11
ATOM     11  C   UNL     1      18.093  -5.483  39.045  1.00  0.00     0.000 C 
BRANCH  11  12
ATOM     12  C   UNL     1      18.967  -6.583  39.675  1.00  0.00     0.006 C 
BRANCH  12  13
ATOM     13  C   UNL     1      20.453  -6.508  39.277  1.00  0.00     0.053 C 
BRANCH  13  14
ATOM     14  C   UNL     1      21.241  -7.695  39.745  1.00  0.00     0.041 C 
ATOM     15  O   UNL     1      20.900  -8.318  40.787  1.00  0.00    -0.550 OA
ATOM     16  O   UNL     1      22.340  -8.131  39.014  1.00  0.00    -0.550 OA
ENDBRANCH  13  14
ENDBRANCH  12  13
ENDBRANCH  11  12
ENDBRANCH  10  11
ENDBRANCH   9  10
ENDBRANCH   8   9
ENDBRANCH   7   8
ENDBRANCH   6   7
ENDBRANCH   5   6
ENDBRANCH   4   5
ENDBRANCH   3   4
ENDBRANCH   2   3
ENDBRANCH   1   2
BRANCH   1  17
ATOM     17  C   UNL     1      19.559  -5.628  31.093  1.00  0.00     0.000 C 
BRANCH  17  18
ATOM     18  C   UNL     1      20.739  -6.441  30.529  1.00  0.00     0.000 C 
BRANCH  18  19
ATOM     19  C   UNL     1      22.112  -5.930  31.002  1.00  0.00     0.000 C 
BRANCH  19  20
ATOM     20  C   UNL     1      22.552  -6.414  32.395  1.00  0.00     0.000 C 
BRANCH  20  21
ATOM     21  C   UNL     1      22.311  -5.379  33.504  1.00  0.00     0.000 C 
BRANCH  21  22
ATOM     22  C   UNL     1      21.189  -5.834  34.452  1.00  0.00    -0.000 C 
BRANCH  22  23
ATOM     23  C   UNL     1      21.684  -6.045  35.899  1.00  0.00    -0.000 C 
BRANCH  23  24
ATOM     24  C   UNL     1      22.930  -5.220  36.261  1.00  0.00    -0.000 C 
BRANCH  24  25
ATOM     25  C   UNL     1      22.589  -3.816  36.785  1.00  0.00    -0.000 C 
BRANCH  25  26
ATOM     26  C   UNL     1      23.331  -2.730  35.990  1.00  0.00    -0.000 C 
BRANCH  26  27
ATOM     27  C   UNL     1      22.416  -1.565  35.584  1.00  0.00    -0.000 C 
BRANCH  27  28
ATOM     28  C   UNL     1      20.926  -1.879  35.790  1.00  0.00    -0.000 C 
BRANCH  28  29
ATOM     29  C   UNL     1      20.116  -1.533  34.535  1.00  0.00    -0.003 C 
ATOM     30  C   UNL     1      19.793  -2.785  33.725  1.00  0.00     0.004 C 
ENDBRANCH  28  29
ENDBRANCH  27  28
ENDBRANCH  26  27
ENDBRANCH  25  26
ENDBRANCH  24  25
ENDBRANCH  23  24
ENDBRANCH  22  23
ENDBRANCH  21  22
ENDBRANCH  20  21
ENDBRANCH  19  20
ENDBRANCH  18  19
ENDBRANCH  17  18
ENDBRANCH   1  17
TORSDOF 26
ENDMDL
MODEL 3
REMARK VINA RESULT:    -4.835      2.409      5.890
REMARK INTER + INTRA:         -17.492
REMARK INTER:                 -13.187
REMARK INTRA:                  -4.305
REMARK UNBOUND:                -5.308
REMARK SMILES CCCCCCCCCCCCCCCCCCCCCCCCCCCC(=O)[O-]
REMARK SMILES IDX 15 1 16 2 17 3 18 4 19 5 20 6 21 7 22 8 23 9 24 10 25 11
REMARK SMILES IDX 26 12 27 13 28 14 29 15 30 16 14 17 13 18 12 19 11 20 10 21
REMARK SMILES IDX 9 22 8 23 7 24 6 25 5 26 4 27 3 28 2 29 1 30
REMARK H PARENT
REMARK Flexibility Score: inf
ROOT
ATOM      1  C   UNL     1      20.840  -4.552  34.175  1.00  0.00     0.000 C 
ENDROOT
BRANCH   1   2
ATOM      2  C   UNL     1      22.256  -5.098  33.901  1.00  0.00     0.000 C 
BRANCH   2   3
ATOM      3  C   UNL     1      22.324  -6.238  32.869  1.00  0.00     0.000 C 
BRANCH   3   4
ATOM      4  C   UNL     1      22.658  -5.734  31.456  1.00  0.00     0.000 C 
BRANCH   4   5
ATOM      5  C   UNL     1      21.547  -6.095  30.463  1.00  0.00     0.000 C 
BRANCH   5   6
ATOM      6  C   UNL     1      20.343  -6.780  31.133  1.00  0.00     0.000 C 
BRANCH   6   7
ATOM      7  C   UNL     1      19.034  -5.967  31.052  1.00  0.00     0.000 C 
BRANCH   7   8
ATOM      8  C   UNL     1      18.080  -6.285  32.217  1.00  0.00     0.000 C 
BRANCH   8   9
ATOM      9  C   UNL     1      18.625  -7.382  33.147  1.00  0.00     0.000 C 
BRANCH   9  10
ATOM     10  C   UNL     1      17.682  -8.590  33.244  1.00  0.00     0.000 C 
BRANCH  10  11
ATOM     11  C   UNL     1      16.302  -8.174  33.771  1.00  0.00     0.000 C 
BRANCH  11  12
ATOM     12  C   UNL     1      16.345  -7.608  35.202  1.00  0.00     0.006 C 
BRANCH  12  13
ATOM     13  C   UNL     1      15.826  -6.162  35.320  1.00  0.00     0.053 C 
BRANCH  13  14
ATOM     14  C   UNL     1      16.929  -5.161  35.496  1.00  0.00     0.041 C 
ATOM     15  O   UNL     1      17.986  -5.475  36.109  1.00  0.00    -0.550 OA
ATOM     16  O   UNL     1      16.803  -3.886  34.958  1.00  0.00    -0.550 OA
ENDBRANCH  13  14
ENDBRANCH  12  13
ENDBRANCH  11  12
ENDBRANCH  10  11
ENDBRANCH   9  10
ENDBRANCH   8   9
ENDBRANCH   7   8
ENDBRANCH   6   7
ENDBRANCH   5   6
ENDBRANCH   4   5
ENDBRANCH   3   4
ENDBRANCH   2   3
ENDBRANCH   1   2
BRANCH   1  17
ATOM     17  C   UNL     1      20.377  -3.421  33.238  1.00  0.00     0.000 C 
BRANCH  17  18
ATOM     18  C   UNL     1      20.129  -2.098  33.984  1.00  0.00     0.000 C 
BRANCH  18  19
ATOM     19  C   UNL     1      20.285  -2.221  35.510  1.00  0.00     0.000 C 
BRANCH  19  20
ATOM     20  C   UNL     1      21.096  -1.100  36.184  1.00  0.00     0.000 C 
BRANCH  20  21
ATOM     21  C   UNL     1      22.556  -1.036  35.711  1.00  0.00     0.000 C 
BRANCH  21  22
ATOM     22  C   UNL     1      23.247  -2.401  35.862  1.00  0.00    -0.000 C 
BRANCH  22  23
ATOM     23  C   UNL     1      23.371  -2.844  37.336  1.00  0.00    -0.000 C 
BRANCH  23  24
ATOM     24  C   UNL     1      22.646  -4.161  37.658  1.00  0.00    -0.000 C 
BRANCH  24  25
ATOM     25  C   UNL     1      23.477  -5.405  37.307  1.00  0.00    -0.000 C 
BRANCH  25  26
ATOM     26  C   UNL     1      22.919  -6.660  37.997  1.00  0.00    -0.000 C 
BRANCH  26  27
ATOM     27  C   UNL     1      23.273  -6.719  39.491  1.00  0.00    -0.000 C 
BRANCH  27  28
ATOM     28  C   UNL     1      24.762  -7.003  39.740  1.00  0.00    -0.000 C 
BRANCH  28  29
ATOM     29  C   UNL     1      25.457  -5.784  40.357  1.00  0.00    -0.003 C 
ATOM     30  C   UNL     1      26.711  -5.408  39.573  1.00  0.00     0.004 C 
ENDBRANCH  28  29
ENDBRANCH  27  28
ENDBRANCH  26  27
ENDBRANCH  25  26
ENDBRANCH  24  25
ENDBRANCH  23  24
ENDBRANCH  22  23
ENDBRANCH  21  22
ENDBRANCH  20  21
ENDBRANCH  19  20
ENDBRANCH  18  19
ENDBRANCH  17  18
ENDBRANCH   1  17
TORSDOF 26
ENDMDL
MODEL 4
REMARK VINA RESULT:    -4.824      1.615      4.478
REMARK INTER + INTRA:         -17.465
REMARK INTER:                 -12.722
REMARK INTRA:                  -4.743
REMARK UNBOUND:                -5.308
REMARK SMILES CCCCCCCCCCCCCCCCCCCCCCCCCCCC(=O)[O-]
REMARK SMILES IDX 15 1 16 2 17 3 18 4 19 5 20 6 21 7 22 8 23 9 24 10 25 11
REMARK SMILES IDX 26 12 27 13 28 14 29 15 30 16 14 17 13 18 12 19 11 20 10 21
REMARK SMILES IDX 9 22 8 23 7 24 6 25 5 26 4 27 3 28 2 29 1 30
REMARK H PARENT
REMARK Flexibility Score: inf
ROOT
ATOM      1  C   UNL     1      22.757  -6.126  32.021  1.00  0.00     0.000 C 
ENDROOT
BRANCH   1   2
ATOM      2  C   UNL     1      21.804  -6.080  33.233  1.00  0.00     0.000 C 
BRANCH   2   3
ATOM      3  C   UNL     1      21.604  -4.684  33.850  1.00  0.00     0.000 C 
BRANCH   3   4
ATOM      4  C   UNL     1      20.485  -4.660  34.902  1.00  0.00     0.000 C 
BRANCH   4   5
ATOM      5  C   UNL     1      19.831  -3.275  34.981  1.00  0.00     0.000 C 
BRANCH   5   6
ATOM      6  C   UNL     1      20.625  -2.192  34.230  1.00  0.00     0.000 C 
BRANCH   6   7
ATOM      7  C   UNL     1      21.288  -1.148  35.153  1.00  0.00     0.000 C 
BRANCH   7   8
ATOM      8  C   UNL     1      22.655  -1.622  35.678  1.00  0.00     0.000 C 
BRANCH   8   9
ATOM      9  C   UNL     1      22.727  -1.636  37.214  1.00  0.00     0.000 C 
BRANCH   9  10
ATOM     10  C   UNL     1      22.653  -3.058  37.791  1.00  0.00     0.000 C 
BRANCH  10  11
ATOM     11  C   UNL     1      23.492  -4.037  36.958  1.00  0.00     0.000 C 
BRANCH  11  12
ATOM     12  C   UNL     1      24.543  -4.795  37.790  1.00  0.00     0.006 C 
BRANCH  12  13
ATOM     13  C   UNL     1      24.060  -6.159  38.318  1.00  0.00     0.053 C 
BRANCH  13  14
ATOM     14  C   UNL     1      24.997  -6.756  39.326  1.00  0.00     0.041 C 
ATOM     15  O   UNL     1      24.833  -7.941  39.727  1.00  0.00    -0.550 OA
ATOM     16  O   UNL     1      26.070  -6.013  39.804  1.00  0.00    -0.550 OA
ENDBRANCH  13  14
ENDBRANCH  12  13
ENDBRANCH  11  12
ENDBRANCH  10  11
ENDBRANCH   9  10
ENDBRANCH   8   9
ENDBRANCH   7   8
ENDBRANCH   6   7
ENDBRANCH   5   6
ENDBRANCH   4   5
ENDBRANCH   3   4
ENDBRANCH   2   3
ENDBRANCH   1   2
BRANCH   1  17
ATOM     17  C   UNL     1      22.096  -6.487  30.678  1.00  0.00     0.000 C 
BRANCH  17  18
ATOM     18  C   UNL     1      21.325  -5.306  30.061  1.00  0.00     0.000 C 
BRANCH  18  19
ATOM     19  C   UNL     1      19.798  -5.438  30.200  1.00  0.00     0.000 C 
BRANCH  19  20
ATOM     20  C   UNL     1      19.116  -4.345  31.044  1.00  0.00     0.000 C 
BRANCH  20  21
ATOM     21  C   UNL     1      18.140  -4.903  32.090  1.00  0.00     0.000 C 
BRANCH  21  22
ATOM     22  C   UNL     1      18.254  -6.433  32.192  1.00  0.00    -0.000 C 
BRANCH  22  23
ATOM     23  C   UNL     1      17.898  -6.963  33.598  1.00  0.00    -0.000 C 
BRANCH  23  24
ATOM     24  C   UNL     1      17.002  -6.017  34.415  1.00  0.00    -0.000 C 
BRANCH  24  25
ATOM     25  C   UNL     1      16.636  -6.582  35.796  1.00  0.00    -0.000 C 
BRANCH  25  26
ATOM     26  C   UNL     1      16.769  -5.509  36.889  1.00  0.00    -0.000 C 
BRANCH  26  27
ATOM     27  C   UNL     1      17.067  -6.108  38.272  1.00  0.00    -0.000 C 
BRANCH  27  28
ATOM     28  C   UNL     1      18.145  -5.328  39.039  1.00  0.00    -0.000 C 
BRANCH  28  29
ATOM     29  C   UNL     1      19.481  -5.358  38.288  1.00  0.00    -0.003 C 
ATOM     30  C   UNL     1      20.490  -6.259  38.994  1.00  0.00     0.004 C 
ENDBRANCH  28  29
ENDBRANCH  27  28
ENDBRANCH  26  27
ENDBRANCH  25  26
ENDBRANCH  24  25
ENDBRANCH  23  24
ENDBRANCH  22  23
ENDBRANCH  21  22
ENDBRANCH  20  21
ENDBRANCH  19  20
ENDBRANCH  18  19
ENDBRANCH  17  18
ENDBRANCH   1  17
TORSDOF 26
ENDMDL
MODEL 5
REMARK VINA RESULT:    -4.802      2.939      6.991
REMARK INTER + INTRA:         -17.409
REMARK INTER:                 -12.088
REMARK INTRA:                  -5.321
REMARK UNBOUND:                -5.308
REMARK SMILES CCCCCCCCCCCCCCCCCCCCCCCCCCCC(=O)[O-]
REMARK SMILES IDX 15 1 16 2 17 3 18 4 19 5 20 6 21 7 22 8 23 9 24 10 25 11
REMARK SMILES IDX 26 12 27 13 28 14 29 15 30 16 14 17 13 18 12 19 11 20 10 21
REMARK SMILES IDX 9 22 8 23 7 24 6 25 5 26 4 27 3 28 2 29 1 30
REMARK H PARENT
REMARK Flexibility Score: inf
ROOT
ATOM      1  C   UNL     1      23.078  -2.371  36.132  1.00  0.00     0.000 C 
ENDROOT
BRANCH   1   2
ATOM      2  C   UNL     1      21.760  -2.150  35.363  1.00  0.00     0.000 C 
BRANCH   2   3
ATOM      3  C   UNL     1      21.198  -3.401  34.663  1.00  0.00     0.000 C 
BRANCH   3   4
ATOM      4  C   UNL     1      22.270  -4.477  34.432  1.00  0.00     0.000 C 
BRANCH   4   5
ATOM      5  C   UNL     1      21.649  -5.880  34.413  1.00  0.00     0.000 C 
BRANCH   5   6
ATOM      6  C   UNL     1      21.840  -6.602  33.067  1.00  0.00     0.000 C 
BRANCH   6   7
ATOM      7  C   UNL     1      22.589  -5.766  32.009  1.00  0.00     0.000 C 
BRANCH   7   8
ATOM      8  C   UNL     1      21.870  -5.774  30.648  1.00  0.00     0.000 C 
BRANCH   8   9
ATOM      9  C   UNL     1      20.346  -5.624  30.782  1.00  0.00     0.000 C 
BRANCH   9  10
ATOM     10  C   UNL     1      19.922  -4.179  31.082  1.00  0.00     0.000 C 
BRANCH  10  11
ATOM     11  C   UNL     1      18.917  -4.126  32.240  1.00  0.00     0.000 C 
BRANCH  11  12
ATOM     12  C   UNL     1      18.084  -2.831  32.261  1.00  0.00     0.006 C 
BRANCH  12  13
ATOM     13  C   UNL     1      17.930  -2.206  33.660  1.00  0.00     0.053 C 
BRANCH  13  14
ATOM     14  C   UNL     1      16.538  -1.714  33.928  1.00  0.00     0.041 C 
ATOM     15  O   UNL     1      15.951  -2.012  35.004  1.00  0.00    -0.550 OA
ATOM     16  O   UNL     1      15.898  -0.901  33.000  1.00  0.00    -0.550 OA
ENDBRANCH  13  14
ENDBRANCH  12  13
ENDBRANCH  11  12
ENDBRANCH  10  11
ENDBRANCH   9  10
ENDBRANCH   8   9
ENDBRANCH   7   8
ENDBRANCH   6   7
ENDBRANCH   5   6
ENDBRANCH   4   5
ENDBRANCH   3   4
ENDBRANCH   2   3
ENDBRANCH   1   2
BRANCH   1  17
ATOM     17  C   UNL     1      22.965  -2.302  37.666  1.00  0.00     0.000 C 
BRANCH  17  18
ATOM     18  C   UNL     1      23.012  -3.692  38.327  1.00  0.00     0.000 C 
BRANCH  18  19
ATOM     19  C   UNL     1      24.032  -4.642  37.674  1.00  0.00     0.000 C 
BRANCH  19  20
ATOM     20  C   UNL     1      23.916  -6.120  38.087  1.00  0.00     0.000 C 
BRANCH  20  21
ATOM     21  C   UNL     1      22.538  -6.729  37.790  1.00  0.00     0.000 C 
BRANCH  21  22
ATOM     22  C   UNL     1      21.745  -6.962  39.087  1.00  0.00    -0.000 C 
BRANCH  22  23
ATOM     23  C   UNL     1      20.341  -6.320  39.048  1.00  0.00    -0.000 C 
BRANCH  23  24
ATOM     24  C   UNL     1      20.082  -5.456  37.803  1.00  0.00    -0.000 C 
BRANCH  24  25
ATOM     25  C   UNL     1      18.824  -4.583  37.930  1.00  0.00    -0.000 C 
BRANCH  25  26
ATOM     26  C   UNL     1      18.228  -4.260  36.551  1.00  0.00    -0.000 C 
BRANCH  26  27
ATOM     27  C   UNL     1      18.230  -5.474  35.608  1.00  0.00    -0.000 C 
BRANCH  27  28
ATOM     28  C   UNL     1      16.816  -5.932  35.224  1.00  0.00    -0.000 C 
BRANCH  28  29
ATOM     29  C   UNL     1      16.847  -6.812  33.969  1.00  0.00    -0.003 C 
ATOM     30  C   UNL     1      18.260  -7.314  33.682  1.00  0.00     0.004 C 
ENDBRANCH  28  29
ENDBRANCH  27  28
ENDBRANCH  26  27
ENDBRANCH  25  26
ENDBRANCH  24  25
ENDBRANCH  23  24
ENDBRANCH  22  23
ENDBRANCH  21  22
ENDBRANCH  20  21
ENDBRANCH  19  20
ENDBRANCH  18  19
ENDBRANCH  17  18
ENDBRANCH   1  17
TORSDOF 26
ENDMDL
MODEL 6
REMARK VINA RESULT:    -4.790      1.435      5.219
REMARK INTER + INTRA:         -17.378
REMARK INTER:                 -12.843
REMARK INTRA:                  -4.536
REMARK UNBOUND:                -5.308
REMARK SMILES CCCCCCCCCCCCCCCCCCCCCCCCCCCC(=O)[O-]
REMARK SMILES IDX 15 1 16 2 17 3 18 4 19 5 20 6 21 7 22 8 23 9 24 10 25 11
REMARK SMILES IDX 26 12 27 13 28 14 29 15 30 16 14 17 13 18 12 19 11 20 10 21
REMARK SMILES IDX 9 22 8 23 7 24 6 25 5 26 4 27 3 28 2 29 1 30
REMARK H PARENT
REMARK Flexibility Score: inf
ROOT
ATOM      1  C   UNL     1      18.789  -2.614  33.438  1.00  0.00     0.000 C 
ENDROOT
BRANCH   1   2
ATOM      2  C   UNL     1      19.279  -1.955  34.744  1.00  0.00     0.000 C 
BRANCH   2   3
ATOM      3  C   UNL     1      20.588  -1.155  34.617  1.00  0.00     0.000 C 
BRANCH   3   4
ATOM      4  C   UNL     1      21.056  -0.575  35.960  1.00  0.00     0.000 C 
BRANCH   4   5
ATOM      5  C   UNL     1      22.575  -0.719  36.125  1.00  0.00     0.000 C 
BRANCH   5   6
ATOM      6  C   UNL     1      22.984  -2.057  36.765  1.00  0.00     0.000 C 
BRANCH   6   7
ATOM      7  C   UNL     1      23.417  -3.132  35.746  1.00  0.00     0.000 C 
BRANCH   7   8
ATOM      8  C   UNL     1      22.330  -4.202  35.534  1.00  0.00     0.000 C 
BRANCH   8   9
ATOM      9  C   UNL     1      21.314  -4.251  36.687  1.00  0.00     0.000 C 
BRANCH   9  10
ATOM     10  C   UNL     1      21.149  -5.665  37.263  1.00  0.00     0.000 C 
BRANCH  10  11
ATOM     11  C   UNL     1      21.953  -5.833  38.559  1.00  0.00     0.000 C 
BRANCH  11  12
ATOM     12  C   UNL     1      22.759  -7.143  38.607  1.00  0.00     0.006 C 
BRANCH  12  13
ATOM     13  C   UNL     1      23.688  -7.265  39.830  1.00  0.00     0.053 C 
BRANCH  13  14
ATOM     14  C   UNL     1      24.818  -6.279  39.802  1.00  0.00     0.041 C 
ATOM     15  O   UNL     1      24.809  -5.274  40.565  1.00  0.00    -0.550 OA
ATOM     16  O   UNL     1      25.899  -6.484  38.953  1.00  0.00    -0.550 OA
ENDBRANCH  13  14
ENDBRANCH  12  13
ENDBRANCH  11  12
ENDBRANCH  10  11
ENDBRANCH   9  10
ENDBRANCH   8   9
ENDBRANCH   7   8
ENDBRANCH   6   7
ENDBRANCH   5   6
ENDBRANCH   4   5
ENDBRANCH   3   4
ENDBRANCH   2   3
ENDBRANCH   1   2
BRANCH   1  17
ATOM     17  C   UNL     1      19.888  -3.261  32.575  1.00  0.00     0.000 C 
BRANCH  17  18
ATOM     18  C   UNL     1      19.318  -4.036  31.373  1.00  0.00     0.000 C 
BRANCH  18  19
ATOM     19  C   UNL     1      20.362  -4.313  30.277  1.00  0.00     0.000 C 
BRANCH  19  20
ATOM     20  C   UNL     1      20.741  -5.792  30.084  1.00  0.00     0.000 C 
BRANCH  20  21
ATOM     21  C   UNL     1      22.186  -6.110  30.494  1.00  0.00     0.000 C 
BRANCH  21  22
ATOM     22  C   UNL     1      22.410  -5.836  31.990  1.00  0.00    -0.000 C 
BRANCH  22  23
ATOM     23  C   UNL     1      22.023  -7.037  32.878  1.00  0.00    -0.000 C 
BRANCH  23  24
ATOM     24  C   UNL     1      20.691  -6.860  33.627  1.00  0.00    -0.000 C 
BRANCH  24  25
ATOM     25  C   UNL     1      19.479  -7.348  32.819  1.00  0.00    -0.000 C 
BRANCH  25  26
ATOM     26  C   UNL     1      18.237  -7.493  33.712  1.00  0.00    -0.000 C 
BRANCH  26  27
ATOM     27  C   UNL     1      17.545  -6.148  33.985  1.00  0.00    -0.000 C 
BRANCH  27  28
ATOM     28  C   UNL     1      17.689  -5.691  35.444  1.00  0.00    -0.000 C 
BRANCH  28  29
ATOM     29  C   UNL     1      16.712  -4.552  35.760  1.00  0.00    -0.003 C 
ATOM     30  C   UNL     1      17.081  -3.854  37.066  1.00  0.00     0.004 C 
ENDBRANCH  28  29
ENDBRANCH  27  28
ENDBRANCH  26  27
ENDBRANCH  25  26
ENDBRANCH  24  25
ENDBRANCH  23  24
ENDBRANCH  22  23
ENDBRANCH  21  22
ENDBRANCH  20  21
ENDBRANCH  19  20
ENDBRANCH  18  19
ENDBRANCH  17  18
ENDBRANCH   1  17
TORSDOF 26
ENDMDL
MODEL 7
REMARK VINA RESULT:    -4.772     11.797     16.173
REMARK INTER + INTRA:         -17.334
REMARK INTER:                 -11.983
REMARK INTRA:                  -5.350
REMARK UNBOUND:                -5.308
REMARK SMILES CCCCCCCCCCCCCCCCCCCCCCCCCCCC(=O)[O-]
REMARK SMILES IDX 15 1 16 2 17 3 18 4 19 5 20 6 21 7 22 8 23 9 24 10 25 11
REMARK SMILES IDX 26 12 27 13 28 14 29 15 30 16 14 17 13 18 12 19 11 20 10 21
REMARK SMILES IDX 9 22 8 23 7 24 6 25 5 26 4 27 3 28 2 29 1 30
REMARK H PARENT
REMARK Flexibility Score: inf
ROOT
ATOM      1  C   UNL     1      27.983   3.673  43.661  1.00  0.00     0.000 C 
ENDROOT
BRANCH   1   2
ATOM      2  C   UNL     1      29.374   3.270  44.191  1.00  0.00     0.000 C 
BRANCH   2   3
ATOM      3  C   UNL     1      29.731   3.840  45.575  1.00  0.00     0.000 C 
BRANCH   3   4
ATOM      4  C   UNL     1      28.630   4.751  46.140  1.00  0.00     0.000 C 
BRANCH   4   5
ATOM      5  C   UNL     1      28.547   4.636  47.667  1.00  0.00     0.000 C 
BRANCH   5   6
ATOM      6  C   UNL     1      27.108   4.757  48.200  1.00  0.00     0.000 C 
BRANCH   6   7
ATOM      7  C   UNL     1      26.031   4.260  47.214  1.00  0.00     0.000 C 
BRANCH   7   8
ATOM      8  C   UNL     1      25.683   2.777  47.433  1.00  0.00     0.000 C 
BRANCH   8   9
ATOM      9  C   UNL     1      26.026   1.902  46.216  1.00  0.00     0.000 C 
BRANCH   9  10
ATOM     10  C   UNL     1      25.012   2.062  45.074  1.00  0.00     0.000 C 
BRANCH  10  11
ATOM     11  C   UNL     1      23.578   1.833  45.570  1.00  0.00     0.000 C 
BRANCH  11  12
ATOM     12  C   UNL     1      22.543   2.728  44.866  1.00  0.00     0.006 C 
BRANCH  12  13
ATOM     13  C   UNL     1      22.315   2.376  43.384  1.00  0.00     0.053 C 
BRANCH  13  14
ATOM     14  C   UNL     1      22.038   0.917  43.168  1.00  0.00     0.041 C 
ATOM     15  O   UNL     1      22.813   0.217  42.461  1.00  0.00    -0.550 OA
ATOM     16  O   UNL     1      20.936   0.322  43.771  1.00  0.00    -0.550 OA
ENDBRANCH  13  14
ENDBRANCH  12  13
ENDBRANCH  11  12
ENDBRANCH  10  11
ENDBRANCH   9  10
ENDBRANCH   8   9
ENDBRANCH   7   8
ENDBRANCH   6   7
ENDBRANCH   5   6
ENDBRANCH   4   5
ENDBRANCH   3   4
ENDBRANCH   2   3
ENDBRANCH   1   2
BRANCH   1  17
ATOM     17  C   UNL     1      27.979   4.373  42.289  1.00  0.00     0.000 C 
BRANCH  17  18
ATOM     18  C   UNL     1      29.374   4.877  41.877  1.00  0.00     0.000 C 
BRANCH  18  19
ATOM     19  C   UNL     1      29.511   6.409  41.941  1.00  0.00     0.000 C 
BRANCH  19  20
ATOM     20  C   UNL     1      29.806   6.988  43.337  1.00  0.00     0.000 C 
BRANCH  20  21
ATOM     21  C   UNL     1      28.589   7.662  43.987  1.00  0.00     0.000 C 
BRANCH  21  22
ATOM     22  C   UNL     1      27.622   8.205  42.922  1.00  0.00    -0.000 C 
BRANCH  22  23
ATOM     23  C   UNL     1      26.189   7.656  43.085  1.00  0.00    -0.000 C 
BRANCH  23  24
ATOM     24  C   UNL     1      26.001   6.750  44.313  1.00  0.00    -0.000 C 
BRANCH  24  25
ATOM     25  C   UNL     1      24.767   5.841  44.205  1.00  0.00    -0.000 C 
BRANCH  25  26
ATOM     26  C   UNL     1      23.709   6.211  45.257  1.00  0.00    -0.000 C 
BRANCH  26  27
ATOM     27  C   UNL     1      24.136   7.401  46.131  1.00  0.00    -0.000 C 
BRANCH  27  28
ATOM     28  C   UNL     1      23.059   8.493  46.216  1.00  0.00    -0.000 C 
BRANCH  28  29
ATOM     29  C   UNL     1      23.693   9.872  46.432  1.00  0.00    -0.003 C 
ATOM     30  C   UNL     1      24.225  10.447  45.122  1.00  0.00     0.004 C 
ENDBRANCH  28  29
ENDBRANCH  27  28
ENDBRANCH  26  27
ENDBRANCH  25  26
ENDBRANCH  24  25
ENDBRANCH  23  24
ENDBRANCH  22  23
ENDBRANCH  21  22
ENDBRANCH  20  21
ENDBRANCH  19  20
ENDBRANCH  18  19
ENDBRANCH  17  18
ENDBRANCH   1  17
TORSDOF 26
ENDMDL
MODEL 8
REMARK VINA RESULT:    -4.734      2.609      6.040
REMARK INTER + INTRA:         -17.238
REMARK INTER:                 -11.898
REMARK INTRA:                  -5.340
REMARK UNBOUND:                -5.308
REMARK SMILES CCCCCCCCCCCCCCCCCCCCCCCCCCCC(=O)[O-]
REMARK SMILES IDX 15 1 16 2 17 3 18 4 19 5 20 6 21 7 22 8 23 9 24 10 25 11
REMARK SMILES IDX 26 12 27 13 28 14 29 15 30 16 14 17 13 18 12 19 11 20 10 21
REMARK SMILES IDX 9 22 8 23 7 24 6 25 5 26 4 27 3 28 2 29 1 30
REMARK H PARENT
REMARK Flexibility Score: inf
ROOT
ATOM      1  C   UNL     1      19.064  -4.655  30.982  1.00  0.00     0.000 C 
ENDROOT
BRANCH   1   2
ATOM      2  C   UNL     1      19.915  -5.461  29.980  1.00  0.00     0.000 C 
BRANCH   2   3
ATOM      3  C   UNL     1      20.914  -6.442  30.618  1.00  0.00     0.000 C 
BRANCH   3   4
ATOM      4  C   UNL     1      22.257  -5.777  30.959  1.00  0.00     0.000 C 
BRANCH   4   5
ATOM      5  C   UNL     1      22.644  -6.030  32.421  1.00  0.00     0.000 C 
BRANCH   5   6
ATOM      6  C   UNL     1      21.529  -6.722  33.225  1.00  0.00     0.000 C 
BRANCH   6   7
ATOM      7  C   UNL     1      21.050  -5.918  34.452  1.00  0.00     0.000 C 
BRANCH   7   8
ATOM      8  C   UNL     1      22.133  -5.819  35.541  1.00  0.00     0.000 C 
BRANCH   8   9
ATOM      9  C   UNL     1      21.789  -4.786  36.627  1.00  0.00     0.000 C 
BRANCH   9  10
ATOM     10  C   UNL     1      22.890  -3.730  36.802  1.00  0.00     0.000 C 
BRANCH  10  11
ATOM     11  C   UNL     1      23.100  -2.930  35.510  1.00  0.00     0.000 C 
BRANCH  11  12
ATOM     12  C   UNL     1      22.377  -1.571  35.514  1.00  0.00     0.006 C 
BRANCH  12  13
ATOM     13  C   UNL     1      22.233  -0.941  36.913  1.00  0.00     0.053 C 
BRANCH  13  14
ATOM     14  C   UNL     1      21.285   0.221  36.933  1.00  0.00     0.041 C 
ATOM     15  O   UNL     1      21.135   0.942  35.909  1.00  0.00    -0.550 OA
ATOM     16  O   UNL     1      20.544   0.493  38.077  1.00  0.00    -0.550 OA
ENDBRANCH  13  14
ENDBRANCH  12  13
ENDBRANCH  11  12
ENDBRANCH  10  11
ENDBRANCH   9  10
ENDBRANCH   8   9
ENDBRANCH   7   8
ENDBRANCH   6   7
ENDBRANCH   5   6
ENDBRANCH   4   5
ENDBRANCH   3   4
ENDBRANCH   2   3
ENDBRANCH   1   2
BRANCH   1  17
ATOM     17  C   UNL     1      19.629  -3.274  31.365  1.00  0.00     0.000 C 
BRANCH  17  18
ATOM     18  C   UNL     1      19.767  -3.093  32.888  1.00  0.00     0.000 C 
BRANCH  18  19
ATOM     19  C   UNL     1      18.569  -2.368  33.526  1.00  0.00     0.000 C 
BRANCH  19  20
ATOM     20  C   UNL     1      18.881  -1.580  34.811  1.00  0.00     0.000 C 
BRANCH  20  21
ATOM     21  C   UNL     1      17.631  -1.238  35.635  1.00  0.00     0.000 C 
BRANCH  21  22
ATOM     22  C   UNL     1      17.744  -1.790  37.065  1.00  0.00    -0.000 C 
BRANCH  22  23
ATOM     23  C   UNL     1      18.724  -2.977  37.169  1.00  0.00    -0.000 C 
BRANCH  23  24
ATOM     24  C   UNL     1      18.066  -4.298  37.602  1.00  0.00    -0.000 C 
BRANCH  24  25
ATOM     25  C   UNL     1      18.137  -5.387  36.520  1.00  0.00    -0.000 C 
BRANCH  25  26
ATOM     26  C   UNL     1      17.154  -5.099  35.375  1.00  0.00    -0.000 C 
BRANCH  26  27
ATOM     27  C   UNL     1      17.385  -6.005  34.155  1.00  0.00    -0.000 C 
BRANCH  27  28
ATOM     28  C   UNL     1      16.626  -7.337  34.250  1.00  0.00    -0.000 C 
BRANCH  28  29
ATOM     29  C   UNL     1      17.439  -8.476  33.625  1.00  0.00    -0.003 C 
ATOM     30  C   UNL     1      18.128  -8.022  32.341  1.00  0.00     0.004 C 
ENDBRANCH  28  29
ENDBRANCH  27  28
ENDBRANCH  26  27
ENDBRANCH  25  26
ENDBRANCH  24  25
ENDBRANCH  23  24
ENDBRANCH  22  23
ENDBRANCH  21  22
ENDBRANCH  20  21
ENDBRANCH  19  20
ENDBRANCH  18  19
ENDBRANCH  17  18
ENDBRANCH   1  17
TORSDOF 26
ENDMDL
MODEL 9
REMARK VINA RESULT:    -4.711      1.688      4.410
REMARK INTER + INTRA:         -17.181
REMARK INTER:                 -12.752
REMARK INTRA:                  -4.429
REMARK UNBOUND:                -5.308
REMARK SMILES CCCCCCCCCCCCCCCCCCCCCCCCCCCC(=O)[O-]
REMARK SMILES IDX 15 1 16 2 17 3 18 4 19 5 20 6 21 7 22 8 23 9 24 10 25 11
REMARK SMILES IDX 26 12 27 13 28 14 29 15 30 16 14 17 13 18 12 19 11 20 10 21
REMARK SMILES IDX 9 22 8 23 7 24 6 25 5 26 4 27 3 28 2 29 1 30
REMARK H PARENT
REMARK Flexibility Score: inf
ROOT
ATOM      1  C   UNL     1      22.627  -6.136  32.486  1.00  0.00     0.000 C 
ENDROOT
BRANCH   1   2
ATOM      2  C   UNL     1      22.251  -6.109  30.991  1.00  0.00     0.000 C 
BRANCH   2   3
ATOM      3  C   UNL     1      20.802  -6.523  30.678  1.00  0.00     0.000 C 
BRANCH   3   4
ATOM      4  C   UNL     1      20.011  -5.411  29.972  1.00  0.00     0.000 C 
BRANCH   4   5
ATOM      5  C   UNL     1      19.664  -4.277  30.946  1.00  0.00     0.000 C 
BRANCH   5   6
ATOM      6  C   UNL     1      18.195  -4.307  31.402  1.00  0.00     0.000 C 
BRANCH   6   7
ATOM      7  C   UNL     1      17.896  -5.369  32.481  1.00  0.00     0.000 C 
BRANCH   7   8
ATOM      8  C   UNL     1      17.607  -4.735  33.854  1.00  0.00     0.000 C 
BRANCH   8   9
ATOM      9  C   UNL     1      16.640  -5.578  34.703  1.00  0.00     0.000 C 
BRANCH   9  10
ATOM     10  C   UNL     1      17.240  -5.967  36.062  1.00  0.00     0.000 C 
BRANCH  10  11
ATOM     11  C   UNL     1      18.251  -4.916  36.542  1.00  0.00     0.000 C 
BRANCH  11  12
ATOM     12  C   UNL     1      18.934  -5.294  37.869  1.00  0.00     0.006 C 
BRANCH  12  13
ATOM     13  C   UNL     1      18.020  -5.171  39.102  1.00  0.00     0.053 C 
BRANCH  13  14
ATOM     14  C   UNL     1      18.068  -6.382  39.985  1.00  0.00     0.041 C 
ATOM     15  O   UNL     1      17.067  -6.708  40.680  1.00  0.00    -0.550 OA
ATOM     16  O   UNL     1      19.211  -7.172  40.020  1.00  0.00    -0.550 OA
ENDBRANCH  13  14
ENDBRANCH  12  13
ENDBRANCH  11  12
ENDBRANCH  10  11
ENDBRANCH   9  10
ENDBRANCH   8   9
ENDBRANCH   7   8
ENDBRANCH   6   7
ENDBRANCH   5   6
ENDBRANCH   4   5
ENDBRANCH   3   4
ENDBRANCH   2   3
ENDBRANCH   1   2
BRANCH   1  17
ATOM     17  C   UNL     1      21.531  -6.663  33.431  1.00  0.00     0.000 C 
BRANCH  17  18
ATOM     18  C   UNL     1      21.172  -5.657  34.540  1.00  0.00     0.000 C 
BRANCH  18  19
ATOM     19  C   UNL     1      21.821  -4.276  34.342  1.00  0.00     0.000 C 
BRANCH  19  20
ATOM     20  C   UNL     1      20.853  -3.139  33.968  1.00  0.00     0.000 C 
BRANCH  20  21
ATOM     21  C   UNL     1      20.501  -2.224  35.150  1.00  0.00     0.000 C 
BRANCH  21  22
ATOM     22  C   UNL     1      21.235  -0.877  35.045  1.00  0.00    -0.000 C 
BRANCH  22  23
ATOM     23  C   UNL     1      22.625  -0.904  35.716  1.00  0.00    -0.000 C 
BRANCH  23  24
ATOM     24  C   UNL     1      22.616  -1.449  37.153  1.00  0.00    -0.000 C 
BRANCH  24  25
ATOM     25  C   UNL     1      23.324  -2.807  37.284  1.00  0.00    -0.000 C 
BRANCH  25  26
ATOM     26  C   UNL     1      22.430  -3.834  37.995  1.00  0.00    -0.000 C 
BRANCH  26  27
ATOM     27  C   UNL     1      23.231  -5.004  38.589  1.00  0.00    -0.000 C 
BRANCH  27  28
ATOM     28  C   UNL     1      22.554  -6.364  38.364  1.00  0.00    -0.000 C 
BRANCH  28  29
ATOM     29  C   UNL     1      22.686  -7.254  39.605  1.00  0.00    -0.003 C 
ATOM     30  C   UNL     1      24.152  -7.492  39.958  1.00  0.00     0.004 C 
ENDBRANCH  28  29
ENDBRANCH  27  28
ENDBRANCH  26  27
ENDBRANCH  25  26
ENDBRANCH  24  25
ENDBRANCH  23  24
ENDBRANCH  22  23
ENDBRANCH  21  22
ENDBRANCH  20  21
ENDBRANCH  19  20
ENDBRANCH  18  19
ENDBRANCH  17  18
ENDBRANCH   1  17
TORSDOF 26
ENDMDL
