MODEL 1
REMARK VINA RESULT:    -6.438      0.000      0.000
REMARK INTER + INTRA:         -14.855
REMARK INTER:                 -12.083
REMARK INTRA:                  -2.773
REMARK UNBOUND:                -2.773
REMARK SMILES CCCCCCCCC=CCCCCCCCC(=O)[O-]
REMARK SMILES IDX 10 1 9 2 11 3 12 4 13 5 14 6 15 7 16 8 17 9 18 10 19 11
REMARK SMILES IDX 20 12 8 13 7 14 6 15 5 16 4 17 3 18 2 19 1 20
REMARK H PARENT
REMARK Flexibility Score: inf
ROOT
ATOM      1  C   UNL     1     -19.122 -10.332  -0.979  1.00  0.00    -0.031 C 
ATOM      2  C   UNL     1     -18.863  -9.093  -0.525  1.00  0.00    -0.031 C 
ENDROOT
BRANCH   1   3
ATOM      3  C   UNL     1     -18.921 -11.599  -0.182  1.00  0.00     0.027 C 
BRANCH   3   4
ATOM      4  C   UNL     1     -19.304 -12.848  -0.989  1.00  0.00     0.004 C 
BRANCH   4   5
ATOM      5  C   UNL     1     -18.787 -12.781  -2.437  1.00  0.00     0.000 C 
BRANCH   5   6
ATOM      6  C   UNL     1     -18.088 -14.078  -2.878  1.00  0.00     0.000 C 
BRANCH   6   7
ATOM      7  C   UNL     1     -16.561 -14.014  -2.721  1.00  0.00     0.000 C 
BRANCH   7   8
ATOM      8  C   UNL     1     -16.105 -14.796  -1.480  1.00  0.00     0.006 C 
BRANCH   8   9
ATOM      9  C   UNL     1     -15.979 -13.898  -0.242  1.00  0.00     0.053 C 
BRANCH   9  10
ATOM     10  C   UNL     1     -14.556 -13.502   0.015  1.00  0.00     0.041 C 
ATOM     11  O   UNL     1     -13.667 -13.737  -0.847  1.00  0.00    -0.550 OA
ATOM     12  O   UNL     1     -14.210 -12.887   1.210  1.00  0.00    -0.550 OA
ENDBRANCH   9  10
ENDBRANCH   8   9
ENDBRANCH   7   8
ENDBRANCH   6   7
ENDBRANCH   5   6
ENDBRANCH   4   5
ENDBRANCH   3   4
ENDBRANCH   1   3
BRANCH   2  13
ATOM     13  C   UNL     1     -18.233  -8.784   0.812  1.00  0.00     0.027 C 
BRANCH  13  14
ATOM     14  C   UNL     1     -16.821  -8.202   0.655  1.00  0.00     0.004 C 
BRANCH  14  15
ATOM     15  C   UNL     1     -15.770  -9.295   0.400  1.00  0.00     0.000 C 
BRANCH  15  16
ATOM     16  C   UNL     1     -15.137  -9.201  -0.998  1.00  0.00     0.000 C 
BRANCH  16  17
ATOM     17  C   UNL     1     -15.413 -10.437  -1.883  1.00  0.00    -0.000 C 
BRANCH  17  18
ATOM     18  C   UNL     1     -16.249 -10.084  -3.125  1.00  0.00    -0.000 C 
BRANCH  18  19
ATOM     19  C   UNL     1     -16.469  -8.571  -3.278  1.00  0.00    -0.003 C 
ATOM     20  C   UNL     1     -16.530  -8.131  -4.740  1.00  0.00     0.004 C 
ENDBRANCH  18  19
ENDBRANCH  17  18
ENDBRANCH  16  17
ENDBRANCH  15  16
ENDBRANCH  14  15
ENDBRANCH  13  14
ENDBRANCH   2  13
TORSDOF 15
ENDMDL
MODEL 2
REMARK VINA RESULT:    -6.385      2.388      5.586
REMARK INTER + INTRA:         -14.757
REMARK INTER:                 -11.978
REMARK INTRA:                  -2.778
REMARK UNBOUND:                -2.773
REMARK SMILES CCCCCCCCC=CCCCCCCCC(=O)[O-]
REMARK SMILES IDX 10 1 9 2 11 3 12 4 13 5 14 6 15 7 16 8 17 9 18 10 19 11
REMARK SMILES IDX 20 12 8 13 7 14 6 15 5 16 4 17 3 18 2 19 1 20
REMARK H PARENT
REMARK Flexibility Score: inf
ROOT
ATOM      1  C   UNL     1     -19.022 -11.727  -0.347  1.00  0.00    -0.031 C 
ATOM      2  C   UNL     1     -19.095 -12.914  -0.978  1.00  0.00    -0.031 C 
ENDROOT
BRANCH   1   3
ATOM      3  C   UNL     1     -18.636 -10.426  -1.008  1.00  0.00     0.027 C 
BRANCH   3   4
ATOM      4  C   UNL     1     -19.148  -9.211  -0.219  1.00  0.00     0.004 C 
BRANCH   4   5
ATOM      5  C   UNL     1     -18.113  -8.708   0.803  1.00  0.00     0.000 C 
BRANCH   5   6
ATOM      6  C   UNL     1     -16.665  -8.923   0.334  1.00  0.00     0.000 C 
BRANCH   6   7
ATOM      7  C   UNL     1     -16.037  -7.654  -0.262  1.00  0.00     0.000 C 
BRANCH   7   8
ATOM      8  C   UNL     1     -15.504  -7.919  -1.677  1.00  0.00     0.006 C 
BRANCH   8   9
ATOM      9  C   UNL     1     -16.627  -8.258  -2.667  1.00  0.00     0.053 C 
BRANCH   9  10
ATOM     10  C   UNL     1     -16.098  -8.487  -4.050  1.00  0.00     0.041 C 
ATOM     11  O   UNL     1     -15.067  -9.190  -4.227  1.00  0.00    -0.550 OA
ATOM     12  O   UNL     1     -16.735  -7.914  -5.143  1.00  0.00    -0.550 OA
ENDBRANCH   9  10
ENDBRANCH   8   9
ENDBRANCH   7   8
ENDBRANCH   6   7
ENDBRANCH   5   6
ENDBRANCH   4   5
ENDBRANCH   3   4
ENDBRANCH   1   3
BRANCH   2  13
ATOM     13  C   UNL     1     -18.702 -13.145  -2.417  1.00  0.00     0.027 C 
BRANCH  13  14
ATOM     14  C   UNL     1     -17.698 -14.299  -2.554  1.00  0.00     0.004 C 
BRANCH  14  15
ATOM     15  C   UNL     1     -16.273 -13.794  -2.837  1.00  0.00     0.000 C 
BRANCH  15  16
ATOM     16  C   UNL     1     -16.180 -12.259  -2.875  1.00  0.00     0.000 C 
BRANCH  16  17
ATOM     17  C   UNL     1     -15.281 -11.670  -1.767  1.00  0.00    -0.000 C 
BRANCH  17  18
ATOM     18  C   UNL     1     -14.871 -12.729  -0.730  1.00  0.00    -0.000 C 
BRANCH  18  19
ATOM     19  C   UNL     1     -15.630 -12.579   0.598  1.00  0.00    -0.003 C 
ATOM     20  C   UNL     1     -15.680 -13.880   1.397  1.00  0.00     0.004 C 
ENDBRANCH  18  19
ENDBRANCH  17  18
ENDBRANCH  16  17
ENDBRANCH  15  16
ENDBRANCH  14  15
ENDBRANCH  13  14
ENDBRANCH   2  13
TORSDOF 15
ENDMDL
MODEL 3
REMARK VINA RESULT:    -6.353      2.333      5.384
REMARK INTER + INTRA:         -14.697
REMARK INTER:                 -11.821
REMARK INTRA:                  -2.875
REMARK UNBOUND:                -2.773
REMARK SMILES CCCCCCCCC=CCCCCCCCC(=O)[O-]
REMARK SMILES IDX 10 1 9 2 11 3 12 4 13 5 14 6 15 7 16 8 17 9 18 10 19 11
REMARK SMILES IDX 20 12 8 13 7 14 6 15 5 16 4 17 3 18 2 19 1 20
REMARK H PARENT
REMARK Flexibility Score: inf
ROOT
ATOM      1  C   UNL     1     -19.003  -9.131  -0.312  1.00  0.00    -0.031 C 
ATOM      2  C   UNL     1     -19.163 -10.311  -0.939  1.00  0.00    -0.031 C 
ENDROOT
BRANCH   1   3
ATOM      3  C   UNL     1     -18.254  -8.942   0.986  1.00  0.00     0.027 C 
BRANCH   3   4
ATOM      4  C   UNL     1     -17.240  -7.792   0.897  1.00  0.00     0.004 C 
BRANCH   4   5
ATOM      5  C   UNL     1     -15.788  -8.301   0.900  1.00  0.00     0.000 C 
BRANCH   5   6
ATOM      6  C   UNL     1     -15.635  -9.660   0.198  1.00  0.00     0.000 C 
BRANCH   6   7
ATOM      7  C   UNL     1     -14.778  -9.580  -1.074  1.00  0.00     0.000 C 
BRANCH   7   8
ATOM      8  C   UNL     1     -15.042  -8.270  -1.831  1.00  0.00     0.006 C 
BRANCH   8   9
ATOM      9  C   UNL     1     -16.319  -8.336  -2.679  1.00  0.00     0.053 C 
BRANCH   9  10
ATOM     10  C   UNL     1     -16.019  -8.661  -4.111  1.00  0.00     0.041 C 
ATOM     11  O   UNL     1     -15.134  -9.513  -4.397  1.00  0.00    -0.550 OA
ATOM     12  O   UNL     1     -16.706  -8.015  -5.130  1.00  0.00    -0.550 OA
ENDBRANCH   9  10
ENDBRANCH   8   9
ENDBRANCH   7   8
ENDBRANCH   6   7
ENDBRANCH   5   6
ENDBRANCH   4   5
ENDBRANCH   3   4
ENDBRANCH   1   3
BRANCH   2  13
ATOM     13  C   UNL     1     -18.709 -11.642  -0.389  1.00  0.00     0.027 C 
BRANCH  13  14
ATOM     14  C   UNL     1     -18.226 -12.583  -1.502  1.00  0.00     0.004 C 
BRANCH  14  15
ATOM     15  C   UNL     1     -17.274 -11.878  -2.482  1.00  0.00     0.000 C 
BRANCH  15  16
ATOM     16  C   UNL     1     -16.011 -12.703  -2.784  1.00  0.00     0.000 C 
BRANCH  16  17
ATOM     17  C   UNL     1     -15.736 -13.811  -1.744  1.00  0.00    -0.000 C 
BRANCH  17  18
ATOM     18  C   UNL     1     -14.381 -13.621  -1.042  1.00  0.00    -0.000 C 
BRANCH  18  19
ATOM     19  C   UNL     1     -14.533 -13.203   0.429  1.00  0.00    -0.003 C 
ATOM     20  C   UNL     1     -15.763 -13.822   1.092  1.00  0.00     0.004 C 
ENDBRANCH  18  19
ENDBRANCH  17  18
ENDBRANCH  16  17
ENDBRANCH  15  16
ENDBRANCH  14  15
ENDBRANCH  13  14
ENDBRANCH   2  13
TORSDOF 15
ENDMDL
MODEL 4
REMARK VINA RESULT:    -6.143      1.013      2.146
REMARK INTER + INTRA:         -14.303
REMARK INTER:                 -12.128
REMARK INTRA:                  -2.174
REMARK UNBOUND:                -2.773
REMARK SMILES CCCCCCCCC=CCCCCCCCC(=O)[O-]
REMARK SMILES IDX 10 1 9 2 11 3 12 4 13 5 14 6 15 7 16 8 17 9 18 10 19 11
REMARK SMILES IDX 20 12 8 13 7 14 6 15 5 16 4 17 3 18 2 19 1 20
REMARK H PARENT
REMARK Flexibility Score: inf
ROOT
ATOM      1  C   UNL     1     -19.079 -12.416  -0.933  1.00  0.00    -0.031 C 
ATOM      2  C   UNL     1     -19.258 -11.245  -0.294  1.00  0.00    -0.031 C 
ENDROOT
BRANCH   1   3
ATOM      3  C   UNL     1     -18.816 -12.556  -2.413  1.00  0.00     0.027 C 
BRANCH   3   4
ATOM      4  C   UNL     1     -18.914 -14.017  -2.875  1.00  0.00     0.004 C 
BRANCH   4   5
ATOM      5  C   UNL     1     -17.531 -14.683  -2.983  1.00  0.00     0.000 C 
BRANCH   5   6
ATOM      6  C   UNL     1     -16.392 -13.662  -3.135  1.00  0.00     0.000 C 
BRANCH   6   7
ATOM      7  C   UNL     1     -15.470 -13.612  -1.907  1.00  0.00     0.000 C 
BRANCH   7   8
ATOM      8  C   UNL     1     -16.012 -14.501  -0.778  1.00  0.00     0.006 C 
BRANCH   8   9
ATOM      9  C   UNL     1     -16.419 -13.688   0.458  1.00  0.00     0.053 C 
BRANCH   9  10
ATOM     10  C   UNL     1     -15.347 -13.693   1.505  1.00  0.00     0.041 C 
ATOM     11  O   UNL     1     -15.484 -14.384   2.550  1.00  0.00    -0.550 OA
ATOM     12  O   UNL     1     -14.203 -12.925   1.334  1.00  0.00    -0.550 OA
ENDBRANCH   9  10
ENDBRANCH   8   9
ENDBRANCH   7   8
ENDBRANCH   6   7
ENDBRANCH   5   6
ENDBRANCH   4   5
ENDBRANCH   3   4
ENDBRANCH   1   3
BRANCH   2  13
ATOM     13  C   UNL     1     -19.329  -9.900  -0.975  1.00  0.00     0.027 C 
BRANCH  13  14
ATOM     14  C   UNL     1     -19.077  -8.749   0.010  1.00  0.00     0.004 C 
BRANCH  14  15
ATOM     15  C   UNL     1     -17.858  -9.014   0.909  1.00  0.00     0.000 C 
BRANCH  15  16
ATOM     16  C   UNL     1     -16.678  -8.075   0.608  1.00  0.00     0.000 C 
BRANCH  16  17
ATOM     17  C   UNL     1     -15.802  -8.546  -0.573  1.00  0.00    -0.000 C 
BRANCH  17  18
ATOM     18  C   UNL     1     -15.977  -7.657  -1.815  1.00  0.00    -0.000 C 
BRANCH  18  19
ATOM     19  C   UNL     1     -16.627  -8.405  -2.989  1.00  0.00    -0.003 C 
ATOM     20  C   UNL     1     -16.276  -9.893  -3.004  1.00  0.00     0.004 C 
ENDBRANCH  18  19
ENDBRANCH  17  18
ENDBRANCH  16  17
ENDBRANCH  15  16
ENDBRANCH  14  15
ENDBRANCH  13  14
ENDBRANCH   2  13
TORSDOF 15
ENDMDL
MODEL 5
REMARK VINA RESULT:    -6.067      2.016      2.714
REMARK INTER + INTRA:         -14.160
REMARK INTER:                 -11.543
REMARK INTRA:                  -2.616
REMARK UNBOUND:                -2.773
REMARK SMILES CCCCCCCCC=CCCCCCCCC(=O)[O-]
REMARK SMILES IDX 10 1 9 2 11 3 12 4 13 5 14 6 15 7 16 8 17 9 18 10 19 11
REMARK SMILES IDX 20 12 8 13 7 14 6 15 5 16 4 17 3 18 2 19 1 20
REMARK H PARENT
REMARK Flexibility Score: inf
ROOT
ATOM      1  C   UNL     1     -18.915  -9.041   0.331  1.00  0.00    -0.031 C 
ATOM      2  C   UNL     1     -18.146  -8.343   1.186  1.00  0.00    -0.031 C 
ENDROOT
BRANCH   1   3
ATOM      3  C   UNL     1     -18.594  -9.264  -1.127  1.00  0.00     0.027 C 
BRANCH   3   4
ATOM      4  C   UNL     1     -18.371 -10.751  -1.442  1.00  0.00     0.004 C 
BRANCH   4   5
ATOM      5  C   UNL     1     -18.341 -11.613  -0.168  1.00  0.00     0.000 C 
BRANCH   5   6
ATOM      6  C   UNL     1     -16.947 -12.191   0.125  1.00  0.00     0.000 C 
BRANCH   6   7
ATOM      7  C   UNL     1     -16.104 -12.384  -1.145  1.00  0.00     0.000 C 
BRANCH   7   8
ATOM      8  C   UNL     1     -15.600 -13.831  -1.254  1.00  0.00     0.006 C 
BRANCH   8   9
ATOM      9  C   UNL     1     -16.712 -14.804  -1.668  1.00  0.00     0.053 C 
BRANCH   9  10
ATOM     10  C   UNL     1     -17.496 -14.288  -2.836  1.00  0.00     0.041 C 
ATOM     11  O   UNL     1     -18.738 -14.100  -2.733  1.00  0.00    -0.550 OA
ATOM     12  O   UNL     1     -16.859 -14.027  -4.041  1.00  0.00    -0.550 OA
ENDBRANCH   9  10
ENDBRANCH   8   9
ENDBRANCH   7   8
ENDBRANCH   6   7
ENDBRANCH   5   6
ENDBRANCH   4   5
ENDBRANCH   3   4
ENDBRANCH   1   3
BRANCH   2  13
ATOM     13  C   UNL     1     -16.899  -7.586   0.796  1.00  0.00     0.027 C 
BRANCH  13  14
ATOM     14  C   UNL     1     -15.626  -8.373   1.138  1.00  0.00     0.004 C 
BRANCH  14  15
ATOM     15  C   UNL     1     -15.032  -9.076  -0.093  1.00  0.00     0.000 C 
BRANCH  15  16
ATOM     16  C   UNL     1     -14.966  -8.163  -1.328  1.00  0.00     0.000 C 
BRANCH  16  17
ATOM     17  C   UNL     1     -14.148  -8.761  -2.493  1.00  0.00    -0.000 C 
BRANCH  17  18
ATOM     18  C   UNL     1     -15.042  -9.188  -3.669  1.00  0.00    -0.000 C 
BRANCH  18  19
ATOM     19  C   UNL     1     -16.388  -8.447  -3.686  1.00  0.00    -0.003 C 
ATOM     20  C   UNL     1     -16.731  -7.881  -5.063  1.00  0.00     0.004 C 
ENDBRANCH  18  19
ENDBRANCH  17  18
ENDBRANCH  16  17
ENDBRANCH  15  16
ENDBRANCH  14  15
ENDBRANCH  13  14
ENDBRANCH   2  13
TORSDOF 15
ENDMDL
MODEL 6
REMARK VINA RESULT:    -6.008      1.054      4.098
REMARK INTER + INTRA:         -14.049
REMARK INTER:                 -11.441
REMARK INTRA:                  -2.608
REMARK UNBOUND:                -2.773
REMARK SMILES CCCCCCCCC=CCCCCCCCC(=O)[O-]
REMARK SMILES IDX 10 1 9 2 11 3 12 4 13 5 14 6 15 7 16 8 17 9 18 10 19 11
REMARK SMILES IDX 20 12 8 13 7 14 6 15 5 16 4 17 3 18 2 19 1 20
REMARK H PARENT
REMARK Flexibility Score: inf
ROOT
ATOM      1  C   UNL     1     -16.395  -7.439   0.778  1.00  0.00    -0.031 C 
ATOM      2  C   UNL     1     -17.543  -7.985   1.218  1.00  0.00    -0.031 C 
ENDROOT
BRANCH   1   3
ATOM      3  C   UNL     1     -15.531  -8.020  -0.315  1.00  0.00     0.027 C 
BRANCH   3   4
ATOM      4  C   UNL     1     -16.019  -7.602  -1.711  1.00  0.00     0.004 C 
BRANCH   4   5
ATOM      5  C   UNL     1     -15.509  -8.551  -2.809  1.00  0.00     0.000 C 
BRANCH   5   6
ATOM      6  C   UNL     1     -16.486  -9.702  -3.100  1.00  0.00     0.000 C 
BRANCH   6   7
ATOM      7  C   UNL     1     -15.863 -11.086  -2.868  1.00  0.00     0.000 C 
BRANCH   7   8
ATOM      8  C   UNL     1     -14.901 -11.060  -1.671  1.00  0.00     0.006 C 
BRANCH   8   9
ATOM      9  C   UNL     1     -15.507 -11.715  -0.423  1.00  0.00     0.053 C 
BRANCH   9  10
ATOM     10  C   UNL     1     -14.836 -13.015  -0.096  1.00  0.00     0.041 C 
ATOM     11  O   UNL     1     -14.565 -13.837  -1.012  1.00  0.00    -0.550 OA
ATOM     12  O   UNL     1     -14.522 -13.325   1.220  1.00  0.00    -0.550 OA
ENDBRANCH   9  10
ENDBRANCH   8   9
ENDBRANCH   7   8
ENDBRANCH   6   7
ENDBRANCH   5   6
ENDBRANCH   4   5
ENDBRANCH   3   4
ENDBRANCH   1   3
BRANCH   2  13
ATOM     13  C   UNL     1     -18.090  -9.315   0.760  1.00  0.00     0.027 C 
BRANCH  13  14
ATOM     14  C   UNL     1     -19.091  -9.153  -0.393  1.00  0.00     0.004 C 
BRANCH  14  15
ATOM     15  C   UNL     1     -19.321 -10.472  -1.148  1.00  0.00     0.000 C 
BRANCH  15  16
ATOM     16  C   UNL     1     -19.288 -11.702  -0.226  1.00  0.00     0.000 C 
BRANCH  16  17
ATOM     17  C   UNL     1     -18.703 -12.962  -0.901  1.00  0.00    -0.000 C 
BRANCH  17  18
ATOM     18  C   UNL     1     -18.809 -12.899  -2.434  1.00  0.00    -0.000 C 
BRANCH  18  19
ATOM     19  C   UNL     1     -18.690 -14.283  -3.090  1.00  0.00    -0.003 C 
ATOM     20  C   UNL     1     -17.252 -14.803  -3.110  1.00  0.00     0.004 C 
ENDBRANCH  18  19
ENDBRANCH  17  18
ENDBRANCH  16  17
ENDBRANCH  15  16
ENDBRANCH  14  15
ENDBRANCH  13  14
ENDBRANCH   2  13
TORSDOF 15
ENDMDL
MODEL 7
REMARK VINA RESULT:    -6.006      1.112      3.200
REMARK INTER + INTRA:         -14.046
REMARK INTER:                 -11.659
REMARK INTRA:                  -2.387
REMARK UNBOUND:                -2.773
REMARK SMILES CCCCCCCCC=CCCCCCCCC(=O)[O-]
REMARK SMILES IDX 10 1 9 2 11 3 12 4 13 5 14 6 15 7 16 8 17 9 18 10 19 11
REMARK SMILES IDX 20 12 8 13 7 14 6 15 5 16 4 17 3 18 2 19 1 20
REMARK H PARENT
REMARK Flexibility Score: inf
ROOT
ATOM      1  C   UNL     1     -16.370  -9.073  -3.525  1.00  0.00    -0.031 C 
ATOM      2  C   UNL     1     -16.450  -8.012  -2.702  1.00  0.00    -0.031 C 
ENDROOT
BRANCH   1   3
ATOM      3  C   UNL     1     -15.272 -10.110  -3.486  1.00  0.00     0.027 C 
BRANCH   3   4
ATOM      4  C   UNL     1     -15.607 -11.259  -2.523  1.00  0.00     0.004 C 
BRANCH   4   5
ATOM      5  C   UNL     1     -15.912 -12.568  -3.271  1.00  0.00     0.000 C 
BRANCH   5   6
ATOM      6  C   UNL     1     -17.143 -13.299  -2.709  1.00  0.00     0.000 C 
BRANCH   6   7
ATOM      7  C   UNL     1     -16.829 -14.734  -2.259  1.00  0.00     0.000 C 
BRANCH   7   8
ATOM      8  C   UNL     1     -15.909 -14.734  -1.030  1.00  0.00     0.006 C 
BRANCH   8   9
ATOM      9  C   UNL     1     -16.472 -13.886   0.118  1.00  0.00     0.053 C 
BRANCH   9  10
ATOM     10  C   UNL     1     -15.442 -13.628   1.176  1.00  0.00     0.041 C 
ATOM     11  O   UNL     1     -14.475 -12.853   0.944  1.00  0.00    -0.550 OA
ATOM     12  O   UNL     1     -15.541 -14.253   2.412  1.00  0.00    -0.550 OA
ENDBRANCH   9  10
ENDBRANCH   8   9
ENDBRANCH   7   8
ENDBRANCH   6   7
ENDBRANCH   5   6
ENDBRANCH   4   5
ENDBRANCH   3   4
ENDBRANCH   1   3
BRANCH   2  13
ATOM     13  C   UNL     1     -15.401  -7.636  -1.684  1.00  0.00     0.027 C 
BRANCH  13  14
ATOM     14  C   UNL     1     -15.952  -7.689  -0.251  1.00  0.00     0.004 C 
BRANCH  14  15
ATOM     15  C   UNL     1     -15.595  -9.007   0.456  1.00  0.00     0.000 C 
BRANCH  15  16
ATOM     16  C   UNL     1     -16.744 -10.028   0.432  1.00  0.00     0.000 C 
BRANCH  16  17
ATOM     17  C   UNL     1     -18.129  -9.403   0.710  1.00  0.00    -0.000 C 
BRANCH  17  18
ATOM     18  C   UNL     1     -18.978  -9.288  -0.567  1.00  0.00    -0.000 C 
BRANCH  18  19
ATOM     19  C   UNL     1     -19.102 -10.624  -1.315  1.00  0.00    -0.003 C 
ATOM     20  C   UNL     1     -19.474 -11.784  -0.391  1.00  0.00     0.004 C 
ENDBRANCH  18  19
ENDBRANCH  17  18
ENDBRANCH  16  17
ENDBRANCH  15  16
ENDBRANCH  14  15
ENDBRANCH  13  14
ENDBRANCH   2  13
TORSDOF 15
ENDMDL
MODEL 8
REMARK VINA RESULT:    -5.997      2.460      5.295
REMARK INTER + INTRA:         -14.029
REMARK INTER:                 -11.062
REMARK INTRA:                  -2.967
REMARK UNBOUND:                -2.773
REMARK SMILES CCCCCCCCC=CCCCCCCCC(=O)[O-]
REMARK SMILES IDX 10 1 9 2 11 3 12 4 13 5 14 6 15 7 16 8 17 9 18 10 19 11
REMARK SMILES IDX 20 12 8 13 7 14 6 15 5 16 4 17 3 18 2 19 1 20
REMARK H PARENT
REMARK Flexibility Score: inf
ROOT
ATOM      1  C   UNL     1     -16.146 -14.420  -2.576  1.00  0.00    -0.031 C 
ATOM      2  C   UNL     1     -17.134 -13.934  -3.350  1.00  0.00    -0.031 C 
ENDROOT
BRANCH   1   3
ATOM      3  C   UNL     1     -16.335 -14.954  -1.177  1.00  0.00     0.027 C 
BRANCH   3   4
ATOM      4  C   UNL     1     -15.790 -13.984  -0.118  1.00  0.00     0.004 C 
BRANCH   4   5
ATOM      5  C   UNL     1     -14.878 -12.909  -0.734  1.00  0.00     0.000 C 
BRANCH   5   6
ATOM      6  C   UNL     1     -15.289 -11.482  -0.333  1.00  0.00     0.000 C 
BRANCH   6   7
ATOM      7  C   UNL     1     -14.899 -10.433  -1.385  1.00  0.00     0.000 C 
BRANCH   7   8
ATOM      8  C   UNL     1     -15.880 -10.450  -2.566  1.00  0.00     0.006 C 
BRANCH   8   9
ATOM      9  C   UNL     1     -15.376  -9.618  -3.753  1.00  0.00     0.053 C 
BRANCH   9  10
ATOM     10  C   UNL     1     -16.203  -8.385  -3.959  1.00  0.00     0.041 C 
ATOM     11  O   UNL     1     -16.552  -7.682  -2.972  1.00  0.00    -0.550 OA
ATOM     12  O   UNL     1     -16.601  -8.019  -5.238  1.00  0.00    -0.550 OA
ENDBRANCH   9  10
ENDBRANCH   8   9
ENDBRANCH   7   8
ENDBRANCH   6   7
ENDBRANCH   5   6
ENDBRANCH   4   5
ENDBRANCH   3   4
ENDBRANCH   1   3
BRANCH   2  13
ATOM     13  C   UNL     1     -18.563 -13.748  -2.899  1.00  0.00     0.027 C 
BRANCH  13  14
ATOM     14  C   UNL     1     -18.771 -12.392  -2.210  1.00  0.00     0.004 C 
BRANCH  14  15
ATOM     15  C   UNL     1     -19.055 -12.545  -0.707  1.00  0.00     0.000 C 
BRANCH  15  16
ATOM     16  C   UNL     1     -18.917 -11.222   0.065  1.00  0.00     0.000 C 
BRANCH  16  17
ATOM     17  C   UNL     1     -19.295  -9.980  -0.771  1.00  0.00    -0.000 C 
BRANCH  17  18
ATOM     18  C   UNL     1     -18.337  -8.803  -0.524  1.00  0.00    -0.000 C 
BRANCH  18  19
ATOM     19  C   UNL     1     -17.777  -8.789   0.907  1.00  0.00    -0.003 C 
ATOM     20  C   UNL     1     -16.471  -8.003   1.019  1.00  0.00     0.004 C 
ENDBRANCH  18  19
ENDBRANCH  17  18
ENDBRANCH  16  17
ENDBRANCH  15  16
ENDBRANCH  14  15
ENDBRANCH  13  14
ENDBRANCH   2  13
TORSDOF 15
ENDMDL
MODEL 9
REMARK VINA RESULT:    -5.888      2.205      5.152
REMARK INTER + INTRA:         -13.825
REMARK INTER:                 -11.015
REMARK INTRA:                  -2.810
REMARK UNBOUND:                -2.773
REMARK SMILES CCCCCCCCC=CCCCCCCCC(=O)[O-]
REMARK SMILES IDX 10 1 9 2 11 3 12 4 13 5 14 6 15 7 16 8 17 9 18 10 19 11
REMARK SMILES IDX 20 12 8 13 7 14 6 15 5 16 4 17 3 18 2 19 1 20
REMARK H PARENT
REMARK Flexibility Score: inf
ROOT
ATOM      1  C   UNL     1     -18.938 -11.633  -0.743  1.00  0.00    -0.031 C 
ATOM      2  C   UNL     1     -18.252 -12.547  -0.033  1.00  0.00    -0.031 C 
ENDROOT
BRANCH   1   3
ATOM      3  C   UNL     1     -18.363 -10.333  -1.252  1.00  0.00     0.027 C 
BRANCH   3   4
ATOM      4  C   UNL     1     -18.918  -9.124  -0.484  1.00  0.00     0.004 C 
BRANCH   4   5
ATOM      5  C   UNL     1     -18.215  -8.928   0.871  1.00  0.00     0.000 C 
BRANCH   5   6
ATOM      6  C   UNL     1     -17.159  -7.811   0.836  1.00  0.00     0.000 C 
BRANCH   6   7
ATOM      7  C   UNL     1     -15.791  -8.301   0.338  1.00  0.00     0.000 C 
BRANCH   7   8
ATOM      8  C   UNL     1     -15.526  -7.823  -1.097  1.00  0.00     0.006 C 
BRANCH   8   9
ATOM      9  C   UNL     1     -14.918  -8.925  -1.974  1.00  0.00     0.053 C 
BRANCH   9  10
ATOM     10  C   UNL     1     -15.492  -8.913  -3.359  1.00  0.00     0.041 C 
ATOM     11  O   UNL     1     -16.502  -8.206  -3.622  1.00  0.00    -0.550 OA
ATOM     12  O   UNL     1     -14.920  -9.692  -4.356  1.00  0.00    -0.550 OA
ENDBRANCH   9  10
ENDBRANCH   8   9
ENDBRANCH   7   8
ENDBRANCH   6   7
ENDBRANCH   5   6
ENDBRANCH   4   5
ENDBRANCH   3   4
ENDBRANCH   1   3
BRANCH   2  13
ATOM     13  C   UNL     1     -16.835 -12.367   0.454  1.00  0.00     0.027 C 
BRANCH  13  14
ATOM     14  C   UNL     1     -16.059 -13.692   0.450  1.00  0.00     0.004 C 
BRANCH  14  15
ATOM     15  C   UNL     1     -14.752 -13.594  -0.353  1.00  0.00     0.000 C 
BRANCH  15  16
ATOM     16  C   UNL     1     -14.833 -12.577  -1.504  1.00  0.00     0.000 C 
BRANCH  16  17
ATOM     17  C   UNL     1     -15.131 -13.221  -2.875  1.00  0.00    -0.000 C 
BRANCH  17  18
ATOM     18  C   UNL     1     -16.620 -13.126  -3.248  1.00  0.00    -0.000 C 
BRANCH  18  19
ATOM     19  C   UNL     1     -17.364 -14.455  -3.051  1.00  0.00    -0.003 C 
ATOM     20  C   UNL     1     -18.878 -14.310  -3.200  1.00  0.00     0.004 C 
ENDBRANCH  18  19
ENDBRANCH  17  18
ENDBRANCH  16  17
ENDBRANCH  15  16
ENDBRANCH  14  15
ENDBRANCH  13  14
ENDBRANCH   2  13
TORSDOF 15
ENDMDL
