MODEL 1
REMARK VINA RESULT:    -4.558      0.000      0.000
REMARK INTER + INTRA:          -5.017
REMARK INTER:                  -4.825
REMARK INTRA:                  -0.192
REMARK UNBOUND:                -0.192
REMARK SMILES CC1=CC[C@H](C(C)C)C=C1
REMARK SMILES IDX 1 1 2 2 3 3 4 4 5 5 9 6 10 7 6 8 7 9 8 10
REMARK H PARENT
REMARK Flexibility Score: inf
ROOT
ATOM      1  C   UNL     1     180.369 176.636 179.733  1.00  0.00     0.044 C 
ATOM      2  C   UNL     1     180.559 175.875 178.455  1.00  0.00    -0.055 C 
ATOM      3  C   UNL     1     181.485 176.267 177.565  1.00  0.00    -0.023 C 
ATOM      4  C   UNL     1     181.634 175.551 176.249  1.00  0.00     0.035 C 
ATOM      5  C   UNL     1     181.383 174.031 176.418  1.00  0.00     0.018 C 
ATOM      6  C   UNL     1     180.129 173.794 177.233  1.00  0.00    -0.023 C 
ATOM      7  C   UNL     1     179.785 174.635 178.214  1.00  0.00    -0.001 C 
ENDROOT
BRANCH   5   8
ATOM      8  C   UNL     1     181.353 173.240 175.078  1.00  0.00    -0.010 C 
ATOM      9  C   UNL     1     181.072 174.159 173.880  1.00  0.00     0.008 C 
ATOM     10  C   UNL     1     180.370 172.057 175.085  1.00  0.00     0.008 C 
ENDBRANCH   5   8
TORSDOF 1
ENDMDL
MODEL 2
REMARK VINA RESULT:    -4.547      5.768      6.621
REMARK INTER + INTRA:          -5.005
REMARK INTER:                  -4.813
REMARK INTRA:                  -0.192
REMARK UNBOUND:                -0.192
REMARK SMILES CC1=CC[C@H](C(C)C)C=C1
REMARK SMILES IDX 1 1 2 2 3 3 4 4 5 5 9 6 10 7 6 8 7 9 8 10
REMARK H PARENT
REMARK Flexibility Score: inf
ROOT
ATOM      1  C   UNL     1     176.627 174.002 179.721  1.00  0.00     0.044 C 
ATOM      2  C   UNL     1     175.866 173.848 178.438  1.00  0.00    -0.055 C 
ATOM      3  C   UNL     1     176.285 172.982 177.501  1.00  0.00    -0.023 C 
ATOM      4  C   UNL     1     175.568 172.874 176.182  1.00  0.00     0.035 C 
ATOM      5  C   UNL     1     174.041 173.061 176.369  1.00  0.00     0.018 C 
ATOM      6  C   UNL     1     173.764 174.264 177.247  1.00  0.00    -0.023 C 
ATOM      7  C   UNL     1     174.599 174.589 178.241  1.00  0.00    -0.001 C 
ENDROOT
BRANCH   5   8
ATOM      8  C   UNL     1     173.242 173.130 175.036  1.00  0.00    -0.010 C 
ATOM      9  C   UNL     1     174.161 173.394 173.833  1.00  0.00     0.008 C 
ATOM     10  C   UNL     1     172.091 174.149 175.061  1.00  0.00     0.008 C 
ENDBRANCH   5   8
TORSDOF 1
ENDMDL
MODEL 3
REMARK VINA RESULT:    -4.537      8.446      9.408
REMARK INTER + INTRA:          -4.994
REMARK INTER:                  -4.801
REMARK INTRA:                  -0.192
REMARK UNBOUND:                -0.192
REMARK SMILES CC1=CC[C@H](C(C)C)C=C1
REMARK SMILES IDX 1 1 2 2 3 3 4 4 5 5 9 6 10 7 6 8 7 9 8 10
REMARK H PARENT
REMARK Flexibility Score: inf
ROOT
ATOM      1  C   UNL     1     173.901 177.915 179.728  1.00  0.00     0.044 C 
ATOM      2  C   UNL     1     173.762 178.638 178.422  1.00  0.00    -0.055 C 
ATOM      3  C   UNL     1     172.957 178.154 177.462  1.00  0.00    -0.023 C 
ATOM      4  C   UNL     1     172.867 178.835 176.122  1.00  0.00     0.035 C 
ATOM      5  C   UNL     1     172.970 180.373 176.278  1.00  0.00     0.018 C 
ATOM      6  C   UNL     1     174.121 180.731 177.197  1.00  0.00    -0.023 C 
ATOM      7  C   UNL     1     174.446 179.937 178.222  1.00  0.00    -0.001 C 
ENDROOT
BRANCH   5   8
ATOM      8  C   UNL     1     173.054 181.144 174.929  1.00  0.00    -0.010 C 
ATOM      9  C   UNL     1     173.293 180.196 173.745  1.00  0.00     0.008 C 
ATOM     10  C   UNL     1     174.100 182.271 174.929  1.00  0.00     0.008 C 
ENDBRANCH   5   8
TORSDOF 1
ENDMDL
MODEL 4
REMARK VINA RESULT:    -4.522      5.877      6.672
REMARK INTER + INTRA:          -4.978
REMARK INTER:                  -4.786
REMARK INTRA:                  -0.192
REMARK UNBOUND:                -0.192
REMARK SMILES CC1=CC[C@H](C(C)C)C=C1
REMARK SMILES IDX 1 1 2 2 3 3 4 4 5 5 9 6 10 7 6 8 7 9 8 10
REMARK H PARENT
REMARK Flexibility Score: inf
ROOT
ATOM      1  C   UNL     1     177.940 180.622 179.759  1.00  0.00     0.044 C 
ATOM      2  C   UNL     1     178.650 180.721 178.442  1.00  0.00    -0.055 C 
ATOM      3  C   UNL     1     178.143 181.477 177.455  1.00  0.00    -0.023 C 
ATOM      4  C   UNL     1     178.811 181.525 176.106  1.00  0.00     0.035 C 
ATOM      5  C   UNL     1     180.352 181.456 176.253  1.00  0.00     0.018 C 
ATOM      6  C   UNL     1     180.739 180.351 177.214  1.00  0.00    -0.023 C 
ATOM      7  C   UNL     1     179.959 180.053 178.259  1.00  0.00    -0.001 C 
ENDROOT
BRANCH   5   8
ATOM      8  C   UNL     1     181.113 181.332 174.901  1.00  0.00    -0.010 C 
ATOM      9  C   UNL     1     180.156 181.068 173.730  1.00  0.00     0.008 C 
ATOM     10  C   UNL     1     182.233 180.278 174.922  1.00  0.00     0.008 C 
ENDBRANCH   5   8
TORSDOF 1
ENDMDL
MODEL 5
REMARK VINA RESULT:    -4.339      8.806     10.134
REMARK INTER + INTRA:          -4.785
REMARK INTER:                  -4.594
REMARK INTRA:                  -0.191
REMARK UNBOUND:                -0.192
REMARK SMILES CC1=CC[C@H](C(C)C)C=C1
REMARK SMILES IDX 1 1 2 2 3 3 4 4 5 5 9 6 10 7 6 8 7 9 8 10
REMARK H PARENT
REMARK Flexibility Score: inf
ROOT
ATOM      1  C   UNL     1     181.434 179.432 169.247  1.00  0.00     0.044 C 
ATOM      2  C   UNL     1     180.096 179.939 169.694  1.00  0.00    -0.055 C 
ATOM      3  C   UNL     1     179.995 180.712 170.787  1.00  0.00    -0.023 C 
ATOM      4  C   UNL     1     178.648 181.165 171.284  1.00  0.00     0.035 C 
ATOM      5  C   UNL     1     177.693 181.454 170.098  1.00  0.00     0.018 C 
ATOM      6  C   UNL     1     177.751 180.323 169.092  1.00  0.00    -0.023 C 
ATOM      7  C   UNL     1     178.892 179.659 168.878  1.00  0.00    -0.001 C 
ENDROOT
BRANCH   5   8
ATOM      8  C   UNL     1     176.229 181.767 170.524  1.00  0.00    -0.010 C 
ATOM      9  C   UNL     1     175.866 181.094 171.856  1.00  0.00     0.008 C 
ATOM     10  C   UNL     1     175.188 181.415 169.448  1.00  0.00     0.008 C 
ENDBRANCH   5   8
TORSDOF 1
ENDMDL
MODEL 6
REMARK VINA RESULT:    -4.304      8.301      9.252
REMARK INTER + INTRA:          -4.748
REMARK INTER:                  -4.567
REMARK INTRA:                  -0.181
REMARK UNBOUND:                -0.192
REMARK SMILES CC1=CC[C@H](C(C)C)C=C1
REMARK SMILES IDX 1 1 2 2 3 3 4 4 5 5 9 6 10 7 6 8 7 9 8 10
REMARK H PARENT
REMARK Flexibility Score: inf
ROOT
ATOM      1  C   UNL     1     174.381 183.043 174.892  1.00  0.00     0.044 C 
ATOM      2  C   UNL     1     174.158 181.670 175.452  1.00  0.00    -0.055 C 
ATOM      3  C   UNL     1     175.045 181.134 176.306  1.00  0.00    -0.023 C 
ATOM      4  C   UNL     1     174.864 179.730 176.817  1.00  0.00     0.035 C 
ATOM      5  C   UNL     1     173.363 179.411 177.032  1.00  0.00     0.018 C 
ATOM      6  C   UNL     1     172.556 179.853 175.829  1.00  0.00    -0.023 C 
ATOM      7  C   UNL     1     172.910 180.938 175.132  1.00  0.00    -0.001 C 
ENDROOT
BRANCH   5   8
ATOM      8  C   UNL     1     173.076 177.927 177.400  1.00  0.00    -0.010 C 
ATOM      9  C   UNL     1     174.179 177.336 178.291  1.00  0.00     0.008 C 
ATOM     10  C   UNL     1     172.840 177.025 176.176  1.00  0.00     0.008 C 
ENDBRANCH   5   8
TORSDOF 1
ENDMDL
MODEL 7
REMARK VINA RESULT:    -4.304      1.125      4.324
REMARK INTER + INTRA:          -4.747
REMARK INTER:                  -4.570
REMARK INTRA:                  -0.178
REMARK UNBOUND:                -0.192
REMARK SMILES CC1=CC[C@H](C(C)C)C=C1
REMARK SMILES IDX 1 1 2 2 3 3 4 4 5 5 9 6 10 7 6 8 7 9 8 10
REMARK H PARENT
REMARK Flexibility Score: inf
ROOT
ATOM      1  C   UNL     1     180.021 171.401 174.902  1.00  0.00     0.044 C 
ATOM      2  C   UNL     1     180.257 172.771 175.463  1.00  0.00    -0.055 C 
ATOM      3  C   UNL     1     179.332 173.351 176.245  1.00  0.00    -0.023 C 
ATOM      4  C   UNL     1     179.530 174.755 176.754  1.00  0.00     0.035 C 
ATOM      5  C   UNL     1     181.022 175.019 177.074  1.00  0.00     0.018 C 
ATOM      6  C   UNL     1     181.896 174.531 175.937  1.00  0.00    -0.023 C 
ATOM      7  C   UNL     1     181.552 173.452 175.227  1.00  0.00    -0.001 C 
ENDROOT
BRANCH   5   8
ATOM      8  C   UNL     1     181.339 176.496 177.447  1.00  0.00    -0.010 C 
ATOM      9  C   UNL     1     180.266 177.095 178.368  1.00  0.00     0.008 C 
ATOM     10  C   UNL     1     181.561 177.404 176.226  1.00  0.00     0.008 C 
ENDBRANCH   5   8
TORSDOF 1
ENDMDL
MODEL 8
REMARK VINA RESULT:    -4.295      5.259      7.339
REMARK INTER + INTRA:          -4.738
REMARK INTER:                  -4.560
REMARK INTRA:                  -0.178
REMARK UNBOUND:                -0.192
REMARK SMILES CC1=CC[C@H](C(C)C)C=C1
REMARK SMILES IDX 1 1 2 2 3 3 4 4 5 5 9 6 10 7 6 8 7 9 8 10
REMARK H PARENT
REMARK Flexibility Score: inf
ROOT
ATOM      1  C   UNL     1     183.097 180.029 174.958  1.00  0.00     0.044 C 
ATOM      2  C   UNL     1     181.709 180.267 175.474  1.00  0.00    -0.055 C 
ATOM      3  C   UNL     1     181.121 179.364 176.275  1.00  0.00    -0.023 C 
ATOM      4  C   UNL     1     179.702 179.561 176.739  1.00  0.00     0.035 C 
ATOM      5  C   UNL     1     179.410 181.061 176.995  1.00  0.00     0.018 C 
ATOM      6  C   UNL     1     179.916 181.898 175.838  1.00  0.00    -0.023 C 
ATOM      7  C   UNL     1     181.019 181.542 175.171  1.00  0.00    -0.001 C 
ENDROOT
BRANCH   5   8
ATOM      8  C   UNL     1     177.919 181.371 177.317  1.00  0.00    -0.010 C 
ATOM      9  C   UNL     1     177.308 180.321 178.256  1.00  0.00     0.008 C 
ATOM     10  C   UNL     1     177.043 181.541 176.064  1.00  0.00     0.008 C 
ENDBRANCH   5   8
TORSDOF 1
ENDMDL
MODEL 9
REMARK VINA RESULT:    -4.265      5.954      7.124
REMARK INTER + INTRA:          -4.706
REMARK INTER:                  -4.526
REMARK INTRA:                  -0.181
REMARK UNBOUND:                -0.192
REMARK SMILES CC1=CC[C@H](C(C)C)C=C1
REMARK SMILES IDX 1 1 2 2 3 3 4 4 5 5 9 6 10 7 6 8 7 9 8 10
REMARK H PARENT
REMARK Flexibility Score: inf
ROOT
ATOM      1  C   UNL     1     171.383 174.369 174.882  1.00  0.00     0.044 C 
ATOM      2  C   UNL     1     172.745 174.130 175.462  1.00  0.00    -0.055 C 
ATOM      3  C   UNL     1     173.314 175.049 176.258  1.00  0.00    -0.023 C 
ATOM      4  C   UNL     1     174.710 174.849 176.786  1.00  0.00     0.035 C 
ATOM      5  C   UNL     1     174.970 173.354 177.098  1.00  0.00     0.018 C 
ATOM      6  C   UNL     1     174.500 172.488 175.948  1.00  0.00    -0.023 C 
ATOM      7  C   UNL     1     173.430 172.837 175.226  1.00  0.00    -0.001 C 
ENDROOT
BRANCH   5   8
ATOM      8  C   UNL     1     176.442 173.035 177.490  1.00  0.00    -0.010 C 
ATOM      9  C   UNL     1     177.070 174.165 178.319  1.00  0.00     0.008 C 
ATOM     10  C   UNL     1     177.339 172.696 176.286  1.00  0.00     0.008 C 
ENDBRANCH   5   8
TORSDOF 1
ENDMDL
