MODEL 1
REMARK VINA RESULT:    -3.466      0.000      0.000
REMARK INTER + INTRA:         -12.221
REMARK INTER:                  -7.925
REMARK INTRA:                  -4.296
REMARK UNBOUND:                -4.296
REMARK SMILES CCCCCCCCCCCCCCCCCCCCCCCC(=O)[O-]
REMARK SMILES IDX 13 1 14 2 15 3 16 4 17 5 18 6 19 7 20 8 21 9 22 10 23 11
REMARK SMILES IDX 24 12 25 13 26 14 12 15 11 16 10 17 9 18 8 19 7 20 6 21 5 22
REMARK SMILES IDX 4 23 3 24 2 25 1 26
REMARK H PARENT
REMARK Flexibility Score: inf
ROOT
ATOM      1  C   UNL     1      15.710  15.336  27.321  1.00  0.00     0.000 C 
ENDROOT
BRANCH   1   2
ATOM      2  C   UNL     1      15.136  14.152  26.529  1.00  0.00     0.000 C 
BRANCH   2   3
ATOM      3  C   UNL     1      14.547  13.098  27.479  1.00  0.00     0.000 C 
BRANCH   3   4
ATOM      4  C   UNL     1      13.016  13.002  27.387  1.00  0.00     0.000 C 
BRANCH   4   5
ATOM      5  C   UNL     1      12.377  12.454  28.676  1.00  0.00     0.000 C 
BRANCH   5   6
ATOM      6  C   UNL     1      13.355  12.420  29.860  1.00  0.00     0.000 C 
BRANCH   6   7
ATOM      7  C   UNL     1      12.926  13.341  31.013  1.00  0.00     0.000 C 
BRANCH   7   8
ATOM      8  C   UNL     1      12.238  14.621  30.512  1.00  0.00     0.000 C 
BRANCH   8   9
ATOM      9  C   UNL     1      10.892  14.880  31.212  1.00  0.00     0.000 C 
BRANCH   9  10
ATOM     10  C   UNL     1       9.803  13.882  30.788  1.00  0.00     0.006 C 
BRANCH  10  11
ATOM     11  C   UNL     1       8.782  14.497  29.822  1.00  0.00     0.053 C 
BRANCH  11  12
ATOM     12  C   UNL     1       9.189  14.249  28.405  1.00  0.00     0.041 C 
ATOM     13  O   UNL     1       9.774  15.148  27.746  1.00  0.00    -0.550 OA
ATOM     14  O   UNL     1       8.962  13.007  27.824  1.00  0.00    -0.550 OA
ENDBRANCH  11  12
ENDBRANCH  10  11
ENDBRANCH   9  10
ENDBRANCH   8   9
ENDBRANCH   7   8
ENDBRANCH   6   7
ENDBRANCH   5   6
ENDBRANCH   4   5
ENDBRANCH   3   4
ENDBRANCH   2   3
ENDBRANCH   1   2
BRANCH   1  15
ATOM     15  C   UNL     1      15.531  15.180  28.840  1.00  0.00     0.000 C 
BRANCH  15  16
ATOM     16  C   UNL     1      16.476  16.092  29.643  1.00  0.00     0.000 C 
BRANCH  16  17
ATOM     17  C   UNL     1      17.080  15.387  30.868  1.00  0.00     0.000 C 
BRANCH  17  18
ATOM     18  C   UNL     1      16.582  13.940  31.025  1.00  0.00    -0.000 C 
BRANCH  18  19
ATOM     19  C   UNL     1      17.452  13.121  31.994  1.00  0.00    -0.000 C 
BRANCH  19  20
ATOM     20  C   UNL     1      18.624  13.937  32.568  1.00  0.00    -0.000 C 
BRANCH  20  21
ATOM     21  C   UNL     1      19.994  13.470  32.044  1.00  0.00    -0.000 C 
BRANCH  21  22
ATOM     22  C   UNL     1      20.494  14.187  30.776  1.00  0.00    -0.000 C 
BRANCH  22  23
ATOM     23  C   UNL     1      20.349  13.329  29.508  1.00  0.00    -0.000 C 
BRANCH  23  24
ATOM     24  C   UNL     1      19.574  14.043  28.386  1.00  0.00    -0.000 C 
BRANCH  24  25
ATOM     25  C   UNL     1      18.563  13.163  27.630  1.00  0.00    -0.003 C 
ATOM     26  C   UNL     1      18.098  11.953  28.439  1.00  0.00     0.004 C 
ENDBRANCH  24  25
ENDBRANCH  23  24
ENDBRANCH  22  23
ENDBRANCH  21  22
ENDBRANCH  20  21
ENDBRANCH  19  20
ENDBRANCH  18  19
ENDBRANCH  17  18
ENDBRANCH  16  17
ENDBRANCH  15  16
ENDBRANCH   1  15
TORSDOF 22
ENDMDL
MODEL 2
REMARK VINA RESULT:    -3.443      1.704      3.895
REMARK INTER + INTRA:         -12.166
REMARK INTER:                  -8.320
REMARK INTRA:                  -3.846
REMARK UNBOUND:                -4.296
REMARK SMILES CCCCCCCCCCCCCCCCCCCCCCCC(=O)[O-]
REMARK SMILES IDX 13 1 14 2 15 3 16 4 17 5 18 6 19 7 20 8 21 9 22 10 23 11
REMARK SMILES IDX 24 12 25 13 26 14 12 15 11 16 10 17 9 18 8 19 7 20 6 21 5 22
REMARK SMILES IDX 4 23 3 24 2 25 1 26
REMARK H PARENT
REMARK Flexibility Score: inf
ROOT
ATOM      1  C   UNL     1      17.156  12.640  32.285  1.00  0.00     0.000 C 
ENDROOT
BRANCH   1   2
ATOM      2  C   UNL     1      16.822  11.832  31.022  1.00  0.00     0.000 C 
BRANCH   2   3
ATOM      3  C   UNL     1      15.429  11.193  31.138  1.00  0.00     0.000 C 
BRANCH   3   4
ATOM      4  C   UNL     1      14.485  11.984  32.058  1.00  0.00     0.000 C 
BRANCH   4   5
ATOM      5  C   UNL     1      13.127  12.284  31.398  1.00  0.00     0.000 C 
BRANCH   5   6
ATOM      6  C   UNL     1      12.378  13.443  32.073  1.00  0.00     0.000 C 
BRANCH   6   7
ATOM      7  C   UNL     1      11.020  13.738  31.414  1.00  0.00     0.000 C 
BRANCH   7   8
ATOM      8  C   UNL     1      11.023  15.068  30.643  1.00  0.00     0.000 C 
BRANCH   8   9
ATOM      9  C   UNL     1      11.209  14.870  29.129  1.00  0.00     0.000 C 
BRANCH   9  10
ATOM     10  C   UNL     1       9.892  14.541  28.408  1.00  0.00     0.006 C 
BRANCH  10  11
ATOM     11  C   UNL     1       9.296  15.756  27.684  1.00  0.00     0.053 C 
BRANCH  11  12
ATOM     12  C   UNL     1       9.172  15.480  26.219  1.00  0.00     0.041 C 
ATOM     13  O   UNL     1       8.435  16.201  25.498  1.00  0.00    -0.550 OA
ATOM     14  O   UNL     1       9.906  14.451  25.641  1.00  0.00    -0.550 OA
ENDBRANCH  11  12
ENDBRANCH  10  11
ENDBRANCH   9  10
ENDBRANCH   8   9
ENDBRANCH   7   8
ENDBRANCH   6   7
ENDBRANCH   5   6
ENDBRANCH   4   5
ENDBRANCH   3   4
ENDBRANCH   2   3
ENDBRANCH   1   2
BRANCH   1  15
ATOM     15  C   UNL     1      17.743  14.024  31.968  1.00  0.00     0.000 C 
BRANCH  15  16
ATOM     16  C   UNL     1      18.623  14.018  30.704  1.00  0.00     0.000 C 
BRANCH  16  17
ATOM     17  C   UNL     1      18.273  15.158  29.734  1.00  0.00     0.000 C 
BRANCH  17  18
ATOM     18  C   UNL     1      17.009  15.928  30.154  1.00  0.00    -0.000 C 
BRANCH  18  19
ATOM     19  C   UNL     1      15.872  15.795  29.126  1.00  0.00    -0.000 C 
BRANCH  19  20
ATOM     20  C   UNL     1      14.879  14.676  29.487  1.00  0.00    -0.000 C 
BRANCH  20  21
ATOM     21  C   UNL     1      14.558  13.751  28.299  1.00  0.00    -0.000 C 
BRANCH  21  22
ATOM     22  C   UNL     1      15.773  13.056  27.658  1.00  0.00    -0.000 C 
BRANCH  22  23
ATOM     23  C   UNL     1      16.137  13.636  26.280  1.00  0.00    -0.000 C 
BRANCH  23  24
ATOM     24  C   UNL     1      17.601  14.107  26.196  1.00  0.00    -0.000 C 
BRANCH  24  25
ATOM     25  C   UNL     1      17.787  15.615  25.956  1.00  0.00    -0.003 C 
ATOM     26  C   UNL     1      16.571  16.274  25.306  1.00  0.00     0.004 C 
ENDBRANCH  24  25
ENDBRANCH  23  24
ENDBRANCH  22  23
ENDBRANCH  21  22
ENDBRANCH  20  21
ENDBRANCH  19  20
ENDBRANCH  18  19
ENDBRANCH  17  18
ENDBRANCH  16  17
ENDBRANCH  15  16
ENDBRANCH   1  15
TORSDOF 22
ENDMDL
MODEL 3
REMARK VINA RESULT:    -3.438      2.257      4.537
REMARK INTER + INTRA:         -12.154
REMARK INTER:                  -8.959
REMARK INTRA:                  -3.196
REMARK UNBOUND:                -4.296
REMARK SMILES CCCCCCCCCCCCCCCCCCCCCCCC(=O)[O-]
REMARK SMILES IDX 13 1 14 2 15 3 16 4 17 5 18 6 19 7 20 8 21 9 22 10 23 11
REMARK SMILES IDX 24 12 25 13 26 14 12 15 11 16 10 17 9 18 8 19 7 20 6 21 5 22
REMARK SMILES IDX 4 23 3 24 2 25 1 26
REMARK H PARENT
REMARK Flexibility Score: inf
ROOT
ATOM      1  C   UNL     1      17.355  13.204  32.000  1.00  0.00     0.000 C 
ENDROOT
BRANCH   1   2
ATOM      2  C   UNL     1      16.310  13.758  31.020  1.00  0.00     0.000 C 
BRANCH   2   3
ATOM      3  C   UNL     1      16.699  15.169  30.553  1.00  0.00     0.000 C 
BRANCH   3   4
ATOM      4  C   UNL     1      16.020  15.568  29.232  1.00  0.00     0.000 C 
BRANCH   4   5
ATOM      5  C   UNL     1      15.451  14.360  28.467  1.00  0.00     0.000 C 
BRANCH   5   6
ATOM      6  C   UNL     1      13.945  14.483  28.193  1.00  0.00     0.000 C 
BRANCH   6   7
ATOM      7  C   UNL     1      13.083  13.963  29.355  1.00  0.00     0.000 C 
BRANCH   7   8
ATOM      8  C   UNL     1      11.656  14.534  29.324  1.00  0.00     0.000 C 
BRANCH   8   9
ATOM      9  C   UNL     1      11.229  15.129  30.677  1.00  0.00     0.000 C 
BRANCH   9  10
ATOM     10  C   UNL     1       9.979  14.449  31.255  1.00  0.00     0.006 C 
BRANCH  10  11
ATOM     11  C   UNL     1      10.294  13.105  31.925  1.00  0.00     0.053 C 
BRANCH  11  12
ATOM     12  C   UNL     1      11.461  13.244  32.850  1.00  0.00     0.041 C 
ATOM     13  O   UNL     1      12.536  12.635  32.612  1.00  0.00    -0.550 OA
ATOM     14  O   UNL     1      11.375  14.083  33.954  1.00  0.00    -0.550 OA
ENDBRANCH  11  12
ENDBRANCH  10  11
ENDBRANCH   9  10
ENDBRANCH   8   9
ENDBRANCH   7   8
ENDBRANCH   6   7
ENDBRANCH   5   6
ENDBRANCH   4   5
ENDBRANCH   3   4
ENDBRANCH   2   3
ENDBRANCH   1   2
BRANCH   1  15
ATOM     15  C   UNL     1      18.473  14.211  32.312  1.00  0.00     0.000 C 
BRANCH  15  16
ATOM     16  C   UNL     1      19.854  13.542  32.437  1.00  0.00     0.000 C 
BRANCH  16  17
ATOM     17  C   UNL     1      20.469  13.193  31.073  1.00  0.00     0.000 C 
BRANCH  17  18
ATOM     18  C   UNL     1      20.229  14.286  30.016  1.00  0.00    -0.000 C 
BRANCH  18  19
ATOM     19  C   UNL     1      19.971  13.703  28.616  1.00  0.00    -0.000 C 
BRANCH  19  20
ATOM     20  C   UNL     1      19.136  14.643  27.730  1.00  0.00    -0.000 C 
BRANCH  20  21
ATOM     21  C   UNL     1      18.483  13.922  26.537  1.00  0.00    -0.000 C 
BRANCH  21  22
ATOM     22  C   UNL     1      18.213  14.802  25.302  1.00  0.00    -0.000 C 
BRANCH  22  23
ATOM     23  C   UNL     1      17.496  16.118  25.651  1.00  0.00    -0.000 C 
BRANCH  23  24
ATOM     24  C   UNL     1      16.033  16.147  25.172  1.00  0.00    -0.000 C 
BRANCH  24  25
ATOM     25  C   UNL     1      15.683  15.118  24.083  1.00  0.00    -0.003 C 
ATOM     26  C   UNL     1      14.618  14.115  24.526  1.00  0.00     0.004 C 
ENDBRANCH  24  25
ENDBRANCH  23  24
ENDBRANCH  22  23
ENDBRANCH  21  22
ENDBRANCH  20  21
ENDBRANCH  19  20
ENDBRANCH  18  19
ENDBRANCH  17  18
ENDBRANCH  16  17
ENDBRANCH  15  16
ENDBRANCH   1  15
TORSDOF 22
ENDMDL
MODEL 4
REMARK VINA RESULT:    -3.430      2.306      4.276
REMARK INTER + INTRA:         -12.136
REMARK INTER:                  -9.105
REMARK INTRA:                  -3.031
REMARK UNBOUND:                -4.296
REMARK SMILES CCCCCCCCCCCCCCCCCCCCCCCC(=O)[O-]
REMARK SMILES IDX 13 1 14 2 15 3 16 4 17 5 18 6 19 7 20 8 21 9 22 10 23 11
REMARK SMILES IDX 24 12 25 13 26 14 12 15 11 16 10 17 9 18 8 19 7 20 6 21 5 22
REMARK SMILES IDX 4 23 3 24 2 25 1 26
REMARK H PARENT
REMARK Flexibility Score: inf
ROOT
ATOM      1  C   UNL     1      15.292  11.966  30.421  1.00  0.00     0.000 C 
ENDROOT
BRANCH   1   2
ATOM      2  C   UNL     1      14.347  12.555  31.478  1.00  0.00     0.000 C 
BRANCH   2   3
ATOM      3  C   UNL     1      13.110  13.178  30.814  1.00  0.00     0.000 C 
BRANCH   3   4
ATOM      4  C   UNL     1      12.097  13.724  31.832  1.00  0.00     0.000 C 
BRANCH   4   5
ATOM      5  C   UNL     1      11.225  14.854  31.257  1.00  0.00     0.000 C 
BRANCH   5   6
ATOM      6  C   UNL     1      11.324  14.965  29.727  1.00  0.00     0.000 C 
BRANCH   6   7
ATOM      7  C   UNL     1       9.969  14.767  29.028  1.00  0.00     0.000 C 
BRANCH   7   8
ATOM      8  C   UNL     1      10.122  14.534  27.516  1.00  0.00     0.000 C 
BRANCH   8   9
ATOM      9  C   UNL     1       9.027  15.240  26.697  1.00  0.00     0.000 C 
BRANCH   9  10
ATOM     10  C   UNL     1       8.722  16.655  27.213  1.00  0.00     0.006 C 
BRANCH  10  11
ATOM     11  C   UNL     1       8.711  17.702  26.091  1.00  0.00     0.053 C 
BRANCH  11  12
ATOM     12  C   UNL     1       7.583  18.665  26.288  1.00  0.00     0.041 C 
ATOM     13  O   UNL     1       7.762  19.726  26.941  1.00  0.00    -0.550 OA
ATOM     14  O   UNL     1       6.345  18.411  25.712  1.00  0.00    -0.550 OA
ENDBRANCH  11  12
ENDBRANCH  10  11
ENDBRANCH   9  10
ENDBRANCH   8   9
ENDBRANCH   7   8
ENDBRANCH   6   7
ENDBRANCH   5   6
ENDBRANCH   4   5
ENDBRANCH   3   4
ENDBRANCH   2   3
ENDBRANCH   1   2
BRANCH   1  15
ATOM     15  C   UNL     1      16.773  12.075  30.818  1.00  0.00     0.000 C 
BRANCH  15  16
ATOM     16  C   UNL     1      16.975  12.828  32.146  1.00  0.00     0.000 C 
BRANCH  16  17
ATOM     17  C   UNL     1      17.812  14.106  31.981  1.00  0.00     0.000 C 
BRANCH  17  18
ATOM     18  C   UNL     1      18.575  14.148  30.645  1.00  0.00    -0.000 C 
BRANCH  18  19
ATOM     19  C   UNL     1      18.050  15.245  29.703  1.00  0.00    -0.000 C 
BRANCH  19  20
ATOM     20  C   UNL     1      16.712  15.839  30.178  1.00  0.00    -0.000 C 
BRANCH  20  21
ATOM     21  C   UNL     1      15.540  15.507  29.237  1.00  0.00    -0.000 C 
BRANCH  21  22
ATOM     22  C   UNL     1      15.836  15.666  27.734  1.00  0.00    -0.000 C 
BRANCH  22  23
ATOM     23  C   UNL     1      15.447  14.424  26.913  1.00  0.00    -0.000 C 
BRANCH  23  24
ATOM     24  C   UNL     1      16.668  13.665  26.360  1.00  0.00    -0.000 C 
BRANCH  24  25
ATOM     25  C   UNL     1      17.256  12.601  27.304  1.00  0.00    -0.003 C 
ATOM     26  C   UNL     1      18.764  12.418  27.137  1.00  0.00     0.004 C 
ENDBRANCH  24  25
ENDBRANCH  23  24
ENDBRANCH  22  23
ENDBRANCH  21  22
ENDBRANCH  20  21
ENDBRANCH  19  20
ENDBRANCH  18  19
ENDBRANCH  17  18
ENDBRANCH  16  17
ENDBRANCH  15  16
ENDBRANCH   1  15
TORSDOF 22
ENDMDL
MODEL 5
REMARK VINA RESULT:    -3.384      3.222      7.679
REMARK INTER + INTRA:         -12.033
REMARK INTER:                  -7.733
REMARK INTRA:                  -4.300
REMARK UNBOUND:                -4.296
REMARK SMILES CCCCCCCCCCCCCCCCCCCCCCCC(=O)[O-]
REMARK SMILES IDX 13 1 14 2 15 3 16 4 17 5 18 6 19 7 20 8 21 9 22 10 23 11
REMARK SMILES IDX 24 12 25 13 26 14 12 15 11 16 10 17 9 18 8 19 7 20 6 21 5 22
REMARK SMILES IDX 4 23 3 24 2 25 1 26
REMARK H PARENT
REMARK Flexibility Score: inf
ROOT
ATOM      1  C   UNL     1      16.803  13.948  31.125  1.00  0.00     0.000 C 
ENDROOT
BRANCH   1   2
ATOM      2  C   UNL     1      17.761  13.155  32.026  1.00  0.00     0.000 C 
BRANCH   2   3
ATOM      3  C   UNL     1      18.849  14.073  32.603  1.00  0.00     0.000 C 
BRANCH   3   4
ATOM      4  C   UNL     1      20.247  13.771  32.038  1.00  0.00     0.000 C 
BRANCH   4   5
ATOM      5  C   UNL     1      20.291  12.462  31.230  1.00  0.00     0.000 C 
BRANCH   5   6
ATOM      6  C   UNL     1      20.532  12.693  29.730  1.00  0.00     0.000 C 
BRANCH   6   7
ATOM      7  C   UNL     1      19.465  12.027  28.846  1.00  0.00     0.000 C 
BRANCH   7   8
ATOM      8  C   UNL     1      18.684  13.048  28.004  1.00  0.00     0.000 C 
BRANCH   8   9
ATOM      9  C   UNL     1      19.256  14.472  28.126  1.00  0.00     0.000 C 
BRANCH   9  10
ATOM     10  C   UNL     1      19.208  15.245  26.798  1.00  0.00     0.006 C 
BRANCH  10  11
ATOM     11  C   UNL     1      18.623  14.411  25.651  1.00  0.00     0.053 C 
BRANCH  11  12
ATOM     12  C   UNL     1      19.573  14.375  24.496  1.00  0.00     0.041 C 
ATOM     13  O   UNL     1      20.797  14.608  24.674  1.00  0.00    -0.550 OA
ATOM     14  O   UNL     1      19.113  14.042  23.228  1.00  0.00    -0.550 OA
ENDBRANCH  11  12
ENDBRANCH  10  11
ENDBRANCH   9  10
ENDBRANCH   8   9
ENDBRANCH   7   8
ENDBRANCH   6   7
ENDBRANCH   5   6
ENDBRANCH   4   5
ENDBRANCH   3   4
ENDBRANCH   2   3
ENDBRANCH   1   2
BRANCH   1  15
ATOM     15  C   UNL     1      17.267  15.394  30.888  1.00  0.00     0.000 C 
BRANCH  15  16
ATOM     16  C   UNL     1      16.397  16.132  29.855  1.00  0.00     0.000 C 
BRANCH  16  17
ATOM     17  C   UNL     1      15.453  15.189  29.093  1.00  0.00     0.000 C 
BRANCH  17  18
ATOM     18  C   UNL     1      15.619  15.287  27.567  1.00  0.00    -0.000 C 
BRANCH  18  19
ATOM     19  C   UNL     1      15.056  14.057  26.835  1.00  0.00    -0.000 C 
BRANCH  19  20
ATOM     20  C   UNL     1      15.043  12.799  27.720  1.00  0.00    -0.000 C 
BRANCH  20  21
ATOM     21  C   UNL     1      13.679  12.085  27.728  1.00  0.00    -0.000 C 
BRANCH  21  22
ATOM     22  C   UNL     1      12.666  12.612  28.761  1.00  0.00    -0.000 C 
BRANCH  22  23
ATOM     23  C   UNL     1      13.126  12.400  30.213  1.00  0.00    -0.000 C 
BRANCH  23  24
ATOM     24  C   UNL     1      12.993  13.669  31.075  1.00  0.00    -0.000 C 
BRANCH  24  25
ATOM     25  C   UNL     1      11.968  14.698  30.566  1.00  0.00    -0.003 C 
ATOM     26  C   UNL     1      10.728  14.799  31.454  1.00  0.00     0.004 C 
ENDBRANCH  24  25
ENDBRANCH  23  24
ENDBRANCH  22  23
ENDBRANCH  21  22
ENDBRANCH  20  21
ENDBRANCH  19  20
ENDBRANCH  18  19
ENDBRANCH  17  18
ENDBRANCH  16  17
ENDBRANCH  15  16
ENDBRANCH   1  15
TORSDOF 22
ENDMDL
MODEL 6
REMARK VINA RESULT:    -3.382      1.499      3.617
REMARK INTER + INTRA:         -12.027
REMARK INTER:                  -8.736
REMARK INTRA:                  -3.291
REMARK UNBOUND:                -4.296
REMARK SMILES CCCCCCCCCCCCCCCCCCCCCCCC(=O)[O-]
REMARK SMILES IDX 13 1 14 2 15 3 16 4 17 5 18 6 19 7 20 8 21 9 22 10 23 11
REMARK SMILES IDX 24 12 25 13 26 14 12 15 11 16 10 17 9 18 8 19 7 20 6 21 5 22
REMARK SMILES IDX 4 23 3 24 2 25 1 26
REMARK H PARENT
REMARK Flexibility Score: inf
ROOT
ATOM      1  C   UNL     1      16.582  14.927  30.523  1.00  0.00     0.000 C 
ENDROOT
BRANCH   1   2
ATOM      2  C   UNL     1      16.468  13.407  30.340  1.00  0.00     0.000 C 
BRANCH   2   3
ATOM      3  C   UNL     1      15.867  12.753  31.593  1.00  0.00     0.000 C 
BRANCH   3   4
ATOM      4  C   UNL     1      14.648  11.870  31.280  1.00  0.00     0.000 C 
BRANCH   4   5
ATOM      5  C   UNL     1      13.327  12.483  31.779  1.00  0.00     0.000 C 
BRANCH   5   6
ATOM      6  C   UNL     1      12.560  13.228  30.676  1.00  0.00     0.000 C 
BRANCH   6   7
ATOM      7  C   UNL     1      11.831  14.477  31.198  1.00  0.00     0.000 C 
BRANCH   7   8
ATOM      8  C   UNL     1      10.952  15.133  30.120  1.00  0.00     0.000 C 
BRANCH   8   9
ATOM      9  C   UNL     1      11.194  14.539  28.722  1.00  0.00     0.000 C 
BRANCH   9  10
ATOM     10  C   UNL     1       9.897  14.381  27.913  1.00  0.00     0.006 C 
BRANCH  10  11
ATOM     11  C   UNL     1       9.118  15.697  27.784  1.00  0.00     0.053 C 
BRANCH  11  12
ATOM     12  C   UNL     1       9.056  16.127  26.352  1.00  0.00     0.041 C 
ATOM     13  O   UNL     1       9.247  15.292  25.430  1.00  0.00    -0.550 OA
ATOM     14  O   UNL     1       8.744  17.444  26.036  1.00  0.00    -0.550 OA
ENDBRANCH  11  12
ENDBRANCH  10  11
ENDBRANCH   9  10
ENDBRANCH   8   9
ENDBRANCH   7   8
ENDBRANCH   6   7
ENDBRANCH   5   6
ENDBRANCH   4   5
ENDBRANCH   3   4
ENDBRANCH   2   3
ENDBRANCH   1   2
BRANCH   1  15
ATOM     15  C   UNL     1      15.858  15.716  29.420  1.00  0.00     0.000 C 
BRANCH  15  16
ATOM     16  C   UNL     1      14.932  14.828  28.569  1.00  0.00     0.000 C 
BRANCH  16  17
ATOM     17  C   UNL     1      15.425  14.674  27.122  1.00  0.00     0.000 C 
BRANCH  17  18
ATOM     18  C   UNL     1      16.507  15.703  26.750  1.00  0.00    -0.000 C 
BRANCH  18  19
ATOM     19  C   UNL     1      17.684  15.069  25.990  1.00  0.00    -0.000 C 
BRANCH  19  20
ATOM     20  C   UNL     1      19.046  15.419  26.614  1.00  0.00    -0.000 C 
BRANCH  20  21
ATOM     21  C   UNL     1      19.173  14.957  28.077  1.00  0.00    -0.000 C 
BRANCH  21  22
ATOM     22  C   UNL     1      19.400  13.447  28.274  1.00  0.00    -0.000 C 
BRANCH  22  23
ATOM     23  C   UNL     1      20.169  13.122  29.566  1.00  0.00    -0.000 C 
BRANCH  23  24
ATOM     24  C   UNL     1      20.290  14.331  30.512  1.00  0.00    -0.000 C 
BRANCH  24  25
ATOM     25  C   UNL     1      20.515  13.979  31.993  1.00  0.00    -0.003 C 
ATOM     26  C   UNL     1      19.222  13.638  32.733  1.00  0.00     0.004 C 
ENDBRANCH  24  25
ENDBRANCH  23  24
ENDBRANCH  22  23
ENDBRANCH  21  22
ENDBRANCH  20  21
ENDBRANCH  19  20
ENDBRANCH  18  19
ENDBRANCH  17  18
ENDBRANCH  16  17
ENDBRANCH  15  16
ENDBRANCH   1  15
TORSDOF 22
ENDMDL
MODEL 7
REMARK VINA RESULT:    -3.377      2.460      5.988
REMARK INTER + INTRA:         -12.016
REMARK INTER:                  -7.218
REMARK INTRA:                  -4.798
REMARK UNBOUND:                -4.296
REMARK SMILES CCCCCCCCCCCCCCCCCCCCCCCC(=O)[O-]
REMARK SMILES IDX 13 1 14 2 15 3 16 4 17 5 18 6 19 7 20 8 21 9 22 10 23 11
REMARK SMILES IDX 24 12 25 13 26 14 12 15 11 16 10 17 9 18 8 19 7 20 6 21 5 22
REMARK SMILES IDX 4 23 3 24 2 25 1 26
REMARK H PARENT
REMARK Flexibility Score: inf
ROOT
ATOM      1  C   UNL     1      14.992  12.546  27.648  1.00  0.00     0.000 C 
ENDROOT
BRANCH   1   2
ATOM      2  C   UNL     1      16.349  12.216  27.009  1.00  0.00     0.000 C 
BRANCH   2   3
ATOM      3  C   UNL     1      17.328  11.674  28.062  1.00  0.00     0.000 C 
BRANCH   3   4
ATOM      4  C   UNL     1      18.768  12.166  27.848  1.00  0.00     0.000 C 
BRANCH   4   5
ATOM      5  C   UNL     1      18.896  13.127  26.653  1.00  0.00     0.000 C 
BRANCH   5   6
ATOM      6  C   UNL     1      19.588  14.449  27.020  1.00  0.00     0.000 C 
BRANCH   6   7
ATOM      7  C   UNL     1      18.881  15.677  26.423  1.00  0.00     0.000 C 
BRANCH   7   8
ATOM      8  C   UNL     1      17.918  15.300  25.286  1.00  0.00     0.000 C 
BRANCH   8   9
ATOM      9  C   UNL     1      16.718  16.258  25.189  1.00  0.00     0.000 C 
BRANCH   9  10
ATOM     10  C   UNL     1      15.585  15.700  24.313  1.00  0.00     0.006 C 
BRANCH  10  11
ATOM     11  C   UNL     1      15.825  14.244  23.892  1.00  0.00     0.053 C 
BRANCH  11  12
ATOM     12  C   UNL     1      14.545  13.613  23.445  1.00  0.00     0.041 C 
ATOM     13  O   UNL     1      14.546  12.772  22.509  1.00  0.00    -0.550 OA
ATOM     14  O   UNL     1      13.355  13.921  24.092  1.00  0.00    -0.550 OA
ENDBRANCH  11  12
ENDBRANCH  10  11
ENDBRANCH   9  10
ENDBRANCH   8   9
ENDBRANCH   7   8
ENDBRANCH   6   7
ENDBRANCH   5   6
ENDBRANCH   4   5
ENDBRANCH   3   4
ENDBRANCH   2   3
ENDBRANCH   1   2
BRANCH   1  15
ATOM     15  C   UNL     1      14.554  13.998  27.401  1.00  0.00     0.000 C 
BRANCH  15  16
ATOM     16  C   UNL     1      14.710  14.884  28.650  1.00  0.00     0.000 C 
BRANCH  16  17
ATOM     17  C   UNL     1      16.027  15.674  28.656  1.00  0.00     0.000 C 
BRANCH  17  18
ATOM     18  C   UNL     1      16.677  15.736  30.049  1.00  0.00    -0.000 C 
BRANCH  18  19
ATOM     19  C   UNL     1      17.949  14.875  30.142  1.00  0.00    -0.000 C 
BRANCH  19  20
ATOM     20  C   UNL     1      17.805  13.717  31.145  1.00  0.00    -0.000 C 
BRANCH  20  21
ATOM     21  C   UNL     1      16.341  13.432  31.528  1.00  0.00    -0.000 C 
BRANCH  21  22
ATOM     22  C   UNL     1      15.895  11.966  31.382  1.00  0.00    -0.000 C 
BRANCH  22  23
ATOM     23  C   UNL     1      14.399  11.826  31.049  1.00  0.00    -0.000 C 
BRANCH  23  24
ATOM     24  C   UNL     1      13.496  12.638  31.996  1.00  0.00    -0.000 C 
BRANCH  24  25
ATOM     25  C   UNL     1      12.543  13.625  31.300  1.00  0.00    -0.003 C 
ATOM     26  C   UNL     1      11.480  14.195  32.239  1.00  0.00     0.004 C 
ENDBRANCH  24  25
ENDBRANCH  23  24
ENDBRANCH  22  23
ENDBRANCH  21  22
ENDBRANCH  20  21
ENDBRANCH  19  20
ENDBRANCH  18  19
ENDBRANCH  17  18
ENDBRANCH  16  17
ENDBRANCH  15  16
ENDBRANCH   1  15
TORSDOF 22
ENDMDL
MODEL 8
REMARK VINA RESULT:    -3.376      3.027      8.087
REMARK INTER + INTRA:         -12.014
REMARK INTER:                  -9.308
REMARK INTRA:                  -2.707
REMARK UNBOUND:                -4.296
REMARK SMILES CCCCCCCCCCCCCCCCCCCCCCCC(=O)[O-]
REMARK SMILES IDX 13 1 14 2 15 3 16 4 17 5 18 6 19 7 20 8 21 9 22 10 23 11
REMARK SMILES IDX 24 12 25 13 26 14 12 15 11 16 10 17 9 18 8 19 7 20 6 21 5 22
REMARK SMILES IDX 4 23 3 24 2 25 1 26
REMARK H PARENT
REMARK Flexibility Score: inf
ROOT
ATOM      1  C   UNL     1      13.474  11.238  31.999  1.00  0.00     0.000 C 
ENDROOT
BRANCH   1   2
ATOM      2  C   UNL     1      13.203  11.670  30.551  1.00  0.00     0.000 C 
BRANCH   2   3
ATOM      3  C   UNL     1      14.244  12.700  30.087  1.00  0.00     0.000 C 
BRANCH   3   4
ATOM      4  C   UNL     1      15.507  12.050  29.500  1.00  0.00     0.000 C 
BRANCH   4   5
ATOM      5  C   UNL     1      16.781  12.415  30.282  1.00  0.00     0.000 C 
BRANCH   5   6
ATOM      6  C   UNL     1      16.515  13.393  31.436  1.00  0.00     0.000 C 
BRANCH   6   7
ATOM      7  C   UNL     1      17.508  14.567  31.463  1.00  0.00     0.000 C 
BRANCH   7   8
ATOM      8  C   UNL     1      17.595  15.288  30.108  1.00  0.00     0.000 C 
BRANCH   8   9
ATOM      9  C   UNL     1      16.256  15.918  29.689  1.00  0.00     0.000 C 
BRANCH   9  10
ATOM     10  C   UNL     1      15.855  15.555  28.250  1.00  0.00     0.006 C 
BRANCH  10  11
ATOM     11  C   UNL     1      17.049  15.095  27.403  1.00  0.00     0.053 C 
BRANCH  11  12
ATOM     12  C   UNL     1      16.856  15.488  25.973  1.00  0.00     0.041 C 
ATOM     13  O   UNL     1      17.444  14.857  25.056  1.00  0.00    -0.550 OA
ATOM     14  O   UNL     1      15.991  16.526  25.648  1.00  0.00    -0.550 OA
ENDBRANCH  11  12
ENDBRANCH  10  11
ENDBRANCH   9  10
ENDBRANCH   8   9
ENDBRANCH   7   8
ENDBRANCH   6   7
ENDBRANCH   5   6
ENDBRANCH   4   5
ENDBRANCH   3   4
ENDBRANCH   2   3
ENDBRANCH   1   2
BRANCH   1  15
ATOM     15  C   UNL     1      12.778  12.140  33.030  1.00  0.00     0.000 C 
BRANCH  15  16
ATOM     16  C   UNL     1      11.437  12.697  32.519  1.00  0.00     0.000 C 
BRANCH  16  17
ATOM     17  C   UNL     1      11.358  14.228  32.612  1.00  0.00     0.000 C 
BRANCH  17  18
ATOM     18  C   UNL     1      10.515  14.849  31.483  1.00  0.00    -0.000 C 
BRANCH  18  19
ATOM     19  C   UNL     1      11.281  14.921  30.151  1.00  0.00    -0.000 C 
BRANCH  19  20
ATOM     20  C   UNL     1      10.451  14.401  28.964  1.00  0.00    -0.000 C 
BRANCH  20  21
ATOM     21  C   UNL     1       9.761  15.527  28.174  1.00  0.00    -0.000 C 
BRANCH  21  22
ATOM     22  C   UNL     1       9.112  15.098  26.845  1.00  0.00    -0.000 C 
BRANCH  22  23
ATOM     23  C   UNL     1       8.754  16.290  25.942  1.00  0.00    -0.000 C 
BRANCH  23  24
ATOM     24  C   UNL     1       8.722  17.629  26.702  1.00  0.00    -0.000 C 
BRANCH  24  25
ATOM     25  C   UNL     1       7.316  18.154  27.039  1.00  0.00    -0.003 C 
ATOM     26  C   UNL     1       7.089  19.597  26.589  1.00  0.00     0.004 C 
ENDBRANCH  24  25
ENDBRANCH  23  24
ENDBRANCH  22  23
ENDBRANCH  21  22
ENDBRANCH  20  21
ENDBRANCH  19  20
ENDBRANCH  18  19
ENDBRANCH  17  18
ENDBRANCH  16  17
ENDBRANCH  15  16
ENDBRANCH   1  15
TORSDOF 22
ENDMDL
MODEL 9
REMARK VINA RESULT:    -3.330      1.847      5.619
REMARK INTER + INTRA:         -11.908
REMARK INTER:                  -8.134
REMARK INTRA:                  -3.774
REMARK UNBOUND:                -4.296
REMARK SMILES CCCCCCCCCCCCCCCCCCCCCCCC(=O)[O-]
REMARK SMILES IDX 13 1 14 2 15 3 16 4 17 5 18 6 19 7 20 8 21 9 22 10 23 11
REMARK SMILES IDX 24 12 25 13 26 14 12 15 11 16 10 17 9 18 8 19 7 20 6 21 5 22
REMARK SMILES IDX 4 23 3 24 2 25 1 26
REMARK H PARENT
REMARK Flexibility Score: inf
ROOT
ATOM      1  C   UNL     1      16.999  15.074  28.875  1.00  0.00     0.000 C 
ENDROOT
BRANCH   1   2
ATOM      2  C   UNL     1      16.969  15.617  30.310  1.00  0.00     0.000 C 
BRANCH   2   3
ATOM      3  C   UNL     1      17.401  14.534  31.311  1.00  0.00     0.000 C 
BRANCH   3   4
ATOM      4  C   UNL     1      16.916  13.130  30.916  1.00  0.00     0.000 C 
BRANCH   4   5
ATOM      5  C   UNL     1      16.067  12.464  32.014  1.00  0.00     0.000 C 
BRANCH   5   6
ATOM      6  C   UNL     1      14.568  12.443  31.680  1.00  0.00     0.000 C 
BRANCH   6   7
ATOM      7  C   UNL     1      14.273  12.883  30.237  1.00  0.00     0.000 C 
BRANCH   7   8
ATOM      8  C   UNL     1      13.334  14.099  30.178  1.00  0.00     0.000 C 
BRANCH   8   9
ATOM      9  C   UNL     1      12.254  14.063  31.274  1.00  0.00     0.000 C 
BRANCH   9  10
ATOM     10  C   UNL     1      10.957  14.770  30.851  1.00  0.00     0.006 C 
BRANCH  10  11
ATOM     11  C   UNL     1      10.997  15.258  29.397  1.00  0.00     0.053 C 
BRANCH  11  12
ATOM     12  C   UNL     1       9.772  14.813  28.664  1.00  0.00     0.041 C 
ATOM     13  O   UNL     1       9.340  13.640  28.804  1.00  0.00    -0.550 OA
ATOM     14  O   UNL     1       9.080  15.710  27.859  1.00  0.00    -0.550 OA
ENDBRANCH  11  12
ENDBRANCH  10  11
ENDBRANCH   9  10
ENDBRANCH   8   9
ENDBRANCH   7   8
ENDBRANCH   6   7
ENDBRANCH   5   6
ENDBRANCH   4   5
ENDBRANCH   3   4
ENDBRANCH   2   3
ENDBRANCH   1   2
BRANCH   1  15
ATOM     15  C   UNL     1      15.852  15.617  28.008  1.00  0.00     0.000 C 
BRANCH  15  16
ATOM     16  C   UNL     1      16.308  15.979  26.582  1.00  0.00     0.000 C 
BRANCH  16  17
ATOM     17  C   UNL     1      17.315  14.970  26.009  1.00  0.00     0.000 C 
BRANCH  17  18
ATOM     18  C   UNL     1      16.745  14.172  24.822  1.00  0.00    -0.000 C 
BRANCH  18  19
ATOM     19  C   UNL     1      15.446  14.785  24.272  1.00  0.00    -0.000 C 
BRANCH  19  20
ATOM     20  C   UNL     1      14.290  13.771  24.222  1.00  0.00    -0.000 C 
BRANCH  20  21
ATOM     21  C   UNL     1      14.218  12.880  25.476  1.00  0.00    -0.000 C 
BRANCH  21  22
ATOM     22  C   UNL     1      13.260  13.369  26.577  1.00  0.00    -0.000 C 
BRANCH  22  23
ATOM     23  C   UNL     1      12.093  12.398  26.829  1.00  0.00    -0.000 C 
BRANCH  23  24
ATOM     24  C   UNL     1      11.090  12.352  25.662  1.00  0.00    -0.000 C 
BRANCH  24  25
ATOM     25  C   UNL     1      10.467  13.708  25.284  1.00  0.00    -0.003 C 
ATOM     26  C   UNL     1      10.485  13.978  23.780  1.00  0.00     0.004 C 
ENDBRANCH  24  25
ENDBRANCH  23  24
ENDBRANCH  22  23
ENDBRANCH  21  22
ENDBRANCH  20  21
ENDBRANCH  19  20
ENDBRANCH  18  19
ENDBRANCH  17  18
ENDBRANCH  16  17
ENDBRANCH  15  16
ENDBRANCH   1  15
TORSDOF 22
ENDMDL
