MODEL 1
REMARK VINA RESULT:    -4.726      0.000      0.000
REMARK INTER + INTRA:         -10.327
REMARK INTER:                  -8.870
REMARK INTRA:                  -1.457
REMARK UNBOUND:                -1.457
REMARK SMILES CCCCCCCCC=CCCCCCCCC(=O)[O-]
REMARK SMILES IDX 10 1 9 2 11 3 12 4 13 5 14 6 15 7 16 8 17 9 18 10 19 11
REMARK SMILES IDX 20 12 8 13 7 14 6 15 5 16 4 17 3 18 2 19 1 20
REMARK H PARENT
REMARK Flexibility Score: inf
ROOT
ATOM      1  C   UNL     1      -3.129  13.585 -16.516  1.00  0.00    -0.031 C 
ATOM      2  C   UNL     1      -2.307  13.444 -17.574  1.00  0.00    -0.031 C 
ENDROOT
BRANCH   1   3
ATOM      3  C   UNL     1      -4.513  12.996 -16.413  1.00  0.00     0.027 C 
BRANCH   3   4
ATOM      4  C   UNL     1      -4.682  12.127 -15.155  1.00  0.00     0.004 C 
BRANCH   4   5
ATOM      5  C   UNL     1      -3.866  10.826 -15.241  1.00  0.00     0.000 C 
BRANCH   5   6
ATOM      6  C   UNL     1      -3.112  10.509 -13.939  1.00  0.00     0.000 C 
BRANCH   6   7
ATOM      7  C   UNL     1      -3.636   9.239 -13.244  1.00  0.00     0.000 C 
BRANCH   7   8
ATOM      8  C   UNL     1      -4.963   8.747 -13.846  1.00  0.00     0.006 C 
BRANCH   8   9
ATOM      9  C   UNL     1      -5.267   7.286 -13.489  1.00  0.00     0.053 C 
BRANCH   9  10
ATOM     10  C   UNL     1      -6.601   6.884 -14.034  1.00  0.00     0.041 C 
ATOM     11  O   UNL     1      -6.823   5.683 -14.343  1.00  0.00    -0.550 OA
ATOM     12  O   UNL     1      -7.611   7.829 -14.170  1.00  0.00    -0.550 OA
ENDBRANCH   9  10
ENDBRANCH   8   9
ENDBRANCH   7   8
ENDBRANCH   6   7
ENDBRANCH   5   6
ENDBRANCH   4   5
ENDBRANCH   3   4
ENDBRANCH   1   3
BRANCH   2  13
ATOM     13  C   UNL     1      -2.660  12.731 -18.859  1.00  0.00     0.027 C 
BRANCH  13  14
ATOM     14  C   UNL     1      -2.509  11.211 -18.713  1.00  0.00     0.004 C 
BRANCH  14  15
ATOM     15  C   UNL     1      -3.652  10.448 -19.395  1.00  0.00     0.000 C 
BRANCH  15  16
ATOM     16  C   UNL     1      -4.714  11.417 -19.937  1.00  0.00     0.000 C 
BRANCH  16  17
ATOM     17  C   UNL     1      -5.746  10.723 -20.841  1.00  0.00    -0.000 C 
BRANCH  17  18
ATOM     18  C   UNL     1      -7.167  10.758 -20.256  1.00  0.00    -0.000 C 
BRANCH  18  19
ATOM     19  C   UNL     1      -8.126   9.900 -21.093  1.00  0.00    -0.003 C 
ATOM     20  C   UNL     1      -8.640   8.705 -20.292  1.00  0.00     0.004 C 
ENDBRANCH  18  19
ENDBRANCH  17  18
ENDBRANCH  16  17
ENDBRANCH  15  16
ENDBRANCH  14  15
ENDBRANCH  13  14
ENDBRANCH   2  13
TORSDOF 15
ENDMDL
MODEL 2
REMARK VINA RESULT:    -4.539      2.401      6.246
REMARK INTER + INTRA:          -9.977
REMARK INTER:                  -8.783
REMARK INTRA:                  -1.194
REMARK UNBOUND:                -1.457
REMARK SMILES CCCCCCCCC=CCCCCCCCC(=O)[O-]
REMARK SMILES IDX 10 1 9 2 11 3 12 4 13 5 14 6 15 7 16 8 17 9 18 10 19 11
REMARK SMILES IDX 20 12 8 13 7 14 6 15 5 16 4 17 3 18 2 19 1 20
REMARK H PARENT
REMARK Flexibility Score: inf
ROOT
ATOM      1  C   UNL     1      -4.231  12.881 -16.794  1.00  0.00    -0.031 C 
ATOM      2  C   UNL     1      -4.529  12.611 -15.509  1.00  0.00    -0.031 C 
ENDROOT
BRANCH   1   3
ATOM      3  C   UNL     1      -2.842  13.135 -17.325  1.00  0.00     0.027 C 
BRANCH   3   4
ATOM      4  C   UNL     1      -2.624  12.496 -18.707  1.00  0.00     0.004 C 
BRANCH   4   5
ATOM      5  C   UNL     1      -2.758  10.964 -18.659  1.00  0.00     0.000 C 
BRANCH   5   6
ATOM      6  C   UNL     1      -3.734  10.419 -19.714  1.00  0.00     0.000 C 
BRANCH   6   7
ATOM      7  C   UNL     1      -4.937  11.352 -19.947  1.00  0.00     0.000 C 
BRANCH   7   8
ATOM      8  C   UNL     1      -5.982  10.734 -20.892  1.00  0.00     0.006 C 
BRANCH   8   9
ATOM      9  C   UNL     1      -7.398  10.759 -20.301  1.00  0.00     0.053 C 
BRANCH   9  10
ATOM     10  C   UNL     1      -8.242   9.696 -20.930  1.00  0.00     0.041 C 
ATOM     11  O   UNL     1      -8.639   9.822 -22.119  1.00  0.00    -0.550 OA
ATOM     12  O   UNL     1      -8.565   8.549 -20.213  1.00  0.00    -0.550 OA
ENDBRANCH   9  10
ENDBRANCH   8   9
ENDBRANCH   7   8
ENDBRANCH   6   7
ENDBRANCH   5   6
ENDBRANCH   4   5
ENDBRANCH   3   4
ENDBRANCH   1   3
BRANCH   2  13
ATOM     13  C   UNL     1      -3.531  12.584 -14.373  1.00  0.00     0.027 C 
BRANCH  13  14
ATOM     14  C   UNL     1      -2.858  11.211 -14.256  1.00  0.00     0.004 C 
BRANCH  14  15
ATOM     15  C   UNL     1      -3.881  10.075 -14.119  1.00  0.00     0.000 C 
BRANCH  15  16
ATOM     16  C   UNL     1      -3.347   8.961 -13.206  1.00  0.00     0.000 C 
BRANCH  16  17
ATOM     17  C   UNL     1      -4.264   7.726 -13.178  1.00  0.00    -0.000 C 
BRANCH  17  18
ATOM     18  C   UNL     1      -5.557   7.928 -13.985  1.00  0.00    -0.000 C 
BRANCH  18  19
ATOM     19  C   UNL     1      -6.663   6.985 -13.493  1.00  0.00    -0.003 C 
ATOM     20  C   UNL     1      -6.874   5.827 -14.467  1.00  0.00     0.004 C 
ENDBRANCH  18  19
ENDBRANCH  17  18
ENDBRANCH  16  17
ENDBRANCH  15  16
ENDBRANCH  14  15
ENDBRANCH  13  14
ENDBRANCH   2  13
TORSDOF 15
ENDMDL
MODEL 3
REMARK VINA RESULT:    -4.416      5.570      8.309
REMARK INTER + INTRA:          -9.745
REMARK INTER:                  -8.508
REMARK INTRA:                  -1.236
REMARK UNBOUND:                -1.457
REMARK SMILES CCCCCCCCC=CCCCCCCCC(=O)[O-]
REMARK SMILES IDX 10 1 9 2 11 3 12 4 13 5 14 6 15 7 16 8 17 9 18 10 19 11
REMARK SMILES IDX 20 12 8 13 7 14 6 15 5 16 4 17 3 18 2 19 1 20
REMARK H PARENT
REMARK Flexibility Score: inf
ROOT
ATOM      1  C   UNL     1      -1.916  14.063 -16.505  1.00  0.00    -0.031 C 
ATOM      2  C   UNL     1      -2.864  13.283 -15.950  1.00  0.00    -0.031 C 
ENDROOT
BRANCH   1   3
ATOM      3  C   UNL     1      -1.755  14.308 -17.984  1.00  0.00     0.027 C 
BRANCH   3   4
ATOM      4  C   UNL     1      -0.966  15.595 -18.276  1.00  0.00     0.004 C 
BRANCH   4   5
ATOM      5  C   UNL     1       0.478  15.296 -18.718  1.00  0.00     0.000 C 
BRANCH   5   6
ATOM      6  C   UNL     1       1.381  16.540 -18.678  1.00  0.00     0.000 C 
BRANCH   6   7
ATOM      7  C   UNL     1       1.185  17.454 -19.902  1.00  0.00     0.000 C 
BRANCH   7   8
ATOM      8  C   UNL     1       0.990  18.927 -19.506  1.00  0.00     0.006 C 
BRANCH   8   9
ATOM      9  C   UNL     1      -0.487  19.296 -19.314  1.00  0.00     0.053 C 
BRANCH   9  10
ATOM     10  C   UNL     1      -0.737  19.727 -17.903  1.00  0.00     0.041 C 
ATOM     11  O   UNL     1       0.223  20.085 -17.170  1.00  0.00    -0.550 OA
ATOM     12  O   UNL     1      -2.035  19.764 -17.407  1.00  0.00    -0.550 OA
ENDBRANCH   9  10
ENDBRANCH   8   9
ENDBRANCH   7   8
ENDBRANCH   6   7
ENDBRANCH   5   6
ENDBRANCH   4   5
ENDBRANCH   3   4
ENDBRANCH   1   3
BRANCH   2  13
ATOM     13  C   UNL     1      -3.880  12.471 -16.720  1.00  0.00     0.027 C 
BRANCH  13  14
ATOM     14  C   UNL     1      -3.559  10.972 -16.657  1.00  0.00     0.004 C 
BRANCH  14  15
ATOM     15  C   UNL     1      -2.899  10.467 -17.946  1.00  0.00     0.000 C 
BRANCH  15  16
ATOM     16  C   UNL     1      -3.284  11.349 -19.143  1.00  0.00     0.000 C 
BRANCH  16  17
ATOM     17  C   UNL     1      -4.263  10.652 -20.103  1.00  0.00    -0.000 C 
BRANCH  17  18
ATOM     18  C   UNL     1      -5.682  11.240 -20.034  1.00  0.00    -0.000 C 
BRANCH  18  19
ATOM     19  C   UNL     1      -6.533  10.760 -21.217  1.00  0.00    -0.003 C 
ATOM     20  C   UNL     1      -7.845  10.140 -20.738  1.00  0.00     0.004 C 
ENDBRANCH  18  19
ENDBRANCH  17  18
ENDBRANCH  16  17
ENDBRANCH  15  16
ENDBRANCH  14  15
ENDBRANCH  13  14
ENDBRANCH   2  13
TORSDOF 15
ENDMDL
MODEL 4
REMARK VINA RESULT:    -4.315      3.450      6.289
REMARK INTER + INTRA:          -9.556
REMARK INTER:                  -8.255
REMARK INTRA:                  -1.301
REMARK UNBOUND:                -1.457
REMARK SMILES CCCCCCCCC=CCCCCCCCC(=O)[O-]
REMARK SMILES IDX 10 1 9 2 11 3 12 4 13 5 14 6 15 7 16 8 17 9 18 10 19 11
REMARK SMILES IDX 20 12 8 13 7 14 6 15 5 16 4 17 3 18 2 19 1 20
REMARK H PARENT
REMARK Flexibility Score: inf
ROOT
ATOM      1  C   UNL     1      -2.723  12.598 -19.068  1.00  0.00    -0.031 C 
ATOM      2  C   UNL     1      -2.027  13.748 -19.155  1.00  0.00    -0.031 C 
ENDROOT
BRANCH   1   3
ATOM      3  C   UNL     1      -3.103  11.914 -17.779  1.00  0.00     0.027 C 
BRANCH   3   4
ATOM      4  C   UNL     1      -4.536  12.256 -17.341  1.00  0.00     0.004 C 
BRANCH   4   5
ATOM      5  C   UNL     1      -4.610  12.623 -15.849  1.00  0.00     0.000 C 
BRANCH   5   6
ATOM      6  C   UNL     1      -3.223  12.728 -15.194  1.00  0.00     0.000 C 
BRANCH   6   7
ATOM      7  C   UNL     1      -2.911  11.535 -14.272  1.00  0.00     0.000 C 
BRANCH   7   8
ATOM      8  C   UNL     1      -3.859  10.347 -14.510  1.00  0.00     0.006 C 
BRANCH   8   9
ATOM      9  C   UNL     1      -4.202   9.598 -13.216  1.00  0.00     0.053 C 
BRANCH   9  10
ATOM     10  C   UNL     1      -4.563   8.178 -13.517  1.00  0.00     0.041 C 
ATOM     11  O   UNL     1      -5.647   7.909 -14.099  1.00  0.00    -0.550 OA
ATOM     12  O   UNL     1      -3.686   7.152 -13.183  1.00  0.00    -0.550 OA
ENDBRANCH   9  10
ENDBRANCH   8   9
ENDBRANCH   7   8
ENDBRANCH   6   7
ENDBRANCH   5   6
ENDBRANCH   4   5
ENDBRANCH   3   4
ENDBRANCH   1   3
BRANCH   2  13
ATOM     13  C   UNL     1      -1.453  14.507 -17.981  1.00  0.00     0.027 C 
BRANCH  13  14
ATOM     14  C   UNL     1      -0.736  15.784 -18.439  1.00  0.00     0.004 C 
BRANCH  14  15
ATOM     15  C   UNL     1       0.789  15.615 -18.460  1.00  0.00     0.000 C 
BRANCH  15  16
ATOM     16  C   UNL     1       1.434  16.568 -19.478  1.00  0.00     0.000 C 
BRANCH  16  17
ATOM     17  C   UNL     1       0.518  17.745 -19.851  1.00  0.00    -0.000 C 
BRANCH  17  18
ATOM     18  C   UNL     1       0.997  19.081 -19.259  1.00  0.00    -0.000 C 
BRANCH  18  19
ATOM     19  C   UNL     1       0.276  19.387 -17.940  1.00  0.00    -0.003 C 
ATOM     20  C   UNL     1      -1.237  19.455 -18.141  1.00  0.00     0.004 C 
ENDBRANCH  18  19
ENDBRANCH  17  18
ENDBRANCH  16  17
ENDBRANCH  15  16
ENDBRANCH  14  15
ENDBRANCH  13  14
ENDBRANCH   2  13
TORSDOF 15
ENDMDL
MODEL 5
REMARK VINA RESULT:    -4.205      4.370      7.479
REMARK INTER + INTRA:          -9.350
REMARK INTER:                  -7.884
REMARK INTRA:                  -1.466
REMARK UNBOUND:                -1.457
REMARK SMILES CCCCCCCCC=CCCCCCCCC(=O)[O-]
REMARK SMILES IDX 10 1 9 2 11 3 12 4 13 5 14 6 15 7 16 8 17 9 18 10 19 11
REMARK SMILES IDX 20 12 8 13 7 14 6 15 5 16 4 17 3 18 2 19 1 20
REMARK H PARENT
REMARK Flexibility Score: inf
ROOT
ATOM      1  C   UNL     1      -2.104  14.092 -17.748  1.00  0.00    -0.031 C 
ATOM      2  C   UNL     1      -1.308  14.848 -18.528  1.00  0.00    -0.031 C 
ENDROOT
BRANCH   1   3
ATOM      3  C   UNL     1      -1.993  13.985 -16.248  1.00  0.00     0.027 C 
BRANCH   3   4
ATOM      4  C   UNL     1      -3.107  13.112 -15.646  1.00  0.00     0.004 C 
BRANCH   4   5
ATOM      5  C   UNL     1      -3.815  12.264 -16.716  1.00  0.00     0.000 C 
BRANCH   5   6
ATOM      6  C   UNL     1      -3.351  10.799 -16.719  1.00  0.00     0.000 C 
BRANCH   6   7
ATOM      7  C   UNL     1      -2.955  10.304 -18.122  1.00  0.00     0.000 C 
BRANCH   7   8
ATOM      8  C   UNL     1      -3.352  11.297 -19.227  1.00  0.00     0.006 C 
BRANCH   8   9
ATOM      9  C   UNL     1      -4.239  10.658 -20.303  1.00  0.00     0.053 C 
BRANCH   9  10
ATOM     10  C   UNL     1      -5.647  11.146 -20.174  1.00  0.00     0.041 C 
ATOM     11  O   UNL     1      -5.955  11.962 -19.265  1.00  0.00    -0.550 OA
ATOM     12  O   UNL     1      -6.615  10.724 -21.078  1.00  0.00    -0.550 OA
ENDBRANCH   9  10
ENDBRANCH   8   9
ENDBRANCH   7   8
ENDBRANCH   6   7
ENDBRANCH   5   6
ENDBRANCH   4   5
ENDBRANCH   3   4
ENDBRANCH   1   3
BRANCH   2  13
ATOM     13  C   UNL     1      -0.130  15.661 -18.039  1.00  0.00     0.027 C 
BRANCH  13  14
ATOM     14  C   UNL     1       1.009  15.665 -19.067  1.00  0.00     0.004 C 
BRANCH  14  15
ATOM     15  C   UNL     1       1.165  17.029 -19.753  1.00  0.00     0.000 C 
BRANCH  15  16
ATOM     16  C   UNL     1       1.948  18.005 -18.862  1.00  0.00     0.000 C 
BRANCH  16  17
ATOM     17  C   UNL     1       1.087  19.179 -18.368  1.00  0.00    -0.000 C 
BRANCH  17  18
ATOM     18  C   UNL     1      -0.250  19.292 -19.117  1.00  0.00    -0.000 C 
BRANCH  18  19
ATOM     19  C   UNL     1      -1.432  19.264 -18.139  1.00  0.00    -0.003 C 
ATOM     20  C   UNL     1      -1.123  20.067 -16.877  1.00  0.00     0.004 C 
ENDBRANCH  18  19
ENDBRANCH  17  18
ENDBRANCH  16  17
ENDBRANCH  15  16
ENDBRANCH  14  15
ENDBRANCH  13  14
ENDBRANCH   2  13
TORSDOF 15
ENDMDL
MODEL 6
REMARK VINA RESULT:    -4.141      5.836      8.952
REMARK INTER + INTRA:          -9.229
REMARK INTER:                  -7.695
REMARK INTRA:                  -1.533
REMARK UNBOUND:                -1.457
REMARK SMILES CCCCCCCCC=CCCCCCCCC(=O)[O-]
REMARK SMILES IDX 10 1 9 2 11 3 12 4 13 5 14 6 15 7 16 8 17 9 18 10 19 11
REMARK SMILES IDX 20 12 8 13 7 14 6 15 5 16 4 17 3 18 2 19 1 20
REMARK H PARENT
REMARK Flexibility Score: inf
ROOT
ATOM      1  C   UNL     1      -1.251  14.833 -18.795  1.00  0.00    -0.031 C 
ATOM      2  C   UNL     1      -2.008  14.093 -17.963  1.00  0.00    -0.031 C 
ENDROOT
BRANCH   1   3
ATOM      3  C   UNL     1      -0.248  15.872 -18.358  1.00  0.00     0.027 C 
BRANCH   3   4
ATOM      4  C   UNL     1       1.190  15.484 -18.738  1.00  0.00     0.004 C 
BRANCH   4   5
ATOM      5  C   UNL     1       1.747  16.374 -19.864  1.00  0.00     0.000 C 
BRANCH   5   6
ATOM      6  C   UNL     1       1.771  17.864 -19.487  1.00  0.00     0.000 C 
BRANCH   6   7
ATOM      7  C   UNL     1       0.723  18.688 -20.258  1.00  0.00     0.000 C 
BRANCH   7   8
ATOM      8  C   UNL     1       0.300  19.955 -19.496  1.00  0.00     0.006 C 
BRANCH   8   9
ATOM      9  C   UNL     1       0.486  19.822 -17.980  1.00  0.00     0.053 C 
BRANCH   9  10
ATOM     10  C   UNL     1      -0.843  19.778 -17.294  1.00  0.00     0.041 C 
ATOM     11  O   UNL     1      -1.868  19.400 -17.921  1.00  0.00    -0.550 OA
ATOM     12  O   UNL     1      -0.944  20.125 -15.951  1.00  0.00    -0.550 OA
ENDBRANCH   9  10
ENDBRANCH   8   9
ENDBRANCH   7   8
ENDBRANCH   6   7
ENDBRANCH   5   6
ENDBRANCH   4   5
ENDBRANCH   3   4
ENDBRANCH   1   3
BRANCH   2  13
ATOM     13  C   UNL     1      -2.028  14.225 -16.457  1.00  0.00     0.027 C 
BRANCH  13  14
ATOM     14  C   UNL     1      -2.660  12.992 -15.798  1.00  0.00     0.004 C 
BRANCH  14  15
ATOM     15  C   UNL     1      -4.153  12.862 -16.128  1.00  0.00     0.000 C 
BRANCH  15  16
ATOM     16  C   UNL     1      -4.455  11.503 -16.778  1.00  0.00     0.000 C 
BRANCH  16  17
ATOM     17  C   UNL     1      -3.188  10.789 -17.277  1.00  0.00    -0.000 C 
BRANCH  17  18
ATOM     18  C   UNL     1      -3.220  10.510 -18.789  1.00  0.00    -0.000 C 
BRANCH  18  19
ATOM     19  C   UNL     1      -4.154  11.492 -19.509  1.00  0.00    -0.003 C 
ATOM     20  C   UNL     1      -4.905  10.806 -20.648  1.00  0.00     0.004 C 
ENDBRANCH  18  19
ENDBRANCH  17  18
ENDBRANCH  16  17
ENDBRANCH  15  16
ENDBRANCH  14  15
ENDBRANCH  13  14
ENDBRANCH   2  13
TORSDOF 15
ENDMDL
MODEL 7
REMARK VINA RESULT:    -4.131      5.533      9.061
REMARK INTER + INTRA:          -9.211
REMARK INTER:                  -8.454
REMARK INTRA:                  -0.758
REMARK UNBOUND:                -1.457
REMARK SMILES CCCCCCCCC=CCCCCCCCC(=O)[O-]
REMARK SMILES IDX 10 1 9 2 11 3 12 4 13 5 14 6 15 7 16 8 17 9 18 10 19 11
REMARK SMILES IDX 20 12 8 13 7 14 6 15 5 16 4 17 3 18 2 19 1 20
REMARK H PARENT
REMARK Flexibility Score: inf
ROOT
ATOM      1  C   UNL     1      -2.421  12.453 -18.882  1.00  0.00    -0.031 C 
ATOM      2  C   UNL     1      -3.180  11.641 -18.122  1.00  0.00    -0.031 C 
ENDROOT
BRANCH   1   3
ATOM      3  C   UNL     1      -2.398  13.959 -18.782  1.00  0.00     0.027 C 
BRANCH   3   4
ATOM      4  C   UNL     1      -1.223  14.465 -17.929  1.00  0.00     0.004 C 
BRANCH   4   5
ATOM      5  C   UNL     1      -0.616  15.760 -18.497  1.00  0.00     0.000 C 
BRANCH   5   6
ATOM      6  C   UNL     1       0.903  15.660 -18.712  1.00  0.00     0.000 C 
BRANCH   6   7
ATOM      7  C   UNL     1       1.574  17.038 -18.857  1.00  0.00     0.000 C 
BRANCH   7   8
ATOM      8  C   UNL     1       1.019  17.837 -20.048  1.00  0.00     0.006 C 
BRANCH   8   9
ATOM      9  C   UNL     1       0.882  19.334 -19.741  1.00  0.00     0.053 C 
BRANCH   9  10
ATOM     10  C   UNL     1       0.088  19.540 -18.491  1.00  0.00     0.041 C 
ATOM     11  O   UNL     1       0.618  20.077 -17.483  1.00  0.00    -0.550 OA
ATOM     12  O   UNL     1      -1.251  19.167 -18.448  1.00  0.00    -0.550 OA
ENDBRANCH   9  10
ENDBRANCH   8   9
ENDBRANCH   7   8
ENDBRANCH   6   7
ENDBRANCH   5   6
ENDBRANCH   4   5
ENDBRANCH   3   4
ENDBRANCH   1   3
BRANCH   2  13
ATOM     13  C   UNL     1      -4.184  12.104 -17.092  1.00  0.00     0.027 C 
BRANCH  13  14
ATOM     14  C   UNL     1      -3.487  12.708 -15.866  1.00  0.00     0.004 C 
BRANCH  14  15
ATOM     15  C   UNL     1      -3.911  12.019 -14.561  1.00  0.00     0.000 C 
BRANCH  15  16
ATOM     16  C   UNL     1      -3.948  10.493 -14.732  1.00  0.00     0.000 C 
BRANCH  16  17
ATOM     17  C   UNL     1      -3.884   9.744 -13.391  1.00  0.00    -0.000 C 
BRANCH  17  18
ATOM     18  C   UNL     1      -4.363   8.287 -13.500  1.00  0.00    -0.000 C 
BRANCH  18  19
ATOM     19  C   UNL     1      -5.766   8.216 -14.116  1.00  0.00    -0.003 C 
ATOM     20  C   UNL     1      -6.534   7.000 -13.601  1.00  0.00     0.004 C 
ENDBRANCH  18  19
ENDBRANCH  17  18
ENDBRANCH  16  17
ENDBRANCH  15  16
ENDBRANCH  14  15
ENDBRANCH  13  14
ENDBRANCH   2  13
TORSDOF 15
ENDMDL
MODEL 8
REMARK VINA RESULT:    -4.109      5.654      9.057
REMARK INTER + INTRA:          -9.168
REMARK INTER:                  -8.135
REMARK INTRA:                  -1.033
REMARK UNBOUND:                -1.457
REMARK SMILES CCCCCCCCC=CCCCCCCCC(=O)[O-]
REMARK SMILES IDX 10 1 9 2 11 3 12 4 13 5 14 6 15 7 16 8 17 9 18 10 19 11
REMARK SMILES IDX 20 12 8 13 7 14 6 15 5 16 4 17 3 18 2 19 1 20
REMARK H PARENT
REMARK Flexibility Score: inf
ROOT
ATOM      1  C   UNL     1      -2.077  13.781 -19.106  1.00  0.00    -0.031 C 
ATOM      2  C   UNL     1      -2.725  12.601 -19.099  1.00  0.00    -0.031 C 
ENDROOT
BRANCH   1   3
ATOM      3  C   UNL     1      -1.515  14.466 -17.885  1.00  0.00     0.027 C 
BRANCH   3   4
ATOM      4  C   UNL     1      -0.804  15.783 -18.235  1.00  0.00     0.004 C 
BRANCH   4   5
ATOM      5  C   UNL     1       0.650  15.551 -18.682  1.00  0.00     0.000 C 
BRANCH   5   6
ATOM      6  C   UNL     1       1.456  16.856 -18.784  1.00  0.00     0.000 C 
BRANCH   6   7
ATOM      7  C   UNL     1       1.028  17.726 -19.980  1.00  0.00     0.000 C 
BRANCH   7   8
ATOM      8  C   UNL     1       0.737  19.180 -19.572  1.00  0.00     0.006 C 
BRANCH   8   9
ATOM      9  C   UNL     1      -0.673  19.360 -18.994  1.00  0.00     0.053 C 
BRANCH   9  10
ATOM     10  C   UNL     1      -0.598  19.800 -17.567  1.00  0.00     0.041 C 
ATOM     11  O   UNL     1       0.520  20.018 -17.028  1.00  0.00    -0.550 OA
ATOM     12  O   UNL     1      -1.765  20.002 -16.839  1.00  0.00    -0.550 OA
ENDBRANCH   9  10
ENDBRANCH   8   9
ENDBRANCH   7   8
ENDBRANCH   6   7
ENDBRANCH   5   6
ENDBRANCH   4   5
ENDBRANCH   3   4
ENDBRANCH   1   3
BRANCH   2  13
ATOM     13  C   UNL     1      -3.057  11.799 -17.861  1.00  0.00     0.027 C 
BRANCH  13  14
ATOM     14  C   UNL     1      -4.559  11.847 -17.552  1.00  0.00     0.004 C 
BRANCH  14  15
ATOM     15  C   UNL     1      -4.841  12.342 -16.127  1.00  0.00     0.000 C 
BRANCH  15  16
ATOM     16  C   UNL     1      -3.532  12.599 -15.365  1.00  0.00     0.000 C 
BRANCH  16  17
ATOM     17  C   UNL     1      -3.135  11.426 -14.454  1.00  0.00    -0.000 C 
BRANCH  17  18
ATOM     18  C   UNL     1      -3.905  10.135 -14.778  1.00  0.00    -0.000 C 
BRANCH  18  19
ATOM     19  C   UNL     1      -4.658   9.621 -13.544  1.00  0.00    -0.003 C 
ATOM     20  C   UNL     1      -5.431   8.342 -13.862  1.00  0.00     0.004 C 
ENDBRANCH  18  19
ENDBRANCH  17  18
ENDBRANCH  16  17
ENDBRANCH  15  16
ENDBRANCH  14  15
ENDBRANCH  13  14
ENDBRANCH   2  13
TORSDOF 15
ENDMDL
MODEL 9
REMARK VINA RESULT:    -3.992      4.167      7.025
REMARK INTER + INTRA:          -8.949
REMARK INTER:                  -7.843
REMARK INTRA:                  -1.106
REMARK UNBOUND:                -1.457
REMARK SMILES CCCCCCCCC=CCCCCCCCC(=O)[O-]
REMARK SMILES IDX 10 1 9 2 11 3 12 4 13 5 14 6 15 7 16 8 17 9 18 10 19 11
REMARK SMILES IDX 20 12 8 13 7 14 6 15 5 16 4 17 3 18 2 19 1 20
REMARK H PARENT
REMARK Flexibility Score: inf
ROOT
ATOM      1  C   UNL     1      -1.768  14.557 -18.268  1.00  0.00    -0.031 C 
ATOM      2  C   UNL     1      -0.724  15.391 -18.103  1.00  0.00    -0.031 C 
ENDROOT
BRANCH   1   3
ATOM      3  C   UNL     1      -1.778  13.354 -19.179  1.00  0.00     0.027 C 
BRANCH   3   4
ATOM      4  C   UNL     1      -3.124  12.611 -19.144  1.00  0.00     0.004 C 
BRANCH   4   5
ATOM      5  C   UNL     1      -2.949  11.119 -18.814  1.00  0.00     0.000 C 
BRANCH   5   6
ATOM      6  C   UNL     1      -3.213  10.802 -17.333  1.00  0.00     0.000 C 
BRANCH   6   7
ATOM      7  C   UNL     1      -4.444  11.543 -16.778  1.00  0.00     0.000 C 
BRANCH   7   8
ATOM      8  C   UNL     1      -4.239  12.014 -15.329  1.00  0.00     0.006 C 
BRANCH   8   9
ATOM      9  C   UNL     1      -3.236  11.144 -14.561  1.00  0.00     0.053 C 
BRANCH   9  10
ATOM     10  C   UNL     1      -3.927   9.964 -13.955  1.00  0.00     0.041 C 
ATOM     11  O   UNL     1      -5.060   9.608 -14.375  1.00  0.00    -0.550 OA
ATOM     12  O   UNL     1      -3.306   9.238 -12.945  1.00  0.00    -0.550 OA
ENDBRANCH   9  10
ENDBRANCH   8   9
ENDBRANCH   7   8
ENDBRANCH   6   7
ENDBRANCH   5   6
ENDBRANCH   4   5
ENDBRANCH   3   4
ENDBRANCH   1   3
BRANCH   2  13
ATOM     13  C   UNL     1       0.586  15.302 -18.852  1.00  0.00     0.027 C 
BRANCH  13  14
ATOM     14  C   UNL     1       1.280  16.668 -18.926  1.00  0.00     0.004 C 
BRANCH  14  15
ATOM     15  C   UNL     1       1.668  17.043 -20.363  1.00  0.00     0.000 C 
BRANCH  15  16
ATOM     16  C   UNL     1       1.417  18.535 -20.628  1.00  0.00     0.000 C 
BRANCH  16  17
ATOM     17  C   UNL     1       0.993  19.300 -19.363  1.00  0.00    -0.000 C 
BRANCH  17  18
ATOM     18  C   UNL     1      -0.451  19.823 -19.441  1.00  0.00    -0.000 C 
BRANCH  18  19
ATOM     19  C   UNL     1      -1.316  19.212 -18.331  1.00  0.00    -0.003 C 
ATOM     20  C   UNL     1      -1.038  19.877 -16.984  1.00  0.00     0.004 C 
ENDBRANCH  18  19
ENDBRANCH  17  18
ENDBRANCH  16  17
ENDBRANCH  15  16
ENDBRANCH  14  15
ENDBRANCH  13  14
ENDBRANCH   2  13
TORSDOF 15
ENDMDL
