MODEL 1
REMARK VINA RESULT:    -3.871      0.000      0.000
REMARK INTER + INTRA:         -15.394
REMARK INTER:                 -10.208
REMARK INTRA:                  -5.186
REMARK UNBOUND:                -5.186
REMARK SMILES CCCCCCCCCCCCCCCCCCCCCCCCCCCCCC(=O)[O-]
REMARK SMILES IDX 16 1 17 2 18 3 19 4 20 5 21 6 22 7 23 8 24 9 25 10 26 11
REMARK SMILES IDX 27 12 28 13 29 14 30 15 31 16 32 17 15 18 14 19 13 20 12 21
REMARK SMILES IDX 11 22 10 23 9 24 8 25 7 26 6 27 5 28 4 29 3 30 2 31 1 32
REMARK H PARENT
REMARK Flexibility Score: inf
ROOT
ATOM      1  C   UNL     1      19.155  21.835  17.581  1.00  0.00     0.000 C 
ENDROOT
BRANCH   1   2
ATOM      2  C   UNL     1      19.614  23.295  17.385  1.00  0.00     0.000 C 
BRANCH   2   3
ATOM      3  C   UNL     1      21.120  23.543  17.586  1.00  0.00     0.000 C 
BRANCH   3   4
ATOM      4  C   UNL     1      21.478  23.913  19.036  1.00  0.00     0.000 C 
BRANCH   4   5
ATOM      5  C   UNL     1      21.959  22.703  19.857  1.00  0.00     0.000 C 
BRANCH   5   6
ATOM      6  C   UNL     1      21.114  22.386  21.109  1.00  0.00     0.000 C 
BRANCH   6   7
ATOM      7  C   UNL     1      19.999  23.403  21.429  1.00  0.00     0.000 C 
BRANCH   7   8
ATOM      8  C   UNL     1      18.563  22.871  21.266  1.00  0.00     0.000 C 
BRANCH   8   9
ATOM      9  C   UNL     1      18.505  21.339  21.131  1.00  0.00     0.000 C 
BRANCH   9  10
ATOM     10  C   UNL     1      17.083  20.784  21.309  1.00  0.00     0.000 C 
BRANCH  10  11
ATOM     11  C   UNL     1      17.069  19.303  21.726  1.00  0.00     0.000 C 
BRANCH  11  12
ATOM     12  C   UNL     1      18.471  18.671  21.706  1.00  0.00     0.000 C 
BRANCH  12  13
ATOM     13  C   UNL     1      18.490  17.253  22.299  1.00  0.00     0.006 C 
BRANCH  13  14
ATOM     14  C   UNL     1      19.623  17.067  23.318  1.00  0.00     0.053 C 
BRANCH  14  15
ATOM     15  C   UNL     1      19.102  16.901  24.713  1.00  0.00     0.041 C 
ATOM     16  O   UNL     1      18.015  16.297  24.915  1.00  0.00    -0.550 OA
ATOM     17  O   UNL     1      19.804  17.435  25.787  1.00  0.00    -0.550 OA
ENDBRANCH  14  15
ENDBRANCH  13  14
ENDBRANCH  12  13
ENDBRANCH  11  12
ENDBRANCH  10  11
ENDBRANCH   9  10
ENDBRANCH   8   9
ENDBRANCH   7   8
ENDBRANCH   6   7
ENDBRANCH   5   6
ENDBRANCH   4   5
ENDBRANCH   3   4
ENDBRANCH   2   3
ENDBRANCH   1   2
BRANCH   1  18
ATOM     18  C   UNL     1      17.629  21.635  17.642  1.00  0.00     0.000 C 
BRANCH  18  19
ATOM     19  C   UNL     1      17.146  20.197  17.364  1.00  0.00     0.000 C 
BRANCH  19  20
ATOM     20  C   UNL     1      18.002  19.068  17.977  1.00  0.00     0.000 C 
BRANCH  20  21
ATOM     21  C   UNL     1      17.245  17.779  18.366  1.00  0.00     0.000 C 
BRANCH  21  22
ATOM     22  C   UNL     1      18.126  16.523  18.492  1.00  0.00     0.000 C 
BRANCH  22  23
ATOM     23  C   UNL     1      19.494  16.657  17.803  1.00  0.00     0.000 C 
BRANCH  23  24
ATOM     24  C   UNL     1      20.520  15.626  18.306  1.00  0.00    -0.000 C 
BRANCH  24  25
ATOM     25  C   UNL     1      20.871  15.778  19.804  1.00  0.00    -0.000 C 
BRANCH  25  26
ATOM     26  C   UNL     1      22.377  15.665  20.102  1.00  0.00    -0.000 C 
BRANCH  26  27
ATOM     27  C   UNL     1      23.244  15.979  18.871  1.00  0.00    -0.000 C 
BRANCH  27  28
ATOM     28  C   UNL     1      24.572  16.667  19.230  1.00  0.00    -0.000 C 
BRANCH  28  29
ATOM     29  C   UNL     1      24.537  17.425  20.574  1.00  0.00    -0.000 C 
BRANCH  29  30
ATOM     30  C   UNL     1      24.515  18.954  20.388  1.00  0.00    -0.000 C 
BRANCH  30  31
ATOM     31  C   UNL     1      23.499  19.644  21.312  1.00  0.00    -0.003 C 
ATOM     32  C   UNL     1      22.186  18.871  21.432  1.00  0.00     0.004 C 
ENDBRANCH  30  31
ENDBRANCH  29  30
ENDBRANCH  28  29
ENDBRANCH  27  28
ENDBRANCH  26  27
ENDBRANCH  25  26
ENDBRANCH  24  25
ENDBRANCH  23  24
ENDBRANCH  22  23
ENDBRANCH  21  22
ENDBRANCH  20  21
ENDBRANCH  19  20
ENDBRANCH  18  19
ENDBRANCH   1  18
TORSDOF 28
ENDMDL
MODEL 2
REMARK VINA RESULT:    -3.571      2.790      6.826
REMARK INTER + INTRA:         -14.602
REMARK INTER:                 -10.036
REMARK INTRA:                  -4.566
REMARK UNBOUND:                -5.186
REMARK SMILES CCCCCCCCCCCCCCCCCCCCCCCCCCCCCC(=O)[O-]
REMARK SMILES IDX 16 1 17 2 18 3 19 4 20 5 21 6 22 7 23 8 24 9 25 10 26 11
REMARK SMILES IDX 27 12 28 13 29 14 30 15 31 16 32 17 15 18 14 19 13 20 12 21
REMARK SMILES IDX 11 22 10 23 9 24 8 25 7 26 6 27 5 28 4 29 3 30 2 31 1 32
REMARK H PARENT
REMARK Flexibility Score: inf
ROOT
ATOM      1  C   UNL     1      18.628  17.370  18.936  1.00  0.00     0.000 C 
ENDROOT
BRANCH   1   2
ATOM      2  C   UNL     1      17.455  16.554  19.520  1.00  0.00     0.000 C 
BRANCH   2   3
ATOM      3  C   UNL     1      17.003  16.972  20.931  1.00  0.00     0.000 C 
BRANCH   3   4
ATOM      4  C   UNL     1      18.084  17.750  21.701  1.00  0.00     0.000 C 
BRANCH   4   5
ATOM      5  C   UNL     1      17.955  17.595  23.227  1.00  0.00     0.000 C 
BRANCH   5   6
ATOM      6  C   UNL     1      19.060  16.750  23.894  1.00  0.00     0.000 C 
BRANCH   6   7
ATOM      7  C   UNL     1      19.338  15.385  23.232  1.00  0.00     0.000 C 
BRANCH   7   8
ATOM      8  C   UNL     1      20.796  15.157  22.790  1.00  0.00     0.000 C 
BRANCH   8   9
ATOM      9  C   UNL     1      21.071  15.657  21.361  1.00  0.00     0.000 C 
BRANCH   9  10
ATOM     10  C   UNL     1      21.600  17.100  21.331  1.00  0.00     0.000 C 
BRANCH  10  11
ATOM     11  C   UNL     1      23.105  17.178  21.019  1.00  0.00     0.000 C 
BRANCH  11  12
ATOM     12  C   UNL     1      23.697  18.565  21.316  1.00  0.00     0.000 C 
BRANCH  12  13
ATOM     13  C   UNL     1      24.804  18.961  20.324  1.00  0.00     0.006 C 
BRANCH  13  14
ATOM     14  C   UNL     1      25.098  17.847  19.311  1.00  0.00     0.053 C 
BRANCH  14  15
ATOM     15  C   UNL     1      26.469  17.270  19.493  1.00  0.00     0.041 C 
ATOM     16  O   UNL     1      27.288  17.820  20.275  1.00  0.00    -0.550 OA
ATOM     17  O   UNL     1      26.849  16.139  18.779  1.00  0.00    -0.550 OA
ENDBRANCH  14  15
ENDBRANCH  13  14
ENDBRANCH  12  13
ENDBRANCH  11  12
ENDBRANCH  10  11
ENDBRANCH   9  10
ENDBRANCH   8   9
ENDBRANCH   7   8
ENDBRANCH   6   7
ENDBRANCH   5   6
ENDBRANCH   4   5
ENDBRANCH   3   4
ENDBRANCH   2   3
ENDBRANCH   1   2
BRANCH   1  18
ATOM     18  C   UNL     1      18.388  17.935  17.523  1.00  0.00     0.000 C 
BRANCH  18  19
ATOM     19  C   UNL     1      17.625  19.275  17.478  1.00  0.00     0.000 C 
BRANCH  19  20
ATOM     20  C   UNL     1      18.300  20.460  18.200  1.00  0.00     0.000 C 
BRANCH  20  21
ATOM     21  C   UNL     1      17.398  21.276  19.152  1.00  0.00     0.000 C 
BRANCH  21  22
ATOM     22  C   UNL     1      17.758  21.158  20.645  1.00  0.00     0.000 C 
BRANCH  22  23
ATOM     23  C   UNL     1      19.246  21.407  20.942  1.00  0.00     0.000 C 
BRANCH  23  24
ATOM     24  C   UNL     1      19.499  22.763  21.625  1.00  0.00    -0.000 C 
BRANCH  24  25
ATOM     25  C   UNL     1      20.978  23.208  21.594  1.00  0.00    -0.000 C 
BRANCH  25  26
ATOM     26  C   UNL     1      21.973  22.045  21.426  1.00  0.00    -0.000 C 
BRANCH  26  27
ATOM     27  C   UNL     1      22.436  21.876  19.969  1.00  0.00    -0.000 C 
BRANCH  27  28
ATOM     28  C   UNL     1      22.084  23.083  19.082  1.00  0.00    -0.000 C 
BRANCH  28  29
ATOM     29  C   UNL     1      21.656  22.700  17.649  1.00  0.00    -0.000 C 
BRANCH  29  30
ATOM     30  C   UNL     1      20.345  23.386  17.222  1.00  0.00    -0.000 C 
BRANCH  30  31
ATOM     31  C   UNL     1      20.084  24.688  17.995  1.00  0.00    -0.003 C 
ATOM     32  C   UNL     1      18.842  24.610  18.885  1.00  0.00     0.004 C 
ENDBRANCH  30  31
ENDBRANCH  29  30
ENDBRANCH  28  29
ENDBRANCH  27  28
ENDBRANCH  26  27
ENDBRANCH  25  26
ENDBRANCH  24  25
ENDBRANCH  23  24
ENDBRANCH  22  23
ENDBRANCH  21  22
ENDBRANCH  20  21
ENDBRANCH  19  20
ENDBRANCH  18  19
ENDBRANCH   1  18
TORSDOF 28
ENDMDL
MODEL 3
REMARK VINA RESULT:    -3.510      1.297      3.722
REMARK INTER + INTRA:         -14.441
REMARK INTER:                  -9.889
REMARK INTRA:                  -4.553
REMARK UNBOUND:                -5.186
REMARK SMILES CCCCCCCCCCCCCCCCCCCCCCCCCCCCCC(=O)[O-]
REMARK SMILES IDX 16 1 17 2 18 3 19 4 20 5 21 6 22 7 23 8 24 9 25 10 26 11
REMARK SMILES IDX 27 12 28 13 29 14 30 15 31 16 32 17 15 18 14 19 13 20 12 21
REMARK SMILES IDX 11 22 10 23 9 24 8 25 7 26 6 27 5 28 4 29 3 30 2 31 1 32
REMARK H PARENT
REMARK Flexibility Score: inf
ROOT
ATOM      1  C   UNL     1      21.062  24.579  18.840  1.00  0.00     0.000 C 
ENDROOT
BRANCH   1   2
ATOM      2  C   UNL     1      20.826  23.578  17.689  1.00  0.00     0.000 C 
BRANCH   2   3
ATOM      3  C   UNL     1      19.439  23.656  17.025  1.00  0.00     0.000 C 
BRANCH   3   4
ATOM      4  C   UNL     1      18.748  22.285  16.919  1.00  0.00     0.000 C 
BRANCH   4   5
ATOM      5  C   UNL     1      18.939  21.423  18.180  1.00  0.00     0.000 C 
BRANCH   5   6
ATOM      6  C   UNL     1      17.873  21.626  19.277  1.00  0.00     0.000 C 
BRANCH   6   7
ATOM      7  C   UNL     1      17.383  20.337  19.969  1.00  0.00     0.000 C 
BRANCH   7   8
ATOM      8  C   UNL     1      18.325  19.125  19.837  1.00  0.00     0.000 C 
BRANCH   8   9
ATOM      9  C   UNL     1      17.800  18.065  18.853  1.00  0.00     0.000 C 
BRANCH   9  10
ATOM     10  C   UNL     1      18.609  16.760  18.905  1.00  0.00     0.000 C 
BRANCH  10  11
ATOM     11  C   UNL     1      18.844  16.260  20.342  1.00  0.00     0.000 C 
BRANCH  11  12
ATOM     12  C   UNL     1      17.595  15.598  20.947  1.00  0.00     0.000 C 
BRANCH  12  13
ATOM     13  C   UNL     1      17.626  15.570  22.485  1.00  0.00     0.006 C 
BRANCH  13  14
ATOM     14  C   UNL     1      18.781  16.404  23.055  1.00  0.00     0.053 C 
BRANCH  14  15
ATOM     15  C   UNL     1      18.703  16.525  24.547  1.00  0.00     0.041 C 
ATOM     16  O   UNL     1      17.711  16.062  25.168  1.00  0.00    -0.550 OA
ATOM     17  O   UNL     1      19.715  17.171  25.247  1.00  0.00    -0.550 OA
ENDBRANCH  14  15
ENDBRANCH  13  14
ENDBRANCH  12  13
ENDBRANCH  11  12
ENDBRANCH  10  11
ENDBRANCH   9  10
ENDBRANCH   8   9
ENDBRANCH   7   8
ENDBRANCH   6   7
ENDBRANCH   5   6
ENDBRANCH   4   5
ENDBRANCH   3   4
ENDBRANCH   2   3
ENDBRANCH   1   2
BRANCH   1  18
ATOM     18  C   UNL     1      19.889  24.723  19.828  1.00  0.00     0.000 C 
BRANCH  18  19
ATOM     19  C   UNL     1      20.000  23.862  21.103  1.00  0.00     0.000 C 
BRANCH  19  20
ATOM     20  C   UNL     1      21.307  23.056  21.260  1.00  0.00     0.000 C 
BRANCH  20  21
ATOM     21  C   UNL     1      21.201  21.536  21.006  1.00  0.00     0.000 C 
BRANCH  21  22
ATOM     22  C   UNL     1      22.550  20.806  20.870  1.00  0.00     0.000 C 
BRANCH  22  23
ATOM     23  C   UNL     1      22.657  19.541  21.737  1.00  0.00     0.000 C 
BRANCH  23  24
ATOM     24  C   UNL     1      21.783  18.385  21.216  1.00  0.00    -0.000 C 
BRANCH  24  25
ATOM     25  C   UNL     1      22.201  16.998  21.755  1.00  0.00    -0.000 C 
BRANCH  25  26
ATOM     26  C   UNL     1      22.196  15.891  20.686  1.00  0.00    -0.000 C 
BRANCH  26  27
ATOM     27  C   UNL     1      22.715  16.387  19.325  1.00  0.00    -0.000 C 
BRANCH  27  28
ATOM     28  C   UNL     1      23.996  15.666  18.870  1.00  0.00    -0.000 C 
BRANCH  28  29
ATOM     29  C   UNL     1      25.249  16.567  18.866  1.00  0.00    -0.000 C 
BRANCH  29  30
ATOM     30  C   UNL     1      24.960  17.982  19.402  1.00  0.00    -0.000 C 
BRANCH  30  31
ATOM     31  C   UNL     1      25.980  18.430  20.460  1.00  0.00    -0.003 C 
ATOM     32  C   UNL     1      27.267  17.603  20.430  1.00  0.00     0.004 C 
ENDBRANCH  30  31
ENDBRANCH  29  30
ENDBRANCH  28  29
ENDBRANCH  27  28
ENDBRANCH  26  27
ENDBRANCH  25  26
ENDBRANCH  24  25
ENDBRANCH  23  24
ENDBRANCH  22  23
ENDBRANCH  21  22
ENDBRANCH  20  21
ENDBRANCH  19  20
ENDBRANCH  18  19
ENDBRANCH   1  18
TORSDOF 28
ENDMDL
MODEL 4
REMARK VINA RESULT:    -3.492      1.574      3.549
REMARK INTER + INTRA:         -14.393
REMARK INTER:                 -10.011
REMARK INTRA:                  -4.381
REMARK UNBOUND:                -5.186
REMARK SMILES CCCCCCCCCCCCCCCCCCCCCCCCCCCCCC(=O)[O-]
REMARK SMILES IDX 16 1 17 2 18 3 19 4 20 5 21 6 22 7 23 8 24 9 25 10 26 11
REMARK SMILES IDX 27 12 28 13 29 14 30 15 31 16 32 17 15 18 14 19 13 20 12 21
REMARK SMILES IDX 11 22 10 23 9 24 8 25 7 26 6 27 5 28 4 29 3 30 2 31 1 32
REMARK H PARENT
REMARK Flexibility Score: inf
ROOT
ATOM      1  C   UNL     1      20.101  23.555  21.095  1.00  0.00     0.000 C 
ENDROOT
BRANCH   1   2
ATOM      2  C   UNL     1      20.281  24.904  20.367  1.00  0.00     0.000 C 
BRANCH   2   3
ATOM      3  C   UNL     1      20.012  24.875  18.852  1.00  0.00     0.000 C 
BRANCH   3   4
ATOM      4  C   UNL     1      21.016  23.999  18.081  1.00  0.00     0.000 C 
BRANCH   4   5
ATOM      5  C   UNL     1      20.369  22.733  17.492  1.00  0.00     0.000 C 
BRANCH   5   6
ATOM      6  C   UNL     1      18.841  22.633  17.676  1.00  0.00     0.000 C 
BRANCH   6   7
ATOM      7  C   UNL     1      18.211  21.289  17.257  1.00  0.00     0.000 C 
BRANCH   7   8
ATOM      8  C   UNL     1      17.480  20.530  18.381  1.00  0.00     0.000 C 
BRANCH   8   9
ATOM      9  C   UNL     1      18.412  20.141  19.542  1.00  0.00     0.000 C 
BRANCH   9  10
ATOM     10  C   UNL     1      17.941  20.706  20.892  1.00  0.00     0.000 C 
BRANCH  10  11
ATOM     11  C   UNL     1      17.404  19.618  21.839  1.00  0.00     0.000 C 
BRANCH  11  12
ATOM     12  C   UNL     1      17.421  18.220  21.200  1.00  0.00     0.000 C 
BRANCH  12  13
ATOM     13  C   UNL     1      17.541  17.094  22.241  1.00  0.00     0.006 C 
BRANCH  13  14
ATOM     14  C   UNL     1      18.274  17.554  23.509  1.00  0.00     0.053 C 
BRANCH  14  15
ATOM     15  C   UNL     1      18.803  16.399  24.303  1.00  0.00     0.041 C 
ATOM     16  O   UNL     1      20.018  16.079  24.222  1.00  0.00    -0.550 OA
ATOM     17  O   UNL     1      17.948  15.661  25.113  1.00  0.00    -0.550 OA
ENDBRANCH  14  15
ENDBRANCH  13  14
ENDBRANCH  12  13
ENDBRANCH  11  12
ENDBRANCH  10  11
ENDBRANCH   9  10
ENDBRANCH   8   9
ENDBRANCH   7   8
ENDBRANCH   6   7
ENDBRANCH   5   6
ENDBRANCH   4   5
ENDBRANCH   3   4
ENDBRANCH   2   3
ENDBRANCH   1   2
BRANCH   1  18
ATOM     18  C   UNL     1      21.412  22.840  21.472  1.00  0.00     0.000 C 
BRANCH  18  19
ATOM     19  C   UNL     1      21.597  21.442  20.847  1.00  0.00     0.000 C 
BRANCH  19  20
ATOM     20  C   UNL     1      22.800  20.625  21.365  1.00  0.00     0.000 C 
BRANCH  20  21
ATOM     21  C   UNL     1      22.507  19.157  21.747  1.00  0.00     0.000 C 
BRANCH  21  22
ATOM     22  C   UNL     1      21.070  18.686  21.454  1.00  0.00     0.000 C 
BRANCH  22  23
ATOM     23  C   UNL     1      21.002  17.346  20.704  1.00  0.00     0.000 C 
BRANCH  23  24
ATOM     24  C   UNL     1      22.090  16.354  21.152  1.00  0.00    -0.000 C 
BRANCH  24  25
ATOM     25  C   UNL     1      22.488  15.333  20.063  1.00  0.00    -0.000 C 
BRANCH  25  26
ATOM     26  C   UNL     1      23.170  15.968  18.837  1.00  0.00    -0.000 C 
BRANCH  26  27
ATOM     27  C   UNL     1      24.656  16.278  19.088  1.00  0.00    -0.000 C 
BRANCH  27  28
ATOM     28  C   UNL     1      24.909  17.747  19.470  1.00  0.00    -0.000 C 
BRANCH  28  29
ATOM     29  C   UNL     1      25.744  17.921  20.756  1.00  0.00    -0.000 C 
BRANCH  29  30
ATOM     30  C   UNL     1      27.253  18.030  20.469  1.00  0.00    -0.000 C 
BRANCH  30  31
ATOM     31  C   UNL     1      28.020  16.758  20.861  1.00  0.00    -0.003 C 
ATOM     32  C   UNL     1      28.807  16.919  22.163  1.00  0.00     0.004 C 
ENDBRANCH  30  31
ENDBRANCH  29  30
ENDBRANCH  28  29
ENDBRANCH  27  28
ENDBRANCH  26  27
ENDBRANCH  25  26
ENDBRANCH  24  25
ENDBRANCH  23  24
ENDBRANCH  22  23
ENDBRANCH  21  22
ENDBRANCH  20  21
ENDBRANCH  19  20
ENDBRANCH  18  19
ENDBRANCH   1  18
TORSDOF 28
ENDMDL
MODEL 5
REMARK VINA RESULT:    -3.409      3.508      8.273
REMARK INTER + INTRA:         -14.174
REMARK INTER:                 -10.396
REMARK INTRA:                  -3.777
REMARK UNBOUND:                -5.186
REMARK SMILES CCCCCCCCCCCCCCCCCCCCCCCCCCCCCC(=O)[O-]
REMARK SMILES IDX 16 1 17 2 18 3 19 4 20 5 21 6 22 7 23 8 24 9 25 10 26 11
REMARK SMILES IDX 27 12 28 13 29 14 30 15 31 16 32 17 15 18 14 19 13 20 12 21
REMARK SMILES IDX 11 22 10 23 9 24 8 25 7 26 6 27 5 28 4 29 3 30 2 31 1 32
REMARK H PARENT
REMARK Flexibility Score: inf
ROOT
ATOM      1  C   UNL     1      22.860  20.475  21.676  1.00  0.00     0.000 C 
ENDROOT
BRANCH   1   2
ATOM      2  C   UNL     1      23.614  19.285  21.047  1.00  0.00     0.000 C 
BRANCH   2   3
ATOM      3  C   UNL     1      23.026  17.896  21.355  1.00  0.00     0.000 C 
BRANCH   3   4
ATOM      4  C   UNL     1      23.526  16.805  20.392  1.00  0.00     0.000 C 
BRANCH   4   5
ATOM      5  C   UNL     1      22.391  16.183  19.559  1.00  0.00     0.000 C 
BRANCH   5   6
ATOM      6  C   UNL     1      22.821  15.616  18.189  1.00  0.00     0.000 C 
BRANCH   6   7
ATOM      7  C   UNL     1      24.292  15.160  18.096  1.00  0.00     0.000 C 
BRANCH   7   8
ATOM      8  C   UNL     1      25.165  15.967  17.116  1.00  0.00     0.000 C 
BRANCH   8   9
ATOM      9  C   UNL     1      26.648  16.001  17.528  1.00  0.00     0.000 C 
BRANCH   9  10
ATOM     10  C   UNL     1      26.835  16.111  19.050  1.00  0.00     0.000 C 
BRANCH  10  11
ATOM     11  C   UNL     1      26.829  17.567  19.548  1.00  0.00     0.000 C 
BRANCH  11  12
ATOM     12  C   UNL     1      27.326  17.697  20.997  1.00  0.00     0.000 C 
BRANCH  12  13
ATOM     13  C   UNL     1      28.486  16.738  21.313  1.00  0.00     0.006 C 
BRANCH  13  14
ATOM     14  C   UNL     1      28.851  16.742  22.804  1.00  0.00     0.053 C 
BRANCH  14  15
ATOM     15  C   UNL     1      29.951  15.774  23.115  1.00  0.00     0.041 C 
ATOM     16  O   UNL     1      29.877  15.039  24.135  1.00  0.00    -0.550 OA
ATOM     17  O   UNL     1      31.068  15.701  22.292  1.00  0.00    -0.550 OA
ENDBRANCH  14  15
ENDBRANCH  13  14
ENDBRANCH  12  13
ENDBRANCH  11  12
ENDBRANCH  10  11
ENDBRANCH   9  10
ENDBRANCH   8   9
ENDBRANCH   7   8
ENDBRANCH   6   7
ENDBRANCH   5   6
ENDBRANCH   4   5
ENDBRANCH   3   4
ENDBRANCH   2   3
ENDBRANCH   1   2
BRANCH   1  18
ATOM     18  C   UNL     1      22.082  21.353  20.677  1.00  0.00     0.000 C 
BRANCH  18  19
ATOM     19  C   UNL     1      21.668  22.739  21.213  1.00  0.00     0.000 C 
BRANCH  19  20
ATOM     20  C   UNL     1      20.153  22.962  21.408  1.00  0.00     0.000 C 
BRANCH  20  21
ATOM     21  C   UNL     1      19.519  24.085  20.557  1.00  0.00     0.000 C 
BRANCH  21  22
ATOM     22  C   UNL     1      20.526  25.027  19.874  1.00  0.00     0.000 C 
BRANCH  22  23
ATOM     23  C   UNL     1      20.875  24.617  18.433  1.00  0.00     0.000 C 
BRANCH  23  24
ATOM     24  C   UNL     1      19.658  24.092  17.651  1.00  0.00    -0.000 C 
BRANCH  24  25
ATOM     25  C   UNL     1      19.671  22.562  17.434  1.00  0.00    -0.000 C 
BRANCH  25  26
ATOM     26  C   UNL     1      18.266  21.937  17.345  1.00  0.00    -0.000 C 
BRANCH  26  27
ATOM     27  C   UNL     1      17.849  21.247  18.655  1.00  0.00    -0.000 C 
BRANCH  27  28
ATOM     28  C   UNL     1      18.873  20.206  19.139  1.00  0.00    -0.000 C 
BRANCH  28  29
ATOM     29  C   UNL     1      18.665  19.761  20.602  1.00  0.00    -0.000 C 
BRANCH  29  30
ATOM     30  C   UNL     1      19.597  18.603  21.005  1.00  0.00    -0.000 C 
BRANCH  30  31
ATOM     31  C   UNL     1      18.915  17.600  21.949  1.00  0.00    -0.003 C 
ATOM     32  C   UNL     1      19.485  16.186  21.823  1.00  0.00     0.004 C 
ENDBRANCH  30  31
ENDBRANCH  29  30
ENDBRANCH  28  29
ENDBRANCH  27  28
ENDBRANCH  26  27
ENDBRANCH  25  26
ENDBRANCH  24  25
ENDBRANCH  23  24
ENDBRANCH  22  23
ENDBRANCH  21  22
ENDBRANCH  20  21
ENDBRANCH  19  20
ENDBRANCH  18  19
ENDBRANCH   1  18
TORSDOF 28
ENDMDL
MODEL 6
REMARK VINA RESULT:    -3.289      2.870      5.193
REMARK INTER + INTRA:         -13.858
REMARK INTER:                  -9.581
REMARK INTRA:                  -4.277
REMARK UNBOUND:                -5.186
REMARK SMILES CCCCCCCCCCCCCCCCCCCCCCCCCCCCCC(=O)[O-]
REMARK SMILES IDX 16 1 17 2 18 3 19 4 20 5 21 6 22 7 23 8 24 9 25 10 26 11
REMARK SMILES IDX 27 12 28 13 29 14 30 15 31 16 32 17 15 18 14 19 13 20 12 21
REMARK SMILES IDX 11 22 10 23 9 24 8 25 7 26 6 27 5 28 4 29 3 30 2 31 1 32
REMARK H PARENT
REMARK Flexibility Score: inf
ROOT
ATOM      1  C   UNL     1      19.955  24.273  17.441  1.00  0.00     0.000 C 
ENDROOT
BRANCH   1   2
ATOM      2  C   UNL     1      20.970  24.632  18.546  1.00  0.00     0.000 C 
BRANCH   2   3
ATOM      3  C   UNL     1      20.379  25.346  19.774  1.00  0.00     0.000 C 
BRANCH   3   4
ATOM      4  C   UNL     1      19.559  24.408  20.677  1.00  0.00     0.000 C 
BRANCH   4   5
ATOM      5  C   UNL     1      20.435  23.390  21.428  1.00  0.00     0.000 C 
BRANCH   5   6
ATOM      6  C   UNL     1      20.121  21.909  21.127  1.00  0.00     0.000 C 
BRANCH   6   7
ATOM      7  C   UNL     1      21.274  21.105  20.492  1.00  0.00     0.000 C 
BRANCH   7   8
ATOM      8  C   UNL     1      22.613  21.169  21.251  1.00  0.00     0.000 C 
BRANCH   8   9
ATOM      9  C   UNL     1      22.929  19.871  22.013  1.00  0.00     0.000 C 
BRANCH   9  10
ATOM     10  C   UNL     1      22.342  18.626  21.329  1.00  0.00     0.000 C 
BRANCH  10  11
ATOM     11  C   UNL     1      23.300  17.422  21.359  1.00  0.00     0.000 C 
BRANCH  11  12
ATOM     12  C   UNL     1      23.902  17.113  19.978  1.00  0.00     0.000 C 
BRANCH  12  13
ATOM     13  C   UNL     1      24.797  18.249  19.456  1.00  0.00     0.006 C 
BRANCH  13  14
ATOM     14  C   UNL     1      26.030  18.469  20.343  1.00  0.00     0.053 C 
BRANCH  14  15
ATOM     15  C   UNL     1      27.070  17.411  20.132  1.00  0.00     0.041 C 
ATOM     16  O   UNL     1      27.046  16.699  19.093  1.00  0.00    -0.550 OA
ATOM     17  O   UNL     1      28.050  17.197  21.093  1.00  0.00    -0.550 OA
ENDBRANCH  14  15
ENDBRANCH  13  14
ENDBRANCH  12  13
ENDBRANCH  11  12
ENDBRANCH  10  11
ENDBRANCH   9  10
ENDBRANCH   8   9
ENDBRANCH   7   8
ENDBRANCH   6   7
ENDBRANCH   5   6
ENDBRANCH   4   5
ENDBRANCH   3   4
ENDBRANCH   2   3
ENDBRANCH   1   2
BRANCH   1  18
ATOM     18  C   UNL     1      20.005  22.810  16.961  1.00  0.00     0.000 C 
BRANCH  18  19
ATOM     19  C   UNL     1      18.669  22.045  17.058  1.00  0.00     0.000 C 
BRANCH  19  20
ATOM     20  C   UNL     1      18.266  21.569  18.470  1.00  0.00     0.000 C 
BRANCH  20  21
ATOM     21  C   UNL     1      16.881  20.894  18.587  1.00  0.00     0.000 C 
BRANCH  21  22
ATOM     22  C   UNL     1      16.917  19.408  18.990  1.00  0.00     0.000 C 
BRANCH  22  23
ATOM     23  C   UNL     1      17.507  19.162  20.389  1.00  0.00     0.000 C 
BRANCH  23  24
ATOM     24  C   UNL     1      18.877  18.461  20.344  1.00  0.00    -0.000 C 
BRANCH  24  25
ATOM     25  C   UNL     1      19.010  17.429  19.202  1.00  0.00    -0.000 C 
BRANCH  25  26
ATOM     26  C   UNL     1      19.013  15.967  19.685  1.00  0.00    -0.000 C 
BRANCH  26  27
ATOM     27  C   UNL     1      20.184  15.667  20.636  1.00  0.00    -0.000 C 
BRANCH  27  28
ATOM     28  C   UNL     1      19.729  15.083  21.986  1.00  0.00    -0.000 C 
BRANCH  28  29
ATOM     29  C   UNL     1      20.441  15.704  23.206  1.00  0.00    -0.000 C 
BRANCH  29  30
ATOM     30  C   UNL     1      19.808  17.039  23.640  1.00  0.00    -0.000 C 
BRANCH  30  31
ATOM     31  C   UNL     1      18.301  16.916  23.911  1.00  0.00    -0.003 C 
ATOM     32  C   UNL     1      17.945  15.668  24.721  1.00  0.00     0.004 C 
ENDBRANCH  30  31
ENDBRANCH  29  30
ENDBRANCH  28  29
ENDBRANCH  27  28
ENDBRANCH  26  27
ENDBRANCH  25  26
ENDBRANCH  24  25
ENDBRANCH  23  24
ENDBRANCH  22  23
ENDBRANCH  21  22
ENDBRANCH  20  21
ENDBRANCH  19  20
ENDBRANCH  18  19
ENDBRANCH   1  18
TORSDOF 28
ENDMDL
MODEL 7
REMARK VINA RESULT:    -3.273      1.257      2.081
REMARK INTER + INTRA:         -13.816
REMARK INTER:                  -9.879
REMARK INTRA:                  -3.936
REMARK UNBOUND:                -5.186
REMARK SMILES CCCCCCCCCCCCCCCCCCCCCCCCCCCCCC(=O)[O-]
REMARK SMILES IDX 16 1 17 2 18 3 19 4 20 5 21 6 22 7 23 8 24 9 25 10 26 11
REMARK SMILES IDX 27 12 28 13 29 14 30 15 31 16 32 17 15 18 14 19 13 20 12 21
REMARK SMILES IDX 11 22 10 23 9 24 8 25 7 26 6 27 5 28 4 29 3 30 2 31 1 32
REMARK H PARENT
REMARK Flexibility Score: inf
ROOT
ATOM      1  C   UNL     1      18.844  21.630  17.862  1.00  0.00     0.000 C 
ENDROOT
BRANCH   1   2
ATOM      2  C   UNL     1      19.275  22.825  16.986  1.00  0.00     0.000 C 
BRANCH   2   3
ATOM      3  C   UNL     1      20.786  23.116  16.969  1.00  0.00     0.000 C 
BRANCH   3   4
ATOM      4  C   UNL     1      21.297  23.711  18.294  1.00  0.00     0.000 C 
BRANCH   4   5
ATOM      5  C   UNL     1      22.153  22.718  19.100  1.00  0.00     0.000 C 
BRANCH   5   6
ATOM      6  C   UNL     1      21.448  22.084  20.317  1.00  0.00     0.000 C 
BRANCH   6   7
ATOM      7  C   UNL     1      21.425  22.951  21.592  1.00  0.00     0.000 C 
BRANCH   7   8
ATOM      8  C   UNL     1      20.190  23.861  21.743  1.00  0.00     0.000 C 
BRANCH   8   9
ATOM      9  C   UNL     1      18.917  23.243  21.139  1.00  0.00     0.000 C 
BRANCH   9  10
ATOM     10  C   UNL     1      18.089  22.465  22.174  1.00  0.00     0.000 C 
BRANCH  10  11
ATOM     11  C   UNL     1      17.077  21.503  21.527  1.00  0.00     0.000 C 
BRANCH  11  12
ATOM     12  C   UNL     1      17.474  20.027  21.699  1.00  0.00     0.000 C 
BRANCH  12  13
ATOM     13  C   UNL     1      18.680  19.634  20.830  1.00  0.00     0.006 C 
BRANCH  13  14
ATOM     14  C   UNL     1      19.379  18.369  21.349  1.00  0.00     0.053 C 
BRANCH  14  15
ATOM     15  C   UNL     1      18.440  17.478  22.104  1.00  0.00     0.041 C 
ATOM     16  O   UNL     1      18.465  17.455  23.363  1.00  0.00    -0.550 OA
ATOM     17  O   UNL     1      17.554  16.658  21.416  1.00  0.00    -0.550 OA
ENDBRANCH  14  15
ENDBRANCH  13  14
ENDBRANCH  12  13
ENDBRANCH  11  12
ENDBRANCH  10  11
ENDBRANCH   9  10
ENDBRANCH   8   9
ENDBRANCH   7   8
ENDBRANCH   6   7
ENDBRANCH   5   6
ENDBRANCH   4   5
ENDBRANCH   3   4
ENDBRANCH   2   3
ENDBRANCH   1   2
BRANCH   1  18
ATOM     18  C   UNL     1      17.352  21.259  17.767  1.00  0.00     0.000 C 
BRANCH  18  19
ATOM     19  C   UNL     1      17.044  19.995  16.938  1.00  0.00     0.000 C 
BRANCH  19  20
ATOM     20  C   UNL     1      17.114  18.655  17.700  1.00  0.00     0.000 C 
BRANCH  20  21
ATOM     21  C   UNL     1      17.865  17.509  16.987  1.00  0.00     0.000 C 
BRANCH  21  22
ATOM     22  C   UNL     1      18.258  16.329  17.895  1.00  0.00     0.000 C 
BRANCH  22  23
ATOM     23  C   UNL     1      19.317  15.401  17.276  1.00  0.00     0.000 C 
BRANCH  23  24
ATOM     24  C   UNL     1      20.726  16.020  17.275  1.00  0.00    -0.000 C 
BRANCH  24  25
ATOM     25  C   UNL     1      21.668  15.424  18.345  1.00  0.00    -0.000 C 
BRANCH  25  26
ATOM     26  C   UNL     1      21.573  16.124  19.713  1.00  0.00    -0.000 C 
BRANCH  26  27
ATOM     27  C   UNL     1      22.925  16.162  20.446  1.00  0.00    -0.000 C 
BRANCH  27  28
ATOM     28  C   UNL     1      23.229  17.533  21.076  1.00  0.00    -0.000 C 
BRANCH  28  29
ATOM     29  C   UNL     1      24.123  18.437  20.200  1.00  0.00    -0.000 C 
BRANCH  29  30
ATOM     30  C   UNL     1      25.590  18.443  20.666  1.00  0.00    -0.000 C 
BRANCH  30  31
ATOM     31  C   UNL     1      26.469  17.478  19.856  1.00  0.00    -0.003 C 
ATOM     32  C   UNL     1      25.800  17.011  18.562  1.00  0.00     0.004 C 
ENDBRANCH  30  31
ENDBRANCH  29  30
ENDBRANCH  28  29
ENDBRANCH  27  28
ENDBRANCH  26  27
ENDBRANCH  25  26
ENDBRANCH  24  25
ENDBRANCH  23  24
ENDBRANCH  22  23
ENDBRANCH  21  22
ENDBRANCH  20  21
ENDBRANCH  19  20
ENDBRANCH  18  19
ENDBRANCH   1  18
TORSDOF 28
ENDMDL
MODEL 8
REMARK VINA RESULT:    -3.254      2.767      5.208
REMARK INTER + INTRA:         -13.766
REMARK INTER:                  -9.842
REMARK INTRA:                  -3.924
REMARK UNBOUND:                -5.186
REMARK SMILES CCCCCCCCCCCCCCCCCCCCCCCCCCCCCC(=O)[O-]
REMARK SMILES IDX 16 1 17 2 18 3 19 4 20 5 21 6 22 7 23 8 24 9 25 10 26 11
REMARK SMILES IDX 27 12 28 13 29 14 30 15 31 16 32 17 15 18 14 19 13 20 12 21
REMARK SMILES IDX 11 22 10 23 9 24 8 25 7 26 6 27 5 28 4 29 3 30 2 31 1 32
REMARK H PARENT
REMARK Flexibility Score: inf
ROOT
ATOM      1  C   UNL     1      17.283  20.997  20.209  1.00  0.00     0.000 C 
ENDROOT
BRANCH   1   2
ATOM      2  C   UNL     1      18.574  21.839  20.152  1.00  0.00     0.000 C 
BRANCH   2   3
ATOM      3  C   UNL     1      18.670  22.815  18.965  1.00  0.00     0.000 C 
BRANCH   3   4
ATOM      4  C   UNL     1      19.734  22.402  17.933  1.00  0.00     0.000 C 
BRANCH   4   5
ATOM      5  C   UNL     1      20.994  23.285  17.992  1.00  0.00     0.000 C 
BRANCH   5   6
ATOM      6  C   UNL     1      21.585  23.486  19.403  1.00  0.00     0.000 C 
BRANCH   6   7
ATOM      7  C   UNL     1      22.496  22.347  19.906  1.00  0.00     0.000 C 
BRANCH   7   8
ATOM      8  C   UNL     1      21.919  21.511  21.064  1.00  0.00     0.000 C 
BRANCH   8   9
ATOM      9  C   UNL     1      22.860  20.377  21.507  1.00  0.00     0.000 C 
BRANCH   9  10
ATOM     10  C   UNL     1      22.122  19.045  21.717  1.00  0.00     0.000 C 
BRANCH  10  11
ATOM     11  C   UNL     1      22.866  17.847  21.099  1.00  0.00     0.000 C 
BRANCH  11  12
ATOM     12  C   UNL     1      24.390  17.944  21.279  1.00  0.00     0.000 C 
BRANCH  12  13
ATOM     13  C   UNL     1      25.111  18.378  19.993  1.00  0.00     0.006 C 
BRANCH  13  14
ATOM     14  C   UNL     1      26.336  17.504  19.693  1.00  0.00     0.053 C 
BRANCH  14  15
ATOM     15  C   UNL     1      26.046  16.471  18.647  1.00  0.00     0.041 C 
ATOM     16  O   UNL     1      26.983  15.991  17.955  1.00  0.00    -0.550 OA
ATOM     17  O   UNL     1      24.739  16.057  18.420  1.00  0.00    -0.550 OA
ENDBRANCH  14  15
ENDBRANCH  13  14
ENDBRANCH  12  13
ENDBRANCH  11  12
ENDBRANCH  10  11
ENDBRANCH   9  10
ENDBRANCH   8   9
ENDBRANCH   7   8
ENDBRANCH   6   7
ENDBRANCH   5   6
ENDBRANCH   4   5
ENDBRANCH   3   4
ENDBRANCH   2   3
ENDBRANCH   1   2
BRANCH   1  18
ATOM     18  C   UNL     1      16.997  20.157  18.950  1.00  0.00     0.000 C 
BRANCH  18  19
ATOM     19  C   UNL     1      18.153  19.239  18.502  1.00  0.00     0.000 C 
BRANCH  19  20
ATOM     20  C   UNL     1      17.896  18.403  17.229  1.00  0.00     0.000 C 
BRANCH  20  21
ATOM     21  C   UNL     1      17.505  16.927  17.457  1.00  0.00     0.000 C 
BRANCH  21  22
ATOM     22  C   UNL     1      18.674  15.928  17.383  1.00  0.00     0.000 C 
BRANCH  22  23
ATOM     23  C   UNL     1      19.923  16.381  18.157  1.00  0.00     0.000 C 
BRANCH  23  24
ATOM     24  C   UNL     1      20.011  15.763  19.564  1.00  0.00    -0.000 C 
BRANCH  24  25
ATOM     25  C   UNL     1      18.683  15.143  20.055  1.00  0.00    -0.000 C 
BRANCH  25  26
ATOM     26  C   UNL     1      17.884  16.057  21.001  1.00  0.00    -0.000 C 
BRANCH  26  27
ATOM     27  C   UNL     1      18.638  17.355  21.337  1.00  0.00    -0.000 C 
BRANCH  27  28
ATOM     28  C   UNL     1      18.084  18.067  22.584  1.00  0.00    -0.000 C 
BRANCH  28  29
ATOM     29  C   UNL     1      18.186  17.229  23.876  1.00  0.00    -0.000 C 
BRANCH  29  30
ATOM     30  C   UNL     1      19.638  16.840  24.213  1.00  0.00    -0.000 C 
BRANCH  30  31
ATOM     31  C   UNL     1      19.924  15.352  23.953  1.00  0.00    -0.003 C 
ATOM     32  C   UNL     1      21.150  15.131  23.066  1.00  0.00     0.004 C 
ENDBRANCH  30  31
ENDBRANCH  29  30
ENDBRANCH  28  29
ENDBRANCH  27  28
ENDBRANCH  26  27
ENDBRANCH  25  26
ENDBRANCH  24  25
ENDBRANCH  23  24
ENDBRANCH  22  23
ENDBRANCH  21  22
ENDBRANCH  20  21
ENDBRANCH  19  20
ENDBRANCH  18  19
ENDBRANCH   1  18
TORSDOF 28
ENDMDL
MODEL 9
REMARK VINA RESULT:    -3.220      4.315      9.118
REMARK INTER + INTRA:         -13.676
REMARK INTER:                 -10.202
REMARK INTRA:                  -3.475
REMARK UNBOUND:                -5.186
REMARK SMILES CCCCCCCCCCCCCCCCCCCCCCCCCCCCCC(=O)[O-]
REMARK SMILES IDX 16 1 17 2 18 3 19 4 20 5 21 6 22 7 23 8 24 9 25 10 26 11
REMARK SMILES IDX 27 12 28 13 29 14 30 15 31 16 32 17 15 18 14 19 13 20 12 21
REMARK SMILES IDX 11 22 10 23 9 24 8 25 7 26 6 27 5 28 4 29 3 30 2 31 1 32
REMARK H PARENT
REMARK Flexibility Score: inf
ROOT
ATOM      1  C   UNL     1      23.549  17.340  21.320  1.00  0.00     0.000 C 
ENDROOT
BRANCH   1   2
ATOM      2  C   UNL     1      22.282  16.802  20.623  1.00  0.00     0.000 C 
BRANCH   2   3
ATOM      3  C   UNL     1      22.454  15.458  19.892  1.00  0.00     0.000 C 
BRANCH   3   4
ATOM      4  C   UNL     1      22.846  15.625  18.413  1.00  0.00     0.000 C 
BRANCH   4   5
ATOM      5  C   UNL     1      24.242  15.057  18.101  1.00  0.00     0.000 C 
BRANCH   5   6
ATOM      6  C   UNL     1      25.151  15.982  17.264  1.00  0.00     0.000 C 
BRANCH   6   7
ATOM      7  C   UNL     1      26.655  15.909  17.601  1.00  0.00     0.000 C 
BRANCH   7   8
ATOM      8  C   UNL     1      26.999  16.065  19.095  1.00  0.00     0.000 C 
BRANCH   8   9
ATOM      9  C   UNL     1      26.743  17.488  19.621  1.00  0.00     0.000 C 
BRANCH   9  10
ATOM     10  C   UNL     1      27.415  17.745  20.979  1.00  0.00     0.000 C 
BRANCH  10  11
ATOM     11  C   UNL     1      28.518  16.721  21.302  1.00  0.00     0.000 C 
BRANCH  11  12
ATOM     12  C   UNL     1      28.881  16.697  22.796  1.00  0.00     0.000 C 
BRANCH  12  13
ATOM     13  C   UNL     1      29.241  15.288  23.295  1.00  0.00     0.006 C 
BRANCH  13  14
ATOM     14  C   UNL     1      30.468  15.295  24.216  1.00  0.00     0.053 C 
BRANCH  14  15
ATOM     15  C   UNL     1      31.749  15.185  23.445  1.00  0.00     0.041 C 
ATOM     16  O   UNL     1      32.855  15.268  24.042  1.00  0.00    -0.550 OA
ATOM     17  O   UNL     1      31.720  15.016  22.066  1.00  0.00    -0.550 OA
ENDBRANCH  14  15
ENDBRANCH  13  14
ENDBRANCH  12  13
ENDBRANCH  11  12
ENDBRANCH  10  11
ENDBRANCH   9  10
ENDBRANCH   8   9
ENDBRANCH   7   8
ENDBRANCH   6   7
ENDBRANCH   5   6
ENDBRANCH   4   5
ENDBRANCH   3   4
ENDBRANCH   2   3
ENDBRANCH   1   2
BRANCH   1  18
ATOM     18  C   UNL     1      23.798  18.850  21.143  1.00  0.00     0.000 C 
BRANCH  18  19
ATOM     19  C   UNL     1      22.576  19.750  21.420  1.00  0.00     0.000 C 
BRANCH  19  20
ATOM     20  C   UNL     1      22.886  21.222  21.766  1.00  0.00     0.000 C 
BRANCH  20  21
ATOM     21  C   UNL     1      21.827  22.258  21.329  1.00  0.00     0.000 C 
BRANCH  21  22
ATOM     22  C   UNL     1      22.216  23.104  20.103  1.00  0.00     0.000 C 
BRANCH  22  23
ATOM     23  C   UNL     1      21.949  22.403  18.760  1.00  0.00     0.000 C 
BRANCH  23  24
ATOM     24  C   UNL     1      21.406  23.361  17.685  1.00  0.00    -0.000 C 
BRANCH  24  25
ATOM     25  C   UNL     1      19.864  23.364  17.576  1.00  0.00    -0.000 C 
BRANCH  25  26
ATOM     26  C   UNL     1      19.177  24.332  18.557  1.00  0.00    -0.000 C 
BRANCH  26  27
ATOM     27  C   UNL     1      18.781  23.646  19.876  1.00  0.00    -0.000 C 
BRANCH  27  28
ATOM     28  C   UNL     1      18.026  22.322  19.664  1.00  0.00    -0.000 C 
BRANCH  28  29
ATOM     29  C   UNL     1      18.452  21.200  20.634  1.00  0.00    -0.000 C 
BRANCH  29  30
ATOM     30  C   UNL     1      19.167  20.040  19.915  1.00  0.00    -0.000 C 
BRANCH  30  31
ATOM     31  C   UNL     1      19.031  18.708  20.669  1.00  0.00    -0.003 C 
ATOM     32  C   UNL     1      18.828  17.516  19.732  1.00  0.00     0.004 C 
ENDBRANCH  30  31
ENDBRANCH  29  30
ENDBRANCH  28  29
ENDBRANCH  27  28
ENDBRANCH  26  27
ENDBRANCH  25  26
ENDBRANCH  24  25
ENDBRANCH  23  24
ENDBRANCH  22  23
ENDBRANCH  21  22
ENDBRANCH  20  21
ENDBRANCH  19  20
ENDBRANCH  18  19
ENDBRANCH   1  18
TORSDOF 28
ENDMDL
