MODEL 1
REMARK VINA RESULT:    -3.633      0.000      0.000
REMARK INTER + INTRA:          -4.698
REMARK INTER:                  -4.377
REMARK INTRA:                  -0.321
REMARK UNBOUND:                -0.321
REMARK SMILES O=c1c(O)c(-c2ccc(O)c(O)c2)oc2cc(O)cc(O)c12
REMARK SMILES IDX 5 1 3 2 2 3 1 4 22 5 20 6 19 7 17 8 16 9 15 10 14 11 6 12
REMARK SMILES IDX 7 13 8 14 9 15 13 16 11 17 10 18 12 20 4 22 21 24 18 26
REMARK H PARENT 10 19 12 21 4 23 21 25 18 27
REMARK Flexibility Score: inf
ROOT
ATOM      1  C   UNL     1     112.227  87.987  56.883  1.00  0.00     0.180 A 
ATOM      2  C   UNL     1     111.873  88.571  55.655  1.00  0.00     0.208 A 
ATOM      3  C   UNL     1     110.527  88.555  55.255  1.00  0.00     0.238 A 
ATOM      4  O   UNL     1     110.223  89.031  54.131  1.00  0.00    -0.285 OA
ATOM      5  C   UNL     1     109.550  87.969  56.096  1.00  0.00     0.111 A 
ATOM      6  C   UNL     1     108.151  87.931  55.812  1.00  0.00     0.134 A 
ATOM      7  C   UNL     1     107.294  87.210  56.652  1.00  0.00     0.093 A 
ATOM      8  C   UNL     1     107.773  86.582  57.801  1.00  0.00     0.123 A 
ATOM      9  C   UNL     1     109.129  86.662  58.122  1.00  0.00     0.094 A 
ATOM     10  C   UNL     1     110.015  87.343  57.282  1.00  0.00     0.146 A 
ATOM     11  O   UNL     1     111.299  87.387  57.618  1.00  0.00    -0.452 OA
ENDROOT
BRANCH   1  12
ATOM     12  C   UNL     1     113.621  87.988  57.382  1.00  0.00     0.025 A 
ATOM     13  C   UNL     1     114.069  89.054  58.179  1.00  0.00     0.016 A 
ATOM     14  C   UNL     1     115.386  89.086  58.643  1.00  0.00     0.051 A 
ATOM     15  C   UNL     1     116.279  88.061  58.304  1.00  0.00     0.157 A 
ATOM     16  C   UNL     1     114.527  86.972  57.027  1.00  0.00     0.062 A 
ATOM     17  C   UNL     1     115.850  87.005  57.491  1.00  0.00     0.158 A 
BRANCH  15  18
ATOM     18  O   UNL     1     117.593  88.088  58.767  1.00  0.00    -0.504 OA
ATOM     19  H   UNL     1     118.342  88.490  58.214  1.00  0.00     0.293 HD
ENDBRANCH  15  18
BRANCH  17  20
ATOM     20  O   UNL     1     116.745  85.993  57.145  1.00  0.00    -0.504 OA
ATOM     21  H   UNL     1     116.519  85.307  56.434  1.00  0.00     0.293 HD
ENDBRANCH  17  20
ENDBRANCH   1  12
BRANCH   2  22
ATOM     22  O   UNL     1     112.856  89.125  54.829  1.00  0.00    -0.502 OA
ATOM     23  H   UNL     1     113.138  90.095  54.893  1.00  0.00     0.293 HD
ENDBRANCH   2  22
BRANCH   6  24
ATOM     24  O   UNL     1     107.556  88.602  54.739  1.00  0.00    -0.507 OA
ATOM     25  H   UNL     1     107.460  88.226  53.808  1.00  0.00     0.293 HD
ENDBRANCH   6  24
BRANCH   8  26
ATOM     26  O   UNL     1     106.889  85.887  58.623  1.00  0.00    -0.508 OA
ATOM     27  H   UNL     1     106.573  86.270  59.507  1.00  0.00     0.293 HD
ENDBRANCH   8  26
TORSDOF 6
ENDMDL
MODEL 2
REMARK VINA RESULT:    -3.550      2.220      3.211
REMARK INTER + INTRA:          -4.598
REMARK INTER:                  -4.291
REMARK INTRA:                  -0.306
REMARK UNBOUND:                -0.321
REMARK SMILES O=c1c(O)c(-c2ccc(O)c(O)c2)oc2cc(O)cc(O)c12
REMARK SMILES IDX 5 1 3 2 2 3 1 4 22 5 20 6 19 7 17 8 16 9 15 10 14 11 6 12
REMARK SMILES IDX 7 13 8 14 9 15 13 16 11 17 10 18 12 20 4 22 21 24 18 26
REMARK H PARENT 10 19 12 21 4 23 21 25 18 27
REMARK Flexibility Score: inf
ROOT
ATOM      1  C   UNL     1     111.056  86.664  58.061  1.00  0.00     0.180 A 
ATOM      2  C   UNL     1     109.911  87.441  57.815  1.00  0.00     0.208 A 
ATOM      3  C   UNL     1     108.646  86.837  57.901  1.00  0.00     0.238 A 
ATOM      4  O   UNL     1     107.628  87.524  57.627  1.00  0.00    -0.285 OA
ATOM      5  C   UNL     1     108.541  85.469  58.248  1.00  0.00     0.111 A 
ATOM      6  C   UNL     1     107.310  84.763  58.404  1.00  0.00     0.134 A 
ATOM      7  C   UNL     1     107.328  83.380  58.620  1.00  0.00     0.093 A 
ATOM      8  C   UNL     1     108.531  82.688  58.752  1.00  0.00     0.123 A 
ATOM      9  C   UNL     1     109.742  83.377  58.662  1.00  0.00     0.094 A 
ATOM     10  C   UNL     1     109.756  84.752  58.409  1.00  0.00     0.146 A 
ATOM     11  O   UNL     1     110.928  85.368  58.319  1.00  0.00    -0.452 OA
ENDROOT
BRANCH   1  12
ATOM     12  C   UNL     1     112.420  87.235  58.013  1.00  0.00     0.025 A 
ATOM     13  C   UNL     1     112.915  87.936  59.125  1.00  0.00     0.016 A 
ATOM     14  C   UNL     1     114.192  88.503  59.094  1.00  0.00     0.051 A 
ATOM     15  C   UNL     1     114.987  88.389  57.946  1.00  0.00     0.157 A 
ATOM     16  C   UNL     1     113.214  87.143  56.856  1.00  0.00     0.062 A 
ATOM     17  C   UNL     1     114.495  87.713  56.823  1.00  0.00     0.158 A 
BRANCH  15  18
ATOM     18  O   UNL     1     116.262  88.951  57.911  1.00  0.00    -0.504 OA
ATOM     19  H   UNL     1     116.968  88.623  57.262  1.00  0.00     0.293 HD
ENDBRANCH  15  18
BRANCH  17  20
ATOM     20  O   UNL     1     115.283  87.613  55.677  1.00  0.00    -0.504 OA
ATOM     21  H   UNL     1     114.943  87.156  54.839  1.00  0.00     0.293 HD
ENDBRANCH  17  20
ENDBRANCH   1  12
BRANCH   2  22
ATOM     22  O   UNL     1     110.038  88.785  57.452  1.00  0.00    -0.502 OA
ATOM     23  H   UNL     1     110.385  89.491  58.090  1.00  0.00     0.293 HD
ENDBRANCH   2  22
BRANCH   6  24
ATOM     24  O   UNL     1     106.053  85.375  58.382  1.00  0.00    -0.507 OA
ATOM     25  H   UNL     1     105.899  86.370  58.321  1.00  0.00     0.293 HD
ENDBRANCH   6  24
BRANCH   8  26
ATOM     26  O   UNL     1     108.512  81.315  58.983  1.00  0.00    -0.508 OA
ATOM     27  H   UNL     1     108.454  80.935  59.921  1.00  0.00     0.293 HD
ENDBRANCH   8  26
TORSDOF 6
ENDMDL
MODEL 3
REMARK VINA RESULT:    -3.361      1.386      3.029
REMARK INTER + INTRA:          -4.370
REMARK INTER:                  -4.048
REMARK INTRA:                  -0.322
REMARK UNBOUND:                -0.321
REMARK SMILES O=c1c(O)c(-c2ccc(O)c(O)c2)oc2cc(O)cc(O)c12
REMARK SMILES IDX 5 1 3 2 2 3 1 4 22 5 20 6 19 7 17 8 16 9 15 10 14 11 6 12
REMARK SMILES IDX 7 13 8 14 9 15 13 16 11 17 10 18 12 20 4 22 21 24 18 26
REMARK H PARENT 10 19 12 21 4 23 21 25 18 27
REMARK Flexibility Score: inf
ROOT
ATOM      1  C   UNL     1     111.659  87.988  56.924  1.00  0.00     0.180 A 
ATOM      2  C   UNL     1     110.551  87.737  57.751  1.00  0.00     0.208 A 
ATOM      3  C   UNL     1     109.263  87.760  57.191  1.00  0.00     0.238 A 
ATOM      4  O   UNL     1     108.272  87.589  57.946  1.00  0.00    -0.285 OA
ATOM      5  C   UNL     1     109.102  88.016  55.808  1.00  0.00     0.111 A 
ATOM      6  C   UNL     1     107.848  88.024  55.125  1.00  0.00     0.134 A 
ATOM      7  C   UNL     1     107.794  88.419  53.783  1.00  0.00     0.093 A 
ATOM      8  C   UNL     1     108.954  88.743  53.081  1.00  0.00     0.123 A 
ATOM      9  C   UNL     1     110.193  88.681  53.722  1.00  0.00     0.094 A 
ATOM     10  C   UNL     1     110.274  88.326  55.071  1.00  0.00     0.146 A 
ATOM     11  O   UNL     1     111.470  88.291  55.646  1.00  0.00    -0.452 OA
ENDROOT
BRANCH   1  12
ATOM     12  C   UNL     1     113.047  87.956  57.438  1.00  0.00     0.025 A 
ATOM     13  C   UNL     1     113.613  89.125  57.972  1.00  0.00     0.016 A 
ATOM     14  C   UNL     1     114.929  89.124  58.443  1.00  0.00     0.051 A 
ATOM     15  C   UNL     1     115.702  87.958  58.372  1.00  0.00     0.157 A 
ATOM     16  C   UNL     1     113.835  86.794  57.350  1.00  0.00     0.062 A 
ATOM     17  C   UNL     1     115.156  86.793  57.820  1.00  0.00     0.158 A 
BRANCH  15  18
ATOM     18  O   UNL     1     117.014  87.952  58.842  1.00  0.00    -0.504 OA
ATOM     19  H   UNL     1     117.373  87.187  59.402  1.00  0.00     0.293 HD
ENDBRANCH  15  18
BRANCH  17  20
ATOM     20  O   UNL     1     115.933  85.638  57.738  1.00  0.00    -0.504 OA
ATOM     21  H   UNL     1     115.584  84.741  58.055  1.00  0.00     0.293 HD
ENDBRANCH  17  20
ENDBRANCH   1  12
BRANCH   2  22
ATOM     22  O   UNL     1     110.731  87.508  59.119  1.00  0.00    -0.502 OA
ATOM     23  H   UNL     1     110.461  86.640  59.566  1.00  0.00     0.293 HD
ENDBRANCH   2  22
BRANCH   6  24
ATOM     24  O   UNL     1     106.640  87.630  55.709  1.00  0.00    -0.507 OA
ATOM     25  H   UNL     1     106.006  88.248  56.191  1.00  0.00     0.293 HD
ENDBRANCH   6  24
BRANCH   8  26
ATOM     26  O   UNL     1     108.865  89.116  51.742  1.00  0.00    -0.508 OA
ATOM     27  H   UNL     1     109.649  89.535  51.255  1.00  0.00     0.293 HD
ENDBRANCH   8  26
TORSDOF 6
ENDMDL
MODEL 4
REMARK VINA RESULT:    -3.300      3.519      9.329
REMARK INTER + INTRA:          -4.297
REMARK INTER:                  -4.010
REMARK INTRA:                  -0.287
REMARK UNBOUND:                -0.321
REMARK SMILES O=c1c(O)c(-c2ccc(O)c(O)c2)oc2cc(O)cc(O)c12
REMARK SMILES IDX 5 1 3 2 2 3 1 4 22 5 20 6 19 7 17 8 16 9 15 10 14 11 6 12
REMARK SMILES IDX 7 13 8 14 9 15 13 16 11 17 10 18 12 20 4 22 21 24 18 26
REMARK H PARENT 10 19 12 21 4 23 21 25 18 27
REMARK Flexibility Score: inf
ROOT
ATOM      1  C   UNL     1     117.225  86.761  57.981  1.00  0.00     0.180 A 
ATOM      2  C   UNL     1     117.397  85.481  58.536  1.00  0.00     0.208 A 
ATOM      3  C   UNL     1     118.696  84.970  58.679  1.00  0.00     0.238 A 
ATOM      4  O   UNL     1     118.841  83.802  59.125  1.00  0.00    -0.285 OA
ATOM      5  C   UNL     1     119.808  85.751  58.282  1.00  0.00     0.111 A 
ATOM      6  C   UNL     1     121.172  85.349  58.418  1.00  0.00     0.134 A 
ATOM      7  C   UNL     1     122.185  86.146  57.871  1.00  0.00     0.093 A 
ATOM      8  C   UNL     1     121.890  87.360  57.251  1.00  0.00     0.123 A 
ATOM      9  C   UNL     1     120.566  87.792  57.165  1.00  0.00     0.094 A 
ATOM     10  C   UNL     1     119.530  87.000  57.669  1.00  0.00     0.146 A 
ATOM     11  O   UNL     1     118.283  87.442  57.557  1.00  0.00    -0.452 OA
ENDROOT
BRANCH   1  12
ATOM     12  C   UNL     1     115.888  87.377  57.822  1.00  0.00     0.025 A 
ATOM     13  C   UNL     1     115.434  88.300  58.778  1.00  0.00     0.016 A 
ATOM     14  C   UNL     1     114.167  88.878  58.659  1.00  0.00     0.051 A 
ATOM     15  C   UNL     1     113.331  88.529  57.591  1.00  0.00     0.157 A 
ATOM     16  C   UNL     1     115.036  87.016  56.763  1.00  0.00     0.062 A 
ATOM     17  C   UNL     1     113.764  87.594  56.644  1.00  0.00     0.158 A 
BRANCH  15  18
ATOM     18  O   UNL     1     112.067  89.104  57.467  1.00  0.00    -0.504 OA
ATOM     19  H   UNL     1     111.947  90.052  57.128  1.00  0.00     0.293 HD
ENDBRANCH  15  18
BRANCH  17  20
ATOM     20  O   UNL     1     112.924  87.239  55.589  1.00  0.00    -0.504 OA
ATOM     21  H   UNL     1     112.238  87.886  55.217  1.00  0.00     0.293 HD
ENDBRANCH  17  20
ENDBRANCH   1  12
BRANCH   2  22
ATOM     22  O   UNL     1     116.284  84.718  58.900  1.00  0.00    -0.502 OA
ATOM     23  H   UNL     1     115.744  84.907  59.737  1.00  0.00     0.293 HD
ENDBRANCH   2  22
BRANCH   6  24
ATOM     24  O   UNL     1     121.581  84.199  59.099  1.00  0.00    -0.507 OA
ATOM     25  H   UNL     1     122.134  84.197  59.943  1.00  0.00     0.293 HD
ENDBRANCH   6  24
BRANCH   8  26
ATOM     26  O   UNL     1     122.925  88.135  56.733  1.00  0.00    -0.508 OA
ATOM     27  H   UNL     1     123.303  88.926  57.243  1.00  0.00     0.293 HD
ENDBRANCH   8  26
TORSDOF 6
ENDMDL
MODEL 5
REMARK VINA RESULT:    -3.285      1.465      6.503
REMARK INTER + INTRA:          -4.279
REMARK INTER:                  -3.972
REMARK INTRA:                  -0.307
REMARK UNBOUND:                -0.321
REMARK SMILES O=c1c(O)c(-c2ccc(O)c(O)c2)oc2cc(O)cc(O)c12
REMARK SMILES IDX 5 1 3 2 2 3 1 4 22 5 20 6 19 7 17 8 16 9 15 10 14 11 6 12
REMARK SMILES IDX 7 13 8 14 9 15 13 16 11 17 10 18 12 20 4 22 21 24 18 26
REMARK H PARENT 10 19 12 21 4 23 21 25 18 27
REMARK Flexibility Score: inf
ROOT
ATOM      1  C   UNL     1     111.324  87.407  56.693  1.00  0.00     0.180 A 
ATOM      2  C   UNL     1     111.546  87.843  55.376  1.00  0.00     0.208 A 
ATOM      3  C   UNL     1     112.814  88.333  55.025  1.00  0.00     0.238 A 
ATOM      4  O   UNL     1     112.992  88.772  53.860  1.00  0.00    -0.285 OA
ATOM      5  C   UNL     1     113.849  88.365  55.992  1.00  0.00     0.111 A 
ATOM      6  C   UNL     1     115.183  88.804  55.737  1.00  0.00     0.134 A 
ATOM      7  C   UNL     1     116.088  88.917  56.800  1.00  0.00     0.093 A 
ATOM      8  C   UNL     1     115.728  88.545  58.094  1.00  0.00     0.123 A 
ATOM      9  C   UNL     1     114.444  88.058  58.345  1.00  0.00     0.094 A 
ATOM     10  C   UNL     1     113.508  87.969  57.311  1.00  0.00     0.146 A 
ATOM     11  O   UNL     1     112.294  87.512  57.593  1.00  0.00    -0.452 OA
ENDROOT
BRANCH   1  12
ATOM     12  C   UNL     1     110.022  86.855  57.130  1.00  0.00     0.025 A 
ATOM     13  C   UNL     1     109.000  87.730  57.534  1.00  0.00     0.016 A 
ATOM     14  C   UNL     1     107.770  87.231  57.971  1.00  0.00     0.051 A 
ATOM     15  C   UNL     1     107.550  85.849  58.024  1.00  0.00     0.157 A 
ATOM     16  C   UNL     1     109.802  85.468  57.206  1.00  0.00     0.062 A 
ATOM     17  C   UNL     1     108.568  84.966  57.646  1.00  0.00     0.158 A 
BRANCH  15  18
ATOM     18  O   UNL     1     106.324  85.346  58.458  1.00  0.00    -0.504 OA
ATOM     19  H   UNL     1     105.699  85.898  59.034  1.00  0.00     0.293 HD
ENDBRANCH  15  18
BRANCH  17  20
ATOM     20  O   UNL     1     108.350  83.590  57.714  1.00  0.00    -0.504 OA
ATOM     21  H   UNL     1     107.484  83.174  57.391  1.00  0.00     0.293 HD
ENDBRANCH  17  20
ENDBRANCH   1  12
BRANCH   2  22
ATOM     22  O   UNL     1     110.505  87.823  54.443  1.00  0.00    -0.502 OA
ATOM     23  H   UNL     1     110.619  87.453  53.507  1.00  0.00     0.293 HD
ENDBRANCH   2  22
BRANCH   6  24
ATOM     24  O   UNL     1     115.673  89.112  54.464  1.00  0.00    -0.507 OA
ATOM     25  H   UNL     1     116.054  90.006  54.196  1.00  0.00     0.293 HD
ENDBRANCH   6  24
BRANCH   8  26
ATOM     26  O   UNL     1     116.659  88.656  59.125  1.00  0.00    -0.508 OA
ATOM     27  H   UNL     1     117.510  89.196  59.016  1.00  0.00     0.293 HD
ENDBRANCH   8  26
TORSDOF 6
ENDMDL
MODEL 6
REMARK VINA RESULT:    -3.228      4.200      9.556
REMARK INTER + INTRA:          -4.210
REMARK INTER:                  -3.919
REMARK INTRA:                  -0.292
REMARK UNBOUND:                -0.321
REMARK SMILES O=c1c(O)c(-c2ccc(O)c(O)c2)oc2cc(O)cc(O)c12
REMARK SMILES IDX 5 1 3 2 2 3 1 4 22 5 20 6 19 7 17 8 16 9 15 10 14 11 6 12
REMARK SMILES IDX 7 13 8 14 9 15 13 16 11 17 10 18 12 20 4 22 21 24 18 26
REMARK H PARENT 10 19 12 21 4 23 21 25 18 27
REMARK Flexibility Score: inf
ROOT
ATOM      1  C   UNL     1     118.356  86.917  57.946  1.00  0.00     0.180 A 
ATOM      2  C   UNL     1     119.476  87.744  57.749  1.00  0.00     0.208 A 
ATOM      3  C   UNL     1     120.756  87.168  57.744  1.00  0.00     0.238 A 
ATOM      4  O   UNL     1     121.757  87.920  57.621  1.00  0.00    -0.285 OA
ATOM      5  C   UNL     1     120.900  85.770  57.920  1.00  0.00     0.111 A 
ATOM      6  C   UNL     1     122.146  85.074  57.892  1.00  0.00     0.134 A 
ATOM      7  C   UNL     1     122.183  83.710  58.208  1.00  0.00     0.093 A 
ATOM      8  C   UNL     1     121.013  83.004  58.486  1.00  0.00     0.123 A 
ATOM      9  C   UNL     1     119.782  83.662  58.457  1.00  0.00     0.094 A 
ATOM     10  C   UNL     1     119.718  85.030  58.181  1.00  0.00     0.146 A 
ATOM     11  O   UNL     1     118.529  85.620  58.175  1.00  0.00    -0.452 OA
ENDROOT
BRANCH   1  12
ATOM     12  C   UNL     1     116.975  87.447  57.940  1.00  0.00     0.025 A 
ATOM     13  C   UNL     1     116.465  88.062  59.095  1.00  0.00     0.016 A 
ATOM     14  C   UNL     1     115.156  88.551  59.118  1.00  0.00     0.051 A 
ATOM     15  C   UNL     1     114.333  88.419  57.992  1.00  0.00     0.157 A 
ATOM     16  C   UNL     1     116.138  87.298  56.819  1.00  0.00     0.062 A 
ATOM     17  C   UNL     1     114.823  87.787  56.843  1.00  0.00     0.158 A 
BRANCH  15  18
ATOM     18  O   UNL     1     113.028  88.907  58.010  1.00  0.00    -0.504 OA
ATOM     19  H   UNL     1     112.241  88.326  57.740  1.00  0.00     0.293 HD
ENDBRANCH  15  18
BRANCH  17  20
ATOM     20  O   UNL     1     113.997  87.644  55.728  1.00  0.00    -0.504 OA
ATOM     21  H   UNL     1     114.009  86.802  55.164  1.00  0.00     0.293 HD
ENDBRANCH  17  20
ENDBRANCH   1  12
BRANCH   2  22
ATOM     22  O   UNL     1     119.312  89.124  57.600  1.00  0.00    -0.502 OA
ATOM     23  H   UNL     1     120.095  89.753  57.465  1.00  0.00     0.293 HD
ENDBRANCH   2  22
BRANCH   6  24
ATOM     24  O   UNL     1     123.362  85.665  57.537  1.00  0.00    -0.507 OA
ATOM     25  H   UNL     1     123.931  85.384  56.754  1.00  0.00     0.293 HD
ENDBRANCH   6  24
BRANCH   8  26
ATOM     26  O   UNL     1     121.085  81.645  58.780  1.00  0.00    -0.508 OA
ATOM     27  H   UNL     1     121.622  81.300  59.568  1.00  0.00     0.293 HD
ENDBRANCH   8  26
TORSDOF 6
ENDMDL
MODEL 7
REMARK VINA RESULT:    -3.208      3.762      8.713
REMARK INTER + INTRA:          -4.186
REMARK INTER:                  -3.852
REMARK INTRA:                  -0.333
REMARK UNBOUND:                -0.321
REMARK SMILES O=c1c(O)c(-c2ccc(O)c(O)c2)oc2cc(O)cc(O)c12
REMARK SMILES IDX 5 1 3 2 2 3 1 4 22 5 20 6 19 7 17 8 16 9 15 10 14 11 6 12
REMARK SMILES IDX 7 13 8 14 9 15 13 16 11 17 10 18 12 20 4 22 21 24 18 26
REMARK H PARENT 10 19 12 21 4 23 21 25 18 27
REMARK Flexibility Score: inf
ROOT
ATOM      1  C   UNL     1     117.132  88.040  56.722  1.00  0.00     0.180 A 
ATOM      2  C   UNL     1     117.374  88.549  55.434  1.00  0.00     0.208 A 
ATOM      3  C   UNL     1     118.679  88.505  54.918  1.00  0.00     0.238 A 
ATOM      4  O   UNL     1     118.900  89.011  53.787  1.00  0.00    -0.285 OA
ATOM      5  C   UNL     1     119.722  87.937  55.688  1.00  0.00     0.111 A 
ATOM      6  C   UNL     1     121.074  87.803  55.250  1.00  0.00     0.134 A 
ATOM      7  C   UNL     1     122.049  87.347  56.145  1.00  0.00     0.093 A 
ATOM      8  C   UNL     1     121.712  86.958  57.440  1.00  0.00     0.123 A 
ATOM      9  C   UNL     1     120.382  87.028  57.862  1.00  0.00     0.094 A 
ATOM     10  C   UNL     1     119.393  87.514  57.003  1.00  0.00     0.146 A 
ATOM     11  O   UNL     1     118.144  87.575  57.446  1.00  0.00    -0.452 OA
ENDROOT
BRANCH   1  12
ATOM     12  C   UNL     1     115.780  88.029  57.323  1.00  0.00     0.025 A 
ATOM     13  C   UNL     1     115.392  89.079  58.171  1.00  0.00     0.016 A 
ATOM     14  C   UNL     1     114.128  89.079  58.767  1.00  0.00     0.051 A 
ATOM     15  C   UNL     1     113.239  88.021  58.534  1.00  0.00     0.157 A 
ATOM     16  C   UNL     1     114.891  86.960  57.109  1.00  0.00     0.062 A 
ATOM     17  C   UNL     1     113.623  86.958  57.708  1.00  0.00     0.158 A 
BRANCH  15  18
ATOM     18  O   UNL     1     111.976  88.018  59.124  1.00  0.00    -0.504 OA
ATOM     19  H   UNL     1     111.535  88.875  59.437  1.00  0.00     0.293 HD
ENDBRANCH  15  18
BRANCH  17  20
ATOM     20  O   UNL     1     112.741  85.900  57.490  1.00  0.00    -0.504 OA
ATOM     21  H   UNL     1     112.704  85.416  56.600  1.00  0.00     0.293 HD
ENDBRANCH  17  20
ENDBRANCH   1  12
BRANCH   2  22
ATOM     22  O   UNL     1     116.334  89.125  54.699  1.00  0.00    -0.502 OA
ATOM     23  H   UNL     1     115.531  89.559  55.139  1.00  0.00     0.293 HD
ENDBRANCH   2  22
BRANCH   6  24
ATOM     24  O   UNL     1     121.502  88.078  53.947  1.00  0.00    -0.507 OA
ATOM     25  H   UNL     1     122.449  88.309  53.690  1.00  0.00     0.293 HD
ENDBRANCH   6  24
BRANCH   8  26
ATOM     26  O   UNL     1     122.705  86.493  58.299  1.00  0.00    -0.508 OA
ATOM     27  H   UNL     1     123.130  87.096  58.994  1.00  0.00     0.293 HD
ENDBRANCH   8  26
TORSDOF 6
ENDMDL
MODEL 8
REMARK VINA RESULT:    -3.187      3.943      9.392
REMARK INTER + INTRA:          -4.160
REMARK INTER:                  -4.056
REMARK INTRA:                  -0.104
REMARK UNBOUND:                -0.321
REMARK SMILES O=c1c(O)c(-c2ccc(O)c(O)c2)oc2cc(O)cc(O)c12
REMARK SMILES IDX 5 1 3 2 2 3 1 4 22 5 20 6 19 7 17 8 16 9 15 10 14 11 6 12
REMARK SMILES IDX 7 13 8 14 9 15 13 16 11 17 10 18 12 20 4 22 21 24 18 26
REMARK H PARENT 10 19 12 21 4 23 21 25 18 27
REMARK Flexibility Score: inf
ROOT
ATOM      1  C   UNL     1     117.660  88.152  56.878  1.00  0.00     0.180 A 
ATOM      2  C   UNL     1     118.544  87.737  57.888  1.00  0.00     0.208 A 
ATOM      3  C   UNL     1     119.922  87.719  57.622  1.00  0.00     0.238 A 
ATOM      4  O   UNL     1     120.705  87.294  58.511  1.00  0.00    -0.285 OA
ATOM      5  C   UNL     1     120.401  88.132  56.355  1.00  0.00     0.111 A 
ATOM      6  C   UNL     1     121.779  88.193  55.988  1.00  0.00     0.134 A 
ATOM      7  C   UNL     1     122.130  88.492  54.666  1.00  0.00     0.093 A 
ATOM      8  C   UNL     1     121.158  88.795  53.714  1.00  0.00     0.123 A 
ATOM      9  C   UNL     1     119.810  88.798  54.076  1.00  0.00     0.094 A 
ATOM     10  C   UNL     1     119.426  88.467  55.379  1.00  0.00     0.146 A 
ATOM     11  O   UNL     1     118.134  88.470  55.679  1.00  0.00    -0.452 OA
ENDROOT
BRANCH   1  12
ATOM     12  C   UNL     1     116.197  88.221  57.092  1.00  0.00     0.025 A 
ATOM     13  C   UNL     1     115.685  89.041  58.110  1.00  0.00     0.016 A 
ATOM     14  C   UNL     1     114.309  89.105  58.344  1.00  0.00     0.051 A 
ATOM     15  C   UNL     1     113.426  88.338  57.572  1.00  0.00     0.157 A 
ATOM     16  C   UNL     1     115.308  87.437  56.334  1.00  0.00     0.062 A 
ATOM     17  C   UNL     1     113.926  87.500  56.569  1.00  0.00     0.158 A 
BRANCH  15  18
ATOM     18  O   UNL     1     112.052  88.400  57.801  1.00  0.00    -0.504 OA
ATOM     19  H   UNL     1     111.677  88.622  58.716  1.00  0.00     0.293 HD
ENDBRANCH  15  18
BRANCH  17  20
ATOM     20  O   UNL     1     113.046  86.727  55.812  1.00  0.00    -0.504 OA
ATOM     21  H   UNL     1     113.379  85.999  55.191  1.00  0.00     0.293 HD
ENDBRANCH  17  20
ENDBRANCH   1  12
BRANCH   2  22
ATOM     22  O   UNL     1     118.050  87.311  59.124  1.00  0.00    -0.502 OA
ATOM     23  H   UNL     1     118.603  87.341  59.972  1.00  0.00     0.293 HD
ENDBRANCH   2  22
BRANCH   6  24
ATOM     24  O   UNL     1     122.833  87.997  56.885  1.00  0.00    -0.507 OA
ATOM     25  H   UNL     1     122.935  87.193  57.486  1.00  0.00     0.293 HD
ENDBRANCH   6  24
BRANCH   8  26
ATOM     26  O   UNL     1     121.544  89.104  52.412  1.00  0.00    -0.508 OA
ATOM     27  H   UNL     1     120.948  89.644  51.796  1.00  0.00     0.293 HD
ENDBRANCH   8  26
TORSDOF 6
ENDMDL
MODEL 9
REMARK VINA RESULT:    -3.135      2.112      7.189
REMARK INTER + INTRA:          -4.098
REMARK INTER:                  -3.782
REMARK INTRA:                  -0.317
REMARK UNBOUND:                -0.321
REMARK SMILES O=c1c(O)c(-c2ccc(O)c(O)c2)oc2cc(O)cc(O)c12
REMARK SMILES IDX 5 1 3 2 2 3 1 4 22 5 20 6 19 7 17 8 16 9 15 10 14 11 6 12
REMARK SMILES IDX 7 13 8 14 9 15 13 16 11 17 10 18 12 20 4 22 21 24 18 26
REMARK H PARENT 10 19 12 21 4 23 21 25 18 27
REMARK Flexibility Score: inf
ROOT
ATOM      1  C   UNL     1     113.013  87.997  56.816  1.00  0.00     0.180 A 
ATOM      2  C   UNL     1     113.733  88.478  57.923  1.00  0.00     0.208 A 
ATOM      3  C   UNL     1     115.123  88.640  57.814  1.00  0.00     0.238 A 
ATOM      4  O   UNL     1     115.769  89.019  58.825  1.00  0.00    -0.285 OA
ATOM      5  C   UNL     1     115.774  88.335  56.594  1.00  0.00     0.111 A 
ATOM      6  C   UNL     1     117.172  88.500  56.357  1.00  0.00     0.134 A 
ATOM      7  C   UNL     1     117.728  88.043  55.156  1.00  0.00     0.093 A 
ATOM      8  C   UNL     1     116.929  87.488  54.158  1.00  0.00     0.123 A 
ATOM      9  C   UNL     1     115.551  87.377  54.354  1.00  0.00     0.094 A 
ATOM     10  C   UNL     1     114.973  87.790  55.557  1.00  0.00     0.146 A 
ATOM     11  O   UNL     1     113.661  87.656  55.708  1.00  0.00    -0.452 OA
ENDROOT
BRANCH   1  12
ATOM     12  C   UNL     1     111.543  87.823  56.847  1.00  0.00     0.025 A 
ATOM     13  C   UNL     1     110.714  88.874  56.424  1.00  0.00     0.016 A 
ATOM     14  C   UNL     1     109.324  88.740  56.465  1.00  0.00     0.051 A 
ATOM     15  C   UNL     1     108.743  87.559  56.944  1.00  0.00     0.157 A 
ATOM     16  C   UNL     1     110.955  86.647  57.347  1.00  0.00     0.062 A 
ATOM     17  C   UNL     1     109.559  86.513  57.390  1.00  0.00     0.158 A 
BRANCH  15  18
ATOM     18  O   UNL     1     107.356  87.420  56.986  1.00  0.00    -0.504 OA
ATOM     19  H   UNL     1     106.754  88.195  57.240  1.00  0.00     0.293 HD
ENDBRANCH  15  18
BRANCH  17  20
ATOM     20  O   UNL     1     108.978  85.344  57.879  1.00  0.00    -0.504 OA
ATOM     21  H   UNL     1     109.505  84.683  58.439  1.00  0.00     0.293 HD
ENDBRANCH  17  20
ENDBRANCH   1  12
BRANCH   2  22
ATOM     22  O   UNL     1     113.074  88.751  59.125  1.00  0.00    -0.502 OA
ATOM     23  H   UNL     1     112.190  89.246  59.161  1.00  0.00     0.293 HD
ENDBRANCH   2  22
BRANCH   6  24
ATOM     24  O   UNL     1     118.046  89.125  57.252  1.00  0.00    -0.507 OA
ATOM     25  H   UNL     1     118.438  90.045  57.125  1.00  0.00     0.293 HD
ENDBRANCH   6  24
BRANCH   8  26
ATOM     26  O   UNL     1     117.514  87.059  52.969  1.00  0.00    -0.508 OA
ATOM     27  H   UNL     1     118.502  86.843  52.911  1.00  0.00     0.293 HD
ENDBRANCH   8  26
TORSDOF 6
ENDMDL
