MODEL 1
REMARK VINA RESULT:    12.647      0.000      0.000
REMARK INTER + INTRA:          22.231
REMARK INTER:                  22.998
REMARK INTRA:                  -0.767
REMARK UNBOUND:                -0.767
REMARK SMILES CCCCCCCCCCCCCCCC(=O)[O-]
REMARK SMILES IDX 9 1 10 2 11 3 12 4 13 5 14 6 15 7 16 8 17 9 18 10 8 11 7 12
REMARK SMILES IDX 6 13 5 14 4 15 3 16 2 17 1 18
REMARK H PARENT
REMARK Flexibility Score: inf
ROOT
ATOM      1  C   UNL     1     -13.132   1.644 -17.933  1.00  0.00     0.000 C 
ENDROOT
BRANCH   1   2
ATOM      2  C   UNL     1     -12.583   3.080 -17.856  1.00  0.00     0.000 C 
BRANCH   2   3
ATOM      3  C   UNL     1     -11.514   3.249 -16.764  1.00  0.00     0.000 C 
BRANCH   3   4
ATOM      4  C   UNL     1     -11.237   4.725 -16.433  1.00  0.00     0.000 C 
BRANCH   4   5
ATOM      5  C   UNL     1     -12.522   5.566 -16.326  1.00  0.00     0.000 C 
BRANCH   5   6
ATOM      6  C   UNL     1     -12.312   7.030 -15.897  1.00  0.00     0.006 C 
BRANCH   6   7
ATOM      7  C   UNL     1     -13.287   8.000 -16.578  1.00  0.00     0.053 C 
BRANCH   7   8
ATOM      8  C   UNL     1     -14.299   8.499 -15.595  1.00  0.00     0.041 C 
ATOM      9  O   UNL     1     -15.250   9.230 -15.980  1.00  0.00    -0.550 OA
ATOM     10  O   UNL     1     -14.164   8.198 -14.246  1.00  0.00    -0.550 OA
ENDBRANCH   7   8
ENDBRANCH   6   7
ENDBRANCH   5   6
ENDBRANCH   4   5
ENDBRANCH   3   4
ENDBRANCH   2   3
ENDBRANCH   1   2
BRANCH   1  11
ATOM     11  C   UNL     1     -12.239   0.628 -17.204  1.00  0.00     0.000 C 
BRANCH  11  12
ATOM     12  C   UNL     1     -12.237  -0.751 -17.887  1.00  0.00    -0.000 C 
BRANCH  12  13
ATOM     13  C   UNL     1     -10.833  -1.177 -18.350  1.00  0.00    -0.000 C 
BRANCH  13  14
ATOM     14  C   UNL     1      -9.723  -0.666 -17.416  1.00  0.00    -0.000 C 
BRANCH  14  15
ATOM     15  C   UNL     1      -8.452  -1.527 -17.486  1.00  0.00    -0.000 C 
BRANCH  15  16
ATOM     16  C   UNL     1      -7.182  -0.743 -17.111  1.00  0.00    -0.000 C 
BRANCH  16  17
ATOM     17  C   UNL     1      -7.069  -0.493 -15.599  1.00  0.00    -0.003 C 
ATOM     18  C   UNL     1      -6.916  -1.785 -14.797  1.00  0.00     0.004 C 
ENDBRANCH  16  17
ENDBRANCH  15  16
ENDBRANCH  14  15
ENDBRANCH  13  14
ENDBRANCH  12  13
ENDBRANCH  11  12
ENDBRANCH   1  11
TORSDOF 14
ENDMDL
MODEL 2
REMARK VINA RESULT:    13.350      4.353      8.852
REMARK INTER + INTRA:          23.509
REMARK INTER:                  24.228
REMARK INTRA:                  -0.719
REMARK UNBOUND:                -0.767
REMARK SMILES CCCCCCCCCCCCCCCC(=O)[O-]
REMARK SMILES IDX 9 1 10 2 11 3 12 4 13 5 14 6 15 7 16 8 17 9 18 10 8 11 7 12
REMARK SMILES IDX 6 13 5 14 4 15 3 16 2 17 1 18
REMARK H PARENT
REMARK Flexibility Score: inf
ROOT
ATOM      1  C   UNL     1     -13.026   0.640 -17.302  1.00  0.00     0.000 C 
ENDROOT
BRANCH   1   2
ATOM      2  C   UNL     1     -12.569  -0.737 -17.815  1.00  0.00     0.000 C 
BRANCH   2   3
ATOM      3  C   UNL     1     -11.185  -0.692 -18.484  1.00  0.00     0.000 C 
BRANCH   3   4
ATOM      4  C   UNL     1     -10.298  -1.883 -18.085  1.00  0.00     0.000 C 
BRANCH   4   5
ATOM      5  C   UNL     1      -9.199  -1.501 -17.077  1.00  0.00     0.000 C 
BRANCH   5   6
ATOM      6  C   UNL     1      -7.810  -1.243 -17.689  1.00  0.00     0.006 C 
BRANCH   6   7
ATOM      7  C   UNL     1      -6.884  -0.450 -16.758  1.00  0.00     0.053 C 
BRANCH   7   8
ATOM      8  C   UNL     1      -7.105  -0.853 -15.334  1.00  0.00     0.041 C 
ATOM      9  O   UNL     1      -7.454   0.003 -14.479  1.00  0.00    -0.550 OA
ATOM     10  O   UNL     1      -6.880  -2.166 -14.940  1.00  0.00    -0.550 OA
ENDBRANCH   7   8
ENDBRANCH   6   7
ENDBRANCH   5   6
ENDBRANCH   4   5
ENDBRANCH   3   4
ENDBRANCH   2   3
ENDBRANCH   1   2
BRANCH   1  11
ATOM     11  C   UNL     1     -11.857   1.619 -17.109  1.00  0.00     0.000 C 
BRANCH  11  12
ATOM     12  C   UNL     1     -12.246   3.072 -17.435  1.00  0.00    -0.000 C 
BRANCH  12  13
ATOM     13  C   UNL     1     -13.057   3.187 -18.737  1.00  0.00    -0.000 C 
BRANCH  13  14
ATOM     14  C   UNL     1     -14.448   3.804 -18.513  1.00  0.00    -0.000 C 
BRANCH  14  15
ATOM     15  C   UNL     1     -14.469   5.320 -18.769  1.00  0.00    -0.000 C 
BRANCH  15  16
ATOM     16  C   UNL     1     -15.141   5.687 -20.103  1.00  0.00    -0.000 C 
BRANCH  16  17
ATOM     17  C   UNL     1     -15.015   7.182 -20.434  1.00  0.00    -0.003 C 
ATOM     18  C   UNL     1     -15.279   8.078 -19.224  1.00  0.00     0.004 C 
ENDBRANCH  16  17
ENDBRANCH  15  16
ENDBRANCH  14  15
ENDBRANCH  13  14
ENDBRANCH  12  13
ENDBRANCH  11  12
ENDBRANCH   1  11
TORSDOF 14
ENDMDL
MODEL 3
REMARK VINA RESULT:    13.355      2.471      2.786
REMARK INTER + INTRA:          23.519
REMARK INTER:                  24.284
REMARK INTRA:                  -0.766
REMARK UNBOUND:                -0.767
REMARK SMILES CCCCCCCCCCCCCCCC(=O)[O-]
REMARK SMILES IDX 9 1 10 2 11 3 12 4 13 5 14 6 15 7 16 8 17 9 18 10 8 11 7 12
REMARK SMILES IDX 6 13 5 14 4 15 3 16 2 17 1 18
REMARK H PARENT
REMARK Flexibility Score: inf
ROOT
ATOM      1  C   UNL     1     -12.989   0.861 -17.262  1.00  0.00     0.000 C 
ENDROOT
BRANCH   1   2
ATOM      2  C   UNL     1     -12.051   2.081 -17.249  1.00  0.00     0.000 C 
BRANCH   2   3
ATOM      3  C   UNL     1     -12.580   3.245 -18.105  1.00  0.00     0.000 C 
BRANCH   3   4
ATOM      4  C   UNL     1     -14.036   3.034 -18.553  1.00  0.00     0.000 C 
BRANCH   4   5
ATOM      5  C   UNL     1     -14.846   4.342 -18.592  1.00  0.00     0.000 C 
BRANCH   5   6
ATOM      6  C   UNL     1     -14.267   5.444 -19.499  1.00  0.00     0.006 C 
BRANCH   6   7
ATOM      7  C   UNL     1     -15.349   6.327 -20.134  1.00  0.00     0.053 C 
BRANCH   7   8
ATOM      8  C   UNL     1     -15.153   7.757 -19.742  1.00  0.00     0.041 C 
ATOM      9  O   UNL     1     -16.027   8.353 -19.059  1.00  0.00    -0.550 OA
ATOM     10  O   UNL     1     -14.026   8.447 -20.170  1.00  0.00    -0.550 OA
ENDBRANCH   7   8
ENDBRANCH   6   7
ENDBRANCH   5   6
ENDBRANCH   4   5
ENDBRANCH   3   4
ENDBRANCH   2   3
ENDBRANCH   1   2
BRANCH   1  11
ATOM     11  C   UNL     1     -12.234  -0.470 -17.120  1.00  0.00     0.000 C 
BRANCH  11  12
ATOM     12  C   UNL     1     -11.733  -1.010 -18.471  1.00  0.00    -0.000 C 
BRANCH  12  13
ATOM     13  C   UNL     1     -10.205  -0.912 -18.616  1.00  0.00    -0.000 C 
BRANCH  13  14
ATOM     14  C   UNL     1      -9.462  -1.345 -17.340  1.00  0.00    -0.000 C 
BRANCH  14  15
ATOM     15  C   UNL     1      -7.990  -1.697 -17.606  1.00  0.00    -0.000 C 
BRANCH  15  16
ATOM     16  C   UNL     1      -7.021  -0.605 -17.124  1.00  0.00    -0.000 C 
BRANCH  16  17
ATOM     17  C   UNL     1      -7.055  -0.418 -15.599  1.00  0.00    -0.003 C 
ATOM     18  C   UNL     1      -6.883  -1.734 -14.840  1.00  0.00     0.004 C 
ENDBRANCH  16  17
ENDBRANCH  15  16
ENDBRANCH  14  15
ENDBRANCH  13  14
ENDBRANCH  12  13
ENDBRANCH  11  12
ENDBRANCH   1  11
TORSDOF 14
ENDMDL
MODEL 4
REMARK VINA RESULT:    13.632      3.886      8.648
REMARK INTER + INTRA:          24.023
REMARK INTER:                  24.880
REMARK INTRA:                  -0.857
REMARK UNBOUND:                -0.767
REMARK SMILES CCCCCCCCCCCCCCCC(=O)[O-]
REMARK SMILES IDX 9 1 10 2 11 3 12 4 13 5 14 6 15 7 16 8 17 9 18 10 8 11 7 12
REMARK SMILES IDX 6 13 5 14 4 15 3 16 2 17 1 18
REMARK H PARENT
REMARK Flexibility Score: inf
ROOT
ATOM      1  C   UNL     1     -12.904   1.408 -18.076  1.00  0.00     0.000 C 
ENDROOT
BRANCH   1   2
ATOM      2  C   UNL     1     -12.242   0.446 -17.074  1.00  0.00     0.000 C 
BRANCH   2   3
ATOM      3  C   UNL     1     -12.071  -0.974 -17.639  1.00  0.00     0.000 C 
BRANCH   3   4
ATOM      4  C   UNL     1     -10.682  -1.199 -18.261  1.00  0.00     0.000 C 
BRANCH   4   5
ATOM      5  C   UNL     1      -9.540  -0.640 -17.393  1.00  0.00     0.000 C 
BRANCH   5   6
ATOM      6  C   UNL     1      -8.129  -1.120 -17.780  1.00  0.00     0.006 C 
BRANCH   6   7
ATOM      7  C   UNL     1      -7.029  -0.525 -16.890  1.00  0.00     0.053 C 
BRANCH   7   8
ATOM      8  C   UNL     1      -7.223  -0.950 -15.468  1.00  0.00     0.041 C 
ATOM      9  O   UNL     1      -7.050  -2.152 -15.136  1.00  0.00    -0.550 OA
ATOM     10  O   UNL     1      -7.641  -0.027 -14.518  1.00  0.00    -0.550 OA
ENDBRANCH   7   8
ENDBRANCH   6   7
ENDBRANCH   5   6
ENDBRANCH   4   5
ENDBRANCH   3   4
ENDBRANCH   2   3
ENDBRANCH   1   2
BRANCH   1  11
ATOM     11  C   UNL     1     -12.505   2.874 -17.842  1.00  0.00     0.000 C 
BRANCH  11  12
ATOM     12  C   UNL     1     -11.508   3.035 -16.681  1.00  0.00    -0.000 C 
BRANCH  12  13
ATOM     13  C   UNL     1     -11.255   4.509 -16.321  1.00  0.00    -0.000 C 
BRANCH  13  14
ATOM     14  C   UNL     1     -12.490   5.395 -16.559  1.00  0.00    -0.000 C 
BRANCH  14  15
ATOM     15  C   UNL     1     -12.367   6.771 -15.886  1.00  0.00    -0.000 C 
BRANCH  15  16
ATOM     16  C   UNL     1     -12.977   7.903 -16.730  1.00  0.00    -0.000 C 
BRANCH  16  17
ATOM     17  C   UNL     1     -13.975   8.759 -15.935  1.00  0.00    -0.003 C 
ATOM     18  C   UNL     1     -14.283   8.177 -14.556  1.00  0.00     0.004 C 
ENDBRANCH  16  17
ENDBRANCH  15  16
ENDBRANCH  14  15
ENDBRANCH  13  14
ENDBRANCH  12  13
ENDBRANCH  11  12
ENDBRANCH   1  11
TORSDOF 14
ENDMDL
MODEL 5
REMARK VINA RESULT:    13.858      1.900      2.521
REMARK INTER + INTRA:          24.433
REMARK INTER:                  24.701
REMARK INTRA:                  -0.268
REMARK UNBOUND:                -0.767
REMARK SMILES CCCCCCCCCCCCCCCC(=O)[O-]
REMARK SMILES IDX 9 1 10 2 11 3 12 4 13 5 14 6 15 7 16 8 17 9 18 10 8 11 7 12
REMARK SMILES IDX 6 13 5 14 4 15 3 16 2 17 1 18
REMARK H PARENT
REMARK Flexibility Score: inf
ROOT
ATOM      1  C   UNL     1     -13.032   3.147 -18.166  1.00  0.00     0.000 C 
ENDROOT
BRANCH   1   2
ATOM      2  C   UNL     1     -14.314   3.889 -18.583  1.00  0.00     0.000 C 
BRANCH   2   3
ATOM      3  C   UNL     1     -14.065   5.373 -18.900  1.00  0.00     0.000 C 
BRANCH   3   4
ATOM      4  C   UNL     1     -15.003   5.908 -19.995  1.00  0.00     0.000 C 
BRANCH   4   5
ATOM      5  C   UNL     1     -15.189   7.435 -19.933  1.00  0.00     0.000 C 
BRANCH   5   6
ATOM      6  C   UNL     1     -15.245   8.030 -18.514  1.00  0.00     0.006 C 
BRANCH   6   7
ATOM      7  C   UNL     1     -13.870   8.473 -17.996  1.00  0.00     0.053 C 
BRANCH   7   8
ATOM      8  C   UNL     1     -13.783   8.279 -16.515  1.00  0.00     0.041 C 
ATOM      9  O   UNL     1     -14.546   8.920 -15.746  1.00  0.00    -0.550 OA
ATOM     10  O   UNL     1     -12.826   7.425 -15.981  1.00  0.00    -0.550 OA
ENDBRANCH   7   8
ENDBRANCH   6   7
ENDBRANCH   5   6
ENDBRANCH   4   5
ENDBRANCH   3   4
ENDBRANCH   2   3
ENDBRANCH   1   2
BRANCH   1  11
ATOM     11  C   UNL     1     -13.251   1.637 -17.989  1.00  0.00     0.000 C 
BRANCH  11  12
ATOM     12  C   UNL     1     -12.047   0.940 -17.331  1.00  0.00    -0.000 C 
BRANCH  12  13
ATOM     13  C   UNL     1     -11.993  -0.565 -17.643  1.00  0.00    -0.000 C 
BRANCH  13  14
ATOM     14  C   UNL     1     -10.605  -1.018 -18.128  1.00  0.00    -0.000 C 
BRANCH  14  15
ATOM     15  C   UNL     1      -9.512  -0.802 -17.069  1.00  0.00    -0.000 C 
BRANCH  15  16
ATOM     16  C   UNL     1      -8.099  -1.094 -17.605  1.00  0.00    -0.000 C 
BRANCH  16  17
ATOM     17  C   UNL     1      -6.996  -0.635 -16.639  1.00  0.00    -0.003 C 
ATOM     18  C   UNL     1      -7.158  -1.223 -15.237  1.00  0.00     0.004 C 
ENDBRANCH  16  17
ENDBRANCH  15  16
ENDBRANCH  14  15
ENDBRANCH  13  14
ENDBRANCH  12  13
ENDBRANCH  11  12
ENDBRANCH   1  11
TORSDOF 14
ENDMDL
MODEL 6
REMARK VINA RESULT:    13.974      5.209      7.093
REMARK INTER + INTRA:          24.644
REMARK INTER:                  25.248
REMARK INTRA:                  -0.604
REMARK UNBOUND:                -0.767
REMARK SMILES CCCCCCCCCCCCCCCC(=O)[O-]
REMARK SMILES IDX 9 1 10 2 11 3 12 4 13 5 14 6 15 7 16 8 17 9 18 10 8 11 7 12
REMARK SMILES IDX 6 13 5 14 4 15 3 16 2 17 1 18
REMARK H PARENT
REMARK Flexibility Score: inf
ROOT
ATOM      1  C   UNL     1     -14.373  -2.428 -15.568  1.00  0.00     0.000 C 
ENDROOT
BRANCH   1   2
ATOM      2  C   UNL     1     -14.289  -3.929 -15.236  1.00  0.00     0.000 C 
BRANCH   2   3
ATOM      3  C   UNL     1     -14.102  -4.195 -13.733  1.00  0.00     0.000 C 
BRANCH   3   4
ATOM      4  C   UNL     1     -14.857  -3.181 -12.856  1.00  0.00     0.000 C 
BRANCH   4   5
ATOM      5  C   UNL     1     -14.900  -3.588 -11.372  1.00  0.00     0.000 C 
BRANCH   5   6
ATOM      6  C   UNL     1     -14.395  -2.519 -10.385  1.00  0.00     0.006 C 
BRANCH   6   7
ATOM      7  C   UNL     1     -15.255  -1.248 -10.388  1.00  0.00     0.053 C 
BRANCH   7   8
ATOM      8  C   UNL     1     -14.394  -0.035 -10.549  1.00  0.00     0.041 C 
ATOM      9  O   UNL     1     -14.659   0.818 -11.437  1.00  0.00    -0.550 OA
ATOM     10  O   UNL     1     -13.269   0.129  -9.750  1.00  0.00    -0.550 OA
ENDBRANCH   7   8
ENDBRANCH   6   7
ENDBRANCH   5   6
ENDBRANCH   4   5
ENDBRANCH   3   4
ENDBRANCH   2   3
ENDBRANCH   1   2
BRANCH   1  11
ATOM     11  C   UNL     1     -13.582  -2.055 -16.831  1.00  0.00     0.000 C 
BRANCH  11  12
ATOM     12  C   UNL     1     -12.876  -0.693 -16.704  1.00  0.00    -0.000 C 
BRANCH  12  13
ATOM     13  C   UNL     1     -11.990  -0.372 -17.920  1.00  0.00    -0.000 C 
BRANCH  13  14
ATOM     14  C   UNL     1     -10.701  -1.211 -17.948  1.00  0.00    -0.000 C 
BRANCH  14  15
ATOM     15  C   UNL     1      -9.560  -0.565 -17.145  1.00  0.00    -0.000 C 
BRANCH  15  16
ATOM     16  C   UNL     1      -8.186  -1.177 -17.467  1.00  0.00    -0.000 C 
BRANCH  16  17
ATOM     17  C   UNL     1      -7.084  -0.682 -16.518  1.00  0.00    -0.003 C 
ATOM     18  C   UNL     1      -7.178  -1.310 -15.128  1.00  0.00     0.004 C 
ENDBRANCH  16  17
ENDBRANCH  15  16
ENDBRANCH  14  15
ENDBRANCH  13  14
ENDBRANCH  12  13
ENDBRANCH  11  12
ENDBRANCH   1  11
TORSDOF 14
ENDMDL
MODEL 7
REMARK VINA RESULT:    14.247      6.102      8.529
REMARK INTER + INTRA:          25.141
REMARK INTER:                  25.803
REMARK INTRA:                  -0.662
REMARK UNBOUND:                -0.767
REMARK SMILES CCCCCCCCCCCCCCCC(=O)[O-]
REMARK SMILES IDX 9 1 10 2 11 3 12 4 13 5 14 6 15 7 16 8 17 9 18 10 8 11 7 12
REMARK SMILES IDX 6 13 5 14 4 15 3 16 2 17 1 18
REMARK H PARENT
REMARK Flexibility Score: inf
ROOT
ATOM      1  C   UNL     1     -14.509  -2.569 -15.646  1.00  0.00     0.000 C 
ENDROOT
BRANCH   1   2
ATOM      2  C   UNL     1     -13.449  -2.183 -16.692  1.00  0.00     0.000 C 
BRANCH   2   3
ATOM      3  C   UNL     1     -13.223  -0.664 -16.776  1.00  0.00     0.000 C 
BRANCH   3   4
ATOM      4  C   UNL     1     -12.245  -0.275 -17.898  1.00  0.00     0.000 C 
BRANCH   4   5
ATOM      5  C   UNL     1     -10.998  -1.176 -17.946  1.00  0.00     0.000 C 
BRANCH   5   6
ATOM      6  C   UNL     1      -9.733  -0.578 -17.301  1.00  0.00     0.006 C 
BRANCH   6   7
ATOM      7  C   UNL     1      -8.546  -1.550 -17.299  1.00  0.00     0.053 C 
BRANCH   7   8
ATOM      8  C   UNL     1      -7.466  -1.052 -16.391  1.00  0.00     0.041 C 
ATOM      9  O   UNL     1      -6.877   0.032 -16.641  1.00  0.00    -0.550 OA
ATOM     10  O   UNL     1      -7.076  -1.810 -15.294  1.00  0.00    -0.550 OA
ENDBRANCH   7   8
ENDBRANCH   6   7
ENDBRANCH   5   6
ENDBRANCH   4   5
ENDBRANCH   3   4
ENDBRANCH   2   3
ENDBRANCH   1   2
BRANCH   1  11
ATOM     11  C   UNL     1     -14.311  -3.991 -15.097  1.00  0.00     0.000 C 
BRANCH  11  12
ATOM     12  C   UNL     1     -13.945  -3.999 -13.602  1.00  0.00    -0.000 C 
BRANCH  12  13
ATOM     13  C   UNL     1     -15.100  -3.514 -12.709  1.00  0.00    -0.000 C 
BRANCH  13  14
ATOM     14  C   UNL     1     -14.695  -3.398 -11.230  1.00  0.00    -0.000 C 
BRANCH  14  15
ATOM     15  C   UNL     1     -15.066  -2.037 -10.621  1.00  0.00    -0.000 C 
BRANCH  15  16
ATOM     16  C   UNL     1     -13.942  -1.447  -9.752  1.00  0.00    -0.000 C 
BRANCH  16  17
ATOM     17  C   UNL     1     -13.668   0.031 -10.067  1.00  0.00    -0.003 C 
ATOM     18  C   UNL     1     -14.612   0.593 -11.130  1.00  0.00     0.004 C 
ENDBRANCH  16  17
ENDBRANCH  15  16
ENDBRANCH  14  15
ENDBRANCH  13  14
ENDBRANCH  12  13
ENDBRANCH  11  12
ENDBRANCH   1  11
TORSDOF 14
ENDMDL
MODEL 8
REMARK VINA RESULT:    14.350      4.317      8.960
REMARK INTER + INTRA:          25.328
REMARK INTER:                  25.841
REMARK INTRA:                  -0.513
REMARK UNBOUND:                -0.767
REMARK SMILES CCCCCCCCCCCCCCCC(=O)[O-]
REMARK SMILES IDX 9 1 10 2 11 3 12 4 13 5 14 6 15 7 16 8 17 9 18 10 8 11 7 12
REMARK SMILES IDX 6 13 5 14 4 15 3 16 2 17 1 18
REMARK H PARENT
REMARK Flexibility Score: inf
ROOT
ATOM      1  C   UNL     1     -12.872   3.004 -18.610  1.00  0.00     0.000 C 
ENDROOT
BRANCH   1   2
ATOM      2  C   UNL     1     -12.142   2.254 -17.483  1.00  0.00     0.000 C 
BRANCH   2   3
ATOM      3  C   UNL     1     -12.674   0.826 -17.278  1.00  0.00     0.000 C 
BRANCH   3   4
ATOM      4  C   UNL     1     -12.194  -0.145 -18.370  1.00  0.00     0.000 C 
BRANCH   4   5
ATOM      5  C   UNL     1     -11.151  -1.155 -17.857  1.00  0.00     0.000 C 
BRANCH   5   6
ATOM      6  C   UNL     1      -9.834  -0.536 -17.352  1.00  0.00     0.006 C 
BRANCH   6   7
ATOM      7  C   UNL     1      -8.760  -1.587 -17.042  1.00  0.00     0.053 C 
BRANCH   7   8
ATOM      8  C   UNL     1      -7.540  -0.934 -16.471  1.00  0.00     0.041 C 
ATOM      9  O   UNL     1      -7.138  -1.240 -15.318  1.00  0.00    -0.550 OA
ATOM     10  O   UNL     1      -6.876   0.049 -17.193  1.00  0.00    -0.550 OA
ENDBRANCH   7   8
ENDBRANCH   6   7
ENDBRANCH   5   6
ENDBRANCH   4   5
ENDBRANCH   3   4
ENDBRANCH   2   3
ENDBRANCH   1   2
BRANCH   1  11
ATOM     11  C   UNL     1     -14.162   3.687 -18.130  1.00  0.00     0.000 C 
BRANCH  11  12
ATOM     12  C   UNL     1     -14.269   5.146 -18.607  1.00  0.00    -0.000 C 
BRANCH  12  13
ATOM     13  C   UNL     1     -14.938   5.268 -19.987  1.00  0.00    -0.000 C 
BRANCH  13  14
ATOM     14  C   UNL     1     -15.058   6.728 -20.458  1.00  0.00    -0.000 C 
BRANCH  14  15
ATOM     15  C   UNL     1     -15.279   7.706 -19.293  1.00  0.00    -0.000 C 
BRANCH  15  16
ATOM     16  C   UNL     1     -13.974   8.368 -18.817  1.00  0.00    -0.000 C 
BRANCH  16  17
ATOM     17  C   UNL     1     -13.950   8.597 -17.298  1.00  0.00    -0.003 C 
ATOM     18  C   UNL     1     -12.748   7.939 -16.622  1.00  0.00     0.004 C 
ENDBRANCH  16  17
ENDBRANCH  15  16
ENDBRANCH  14  15
ENDBRANCH  13  14
ENDBRANCH  12  13
ENDBRANCH  11  12
ENDBRANCH   1  11
TORSDOF 14
ENDMDL
