MODEL 1
REMARK VINA RESULT:    -4.825      0.000      0.000
REMARK INTER + INTRA:         -10.607
REMARK INTER:                  -8.774
REMARK INTRA:                  -1.833
REMARK UNBOUND:                -1.833
REMARK SMILES CCCCCCCCCCCCCCCC(=O)[O-]
REMARK SMILES IDX 9 1 10 2 11 3 12 4 13 5 14 6 15 7 16 8 17 9 18 10 8 11 7 12
REMARK SMILES IDX 6 13 5 14 4 15 3 16 2 17 1 18
REMARK H PARENT
REMARK Flexibility Score: inf
ROOT
ATOM      1  C   UNL     1       5.393  47.346   9.308  1.00  0.00     0.000 C 
ENDROOT
BRANCH   1   2
ATOM      2  C   UNL     1       4.134  46.474   9.460  1.00  0.00     0.000 C 
BRANCH   2   3
ATOM      3  C   UNL     1       3.667  46.353  10.922  1.00  0.00     0.000 C 
BRANCH   3   4
ATOM      4  C   UNL     1       4.533  45.378  11.737  1.00  0.00     0.000 C 
BRANCH   4   5
ATOM      5  C   UNL     1       3.693  44.330  12.487  1.00  0.00     0.000 C 
BRANCH   5   6
ATOM      6  C   UNL     1       2.404  43.953  11.735  1.00  0.00     0.006 C 
BRANCH   6   7
ATOM      7  C   UNL     1       2.535  42.719  10.828  1.00  0.00     0.053 C 
BRANCH   7   8
ATOM      8  C   UNL     1       2.779  43.093   9.399  1.00  0.00     0.041 C 
ATOM      9  O   UNL     1       3.954  43.144   8.950  1.00  0.00    -0.550 OA
ATOM     10  O   UNL     1       1.707  43.350   8.554  1.00  0.00    -0.550 OA
ENDBRANCH   7   8
ENDBRANCH   6   7
ENDBRANCH   5   6
ENDBRANCH   4   5
ENDBRANCH   3   4
ENDBRANCH   2   3
ENDBRANCH   1   2
BRANCH   1  11
ATOM     11  C   UNL     1       5.240  48.553   8.359  1.00  0.00     0.000 C 
BRANCH  11  12
ATOM     12  C   UNL     1       3.886  48.645   7.629  1.00  0.00    -0.000 C 
BRANCH  12  13
ATOM     13  C   UNL     1       3.364  50.076   7.409  1.00  0.00    -0.000 C 
BRANCH  13  14
ATOM     14  C   UNL     1       1.850  50.200   7.635  1.00  0.00    -0.000 C 
BRANCH  14  15
ATOM     15  C   UNL     1       1.378  49.233   8.731  1.00  0.00    -0.000 C 
BRANCH  15  16
ATOM     16  C   UNL     1       0.238  48.308   8.267  1.00  0.00    -0.000 C 
BRANCH  16  17
ATOM     17  C   UNL     1       0.581  46.808   8.271  1.00  0.00    -0.003 C 
ATOM     18  C   UNL     1       0.173  46.105   9.566  1.00  0.00     0.004 C 
ENDBRANCH  16  17
ENDBRANCH  15  16
ENDBRANCH  14  15
ENDBRANCH  13  14
ENDBRANCH  12  13
ENDBRANCH  11  12
ENDBRANCH   1  11
TORSDOF 14
ENDMDL
MODEL 2
REMARK VINA RESULT:    -4.816      2.560      6.006
REMARK INTER + INTRA:         -10.591
REMARK INTER:                  -9.000
REMARK INTRA:                  -1.591
REMARK UNBOUND:                -1.833
REMARK SMILES CCCCCCCCCCCCCCCC(=O)[O-]
REMARK SMILES IDX 9 1 10 2 11 3 12 4 13 5 14 6 15 7 16 8 17 9 18 10 8 11 7 12
REMARK SMILES IDX 6 13 5 14 4 15 3 16 2 17 1 18
REMARK H PARENT
REMARK Flexibility Score: inf
ROOT
ATOM      1  C   UNL     1       3.062  42.852  10.192  1.00  0.00     0.000 C 
ENDROOT
BRANCH   1   2
ATOM      2  C   UNL     1       2.372  43.479   8.967  1.00  0.00     0.000 C 
BRANCH   2   3
ATOM      3  C   UNL     1       1.146  44.329   9.344  1.00  0.00     0.000 C 
BRANCH   3   4
ATOM      4  C   UNL     1       0.810  45.382   8.275  1.00  0.00     0.000 C 
BRANCH   4   5
ATOM      5  C   UNL     1       0.891  46.819   8.819  1.00  0.00     0.000 C 
BRANCH   5   6
ATOM      6  C   UNL     1       1.297  47.841   7.741  1.00  0.00     0.006 C 
BRANCH   6   7
ATOM      7  C   UNL     1       1.840  49.168   8.296  1.00  0.00     0.053 C 
BRANCH   7   8
ATOM      8  C   UNL     1       3.135  49.559   7.655  1.00  0.00     0.041 C 
ATOM      9  O   UNL     1       3.834  48.695   7.063  1.00  0.00    -0.550 OA
ATOM     10  O   UNL     1       3.552  50.883   7.680  1.00  0.00    -0.550 OA
ENDBRANCH   7   8
ENDBRANCH   6   7
ENDBRANCH   5   6
ENDBRANCH   4   5
ENDBRANCH   3   4
ENDBRANCH   2   3
ENDBRANCH   1   2
BRANCH   1  11
ATOM     11  C   UNL     1       2.360  43.111  11.540  1.00  0.00     0.000 C 
BRANCH  11  12
ATOM     12  C   UNL     1       2.998  44.210  12.412  1.00  0.00    -0.000 C 
BRANCH  12  13
ATOM     13  C   UNL     1       4.129  45.003  11.732  1.00  0.00    -0.000 C 
BRANCH  13  14
ATOM     14  C   UNL     1       3.625  46.263  11.014  1.00  0.00    -0.000 C 
BRANCH  14  15
ATOM     15  C   UNL     1       4.509  46.594   9.802  1.00  0.00    -0.000 C 
BRANCH  15  16
ATOM     16  C   UNL     1       5.831  47.279  10.194  1.00  0.00    -0.000 C 
BRANCH  16  17
ATOM     17  C   UNL     1       6.477  48.123   9.080  1.00  0.00    -0.003 C 
ATOM     18  C   UNL     1       7.882  48.607   9.436  1.00  0.00     0.004 C 
ENDBRANCH  16  17
ENDBRANCH  15  16
ENDBRANCH  14  15
ENDBRANCH  13  14
ENDBRANCH  12  13
ENDBRANCH  11  12
ENDBRANCH   1  11
TORSDOF 14
ENDMDL
MODEL 3
REMARK VINA RESULT:    -4.735      1.411      3.981
REMARK INTER + INTRA:         -10.443
REMARK INTER:                  -8.820
REMARK INTRA:                  -1.623
REMARK UNBOUND:                -1.833
REMARK SMILES CCCCCCCCCCCCCCCC(=O)[O-]
REMARK SMILES IDX 9 1 10 2 11 3 12 4 13 5 14 6 15 7 16 8 17 9 18 10 8 11 7 12
REMARK SMILES IDX 6 13 5 14 4 15 3 16 2 17 1 18
REMARK H PARENT
REMARK Flexibility Score: inf
ROOT
ATOM      1  C   UNL     1      -0.157  48.222   8.176  1.00  0.00     0.000 C 
ENDROOT
BRANCH   1   2
ATOM      2  C   UNL     1       0.169  47.005   7.291  1.00  0.00     0.000 C 
BRANCH   2   3
ATOM      3  C   UNL     1       0.156  45.679   8.072  1.00  0.00     0.000 C 
BRANCH   3   4
ATOM      4  C   UNL     1       0.175  45.895   9.594  1.00  0.00     0.000 C 
BRANCH   4   5
ATOM      5  C   UNL     1       1.462  45.364  10.248  1.00  0.00     0.000 C 
BRANCH   5   6
ATOM      6  C   UNL     1       1.183  44.407  11.421  1.00  0.00     0.006 C 
BRANCH   6   7
ATOM      7  C   UNL     1       2.260  43.331  11.635  1.00  0.00     0.053 C 
BRANCH   7   8
ATOM      8  C   UNL     1       3.640  43.861  11.397  1.00  0.00     0.041 C 
ATOM      9  O   UNL     1       4.293  43.494  10.385  1.00  0.00    -0.550 OA
ATOM     10  O   UNL     1       4.191  44.786  12.273  1.00  0.00    -0.550 OA
ENDBRANCH   7   8
ENDBRANCH   6   7
ENDBRANCH   5   6
ENDBRANCH   4   5
ENDBRANCH   3   4
ENDBRANCH   2   3
ENDBRANCH   1   2
BRANCH   1  11
ATOM     11  C   UNL     1       0.536  49.536   7.762  1.00  0.00     0.000 C 
BRANCH  11  12
ATOM     12  C   UNL     1       1.829  49.866   8.532  1.00  0.00    -0.000 C 
BRANCH  12  13
ATOM     13  C   UNL     1       3.081  50.044   7.653  1.00  0.00    -0.000 C 
BRANCH  13  14
ATOM     14  C   UNL     1       3.884  48.745   7.490  1.00  0.00    -0.000 C 
BRANCH  14  15
ATOM     15  C   UNL     1       3.503  47.725   8.573  1.00  0.00    -0.000 C 
BRANCH  15  16
ATOM     16  C   UNL     1       4.661  46.780   8.941  1.00  0.00    -0.000 C 
BRANCH  16  17
ATOM     17  C   UNL     1       5.643  47.336   9.988  1.00  0.00    -0.003 C 
ATOM     18  C   UNL     1       6.938  47.864   9.371  1.00  0.00     0.004 C 
ENDBRANCH  16  17
ENDBRANCH  15  16
ENDBRANCH  14  15
ENDBRANCH  13  14
ENDBRANCH  12  13
ENDBRANCH  11  12
ENDBRANCH   1  11
TORSDOF 14
ENDMDL
MODEL 4
REMARK VINA RESULT:    -4.676      2.908      5.307
REMARK INTER + INTRA:         -10.336
REMARK INTER:                  -8.204
REMARK INTRA:                  -2.132
REMARK UNBOUND:                -1.833
REMARK SMILES CCCCCCCCCCCCCCCC(=O)[O-]
REMARK SMILES IDX 9 1 10 2 11 3 12 4 13 5 14 6 15 7 16 8 17 9 18 10 8 11 7 12
REMARK SMILES IDX 6 13 5 14 4 15 3 16 2 17 1 18
REMARK H PARENT
REMARK Flexibility Score: inf
ROOT
ATOM      1  C   UNL     1       3.339  43.238  11.615  1.00  0.00     0.000 C 
ENDROOT
BRANCH   1   2
ATOM      2  C   UNL     1       3.452  44.647  12.225  1.00  0.00     0.000 C 
BRANCH   2   3
ATOM      3  C   UNL     1       4.534  45.505  11.546  1.00  0.00     0.000 C 
BRANCH   3   4
ATOM      4  C   UNL     1       3.936  46.649  10.710  1.00  0.00     0.000 C 
BRANCH   4   5
ATOM      5  C   UNL     1       4.419  46.626   9.250  1.00  0.00     0.000 C 
BRANCH   5   6
ATOM      6  C   UNL     1       5.394  47.773   8.927  1.00  0.00     0.006 C 
BRANCH   6   7
ATOM      7  C   UNL     1       6.727  47.708   9.691  1.00  0.00     0.053 C 
BRANCH   7   8
ATOM      8  C   UNL     1       7.596  48.894   9.409  1.00  0.00     0.041 C 
ATOM      9  O   UNL     1       8.731  48.988   9.946  1.00  0.00    -0.550 OA
ATOM     10  O   UNL     1       7.168  49.877   8.526  1.00  0.00    -0.550 OA
ENDBRANCH   7   8
ENDBRANCH   6   7
ENDBRANCH   5   6
ENDBRANCH   4   5
ENDBRANCH   3   4
ENDBRANCH   2   3
ENDBRANCH   1   2
BRANCH   1  11
ATOM     11  C   UNL     1       4.182  43.008  10.343  1.00  0.00     0.000 C 
BRANCH  11  12
ATOM     12  C   UNL     1       3.417  43.159   9.013  1.00  0.00    -0.000 C 
BRANCH  12  13
ATOM     13  C   UNL     1       1.884  43.192   9.147  1.00  0.00    -0.000 C 
BRANCH  13  14
ATOM     14  C   UNL     1       1.265  44.482   8.589  1.00  0.00    -0.000 C 
BRANCH  14  15
ATOM     15  C   UNL     1       0.744  45.376   9.724  1.00  0.00    -0.000 C 
BRANCH  15  16
ATOM     16  C   UNL     1       0.414  46.806   9.258  1.00  0.00    -0.000 C 
BRANCH  16  17
ATOM     17  C   UNL     1       0.838  47.131   7.815  1.00  0.00    -0.003 C 
ATOM     18  C   UNL     1       1.681  48.401   7.710  1.00  0.00     0.004 C 
ENDBRANCH  16  17
ENDBRANCH  15  16
ENDBRANCH  14  15
ENDBRANCH  13  14
ENDBRANCH  12  13
ENDBRANCH  11  12
ENDBRANCH   1  11
TORSDOF 14
ENDMDL
MODEL 5
REMARK VINA RESULT:    -4.660      1.874      5.744
REMARK INTER + INTRA:         -10.307
REMARK INTER:                  -8.530
REMARK INTRA:                  -1.778
REMARK UNBOUND:                -1.833
REMARK SMILES CCCCCCCCCCCCCCCC(=O)[O-]
REMARK SMILES IDX 9 1 10 2 11 3 12 4 13 5 14 6 15 7 16 8 17 9 18 10 8 11 7 12
REMARK SMILES IDX 6 13 5 14 4 15 3 16 2 17 1 18
REMARK H PARENT
REMARK Flexibility Score: inf
ROOT
ATOM      1  C   UNL     1       0.148  46.988   7.264  1.00  0.00     0.000 C 
ENDROOT
BRANCH   1   2
ATOM      2  C   UNL     1      -0.412  48.168   8.078  1.00  0.00     0.000 C 
BRANCH   2   3
ATOM      3  C   UNL     1       0.434  49.446   7.933  1.00  0.00     0.000 C 
BRANCH   3   4
ATOM      4  C   UNL     1       1.788  49.338   8.654  1.00  0.00     0.000 C 
BRANCH   4   5
ATOM      5  C   UNL     1       2.962  49.800   7.773  1.00  0.00     0.000 C 
BRANCH   5   6
ATOM      6  C   UNL     1       4.022  48.701   7.571  1.00  0.00     0.006 C 
BRANCH   6   7
ATOM      7  C   UNL     1       3.864  47.487   8.500  1.00  0.00     0.053 C 
BRANCH   7   8
ATOM      8  C   UNL     1       5.037  47.322   9.416  1.00  0.00     0.041 C 
ATOM      9  O   UNL     1       4.879  46.829  10.563  1.00  0.00    -0.550 OA
ATOM     10  O   UNL     1       6.309  47.678   8.988  1.00  0.00    -0.550 OA
ENDBRANCH   7   8
ENDBRANCH   6   7
ENDBRANCH   5   6
ENDBRANCH   4   5
ENDBRANCH   3   4
ENDBRANCH   2   3
ENDBRANCH   1   2
BRANCH   1  11
ATOM     11  C   UNL     1       0.328  45.676   8.056  1.00  0.00     0.000 C 
BRANCH  11  12
ATOM     12  C   UNL     1       0.115  45.794   9.578  1.00  0.00    -0.000 C 
BRANCH  12  13
ATOM     13  C   UNL     1       1.405  45.769  10.417  1.00  0.00    -0.000 C 
BRANCH  13  14
ATOM     14  C   UNL     1       1.480  44.559  11.360  1.00  0.00    -0.000 C 
BRANCH  14  15
ATOM     15  C   UNL     1       2.861  44.466  12.024  1.00  0.00    -0.000 C 
BRANCH  15  16
ATOM     16  C   UNL     1       3.647  43.211  11.602  1.00  0.00    -0.000 C 
BRANCH  16  17
ATOM     17  C   UNL     1       3.312  42.681  10.196  1.00  0.00    -0.003 C 
ATOM     18  C   UNL     1       3.945  43.509   9.079  1.00  0.00     0.004 C 
ENDBRANCH  16  17
ENDBRANCH  15  16
ENDBRANCH  14  15
ENDBRANCH  13  14
ENDBRANCH  12  13
ENDBRANCH  11  12
ENDBRANCH   1  11
TORSDOF 14
ENDMDL
MODEL 6
REMARK VINA RESULT:    -4.626      2.074      4.290
REMARK INTER + INTRA:         -10.245
REMARK INTER:                  -8.663
REMARK INTRA:                  -1.582
REMARK UNBOUND:                -1.833
REMARK SMILES CCCCCCCCCCCCCCCC(=O)[O-]
REMARK SMILES IDX 9 1 10 2 11 3 12 4 13 5 14 6 15 7 16 8 17 9 18 10 8 11 7 12
REMARK SMILES IDX 6 13 5 14 4 15 3 16 2 17 1 18
REMARK H PARENT
REMARK Flexibility Score: inf
ROOT
ATOM      1  C   UNL     1       2.450  43.226   9.099  1.00  0.00     0.000 C 
ENDROOT
BRANCH   1   2
ATOM      2  C   UNL     1       3.113  42.912  10.453  1.00  0.00     0.000 C 
BRANCH   2   3
ATOM      3  C   UNL     1       2.384  43.567  11.640  1.00  0.00     0.000 C 
BRANCH   3   4
ATOM      4  C   UNL     1       3.314  44.457  12.481  1.00  0.00     0.000 C 
BRANCH   4   5
ATOM      5  C   UNL     1       4.434  45.097  11.642  1.00  0.00     0.000 C 
BRANCH   5   6
ATOM      6  C   UNL     1       3.961  46.343  10.872  1.00  0.00     0.006 C 
BRANCH   6   7
ATOM      7  C   UNL     1       4.450  46.414   9.416  1.00  0.00     0.053 C 
BRANCH   7   8
ATOM      8  C   UNL     1       5.473  47.489   9.217  1.00  0.00     0.041 C 
ATOM      9  O   UNL     1       6.553  47.462   9.863  1.00  0.00    -0.550 OA
ATOM     10  O   UNL     1       5.249  48.499   8.291  1.00  0.00    -0.550 OA
ENDBRANCH   7   8
ENDBRANCH   6   7
ENDBRANCH   5   6
ENDBRANCH   4   5
ENDBRANCH   3   4
ENDBRANCH   2   3
ENDBRANCH   1   2
BRANCH   1  11
ATOM     11  C   UNL     1       1.402  44.358   9.134  1.00  0.00     0.000 C 
BRANCH  11  12
ATOM     12  C   UNL     1       0.442  44.400   7.929  1.00  0.00    -0.000 C 
BRANCH  12  13
ATOM     13  C   UNL     1      -0.098  45.798   7.577  1.00  0.00    -0.000 C 
BRANCH  13  14
ATOM     14  C   UNL     1       0.322  46.872   8.590  1.00  0.00    -0.000 C 
BRANCH  14  15
ATOM     15  C   UNL     1       0.501  48.234   7.903  1.00  0.00    -0.000 C 
BRANCH  15  16
ATOM     16  C   UNL     1       1.978  48.643   7.756  1.00  0.00    -0.000 C 
BRANCH  16  17
ATOM     17  C   UNL     1       2.222  50.160   7.664  1.00  0.00    -0.003 C 
ATOM     18  C   UNL     1       0.931  50.967   7.537  1.00  0.00     0.004 C 
ENDBRANCH  16  17
ENDBRANCH  15  16
ENDBRANCH  14  15
ENDBRANCH  13  14
ENDBRANCH  12  13
ENDBRANCH  11  12
ENDBRANCH   1  11
TORSDOF 14
ENDMDL
MODEL 7
REMARK VINA RESULT:    -4.572      2.638      5.335
REMARK INTER + INTRA:         -10.147
REMARK INTER:                  -8.549
REMARK INTRA:                  -1.597
REMARK UNBOUND:                -1.833
REMARK SMILES CCCCCCCCCCCCCCCC(=O)[O-]
REMARK SMILES IDX 9 1 10 2 11 3 12 4 13 5 14 6 15 7 16 8 17 9 18 10 8 11 7 12
REMARK SMILES IDX 6 13 5 14 4 15 3 16 2 17 1 18
REMARK H PARENT
REMARK Flexibility Score: inf
ROOT
ATOM      1  C   UNL     1       4.123  43.893  10.475  1.00  0.00     0.000 C 
ENDROOT
BRANCH   1   2
ATOM      2  C   UNL     1       4.478  45.001  11.484  1.00  0.00     0.000 C 
BRANCH   2   3
ATOM      3  C   UNL     1       4.367  46.413  10.881  1.00  0.00     0.000 C 
BRANCH   3   4
ATOM      4  C   UNL     1       4.430  46.401   9.344  1.00  0.00     0.000 C 
BRANCH   4   5
ATOM      5  C   UNL     1       4.678  47.800   8.755  1.00  0.00     0.000 C 
BRANCH   5   6
ATOM      6  C   UNL     1       3.647  48.182   7.676  1.00  0.00     0.006 C 
BRANCH   6   7
ATOM      7  C   UNL     1       3.469  49.696   7.475  1.00  0.00     0.053 C 
BRANCH   7   8
ATOM      8  C   UNL     1       2.082  50.149   7.809  1.00  0.00     0.041 C 
ATOM      9  O   UNL     1       1.484  49.672   8.809  1.00  0.00    -0.550 OA
ATOM     10  O   UNL     1       1.463  51.124   7.038  1.00  0.00    -0.550 OA
ENDBRANCH   7   8
ENDBRANCH   6   7
ENDBRANCH   5   6
ENDBRANCH   4   5
ENDBRANCH   3   4
ENDBRANCH   2   3
ENDBRANCH   1   2
BRANCH   1  11
ATOM     11  C   UNL     1       2.841  43.099  10.802  1.00  0.00     0.000 C 
BRANCH  11  12
ATOM     12  C   UNL     1       1.924  43.742  11.860  1.00  0.00    -0.000 C 
BRANCH  12  13
ATOM     13  C   UNL     1       0.840  44.679  11.298  1.00  0.00    -0.000 C 
BRANCH  13  14
ATOM     14  C   UNL     1       0.968  44.898   9.783  1.00  0.00    -0.000 C 
BRANCH  14  15
ATOM     15  C   UNL     1       0.856  46.389   9.433  1.00  0.00    -0.000 C 
BRANCH  15  16
ATOM     16  C   UNL     1      -0.425  46.727   8.649  1.00  0.00    -0.000 C 
BRANCH  16  17
ATOM     17  C   UNL     1      -0.286  46.650   7.118  1.00  0.00    -0.003 C 
ATOM     18  C   UNL     1      -0.635  45.273   6.554  1.00  0.00     0.004 C 
ENDBRANCH  16  17
ENDBRANCH  15  16
ENDBRANCH  14  15
ENDBRANCH  13  14
ENDBRANCH  12  13
ENDBRANCH  11  12
ENDBRANCH   1  11
TORSDOF 14
ENDMDL
MODEL 8
REMARK VINA RESULT:    -4.540      1.340      2.390
REMARK INTER + INTRA:         -10.089
REMARK INTER:                  -8.398
REMARK INTRA:                  -1.691
REMARK UNBOUND:                -1.833
REMARK SMILES CCCCCCCCCCCCCCCC(=O)[O-]
REMARK SMILES IDX 9 1 10 2 11 3 12 4 13 5 14 6 15 7 16 8 17 9 18 10 8 11 7 12
REMARK SMILES IDX 6 13 5 14 4 15 3 16 2 17 1 18
REMARK H PARENT
REMARK Flexibility Score: inf
ROOT
ATOM      1  C   UNL     1       4.128  49.081   7.673  1.00  0.00     0.000 C 
ENDROOT
BRANCH   1   2
ATOM      2  C   UNL     1       3.956  47.728   8.387  1.00  0.00     0.000 C 
BRANCH   2   3
ATOM      3  C   UNL     1       5.202  47.315   9.190  1.00  0.00     0.000 C 
BRANCH   3   4
ATOM      4  C   UNL     1       4.844  46.621  10.515  1.00  0.00     0.000 C 
BRANCH   4   5
ATOM      5  C   UNL     1       3.334  46.366  10.657  1.00  0.00     0.000 C 
BRANCH   5   6
ATOM      6  C   UNL     1       3.014  45.218  11.632  1.00  0.00     0.006 C 
BRANCH   6   7
ATOM      7  C   UNL     1       2.228  44.054  11.007  1.00  0.00     0.053 C 
BRANCH   7   8
ATOM      8  C   UNL     1       3.113  43.131  10.227  1.00  0.00     0.041 C 
ATOM      9  O   UNL     1       4.254  42.829  10.664  1.00  0.00    -0.550 OA
ATOM     10  O   UNL     1       2.663  42.578   9.035  1.00  0.00    -0.550 OA
ENDBRANCH   7   8
ENDBRANCH   6   7
ENDBRANCH   5   6
ENDBRANCH   4   5
ENDBRANCH   3   4
ENDBRANCH   2   3
ENDBRANCH   1   2
BRANCH   1  11
ATOM     11  C   UNL     1       2.838  49.917   7.540  1.00  0.00     0.000 C 
BRANCH  11  12
ATOM     12  C   UNL     1       1.719  49.561   8.538  1.00  0.00    -0.000 C 
BRANCH  12  13
ATOM     13  C   UNL     1       0.292  49.638   7.968  1.00  0.00    -0.000 C 
BRANCH  13  14
ATOM     14  C   UNL     1      -0.443  48.291   8.016  1.00  0.00    -0.000 C 
BRANCH  14  15
ATOM     15  C   UNL     1       0.399  47.183   7.366  1.00  0.00    -0.000 C 
BRANCH  15  16
ATOM     16  C   UNL     1       0.433  45.888   8.199  1.00  0.00    -0.000 C 
BRANCH  16  17
ATOM     17  C   UNL     1       0.104  44.606   7.414  1.00  0.00    -0.003 C 
ATOM     18  C   UNL     1      -0.786  44.862   6.198  1.00  0.00     0.004 C 
ENDBRANCH  16  17
ENDBRANCH  15  16
ENDBRANCH  14  15
ENDBRANCH  13  14
ENDBRANCH  12  13
ENDBRANCH  11  12
ENDBRANCH   1  11
TORSDOF 14
ENDMDL
MODEL 9
REMARK VINA RESULT:    -4.441      2.531      6.322
REMARK INTER + INTRA:          -9.908
REMARK INTER:                  -8.099
REMARK INTRA:                  -1.809
REMARK UNBOUND:                -1.833
REMARK SMILES CCCCCCCCCCCCCCCC(=O)[O-]
REMARK SMILES IDX 9 1 10 2 11 3 12 4 13 5 14 6 15 7 16 8 17 9 18 10 8 11 7 12
REMARK SMILES IDX 6 13 5 14 4 15 3 16 2 17 1 18
REMARK H PARENT
REMARK Flexibility Score: inf
ROOT
ATOM      1  C   UNL     1       1.451  44.979   8.802  1.00  0.00     0.000 C 
ENDROOT
BRANCH   1   2
ATOM      2  C   UNL     1       0.577  45.716   9.834  1.00  0.00     0.000 C 
BRANCH   2   3
ATOM      3  C   UNL     1      -0.658  46.381   9.201  1.00  0.00     0.000 C 
BRANCH   3   4
ATOM      4  C   UNL     1      -0.349  47.011   7.832  1.00  0.00     0.000 C 
BRANCH   4   5
ATOM      5  C   UNL     1      -0.603  48.528   7.811  1.00  0.00     0.000 C 
BRANCH   5   6
ATOM      6  C   UNL     1       0.632  49.343   8.235  1.00  0.00     0.006 C 
BRANCH   6   7
ATOM      7  C   UNL     1       1.977  48.697   7.868  1.00  0.00     0.053 C 
BRANCH   7   8
ATOM      8  C   UNL     1       3.027  49.718   7.556  1.00  0.00     0.041 C 
ATOM      9  O   UNL     1       2.694  50.874   7.184  1.00  0.00    -0.550 OA
ATOM     10  O   UNL     1       4.371  49.405   7.711  1.00  0.00    -0.550 OA
ENDBRANCH   7   8
ENDBRANCH   6   7
ENDBRANCH   5   6
ENDBRANCH   4   5
ENDBRANCH   3   4
ENDBRANCH   2   3
ENDBRANCH   1   2
BRANCH   1  11
ATOM     11  C   UNL     1       1.840  43.537   9.188  1.00  0.00     0.000 C 
BRANCH  11  12
ATOM     12  C   UNL     1       3.351  43.233   9.152  1.00  0.00    -0.000 C 
BRANCH  12  13
ATOM     13  C   UNL     1       3.984  42.927  10.521  1.00  0.00    -0.000 C 
BRANCH  13  14
ATOM     14  C   UNL     1       3.039  43.222  11.695  1.00  0.00    -0.000 C 
BRANCH  14  15
ATOM     15  C   UNL     1       3.320  44.610  12.289  1.00  0.00    -0.000 C 
BRANCH  15  16
ATOM     16  C   UNL     1       4.500  45.327  11.609  1.00  0.00    -0.000 C 
BRANCH  16  17
ATOM     17  C   UNL     1       4.115  46.571  10.789  1.00  0.00    -0.003 C 
ATOM     18  C   UNL     1       5.177  46.963   9.762  1.00  0.00     0.004 C 
ENDBRANCH  16  17
ENDBRANCH  15  16
ENDBRANCH  14  15
ENDBRANCH  13  14
ENDBRANCH  12  13
ENDBRANCH  11  12
ENDBRANCH   1  11
TORSDOF 14
ENDMDL
