MODEL 1
REMARK VINA RESULT:    -7.066      0.000      0.000
REMARK INTER + INTRA:          -8.816
REMARK INTER:                  -8.512
REMARK INTRA:                  -0.304
REMARK UNBOUND:                -0.304
REMARK SMILES O=c1c(O)c(-c2ccc(O)c(O)c2)oc2cc(O)cc(O)c12
REMARK SMILES IDX 5 1 3 2 2 3 1 4 22 5 20 6 19 7 17 8 16 9 15 10 14 11 6 12
REMARK SMILES IDX 7 13 8 14 9 15 13 16 11 17 10 18 12 20 4 22 21 24 18 26
REMARK H PARENT 10 19 12 21 4 23 21 25 18 27
REMARK Flexibility Score: inf
ROOT
ATOM      1  C   UNL     1      19.421  24.720  41.371  1.00  0.00     0.180 A 
ATOM      2  C   UNL     1      20.221  25.866  41.525  1.00  0.00     0.208 A 
ATOM      3  C   UNL     1      19.939  26.757  42.573  1.00  0.00     0.238 A 
ATOM      4  O   UNL     1      20.624  27.808  42.673  1.00  0.00    -0.285 OA
ATOM      5  C   UNL     1      18.872  26.484  43.463  1.00  0.00     0.111 A 
ATOM      6  C   UNL     1      18.523  27.296  44.582  1.00  0.00     0.134 A 
ATOM      7  C   UNL     1      17.368  27.001  45.318  1.00  0.00     0.093 A 
ATOM      8  C   UNL     1      16.587  25.883  45.013  1.00  0.00     0.123 A 
ATOM      9  C   UNL     1      16.954  25.050  43.958  1.00  0.00     0.094 A 
ATOM     10  C   UNL     1      18.079  25.340  43.184  1.00  0.00     0.146 A 
ATOM     11  O   UNL     1      18.387  24.526  42.181  1.00  0.00    -0.452 OA
ENDROOT
BRANCH   1  12
ATOM     12  C   UNL     1      19.672  23.722  40.307  1.00  0.00     0.025 A 
ATOM     13  C   UNL     1      20.442  22.584  40.595  1.00  0.00     0.016 A 
ATOM     14  C   UNL     1      20.709  21.639  39.601  1.00  0.00     0.051 A 
ATOM     15  C   UNL     1      20.223  21.822  38.302  1.00  0.00     0.157 A 
ATOM     16  C   UNL     1      19.202  23.915  38.995  1.00  0.00     0.062 A 
ATOM     17  C   UNL     1      19.470  22.968  37.996  1.00  0.00     0.158 A 
BRANCH  15  18
ATOM     18  O   UNL     1      20.503  20.861  37.332  1.00  0.00    -0.504 OA
ATOM     19  H   UNL     1      20.856  21.109  36.415  1.00  0.00     0.293 HD
ENDBRANCH  15  18
BRANCH  17  20
ATOM     20  O   UNL     1      18.995  23.165  36.700  1.00  0.00    -0.504 OA
ATOM     21  H   UNL     1      19.342  23.915  36.115  1.00  0.00     0.293 HD
ENDBRANCH  17  20
ENDBRANCH   1  12
BRANCH   2  22
ATOM     22  O   UNL     1      21.255  26.128  40.622  1.00  0.00    -0.502 OA
ATOM     23  H   UNL     1      21.446  25.532  39.825  1.00  0.00     0.293 HD
ENDBRANCH   2  22
BRANCH   6  24
ATOM     24  O   UNL     1      19.285  28.381  45.028  1.00  0.00    -0.507 OA
ATOM     25  H   UNL     1      19.946  28.890  44.461  1.00  0.00     0.293 HD
ENDBRANCH   6  24
BRANCH   8  26
ATOM     26  O   UNL     1      15.448  25.587  45.758  1.00  0.00    -0.508 OA
ATOM     27  H   UNL     1      14.878  26.318  46.168  1.00  0.00     0.293 HD
ENDBRANCH   8  26
TORSDOF 6
ENDMDL
MODEL 2
REMARK VINA RESULT:    -6.918      1.714      3.537
REMARK INTER + INTRA:          -8.637
REMARK INTER:                  -8.345
REMARK INTRA:                  -0.293
REMARK UNBOUND:                -0.304
REMARK SMILES O=c1c(O)c(-c2ccc(O)c(O)c2)oc2cc(O)cc(O)c12
REMARK SMILES IDX 5 1 3 2 2 3 1 4 22 5 20 6 19 7 17 8 16 9 15 10 14 11 6 12
REMARK SMILES IDX 7 13 8 14 9 15 13 16 11 17 10 18 12 20 4 22 21 24 18 26
REMARK H PARENT 10 19 12 21 4 23 21 25 18 27
REMARK Flexibility Score: inf
ROOT
ATOM      1  C   UNL     1      18.016  24.409  42.682  1.00  0.00     0.180 A 
ATOM      2  C   UNL     1      17.162  23.624  43.476  1.00  0.00     0.208 A 
ATOM      3  C   UNL     1      16.644  24.169  44.663  1.00  0.00     0.238 A 
ATOM      4  O   UNL     1      15.924  23.443  45.397  1.00  0.00    -0.285 OA
ATOM      5  C   UNL     1      16.974  25.495  45.032  1.00  0.00     0.111 A 
ATOM      6  C   UNL     1      16.475  26.162  46.191  1.00  0.00     0.134 A 
ATOM      7  C   UNL     1      16.970  27.428  46.527  1.00  0.00     0.093 A 
ATOM      8  C   UNL     1      17.898  28.078  45.710  1.00  0.00     0.123 A 
ATOM      9  C   UNL     1      18.346  27.460  44.545  1.00  0.00     0.094 A 
ATOM     10  C   UNL     1      17.898  26.183  44.202  1.00  0.00     0.146 A 
ATOM     11  O   UNL     1      18.359  25.626  43.089  1.00  0.00    -0.452 OA
ENDROOT
BRANCH   1  12
ATOM     12  C   UNL     1      18.580  23.914  41.406  1.00  0.00     0.025 A 
ATOM     13  C   UNL     1      17.964  24.268  40.195  1.00  0.00     0.016 A 
ATOM     14  C   UNL     1      18.467  23.796  38.980  1.00  0.00     0.051 A 
ATOM     15  C   UNL     1      19.582  22.952  38.956  1.00  0.00     0.157 A 
ATOM     16  C   UNL     1      19.689  23.048  41.381  1.00  0.00     0.062 A 
ATOM     17  C   UNL     1      20.193  22.572  40.163  1.00  0.00     0.158 A 
BRANCH  15  18
ATOM     18  O   UNL     1      20.063  22.498  37.728  1.00  0.00    -0.504 OA
ATOM     19  H   UNL     1      20.437  23.130  37.031  1.00  0.00     0.293 HD
ENDBRANCH  15  18
BRANCH  17  20
ATOM     20  O   UNL     1      21.296  21.720  40.148  1.00  0.00    -0.504 OA
ATOM     21  H   UNL     1      21.948  21.680  40.922  1.00  0.00     0.293 HD
ENDBRANCH  17  20
ENDBRANCH   1  12
BRANCH   2  22
ATOM     22  O   UNL     1      16.867  22.310  43.105  1.00  0.00    -0.502 OA
ATOM     23  H   UNL     1      16.487  22.073  42.196  1.00  0.00     0.293 HD
ENDBRANCH   2  22
BRANCH   6  24
ATOM     24  O   UNL     1      15.481  25.640  47.024  1.00  0.00    -0.507 OA
ATOM     25  H   UNL     1      14.497  25.851  46.945  1.00  0.00     0.293 HD
ENDBRANCH   6  24
BRANCH   8  26
ATOM     26  O   UNL     1      18.375  29.345  46.043  1.00  0.00    -0.508 OA
ATOM     27  H   UNL     1      18.687  29.563  46.982  1.00  0.00     0.293 HD
ENDBRANCH   8  26
TORSDOF 6
ENDMDL
MODEL 3
REMARK VINA RESULT:    -6.416      1.579      6.892
REMARK INTER + INTRA:          -8.032
REMARK INTER:                  -8.066
REMARK INTRA:                   0.034
REMARK UNBOUND:                -0.304
REMARK SMILES O=c1c(O)c(-c2ccc(O)c(O)c2)oc2cc(O)cc(O)c12
REMARK SMILES IDX 5 1 3 2 2 3 1 4 22 5 20 6 19 7 17 8 16 9 15 10 14 11 6 12
REMARK SMILES IDX 7 13 8 14 9 15 13 16 11 17 10 18 12 20 4 22 21 24 18 26
REMARK H PARENT 10 19 12 21 4 23 21 25 18 27
REMARK Flexibility Score: inf
ROOT
ATOM      1  C   UNL     1      19.156  25.373  41.029  1.00  0.00     0.180 A 
ATOM      2  C   UNL     1      19.141  26.355  40.024  1.00  0.00     0.208 A 
ATOM      3  C   UNL     1      19.365  25.970  38.692  1.00  0.00     0.238 A 
ATOM      4  O   UNL     1      19.405  26.861  37.804  1.00  0.00    -0.285 OA
ATOM      5  C   UNL     1      19.584  24.606  38.381  1.00  0.00     0.111 A 
ATOM      6  C   UNL     1      19.782  24.098  37.063  1.00  0.00     0.134 A 
ATOM      7  C   UNL     1      20.120  22.750  36.884  1.00  0.00     0.093 A 
ATOM      8  C   UNL     1      20.203  21.879  37.973  1.00  0.00     0.123 A 
ATOM      9  C   UNL     1      19.953  22.353  39.259  1.00  0.00     0.094 A 
ATOM     10  C   UNL     1      19.650  23.700  39.471  1.00  0.00     0.146 A 
ATOM     11  O   UNL     1      19.429  24.113  40.714  1.00  0.00    -0.452 OA
ENDROOT
BRANCH   1  12
ATOM     12  C   UNL     1      18.903  25.699  42.451  1.00  0.00     0.025 A 
ATOM     13  C   UNL     1      17.936  24.973  43.164  1.00  0.00     0.016 A 
ATOM     14  C   UNL     1      17.666  25.276  44.501  1.00  0.00     0.051 A 
ATOM     15  C   UNL     1      18.346  26.316  45.142  1.00  0.00     0.157 A 
ATOM     16  C   UNL     1      19.571  26.758  43.091  1.00  0.00     0.062 A 
ATOM     17  C   UNL     1      19.300  27.065  44.432  1.00  0.00     0.158 A 
BRANCH  15  18
ATOM     18  O   UNL     1      18.057  26.594  46.477  1.00  0.00    -0.504 OA
ATOM     19  H   UNL     1      18.149  25.895  47.205  1.00  0.00     0.293 HD
ENDBRANCH  15  18
BRANCH  17  20
ATOM     20  O   UNL     1      19.972  28.113  45.060  1.00  0.00    -0.504 OA
ATOM     21  H   UNL     1      19.848  28.309  46.045  1.00  0.00     0.293 HD
ENDBRANCH  17  20
ENDBRANCH   1  12
BRANCH   2  22
ATOM     22  O   UNL     1      18.944  27.699  40.356  1.00  0.00    -0.502 OA
ATOM     23  H   UNL     1      18.583  27.990  41.256  1.00  0.00     0.293 HD
ENDBRANCH   2  22
BRANCH   6  24
ATOM     24  O   UNL     1      19.633  24.861  35.900  1.00  0.00    -0.507 OA
ATOM     25  H   UNL     1      20.387  25.322  35.415  1.00  0.00     0.293 HD
ENDBRANCH   6  24
BRANCH   8  26
ATOM     26  O   UNL     1      20.525  20.536  37.787  1.00  0.00    -0.508 OA
ATOM     27  H   UNL     1      21.416  20.255  37.396  1.00  0.00     0.293 HD
ENDBRANCH   8  26
TORSDOF 6
ENDMDL
MODEL 4
REMARK VINA RESULT:    -6.386      3.264      6.122
REMARK INTER + INTRA:          -7.997
REMARK INTER:                  -7.672
REMARK INTRA:                  -0.325
REMARK UNBOUND:                -0.304
REMARK SMILES O=c1c(O)c(-c2ccc(O)c(O)c2)oc2cc(O)cc(O)c12
REMARK SMILES IDX 5 1 3 2 2 3 1 4 22 5 20 6 19 7 17 8 16 9 15 10 14 11 6 12
REMARK SMILES IDX 7 13 8 14 9 15 13 16 11 17 10 18 12 20 4 22 21 24 18 26
REMARK H PARENT 10 19 12 21 4 23 21 25 18 27
REMARK Flexibility Score: inf
ROOT
ATOM      1  C   UNL     1      17.288  24.335  42.710  1.00  0.00     0.180 A 
ATOM      2  C   UNL     1      15.966  24.610  42.319  1.00  0.00     0.208 A 
ATOM      3  C   UNL     1      14.979  23.632  42.520  1.00  0.00     0.238 A 
ATOM      4  O   UNL     1      13.808  23.863  42.119  1.00  0.00    -0.285 OA
ATOM      5  C   UNL     1      15.321  22.398  43.125  1.00  0.00     0.111 A 
ATOM      6  C   UNL     1      14.395  21.352  43.412  1.00  0.00     0.134 A 
ATOM      7  C   UNL     1      14.866  20.124  43.892  1.00  0.00     0.093 A 
ATOM      8  C   UNL     1      16.225  19.927  44.155  1.00  0.00     0.123 A 
ATOM      9  C   UNL     1      17.129  20.962  43.933  1.00  0.00     0.094 A 
ATOM     10  C   UNL     1      16.694  22.186  43.421  1.00  0.00     0.146 A 
ATOM     11  O   UNL     1      17.590  23.144  43.214  1.00  0.00    -0.452 OA
ENDROOT
BRANCH   1  12
ATOM     12  C   UNL     1      18.378  25.324  42.554  1.00  0.00     0.025 A 
ATOM     13  C   UNL     1      19.121  25.351  41.364  1.00  0.00     0.016 A 
ATOM     14  C   UNL     1      20.168  26.262  41.203  1.00  0.00     0.051 A 
ATOM     15  C   UNL     1      20.497  27.150  42.232  1.00  0.00     0.157 A 
ATOM     16  C   UNL     1      18.724  26.204  43.596  1.00  0.00     0.062 A 
ATOM     17  C   UNL     1      19.775  27.118  43.437  1.00  0.00     0.158 A 
BRANCH  15  18
ATOM     18  O   UNL     1      21.545  28.051  42.042  1.00  0.00    -0.504 OA
ATOM     19  H   UNL     1      22.443  27.761  41.674  1.00  0.00     0.293 HD
ENDBRANCH  15  18
BRANCH  17  20
ATOM     20  O   UNL     1      20.106  27.991  44.473  1.00  0.00    -0.504 OA
ATOM     21  H   UNL     1      21.018  28.427  44.529  1.00  0.00     0.293 HD
ENDBRANCH  17  20
ENDBRANCH   1  12
BRANCH   2  22
ATOM     22  O   UNL     1      15.653  25.826  41.705  1.00  0.00    -0.502 OA
ATOM     23  H   UNL     1      14.707  26.182  41.654  1.00  0.00     0.293 HD
ENDBRANCH   2  22
BRANCH   6  24
ATOM     24  O   UNL     1      13.009  21.476  43.273  1.00  0.00    -0.507 OA
ATOM     25  H   UNL     1      12.434  20.877  42.700  1.00  0.00     0.293 HD
ENDBRANCH   6  24
BRANCH   8  26
ATOM     26  O   UNL     1      16.684  18.707  44.646  1.00  0.00    -0.508 OA
ATOM     27  H   UNL     1      17.387  18.660  45.375  1.00  0.00     0.293 HD
ENDBRANCH   8  26
TORSDOF 6
ENDMDL
MODEL 5
REMARK VINA RESULT:    -6.380      4.352      7.322
REMARK INTER + INTRA:          -7.990
REMARK INTER:                  -7.667
REMARK INTRA:                  -0.322
REMARK UNBOUND:                -0.304
REMARK SMILES O=c1c(O)c(-c2ccc(O)c(O)c2)oc2cc(O)cc(O)c12
REMARK SMILES IDX 5 1 3 2 2 3 1 4 22 5 20 6 19 7 17 8 16 9 15 10 14 11 6 12
REMARK SMILES IDX 7 13 8 14 9 15 13 16 11 17 10 18 12 20 4 22 21 24 18 26
REMARK H PARENT 10 19 12 21 4 23 21 25 18 27
REMARK Flexibility Score: inf
ROOT
ATOM      1  C   UNL     1      16.493  24.159  44.442  1.00  0.00     0.180 A 
ATOM      2  C   UNL     1      15.458  24.102  43.493  1.00  0.00     0.208 A 
ATOM      3  C   UNL     1      14.836  22.870  43.237  1.00  0.00     0.238 A 
ATOM      4  O   UNL     1      13.947  22.814  42.347  1.00  0.00    -0.285 OA
ATOM      5  C   UNL     1      15.245  21.713  43.944  1.00  0.00     0.111 A 
ATOM      6  C   UNL     1      14.658  20.422  43.794  1.00  0.00     0.134 A 
ATOM      7  C   UNL     1      15.229  19.322  44.448  1.00  0.00     0.093 A 
ATOM      8  C   UNL     1      16.326  19.481  45.298  1.00  0.00     0.123 A 
ATOM      9  C   UNL     1      16.869  20.748  45.497  1.00  0.00     0.094 A 
ATOM     10  C   UNL     1      16.345  21.857  44.830  1.00  0.00     0.146 A 
ATOM     11  O   UNL     1      16.899  23.045  45.040  1.00  0.00    -0.452 OA
ENDROOT
BRANCH   1  12
ATOM     12  C   UNL     1      17.179  25.426  44.784  1.00  0.00     0.025 A 
ATOM     13  C   UNL     1      16.631  26.264  45.768  1.00  0.00     0.016 A 
ATOM     14  C   UNL     1      17.250  27.473  46.093  1.00  0.00     0.051 A 
ATOM     15  C   UNL     1      18.416  27.872  45.431  1.00  0.00     0.157 A 
ATOM     16  C   UNL     1      18.341  25.837  44.105  1.00  0.00     0.062 A 
ATOM     17  C   UNL     1      18.962  27.052  44.429  1.00  0.00     0.158 A 
BRANCH  15  18
ATOM     18  O   UNL     1      19.013  29.083  45.778  1.00  0.00    -0.504 OA
ATOM     19  H   UNL     1      19.511  29.207  46.652  1.00  0.00     0.293 HD
ENDBRANCH  15  18
BRANCH  17  20
ATOM     20  O   UNL     1      20.116  27.448  43.755  1.00  0.00    -0.504 OA
ATOM     21  H   UNL     1      20.516  26.889  43.012  1.00  0.00     0.293 HD
ENDBRANCH  17  20
ENDBRANCH   1  12
BRANCH   2  22
ATOM     22  O   UNL     1      15.084  25.251  42.790  1.00  0.00    -0.502 OA
ATOM     23  H   UNL     1      14.120  25.551  42.711  1.00  0.00     0.293 HD
ENDBRANCH   2  22
BRANCH   6  24
ATOM     24  O   UNL     1      13.507  20.170  43.042  1.00  0.00    -0.507 OA
ATOM     25  H   UNL     1      12.572  20.125  43.420  1.00  0.00     0.293 HD
ENDBRANCH   6  24
BRANCH   8  26
ATOM     26  O   UNL     1      16.879  18.385  45.958  1.00  0.00    -0.508 OA
ATOM     27  H   UNL     1      17.723  18.471  46.512  1.00  0.00     0.293 HD
ENDBRANCH   8  26
TORSDOF 6
ENDMDL
MODEL 6
REMARK VINA RESULT:    -6.357      1.878      7.190
REMARK INTER + INTRA:          -7.962
REMARK INTER:                  -7.638
REMARK INTRA:                  -0.323
REMARK UNBOUND:                -0.304
REMARK SMILES O=c1c(O)c(-c2ccc(O)c(O)c2)oc2cc(O)cc(O)c12
REMARK SMILES IDX 5 1 3 2 2 3 1 4 22 5 20 6 19 7 17 8 16 9 15 10 14 11 6 12
REMARK SMILES IDX 7 13 8 14 9 15 13 16 11 17 10 18 12 20 4 22 21 24 18 26
REMARK H PARENT 10 19 12 21 4 23 21 25 18 27
REMARK Flexibility Score: inf
ROOT
ATOM      1  C   UNL     1      17.407  25.250  42.487  1.00  0.00     0.180 A 
ATOM      2  C   UNL     1      16.636  25.610  41.369  1.00  0.00     0.208 A 
ATOM      3  C   UNL     1      16.940  25.044  40.121  1.00  0.00     0.238 A 
ATOM      4  O   UNL     1      16.281  25.412  39.113  1.00  0.00    -0.285 OA
ATOM      5  C   UNL     1      18.000  24.113  40.009  1.00  0.00     0.111 A 
ATOM      6  C   UNL     1      18.371  23.447  38.803  1.00  0.00     0.134 A 
ATOM      7  C   UNL     1      19.519  22.645  38.780  1.00  0.00     0.093 A 
ATOM      8  C   UNL     1      20.272  22.433  39.937  1.00  0.00     0.123 A 
ATOM      9  C   UNL     1      19.884  23.031  41.133  1.00  0.00     0.094 A 
ATOM     10  C   UNL     1      18.765  23.866  41.179  1.00  0.00     0.146 A 
ATOM     11  O   UNL     1      18.437  24.425  42.338  1.00  0.00    -0.452 OA
ENDROOT
BRANCH   1  12
ATOM     12  C   UNL     1      17.131  25.785  43.840  1.00  0.00     0.025 A 
ATOM     13  C   UNL     1      16.226  25.113  44.677  1.00  0.00     0.016 A 
ATOM     14  C   UNL     1      15.934  25.611  45.949  1.00  0.00     0.051 A 
ATOM     15  C   UNL     1      16.531  26.793  46.400  1.00  0.00     0.157 A 
ATOM     16  C   UNL     1      17.714  26.984  44.287  1.00  0.00     0.062 A 
ATOM     17  C   UNL     1      17.422  27.486  45.563  1.00  0.00     0.158 A 
BRANCH  15  18
ATOM     18  O   UNL     1      16.223  27.264  47.676  1.00  0.00    -0.504 OA
ATOM     19  H   UNL     1      15.734  26.695  48.356  1.00  0.00     0.293 HD
ENDBRANCH  15  18
BRANCH  17  20
ATOM     20  O   UNL     1      18.009  28.672  46.000  1.00  0.00    -0.504 OA
ATOM     21  H   UNL     1      18.541  29.264  45.374  1.00  0.00     0.293 HD
ENDBRANCH  17  20
ENDBRANCH   1  12
BRANCH   2  22
ATOM     22  O   UNL     1      15.607  26.548  41.497  1.00  0.00    -0.502 OA
ATOM     23  H   UNL     1      15.768  27.490  41.834  1.00  0.00     0.293 HD
ENDBRANCH   2  22
BRANCH   6  24
ATOM     24  O   UNL     1      17.636  23.517  37.615  1.00  0.00    -0.507 OA
ATOM     25  H   UNL     1      17.973  23.216  36.713  1.00  0.00     0.293 HD
ENDBRANCH   6  24
BRANCH   8  26
ATOM     26  O   UNL     1      21.404  21.621  39.910  1.00  0.00    -0.508 OA
ATOM     27  H   UNL     1      21.803  21.240  40.761  1.00  0.00     0.293 HD
ENDBRANCH   8  26
TORSDOF 6
ENDMDL
MODEL 7
REMARK VINA RESULT:    -6.200      1.995      7.227
REMARK INTER + INTRA:          -7.773
REMARK INTER:                  -7.452
REMARK INTRA:                  -0.321
REMARK UNBOUND:                -0.304
REMARK SMILES O=c1c(O)c(-c2ccc(O)c(O)c2)oc2cc(O)cc(O)c12
REMARK SMILES IDX 5 1 3 2 2 3 1 4 22 5 20 6 19 7 17 8 16 9 15 10 14 11 6 12
REMARK SMILES IDX 7 13 8 14 9 15 13 16 11 17 10 18 12 20 4 22 21 24 18 26
REMARK H PARENT 10 19 12 21 4 23 21 25 18 27
REMARK Flexibility Score: inf
ROOT
ATOM      1  C   UNL     1      18.895  25.210  40.621  1.00  0.00     0.180 A 
ATOM      2  C   UNL     1      19.319  23.876  40.498  1.00  0.00     0.208 A 
ATOM      3  C   UNL     1      19.645  23.380  39.225  1.00  0.00     0.238 A 
ATOM      4  O   UNL     1      19.972  22.169  39.114  1.00  0.00    -0.285 OA
ATOM      5  C   UNL     1      19.561  24.228  38.095  1.00  0.00     0.111 A 
ATOM      6  C   UNL     1      19.905  23.843  36.765  1.00  0.00     0.134 A 
ATOM      7  C   UNL     1      19.658  24.723  35.704  1.00  0.00     0.093 A 
ATOM      8  C   UNL     1      19.139  25.999  35.934  1.00  0.00     0.123 A 
ATOM      9  C   UNL     1      18.855  26.406  37.235  1.00  0.00     0.094 A 
ATOM     10  C   UNL     1      19.056  25.537  38.310  1.00  0.00     0.146 A 
ATOM     11  O   UNL     1      18.762  25.961  39.533  1.00  0.00    -0.452 OA
ENDROOT
BRANCH   1  12
ATOM     12  C   UNL     1      18.558  25.812  41.931  1.00  0.00     0.025 A 
ATOM     13  C   UNL     1      17.249  25.700  42.426  1.00  0.00     0.016 A 
ATOM     14  C   UNL     1      16.903  26.278  43.650  1.00  0.00     0.051 A 
ATOM     15  C   UNL     1      17.854  26.988  44.391  1.00  0.00     0.157 A 
ATOM     16  C   UNL     1      19.507  26.544  42.667  1.00  0.00     0.062 A 
ATOM     17  C   UNL     1      19.161  27.126  43.895  1.00  0.00     0.158 A 
BRANCH  15  18
ATOM     18  O   UNL     1      17.480  27.552  45.610  1.00  0.00    -0.504 OA
ATOM     19  H   UNL     1      18.148  28.012  46.217  1.00  0.00     0.293 HD
ENDBRANCH  15  18
BRANCH  17  20
ATOM     20  O   UNL     1      20.110  27.845  44.620  1.00  0.00    -0.504 OA
ATOM     21  H   UNL     1      20.142  27.812  45.632  1.00  0.00     0.293 HD
ENDBRANCH  17  20
ENDBRANCH   1  12
BRANCH   2  22
ATOM     22  O   UNL     1      19.375  23.049  41.623  1.00  0.00    -0.502 OA
ATOM     23  H   UNL     1      20.159  23.055  42.264  1.00  0.00     0.293 HD
ENDBRANCH   2  22
BRANCH   6  24
ATOM     24  O   UNL     1      20.514  22.627  36.437  1.00  0.00    -0.507 OA
ATOM     25  H   UNL     1      20.514  22.215  35.516  1.00  0.00     0.293 HD
ENDBRANCH   6  24
BRANCH   8  26
ATOM     26  O   UNL     1      18.910  26.875  34.875  1.00  0.00    -0.508 OA
ATOM     27  H   UNL     1      19.515  27.671  34.705  1.00  0.00     0.293 HD
ENDBRANCH   8  26
TORSDOF 6
ENDMDL
MODEL 8
REMARK VINA RESULT:    -6.140      1.452      2.177
REMARK INTER + INTRA:          -7.701
REMARK INTER:                  -7.369
REMARK INTRA:                  -0.332
REMARK UNBOUND:                -0.304
REMARK SMILES O=c1c(O)c(-c2ccc(O)c(O)c2)oc2cc(O)cc(O)c12
REMARK SMILES IDX 5 1 3 2 2 3 1 4 22 5 20 6 19 7 17 8 16 9 15 10 14 11 6 12
REMARK SMILES IDX 7 13 8 14 9 15 13 16 11 17 10 18 12 20 4 22 21 24 18 26
REMARK H PARENT 10 19 12 21 4 23 21 25 18 27
REMARK Flexibility Score: inf
ROOT
ATOM      1  C   UNL     1      18.306  24.722  42.064  1.00  0.00     0.180 A 
ATOM      2  C   UNL     1      18.936  25.860  42.596  1.00  0.00     0.208 A 
ATOM      3  C   UNL     1      18.442  26.418  43.786  1.00  0.00     0.238 A 
ATOM      4  O   UNL     1      18.976  27.469  44.228  1.00  0.00    -0.285 OA
ATOM      5  C   UNL     1      17.334  25.823  44.437  1.00  0.00     0.111 A 
ATOM      6  C   UNL     1      16.776  26.280  45.667  1.00  0.00     0.134 A 
ATOM      7  C   UNL     1      15.600  25.695  46.153  1.00  0.00     0.093 A 
ATOM      8  C   UNL     1      14.999  24.625  45.485  1.00  0.00     0.123 A 
ATOM      9  C   UNL     1      15.571  24.133  44.314  1.00  0.00     0.094 A 
ATOM     10  C   UNL     1      16.723  24.719  43.786  1.00  0.00     0.146 A 
ATOM     11  O   UNL     1      17.229  24.226  42.662  1.00  0.00    -0.452 OA
ENDROOT
BRANCH   1  12
ATOM     12  C   UNL     1      18.785  24.062  40.828  1.00  0.00     0.025 A 
ATOM     13  C   UNL     1      18.182  24.374  39.599  1.00  0.00     0.016 A 
ATOM     14  C   UNL     1      18.603  23.749  38.424  1.00  0.00     0.051 A 
ATOM     15  C   UNL     1      19.623  22.792  38.458  1.00  0.00     0.157 A 
ATOM     16  C   UNL     1      19.796  23.084  40.864  1.00  0.00     0.062 A 
ATOM     17  C   UNL     1      20.219  22.454  39.685  1.00  0.00     0.158 A 
BRANCH  15  18
ATOM     18  O   UNL     1      20.024  22.186  37.268  1.00  0.00    -0.504 OA
ATOM     19  H   UNL     1      19.811  22.585  36.362  1.00  0.00     0.293 HD
ENDBRANCH  15  18
BRANCH  17  20
ATOM     20  O   UNL     1      21.226  21.491  39.729  1.00  0.00    -0.504 OA
ATOM     21  H   UNL     1      21.880  21.441  40.500  1.00  0.00     0.293 HD
ENDBRANCH  17  20
ENDBRANCH   1  12
BRANCH   2  22
ATOM     22  O   UNL     1      20.015  26.445  41.926  1.00  0.00    -0.502 OA
ATOM     23  H   UNL     1      20.818  25.910  41.618  1.00  0.00     0.293 HD
ENDBRANCH   2  22
BRANCH   6  24
ATOM     24  O   UNL     1      17.347  27.280  46.460  1.00  0.00    -0.507 OA
ATOM     25  H   UNL     1      18.336  27.470  46.521  1.00  0.00     0.293 HD
ENDBRANCH   6  24
BRANCH   8  26
ATOM     26  O   UNL     1      13.838  24.037  45.982  1.00  0.00    -0.508 OA
ATOM     27  H   UNL     1      13.238  23.470  45.394  1.00  0.00     0.293 HD
ENDBRANCH   8  26
TORSDOF 6
ENDMDL
MODEL 9
REMARK VINA RESULT:    -6.045      2.404      7.157
REMARK INTER + INTRA:          -7.586
REMARK INTER:                  -7.483
REMARK INTRA:                  -0.103
REMARK UNBOUND:                -0.304
REMARK SMILES O=c1c(O)c(-c2ccc(O)c(O)c2)oc2cc(O)cc(O)c12
REMARK SMILES IDX 5 1 3 2 2 3 1 4 22 5 20 6 19 7 17 8 16 9 15 10 14 11 6 12
REMARK SMILES IDX 7 13 8 14 9 15 13 16 11 17 10 18 12 20 4 22 21 24 18 26
REMARK H PARENT 10 19 12 21 4 23 21 25 18 27
REMARK Flexibility Score: inf
ROOT
ATOM      1  C   UNL     1      17.624  25.975  44.465  1.00  0.00     0.180 A 
ATOM      2  C   UNL     1      18.841  26.646  44.252  1.00  0.00     0.208 A 
ATOM      3  C   UNL     1      19.389  26.668  42.960  1.00  0.00     0.238 A 
ATOM      4  O   UNL     1      20.506  27.223  42.787  1.00  0.00    -0.285 OA
ATOM      5  C   UNL     1      18.707  26.034  41.894  1.00  0.00     0.111 A 
ATOM      6  C   UNL     1      19.150  26.028  40.538  1.00  0.00     0.134 A 
ATOM      7  C   UNL     1      18.464  25.260  39.589  1.00  0.00     0.093 A 
ATOM      8  C   UNL     1      17.312  24.549  39.936  1.00  0.00     0.123 A 
ATOM      9  C   UNL     1      16.838  24.596  41.244  1.00  0.00     0.094 A 
ATOM     10  C   UNL     1      17.522  25.324  42.220  1.00  0.00     0.146 A 
ATOM     11  O   UNL     1      17.042  25.334  43.458  1.00  0.00    -0.452 OA
ENDROOT
BRANCH   1  12
ATOM     12  C   UNL     1      16.971  25.930  45.793  1.00  0.00     0.025 A 
ATOM     13  C   UNL     1      16.621  24.689  46.349  1.00  0.00     0.016 A 
ATOM     14  C   UNL     1      15.986  24.624  47.591  1.00  0.00     0.051 A 
ATOM     15  C   UNL     1      15.677  25.795  48.290  1.00  0.00     0.157 A 
ATOM     16  C   UNL     1      16.641  27.108  46.488  1.00  0.00     0.062 A 
ATOM     17  C   UNL     1      16.002  27.044  47.734  1.00  0.00     0.158 A 
BRANCH  15  18
ATOM     18  O   UNL     1      15.044  25.698  49.529  1.00  0.00    -0.504 OA
ATOM     19  H   UNL     1      14.587  26.491  49.963  1.00  0.00     0.293 HD
ENDBRANCH  15  18
BRANCH  17  20
ATOM     20  O   UNL     1      15.684  28.216  48.418  1.00  0.00    -0.504 OA
ATOM     21  H   UNL     1      16.400  28.859  48.732  1.00  0.00     0.293 HD
ENDBRANCH  17  20
ENDBRANCH   1  12
BRANCH   2  22
ATOM     22  O   UNL     1      19.509  27.246  45.323  1.00  0.00    -0.502 OA
ATOM     23  H   UNL     1      19.966  26.708  46.050  1.00  0.00     0.293 HD
ENDBRANCH   2  22
BRANCH   6  24
ATOM     24  O   UNL     1      20.234  26.776  40.067  1.00  0.00    -0.507 OA
ATOM     25  H   UNL     1      21.181  26.436  40.001  1.00  0.00     0.293 HD
ENDBRANCH   6  24
BRANCH   8  26
ATOM     26  O   UNL     1      16.626  23.798  38.983  1.00  0.00    -0.508 OA
ATOM     27  H   UNL     1      16.499  24.134  38.035  1.00  0.00     0.293 HD
ENDBRANCH   8  26
TORSDOF 6
ENDMDL
