MODEL 1
REMARK VINA RESULT:    -3.866      0.000      0.000
REMARK INTER + INTRA:          -4.250
REMARK INTER:                  -4.205
REMARK INTRA:                  -0.045
REMARK UNBOUND:                -0.045
REMARK SMILES COc1cc2ccc(=O)oc2cc1O
REMARK SMILES IDX 3 1 13 2 12 3 11 4 5 5 4 6 6 7 7 8 8 9 9 10 10 11 2 12 1 13
REMARK SMILES IDX 14 14
REMARK H PARENT 14 15
REMARK Flexibility Score: inf
ROOT
ATOM      1  C   UNL     1      18.242   5.549 -10.749  1.00  0.00     0.161 A 
ATOM      2  C   UNL     1      19.098   6.418 -10.055  1.00  0.00     0.161 A 
ATOM      3  C   UNL     1      20.431   6.575 -10.461  1.00  0.00     0.098 A 
ATOM      4  C   UNL     1      20.919   5.867 -11.563  1.00  0.00     0.142 A 
ATOM      5  C   UNL     1      20.065   4.992 -12.267  1.00  0.00     0.022 A 
ATOM      6  C   UNL     1      18.733   4.834 -11.860  1.00  0.00     0.062 A 
ATOM      7  C   UNL     1      20.583   4.297 -13.365  1.00  0.00     0.019 A 
ATOM      8  C   UNL     1      21.914   4.488 -13.731  1.00  0.00     0.094 A 
ATOM      9  C   UNL     1      22.702   5.372 -12.985  1.00  0.00     0.336 A 
ATOM     10  O   UNL     1      23.907   5.558 -13.298  1.00  0.00    -0.246 OA
ATOM     11  O   UNL     1      22.184   6.020 -11.944  1.00  0.00    -0.423 OA
ENDROOT
BRANCH   1  12
ATOM     12  O   UNL     1      16.916   5.423 -10.306  1.00  0.00    -0.493 OA
ATOM     13  C   UNL     1      16.007   4.423 -10.755  1.00  0.00     0.278 C 
ENDBRANCH   1  12
BRANCH   2  14
ATOM     14  O   UNL     1      18.614   7.125  -8.954  1.00  0.00    -0.504 OA
ATOM     15  H   UNL     1      17.977   6.701  -8.290  1.00  0.00     0.293 HD
ENDBRANCH   2  14
TORSDOF 2
ENDMDL
MODEL 2
REMARK VINA RESULT:    -3.792      1.714      2.880
REMARK INTER + INTRA:          -4.170
REMARK INTER:                  -4.117
REMARK INTRA:                  -0.052
REMARK UNBOUND:                -0.045
REMARK SMILES COc1cc2ccc(=O)oc2cc1O
REMARK SMILES IDX 3 1 13 2 12 3 11 4 5 5 4 6 6 7 7 8 8 9 9 10 10 11 2 12 1 13
REMARK SMILES IDX 14 14
REMARK H PARENT 14 15
REMARK Flexibility Score: inf
ROOT
ATOM      1  C   UNL     1      18.210   3.917 -11.576  1.00  0.00     0.161 A 
ATOM      2  C   UNL     1      18.839   3.311 -12.674  1.00  0.00     0.161 A 
ATOM      3  C   UNL     1      20.050   3.817 -13.166  1.00  0.00     0.098 A 
ATOM      4  C   UNL     1      20.643   4.931 -12.565  1.00  0.00     0.142 A 
ATOM      5  C   UNL     1      20.019   5.547 -11.460  1.00  0.00     0.022 A 
ATOM      6  C   UNL     1      18.807   5.041 -10.968  1.00  0.00     0.062 A 
ATOM      7  C   UNL     1      20.636   6.660 -10.881  1.00  0.00     0.019 A 
ATOM      8  C   UNL     1      21.841   7.125 -11.405  1.00  0.00     0.094 A 
ATOM      9  C   UNL     1      22.402   6.464 -12.504  1.00  0.00     0.336 A 
ATOM     10  O   UNL     1      23.488   6.868 -12.994  1.00  0.00    -0.246 OA
ATOM     11  O   UNL     1      21.793   5.407 -13.036  1.00  0.00    -0.423 OA
ENDROOT
BRANCH   1  12
ATOM     12  O   UNL     1      16.998   3.376 -11.117  1.00  0.00    -0.493 OA
ATOM     13  C   UNL     1      15.857   4.146 -10.756  1.00  0.00     0.278 C 
ENDBRANCH   1  12
BRANCH   2  14
ATOM     14  O   UNL     1      18.249   2.199 -13.275  1.00  0.00    -0.504 OA
ATOM     15  H   UNL     1      17.642   2.292 -14.082  1.00  0.00     0.293 HD
ENDBRANCH   2  14
TORSDOF 2
ENDMDL
MODEL 3
REMARK VINA RESULT:    -3.020      1.180      4.965
REMARK INTER + INTRA:          -3.330
REMARK INTER:                  -3.840
REMARK INTRA:                   0.511
REMARK UNBOUND:                -0.045
REMARK SMILES COc1cc2ccc(=O)oc2cc1O
REMARK SMILES IDX 3 1 13 2 12 3 11 4 5 5 4 6 6 7 7 8 8 9 9 10 10 11 2 12 1 13
REMARK SMILES IDX 14 14
REMARK H PARENT 14 15
REMARK Flexibility Score: inf
ROOT
ATOM      1  C   UNL     1      21.026   5.023 -12.713  1.00  0.00     0.161 A 
ATOM      2  C   UNL     1      20.925   6.196 -11.949  1.00  0.00     0.161 A 
ATOM      3  C   UNL     1      19.788   6.435 -11.165  1.00  0.00     0.098 A 
ATOM      4  C   UNL     1      18.744   5.507 -11.137  1.00  0.00     0.142 A 
ATOM      5  C   UNL     1      18.837   4.324 -11.901  1.00  0.00     0.022 A 
ATOM      6  C   UNL     1      19.974   4.085 -12.685  1.00  0.00     0.062 A 
ATOM      7  C   UNL     1      17.776   3.415 -11.851  1.00  0.00     0.019 A 
ATOM      8  C   UNL     1      16.667   3.698 -11.056  1.00  0.00     0.094 A 
ATOM      9  C   UNL     1      16.644   4.892 -10.325  1.00  0.00     0.336 A 
ATOM     10  O   UNL     1      15.652   5.167  -9.601  1.00  0.00    -0.246 OA
ATOM     11  O   UNL     1      17.668   5.740 -10.390  1.00  0.00    -0.423 OA
ENDROOT
BRANCH   1  12
ATOM     12  O   UNL     1      22.183   4.824 -13.483  1.00  0.00    -0.493 OA
ATOM     13  C   UNL     1      23.510   5.042 -13.015  1.00  0.00     0.278 C 
ENDBRANCH   1  12
BRANCH   2  14
ATOM     14  O   UNL     1      21.965   7.124 -11.977  1.00  0.00    -0.504 OA
ATOM     15  H   UNL     1      22.078   7.772 -12.748  1.00  0.00     0.293 HD
ENDBRANCH   2  14
TORSDOF 2
ENDMDL
MODEL 4
REMARK VINA RESULT:    -2.853     22.923     24.933
REMARK INTER + INTRA:          -3.148
REMARK INTER:                  -3.101
REMARK INTRA:                  -0.047
REMARK UNBOUND:                -0.045
REMARK SMILES COc1cc2ccc(=O)oc2cc1O
REMARK SMILES IDX 3 1 13 2 12 3 11 4 5 5 4 6 6 7 7 8 8 9 9 10 10 11 2 12 1 13
REMARK SMILES IDX 14 14
REMARK H PARENT 14 15
REMARK Flexibility Score: inf
ROOT
ATOM      1  C   UNL     1      30.187 -11.814 -24.919  1.00  0.00     0.161 A 
ATOM      2  C   UNL     1      30.667 -12.666 -25.925  1.00  0.00     0.161 A 
ATOM      3  C   UNL     1      29.832 -13.058 -26.980  1.00  0.00     0.098 A 
ATOM      4  C   UNL     1      28.512 -12.602 -27.040  1.00  0.00     0.142 A 
ATOM      5  C   UNL     1      28.021 -11.744 -26.034  1.00  0.00     0.022 A 
ATOM      6  C   UNL     1      28.857 -11.353 -24.978  1.00  0.00     0.062 A 
ATOM      7  C   UNL     1      26.696 -11.305 -26.121  1.00  0.00     0.019 A 
ATOM      8  C   UNL     1      25.906 -11.722 -27.190  1.00  0.00     0.094 A 
ATOM      9  C   UNL     1      26.461 -12.574 -28.152  1.00  0.00     0.336 A 
ATOM     10  O   UNL     1      25.763 -12.963 -29.125  1.00  0.00    -0.246 OA
ATOM     11  O   UNL     1      27.724 -12.978 -28.045  1.00  0.00    -0.423 OA
ENDROOT
BRANCH   1  12
ATOM     12  O   UNL     1      31.060 -11.448 -23.881  1.00  0.00    -0.493 OA
ATOM     13  C   UNL     1      30.974 -10.230 -23.148  1.00  0.00     0.278 C 
ENDBRANCH   1  12
BRANCH   2  14
ATOM     14  O   UNL     1      31.984 -13.124 -25.867  1.00  0.00    -0.504 OA
ATOM     15  H   UNL     1      32.216 -14.095 -26.038  1.00  0.00     0.293 HD
ENDBRANCH   2  14
TORSDOF 2
ENDMDL
MODEL 5
REMARK VINA RESULT:    -2.763      1.614      5.233
REMARK INTER + INTRA:          -3.051
REMARK INTER:                  -3.773
REMARK INTRA:                   0.722
REMARK UNBOUND:                -0.045
REMARK SMILES COc1cc2ccc(=O)oc2cc1O
REMARK SMILES IDX 3 1 13 2 12 3 11 4 5 5 4 6 6 7 7 8 8 9 9 10 10 11 2 12 1 13
REMARK SMILES IDX 14 14
REMARK H PARENT 14 15
REMARK Flexibility Score: inf
ROOT
ATOM      1  C   UNL     1      21.728   6.313 -11.991  1.00  0.00     0.161 A 
ATOM      2  C   UNL     1      21.706   5.063 -12.628  1.00  0.00     0.161 A 
ATOM      3  C   UNL     1      20.570   4.246 -12.548  1.00  0.00     0.098 A 
ATOM      4  C   UNL     1      19.447   4.670 -11.831  1.00  0.00     0.142 A 
ATOM      5  C   UNL     1      19.460   5.926 -11.188  1.00  0.00     0.022 A 
ATOM      6  C   UNL     1      20.597   6.742 -11.268  1.00  0.00     0.062 A 
ATOM      7  C   UNL     1      18.322   6.321 -10.479  1.00  0.00     0.019 A 
ATOM      8  C   UNL     1      17.216   5.474 -10.429  1.00  0.00     0.094 A 
ATOM      9  C   UNL     1      17.276   4.243 -11.092  1.00  0.00     0.336 A 
ATOM     10  O   UNL     1      16.289   3.462 -11.058  1.00  0.00    -0.246 OA
ATOM     11  O   UNL     1      18.372   3.890 -11.759  1.00  0.00    -0.423 OA
ENDROOT
BRANCH   1  12
ATOM     12  O   UNL     1      22.888   7.098 -12.099  1.00  0.00    -0.493 OA
ATOM     13  C   UNL     1      23.741   7.123 -13.238  1.00  0.00     0.278 C 
ENDBRANCH   1  12
BRANCH   2  14
ATOM     14  O   UNL     1      22.826   4.637 -13.343  1.00  0.00    -0.504 OA
ATOM     15  H   UNL     1      23.708   5.134 -13.294  1.00  0.00     0.293 HD
ENDBRANCH   2  14
TORSDOF 2
ENDMDL
MODEL 6
REMARK VINA RESULT:    -2.611     10.947     13.844
REMARK INTER + INTRA:          -2.886
REMARK INTER:                  -2.821
REMARK INTRA:                  -0.065
REMARK UNBOUND:                -0.045
REMARK SMILES COc1cc2ccc(=O)oc2cc1O
REMARK SMILES IDX 3 1 13 2 12 3 11 4 5 5 4 6 6 7 7 8 8 9 9 10 10 11 2 12 1 13
REMARK SMILES IDX 14 14
REMARK H PARENT 14 15
REMARK Flexibility Score: inf
ROOT
ATOM      1  C   UNL     1      25.770  -5.258 -20.284  1.00  0.00     0.161 A 
ATOM      2  C   UNL     1      25.752  -4.219 -21.226  1.00  0.00     0.161 A 
ATOM      3  C   UNL     1      25.339  -2.932 -20.854  1.00  0.00     0.098 A 
ATOM      4  C   UNL     1      24.941  -2.673 -19.540  1.00  0.00     0.142 A 
ATOM      5  C   UNL     1      24.956  -3.711 -18.586  1.00  0.00     0.022 A 
ATOM      6  C   UNL     1      25.369  -4.999 -18.958  1.00  0.00     0.062 A 
ATOM      7  C   UNL     1      24.551  -3.420 -17.279  1.00  0.00     0.019 A 
ATOM      8  C   UNL     1      24.150  -2.125 -16.958  1.00  0.00     0.094 A 
ATOM      9  C   UNL     1      24.161  -1.145 -17.958  1.00  0.00     0.336 A 
ATOM     10  O   UNL     1      23.801   0.031 -17.689  1.00  0.00    -0.246 OA
ATOM     11  O   UNL     1      24.550  -1.449 -19.194  1.00  0.00    -0.423 OA
ENDROOT
BRANCH   1  12
ATOM     12  O   UNL     1      26.191  -6.531 -20.701  1.00  0.00    -0.493 OA
ATOM     13  C   UNL     1      25.327  -7.651 -20.872  1.00  0.00     0.278 C 
ENDBRANCH   1  12
BRANCH   2  14
ATOM     14  O   UNL     1      26.148  -4.475 -22.539  1.00  0.00    -0.504 OA
ATOM     15  H   UNL     1      26.246  -5.422 -22.888  1.00  0.00     0.293 HD
ENDBRANCH   2  14
TORSDOF 2
ENDMDL
MODEL 7
REMARK VINA RESULT:    -2.555     10.820     13.182
REMARK INTER + INTRA:          -2.825
REMARK INTER:                  -2.769
REMARK INTRA:                  -0.056
REMARK UNBOUND:                -0.045
REMARK SMILES COc1cc2ccc(=O)oc2cc1O
REMARK SMILES IDX 3 1 13 2 12 3 11 4 5 5 4 6 6 7 7 8 8 9 9 10 10 11 2 12 1 13
REMARK SMILES IDX 14 14
REMARK H PARENT 14 15
REMARK Flexibility Score: inf
ROOT
ATOM      1  C   UNL     1      24.599  -1.786 -18.525  1.00  0.00     0.161 A 
ATOM      2  C   UNL     1      24.488  -2.842 -17.607  1.00  0.00     0.161 A 
ATOM      3  C   UNL     1      24.811  -4.151 -17.992  1.00  0.00     0.098 A 
ATOM      4  C   UNL     1      25.247  -4.416 -19.292  1.00  0.00     0.142 A 
ATOM      5  C   UNL     1      25.363  -3.360 -20.221  1.00  0.00     0.022 A 
ATOM      6  C   UNL     1      25.040  -2.051 -19.837  1.00  0.00     0.062 A 
ATOM      7  C   UNL     1      25.802  -3.657 -21.515  1.00  0.00     0.019 A 
ATOM      8  C   UNL     1      26.112  -4.974 -21.848  1.00  0.00     0.094 A 
ATOM      9  C   UNL     1      25.973  -5.970 -20.875  1.00  0.00     0.336 A 
ATOM     10  O   UNL     1      26.246  -7.166 -21.155  1.00  0.00    -0.246 OA
ATOM     11  O   UNL     1      25.552  -5.661 -19.650  1.00  0.00    -0.423 OA
ENDROOT
BRANCH   1  12
ATOM     12  O   UNL     1      24.266  -0.491 -18.096  1.00  0.00    -0.493 OA
ATOM     13  C   UNL     1      22.990   0.115 -18.278  1.00  0.00     0.278 C 
ENDBRANCH   1  12
BRANCH   2  14
ATOM     14  O   UNL     1      24.052  -2.580 -16.309  1.00  0.00    -0.504 OA
ATOM     15  H   UNL     1      23.141  -2.174 -16.126  1.00  0.00     0.293 HD
ENDBRANCH   2  14
TORSDOF 2
ENDMDL
MODEL 8
REMARK VINA RESULT:    -2.513     10.904     13.841
REMARK INTER + INTRA:          -2.779
REMARK INTER:                  -2.722
REMARK INTRA:                  -0.057
REMARK UNBOUND:                -0.045
REMARK SMILES COc1cc2ccc(=O)oc2cc1O
REMARK SMILES IDX 3 1 13 2 12 3 11 4 5 5 4 6 6 7 7 8 8 9 9 10 10 11 2 12 1 13
REMARK SMILES IDX 14 14
REMARK H PARENT 14 15
REMARK Flexibility Score: inf
ROOT
ATOM      1  C   UNL     1      25.753  -4.772 -20.786  1.00  0.00     0.161 A 
ATOM      2  C   UNL     1      25.666  -5.473 -19.574  1.00  0.00     0.161 A 
ATOM      3  C   UNL     1      25.268  -4.815 -18.401  1.00  0.00     0.098 A 
ATOM      4  C   UNL     1      24.952  -3.454 -18.431  1.00  0.00     0.142 A 
ATOM      5  C   UNL     1      25.035  -2.741 -19.645  1.00  0.00     0.022 A 
ATOM      6  C   UNL     1      25.435  -3.399 -20.817  1.00  0.00     0.062 A 
ATOM      7  C   UNL     1      24.714  -1.381 -19.642  1.00  0.00     0.019 A 
ATOM      8  C   UNL     1      24.321  -0.772 -18.451  1.00  0.00     0.094 A 
ATOM      9  C   UNL     1      24.261  -1.543 -17.284  1.00  0.00     0.336 A 
ATOM     10  O   UNL     1      23.910  -1.013 -16.198  1.00  0.00    -0.246 OA
ATOM     11  O   UNL     1      24.574  -2.836 -17.315  1.00  0.00    -0.423 OA
ENDROOT
BRANCH   1  12
ATOM     12  O   UNL     1      26.157  -5.471 -21.935  1.00  0.00    -0.493 OA
ATOM     13  C   UNL     1      27.493  -5.512 -22.426  1.00  0.00     0.278 C 
ENDBRANCH   1  12
BRANCH   2  14
ATOM     14  O   UNL     1      25.982  -6.831 -19.542  1.00  0.00    -0.504 OA
ATOM     15  H   UNL     1      25.269  -7.544 -19.645  1.00  0.00     0.293 HD
ENDBRANCH   2  14
TORSDOF 2
ENDMDL
MODEL 9
REMARK VINA RESULT:    -2.481     10.688     13.097
REMARK INTER + INTRA:          -2.744
REMARK INTER:                  -2.690
REMARK INTRA:                  -0.054
REMARK UNBOUND:                -0.045
REMARK SMILES COc1cc2ccc(=O)oc2cc1O
REMARK SMILES IDX 3 1 13 2 12 3 11 4 5 5 4 6 6 7 7 8 8 9 9 10 10 11 2 12 1 13
REMARK SMILES IDX 14 14
REMARK H PARENT 14 15
REMARK Flexibility Score: inf
ROOT
ATOM      1  C   UNL     1      24.367  -2.224 -17.885  1.00  0.00     0.161 A 
ATOM      2  C   UNL     1      24.582  -1.527 -19.084  1.00  0.00     0.161 A 
ATOM      3  C   UNL     1      25.093  -2.190 -20.208  1.00  0.00     0.098 A 
ATOM      4  C   UNL     1      25.392  -3.554 -20.145  1.00  0.00     0.142 A 
ATOM      5  C   UNL     1      25.178  -4.263 -18.944  1.00  0.00     0.022 A 
ATOM      6  C   UNL     1      24.668  -3.599 -17.820  1.00  0.00     0.062 A 
ATOM      7  C   UNL     1      25.488  -5.627 -18.913  1.00  0.00     0.019 A 
ATOM      8  C   UNL     1      25.992  -6.242 -20.057  1.00  0.00     0.094 A 
ATOM      9  C   UNL     1      26.179  -5.474 -21.212  1.00  0.00     0.336 A 
ATOM     10  O   UNL     1      26.634  -6.010 -22.256  1.00  0.00    -0.246 OA
ATOM     11  O   UNL     1      25.877  -4.178 -21.216  1.00  0.00    -0.423 OA
ENDROOT
BRANCH   1  12
ATOM     12  O   UNL     1      23.854  -1.519 -16.785  1.00  0.00    -0.493 OA
ATOM     13  C   UNL     1      24.650  -0.933 -15.760  1.00  0.00     0.278 C 
ENDBRANCH   1  12
BRANCH   2  14
ATOM     14  O   UNL     1      24.285  -0.166 -19.149  1.00  0.00    -0.504 OA
ATOM     15  H   UNL     1      23.345   0.180 -18.998  1.00  0.00     0.293 HD
ENDBRANCH   2  14
TORSDOF 2
ENDMDL
