MODEL 1
REMARK VINA RESULT:    -3.124      0.000      0.000
REMARK INTER + INTRA:          -7.095
REMARK INTER:                  -5.315
REMARK INTRA:                  -1.781
REMARK UNBOUND:                -1.781
REMARK SMILES CCCCCCCCCCCCCC(=O)[O-]
REMARK SMILES IDX 8 1 9 2 10 3 11 4 12 5 13 6 14 7 15 8 16 9 7 10 6 11 5 12
REMARK SMILES IDX 4 13 3 14 2 15 1 16
REMARK H PARENT
REMARK Flexibility Score: inf
ROOT
ATOM      1  C   UNL     1      20.441   8.156  39.146  1.00  0.00     0.000 C 
ENDROOT
BRANCH   1   2
ATOM      2  C   UNL     1      20.148   6.659  39.342  1.00  0.00     0.000 C 
BRANCH   2   3
ATOM      3  C   UNL     1      21.383   5.875  39.818  1.00  0.00     0.000 C 
BRANCH   3   4
ATOM      4  C   UNL     1      21.752   4.711  38.880  1.00  0.00     0.000 C 
BRANCH   4   5
ATOM      5  C   UNL     1      21.046   4.723  37.509  1.00  0.00     0.006 C 
BRANCH   5   6
ATOM      6  C   UNL     1      21.844   5.401  36.384  1.00  0.00     0.053 C 
BRANCH   6   7
ATOM      7  C   UNL     1      21.597   4.758  35.053  1.00  0.00     0.041 C 
ATOM      8  O   UNL     1      20.511   4.953  34.449  1.00  0.00    -0.550 OA
ATOM      9  O   UNL     1      22.553   3.917  34.498  1.00  0.00    -0.550 OA
ENDBRANCH   6   7
ENDBRANCH   5   6
ENDBRANCH   4   5
ENDBRANCH   3   4
ENDBRANCH   2   3
ENDBRANCH   1   2
BRANCH   1  10
ATOM     10  C   UNL     1      21.822   8.565  39.681  1.00  0.00     0.000 C 
BRANCH  10  11
ATOM     11  C   UNL     1      22.550   9.470  38.679  1.00  0.00    -0.000 C 
BRANCH  11  12
ATOM     12  C   UNL     1      22.328   8.987  37.238  1.00  0.00    -0.000 C 
BRANCH  12  13
ATOM     13  C   UNL     1      21.938  10.124  36.279  1.00  0.00    -0.000 C 
BRANCH  13  14
ATOM     14  C   UNL     1      20.637   9.892  35.484  1.00  0.00    -0.000 C 
BRANCH  14  15
ATOM     15  C   UNL     1      20.340   8.423  35.138  1.00  0.00    -0.003 C 
ATOM     16  C   UNL     1      18.974   7.957  35.640  1.00  0.00     0.004 C 
ENDBRANCH  14  15
ENDBRANCH  13  14
ENDBRANCH  12  13
ENDBRANCH  11  12
ENDBRANCH  10  11
ENDBRANCH   1  10
TORSDOF 12
ENDMDL
MODEL 2
REMARK VINA RESULT:    -3.003      1.925      3.639
REMARK INTER + INTRA:          -6.890
REMARK INTER:                  -5.079
REMARK INTRA:                  -1.811
REMARK UNBOUND:                -1.781
REMARK SMILES CCCCCCCCCCCCCC(=O)[O-]
REMARK SMILES IDX 8 1 9 2 10 3 11 4 12 5 13 6 14 7 15 8 16 9 7 10 6 11 5 12
REMARK SMILES IDX 4 13 3 14 2 15 1 16
REMARK H PARENT
REMARK Flexibility Score: inf
ROOT
ATOM      1  C   UNL     1      20.105   9.097  35.551  1.00  0.00     0.000 C 
ENDROOT
BRANCH   1   2
ATOM      2  C   UNL     1      20.723   7.779  35.054  1.00  0.00     0.000 C 
BRANCH   2   3
ATOM      3  C   UNL     1      19.712   6.620  35.049  1.00  0.00     0.000 C 
BRANCH   3   4
ATOM      4  C   UNL     1      20.333   5.282  35.489  1.00  0.00     0.000 C 
BRANCH   4   5
ATOM      5  C   UNL     1      21.740   5.385  36.114  1.00  0.00     0.006 C 
BRANCH   5   6
ATOM      6  C   UNL     1      22.392   4.033  36.446  1.00  0.00     0.053 C 
BRANCH   6   7
ATOM      7  C   UNL     1      22.197   3.652  37.881  1.00  0.00     0.041 C 
ATOM      8  O   UNL     1      22.445   4.481  38.796  1.00  0.00    -0.550 OA
ATOM      9  O   UNL     1      21.775   2.370  38.211  1.00  0.00    -0.550 OA
ENDBRANCH   6   7
ENDBRANCH   5   6
ENDBRANCH   4   5
ENDBRANCH   3   4
ENDBRANCH   2   3
ENDBRANCH   1   2
BRANCH   1  10
ATOM     10  C   UNL     1      21.164  10.119  35.993  1.00  0.00     0.000 C 
BRANCH  10  11
ATOM     11  C   UNL     1      22.403   9.413  36.558  1.00  0.00    -0.000 C 
BRANCH  11  12
ATOM     12  C   UNL     1      22.354   9.359  38.092  1.00  0.00    -0.000 C 
BRANCH  12  13
ATOM     13  C   UNL     1      22.008   7.960  38.632  1.00  0.00    -0.000 C 
BRANCH  13  14
ATOM     14  C   UNL     1      20.529   7.757  39.019  1.00  0.00    -0.000 C 
BRANCH  14  15
ATOM     15  C   UNL     1      19.867   8.959  39.712  1.00  0.00    -0.003 C 
ATOM     16  C   UNL     1      18.716   9.555  38.902  1.00  0.00     0.004 C 
ENDBRANCH  14  15
ENDBRANCH  13  14
ENDBRANCH  12  13
ENDBRANCH  11  12
ENDBRANCH  10  11
ENDBRANCH   1  10
TORSDOF 12
ENDMDL
MODEL 3
REMARK VINA RESULT:    -2.987      1.581      4.508
REMARK INTER + INTRA:          -6.863
REMARK INTER:                  -5.213
REMARK INTRA:                  -1.650
REMARK UNBOUND:                -1.781
REMARK SMILES CCCCCCCCCCCCCC(=O)[O-]
REMARK SMILES IDX 8 1 9 2 10 3 11 4 12 5 13 6 14 7 15 8 16 9 7 10 6 11 5 12
REMARK SMILES IDX 4 13 3 14 2 15 1 16
REMARK H PARENT
REMARK Flexibility Score: inf
ROOT
ATOM      1  C   UNL     1      22.355   8.374  39.002  1.00  0.00     0.000 C 
ENDROOT
BRANCH   1   2
ATOM      2  C   UNL     1      22.721   9.542  38.071  1.00  0.00     0.000 C 
BRANCH   2   3
ATOM      3  C   UNL     1      22.385   9.249  36.599  1.00  0.00     0.000 C 
BRANCH   3   4
ATOM      4  C   UNL     1      21.131   9.997  36.110  1.00  0.00     0.000 C 
BRANCH   4   5
ATOM      5  C   UNL     1      20.086   9.125  35.384  1.00  0.00     0.006 C 
BRANCH   5   6
ATOM      6  C   UNL     1      20.216   7.617  35.651  1.00  0.00     0.053 C 
BRANCH   6   7
ATOM      7  C   UNL     1      20.468   6.843  34.394  1.00  0.00     0.041 C 
ATOM      8  O   UNL     1      19.640   5.976  34.008  1.00  0.00    -0.550 OA
ATOM      9  O   UNL     1      21.632   7.054  33.667  1.00  0.00    -0.550 OA
ENDBRANCH   6   7
ENDBRANCH   5   6
ENDBRANCH   4   5
ENDBRANCH   3   4
ENDBRANCH   2   3
ENDBRANCH   1   2
BRANCH   1  10
ATOM     10  C   UNL     1      21.331   8.773  40.078  1.00  0.00     0.000 C 
BRANCH  10  11
ATOM     11  C   UNL     1      19.901   8.479  39.607  1.00  0.00    -0.000 C 
BRANCH  11  12
ATOM     12  C   UNL     1      19.730   6.991  39.264  1.00  0.00    -0.000 C 
BRANCH  12  13
ATOM     13  C   UNL     1      19.405   6.126  40.494  1.00  0.00    -0.000 C 
BRANCH  13  14
ATOM     14  C   UNL     1      20.395   4.975  40.763  1.00  0.00    -0.000 C 
BRANCH  14  15
ATOM     15  C   UNL     1      21.266   4.572  39.561  1.00  0.00    -0.003 C 
ATOM     16  C   UNL     1      22.761   4.754  39.821  1.00  0.00     0.004 C 
ENDBRANCH  14  15
ENDBRANCH  13  14
ENDBRANCH  12  13
ENDBRANCH  11  12
ENDBRANCH  10  11
ENDBRANCH   1  10
TORSDOF 12
ENDMDL
MODEL 4
REMARK VINA RESULT:    -2.960      8.166     11.169
REMARK INTER + INTRA:          -6.816
REMARK INTER:                  -5.778
REMARK INTRA:                  -1.038
REMARK UNBOUND:                -1.781
REMARK SMILES CCCCCCCCCCCCCC(=O)[O-]
REMARK SMILES IDX 8 1 9 2 10 3 11 4 12 5 13 6 14 7 15 8 16 9 7 10 6 11 5 12
REMARK SMILES IDX 4 13 3 14 2 15 1 16
REMARK H PARENT
REMARK Flexibility Score: inf
ROOT
ATOM      1  C   UNL     1      23.152   6.025  26.445  1.00  0.00     0.000 C 
ENDROOT
BRANCH   1   2
ATOM      2  C   UNL     1      24.592   5.972  25.906  1.00  0.00     0.000 C 
BRANCH   2   3
ATOM      3  C   UNL     1      25.643   6.101  27.021  1.00  0.00     0.000 C 
BRANCH   3   4
ATOM      4  C   UNL     1      26.517   7.360  26.878  1.00  0.00     0.000 C 
BRANCH   4   5
ATOM      5  C   UNL     1      25.982   8.422  25.896  1.00  0.00     0.006 C 
BRANCH   5   6
ATOM      6  C   UNL     1      25.613   9.766  26.545  1.00  0.00     0.053 C 
BRANCH   6   7
ATOM      7  C   UNL     1      24.623   9.599  27.656  1.00  0.00     0.041 C 
ATOM      8  O   UNL     1      25.000   9.669  28.856  1.00  0.00    -0.550 OA
ATOM      9  O   UNL     1      23.291   9.331  27.368  1.00  0.00    -0.550 OA
ENDBRANCH   6   7
ENDBRANCH   5   6
ENDBRANCH   4   5
ENDBRANCH   3   4
ENDBRANCH   2   3
ENDBRANCH   1   2
BRANCH   1  10
ATOM     10  C   UNL     1      22.976   5.226  27.746  1.00  0.00     0.000 C 
BRANCH  10  11
ATOM     11  C   UNL     1      23.005   3.717  27.469  1.00  0.00    -0.000 C 
BRANCH  11  12
ATOM     12  C   UNL     1      21.631   3.083  27.729  1.00  0.00    -0.000 C 
BRANCH  12  13
ATOM     13  C   UNL     1      21.326   2.908  29.227  1.00  0.00    -0.000 C 
BRANCH  13  14
ATOM     14  C   UNL     1      22.469   2.292  30.059  1.00  0.00    -0.000 C 
BRANCH  14  15
ATOM     15  C   UNL     1      22.510   2.728  31.533  1.00  0.00    -0.003 C 
ATOM     16  C   UNL     1      22.048   4.170  31.740  1.00  0.00     0.004 C 
ENDBRANCH  14  15
ENDBRANCH  13  14
ENDBRANCH  12  13
ENDBRANCH  11  12
ENDBRANCH  10  11
ENDBRANCH   1  10
TORSDOF 12
ENDMDL
MODEL 5
REMARK VINA RESULT:    -2.917      9.522     12.111
REMARK INTER + INTRA:          -6.743
REMARK INTER:                  -4.466
REMARK INTRA:                  -2.278
REMARK UNBOUND:                -1.781
REMARK SMILES CCCCCCCCCCCCCC(=O)[O-]
REMARK SMILES IDX 8 1 9 2 10 3 11 4 12 5 13 6 14 7 15 8 16 9 7 10 6 11 5 12
REMARK SMILES IDX 4 13 3 14 2 15 1 16
REMARK H PARENT
REMARK Flexibility Score: inf
ROOT
ATOM      1  C   UNL     1       9.181   6.813  31.239  1.00  0.00     0.000 C 
ENDROOT
BRANCH   1   2
ATOM      2  C   UNL     1       9.445   6.107  29.898  1.00  0.00     0.000 C 
BRANCH   2   3
ATOM      3  C   UNL     1      10.944   5.893  29.630  1.00  0.00     0.000 C 
BRANCH   3   4
ATOM      4  C   UNL     1      11.294   4.426  29.320  1.00  0.00     0.000 C 
BRANCH   4   5
ATOM      5  C   UNL     1      12.477   3.848  30.126  1.00  0.00     0.006 C 
BRANCH   5   6
ATOM      6  C   UNL     1      13.336   4.901  30.843  1.00  0.00     0.053 C 
BRANCH   6   7
ATOM      7  C   UNL     1      14.533   4.292  31.507  1.00  0.00     0.041 C 
ATOM      8  O   UNL     1      14.393   3.593  32.544  1.00  0.00    -0.550 OA
ATOM      9  O   UNL     1      15.805   4.527  31.001  1.00  0.00    -0.550 OA
ENDBRANCH   6   7
ENDBRANCH   5   6
ENDBRANCH   4   5
ENDBRANCH   3   4
ENDBRANCH   2   3
ENDBRANCH   1   2
BRANCH   1  10
ATOM     10  C   UNL     1      10.385   7.638  31.721  1.00  0.00     0.000 C 
BRANCH  10  11
ATOM     11  C   UNL     1      10.801   7.222  33.138  1.00  0.00    -0.000 C 
BRANCH  11  12
ATOM     12  C   UNL     1      10.138   5.896  33.539  1.00  0.00    -0.000 C 
BRANCH  12  13
ATOM     13  C   UNL     1      11.141   4.735  33.650  1.00  0.00    -0.000 C 
BRANCH  13  14
ATOM     14  C   UNL     1      10.566   3.341  33.326  1.00  0.00    -0.000 C 
BRANCH  14  15
ATOM     15  C   UNL     1       9.277   3.348  32.486  1.00  0.00    -0.003 C 
ATOM     16  C   UNL     1       9.245   2.241  31.434  1.00  0.00     0.004 C 
ENDBRANCH  14  15
ENDBRANCH  13  14
ENDBRANCH  12  13
ENDBRANCH  11  12
ENDBRANCH  10  11
ENDBRANCH   1  10
TORSDOF 12
ENDMDL
MODEL 6
REMARK VINA RESULT:    -2.887     10.281     12.865
REMARK INTER + INTRA:          -6.693
REMARK INTER:                  -4.588
REMARK INTRA:                  -2.105
REMARK UNBOUND:                -1.781
REMARK SMILES CCCCCCCCCCCCCC(=O)[O-]
REMARK SMILES IDX 8 1 9 2 10 3 11 4 12 5 13 6 14 7 15 8 16 9 7 10 6 11 5 12
REMARK SMILES IDX 4 13 3 14 2 15 1 16
REMARK H PARENT
REMARK Flexibility Score: inf
ROOT
ATOM      1  C   UNL     1       9.879   2.855  33.014  1.00  0.00     0.000 C 
ENDROOT
BRANCH   1   2
ATOM      2  C   UNL     1       9.649   2.170  31.656  1.00  0.00     0.000 C 
BRANCH   2   3
ATOM      3  C   UNL     1      10.535   2.756  30.544  1.00  0.00     0.000 C 
BRANCH   3   4
ATOM      4  C   UNL     1       9.785   3.753  29.642  1.00  0.00     0.000 C 
BRANCH   4   5
ATOM      5  C   UNL     1      10.360   5.184  29.624  1.00  0.00     0.006 C 
BRANCH   5   6
ATOM      6  C   UNL     1       9.306   6.295  29.495  1.00  0.00     0.053 C 
BRANCH   6   7
ATOM      7  C   UNL     1       9.883   7.652  29.758  1.00  0.00     0.041 C 
ATOM      8  O   UNL     1      10.237   7.974  30.922  1.00  0.00    -0.550 OA
ATOM      9  O   UNL     1       9.998   8.573  28.724  1.00  0.00    -0.550 OA
ENDBRANCH   6   7
ENDBRANCH   5   6
ENDBRANCH   4   5
ENDBRANCH   3   4
ENDBRANCH   2   3
ENDBRANCH   1   2
BRANCH   1  10
ATOM     10  C   UNL     1       8.909   4.022  33.261  1.00  0.00     0.000 C 
BRANCH  10  11
ATOM     11  C   UNL     1       9.662   5.356  33.318  1.00  0.00    -0.000 C 
BRANCH  11  12
ATOM     12  C   UNL     1      11.124   5.146  33.740  1.00  0.00    -0.000 C 
BRANCH  12  13
ATOM     13  C   UNL     1      12.121   5.901  32.844  1.00  0.00    -0.000 C 
BRANCH  13  14
ATOM     14  C   UNL     1      13.295   5.054  32.312  1.00  0.00    -0.000 C 
BRANCH  14  15
ATOM     15  C   UNL     1      13.673   3.847  33.187  1.00  0.00    -0.003 C 
ATOM     16  C   UNL     1      13.687   2.530  32.412  1.00  0.00     0.004 C 
ENDBRANCH  14  15
ENDBRANCH  13  14
ENDBRANCH  12  13
ENDBRANCH  11  12
ENDBRANCH  10  11
ENDBRANCH   1  10
TORSDOF 12
ENDMDL
MODEL 7
REMARK VINA RESULT:    -2.886      3.602      5.738
REMARK INTER + INTRA:          -6.692
REMARK INTER:                  -4.891
REMARK INTRA:                  -1.800
REMARK UNBOUND:                -1.781
REMARK SMILES CCCCCCCCCCCCCC(=O)[O-]
REMARK SMILES IDX 8 1 9 2 10 3 11 4 12 5 13 6 14 7 15 8 16 9 7 10 6 11 5 12
REMARK SMILES IDX 4 13 3 14 2 15 1 16
REMARK H PARENT
REMARK Flexibility Score: inf
ROOT
ATOM      1  C   UNL     1      21.618   9.584  37.300  1.00  0.00     0.000 C 
ENDROOT
BRANCH   1   2
ATOM      2  C   UNL     1      22.656   9.196  38.367  1.00  0.00     0.000 C 
BRANCH   2   3
ATOM      3  C   UNL     1      22.045   9.093  39.774  1.00  0.00     0.000 C 
BRANCH   3   4
ATOM      4  C   UNL     1      20.506   9.046  39.757  1.00  0.00     0.000 C 
BRANCH   4   5
ATOM      5  C   UNL     1      19.845   8.674  41.100  1.00  0.00     0.006 C 
BRANCH   5   6
ATOM      6  C   UNL     1      18.565   7.833  40.972  1.00  0.00     0.053 C 
BRANCH   6   7
ATOM      7  C   UNL     1      17.378   8.520  41.575  1.00  0.00     0.041 C 
ATOM      8  O   UNL     1      16.326   8.673  40.901  1.00  0.00    -0.550 OA
ATOM      9  O   UNL     1      17.446   9.023  42.867  1.00  0.00    -0.550 OA
ENDBRANCH   6   7
ENDBRANCH   5   6
ENDBRANCH   4   5
ENDBRANCH   3   4
ENDBRANCH   2   3
ENDBRANCH   1   2
BRANCH   1  10
ATOM     10  C   UNL     1      21.924   8.971  35.925  1.00  0.00     0.000 C 
BRANCH  10  11
ATOM     11  C   UNL     1      20.812   8.007  35.495  1.00  0.00    -0.000 C 
BRANCH  11  12
ATOM     12  C   UNL     1      21.329   6.562  35.433  1.00  0.00    -0.000 C 
BRANCH  12  13
ATOM     13  C   UNL     1      21.681   5.992  36.818  1.00  0.00    -0.000 C 
BRANCH  13  14
ATOM     14  C   UNL     1      20.496   5.882  37.799  1.00  0.00    -0.000 C 
BRANCH  14  15
ATOM     15  C   UNL     1      20.873   5.455  39.228  1.00  0.00    -0.003 C 
ATOM     16  C   UNL     1      22.383   5.419  39.461  1.00  0.00     0.004 C 
ENDBRANCH  14  15
ENDBRANCH  13  14
ENDBRANCH  12  13
ENDBRANCH  11  12
ENDBRANCH  10  11
ENDBRANCH   1  10
TORSDOF 12
ENDMDL
MODEL 8
REMARK VINA RESULT:    -2.879     11.244     12.658
REMARK INTER + INTRA:          -6.679
REMARK INTER:                  -4.511
REMARK INTRA:                  -2.169
REMARK UNBOUND:                -1.781
REMARK SMILES CCCCCCCCCCCCCC(=O)[O-]
REMARK SMILES IDX 8 1 9 2 10 3 11 4 12 5 13 6 14 7 15 8 16 9 7 10 6 11 5 12
REMARK SMILES IDX 4 13 3 14 2 15 1 16
REMARK H PARENT
REMARK Flexibility Score: inf
ROOT
ATOM      1  C   UNL     1      10.333   6.358  33.047  1.00  0.00     0.000 C 
ENDROOT
BRANCH   1   2
ATOM      2  C   UNL     1       9.286   5.232  33.002  1.00  0.00     0.000 C 
BRANCH   2   3
ATOM      3  C   UNL     1       9.925   3.833  33.001  1.00  0.00     0.000 C 
BRANCH   3   4
ATOM      4  C   UNL     1       9.255   2.869  32.004  1.00  0.00     0.000 C 
BRANCH   4   5
ATOM      5  C   UNL     1       9.907   1.475  31.898  1.00  0.00     0.006 C 
BRANCH   5   6
ATOM      6  C   UNL     1      11.149   1.418  30.995  1.00  0.00     0.053 C 
BRANCH   6   7
ATOM      7  C   UNL     1      12.387   1.071  31.764  1.00  0.00     0.041 C 
ATOM      8  O   UNL     1      12.710   1.742  32.779  1.00  0.00    -0.550 OA
ATOM      9  O   UNL     1      13.203   0.031  31.339  1.00  0.00    -0.550 OA
ENDBRANCH   6   7
ENDBRANCH   5   6
ENDBRANCH   4   5
ENDBRANCH   3   4
ENDBRANCH   2   3
ENDBRANCH   1   2
BRANCH   1  10
ATOM     10  C   UNL     1      10.047   7.474  32.029  1.00  0.00     0.000 C 
BRANCH  10  11
ATOM     11  C   UNL     1       8.977   7.035  31.022  1.00  0.00    -0.000 C 
BRANCH  11  12
ATOM     12  C   UNL     1       9.598   6.758  29.645  1.00  0.00    -0.000 C 
BRANCH  12  13
ATOM     13  C   UNL     1       9.478   5.285  29.219  1.00  0.00    -0.000 C 
BRANCH  13  14
ATOM     14  C   UNL     1      10.821   4.553  29.013  1.00  0.00    -0.000 C 
BRANCH  14  15
ATOM     15  C   UNL     1      12.066   5.347  29.442  1.00  0.00    -0.003 C 
ATOM     16  C   UNL     1      12.695   4.817  30.731  1.00  0.00     0.004 C 
ENDBRANCH  14  15
ENDBRANCH  13  14
ENDBRANCH  12  13
ENDBRANCH  11  12
ENDBRANCH  10  11
ENDBRANCH   1  10
TORSDOF 12
ENDMDL
MODEL 9
REMARK VINA RESULT:    -2.865     10.753     12.482
REMARK INTER + INTRA:          -6.656
REMARK INTER:                  -4.655
REMARK INTRA:                  -2.001
REMARK UNBOUND:                -1.781
REMARK SMILES CCCCCCCCCCCCCC(=O)[O-]
REMARK SMILES IDX 8 1 9 2 10 3 11 4 12 5 13 6 14 7 15 8 16 9 7 10 6 11 5 12
REMARK SMILES IDX 4 13 3 14 2 15 1 16
REMARK H PARENT
REMARK Flexibility Score: inf
ROOT
ATOM      1  C   UNL     1       9.968   5.644  34.387  1.00  0.00     0.000 C 
ENDROOT
BRANCH   1   2
ATOM      2  C   UNL     1      10.426   7.091  34.132  1.00  0.00     0.000 C 
BRANCH   2   3
ATOM      3  C   UNL     1      11.150   7.251  32.785  1.00  0.00     0.000 C 
BRANCH   3   4
ATOM      4  C   UNL     1      10.231   6.996  31.577  1.00  0.00     0.000 C 
BRANCH   4   5
ATOM      5  C   UNL     1      10.757   5.965  30.556  1.00  0.00     0.006 C 
BRANCH   5   6
ATOM      6  C   UNL     1      12.086   5.299  30.948  1.00  0.00     0.053 C 
BRANCH   6   7
ATOM      7  C   UNL     1      12.923   4.967  29.751  1.00  0.00     0.041 C 
ATOM      8  O   UNL     1      14.179   4.981  29.833  1.00  0.00    -0.550 OA
ATOM      9  O   UNL     1      12.316   4.678  28.535  1.00  0.00    -0.550 OA
ENDBRANCH   6   7
ENDBRANCH   5   6
ENDBRANCH   4   5
ENDBRANCH   3   4
ENDBRANCH   2   3
ENDBRANCH   1   2
BRANCH   1  10
ATOM     10  C   UNL     1      11.146   4.673  34.567  1.00  0.00     0.000 C 
BRANCH  10  11
ATOM     11  C   UNL     1      10.894   3.363  33.810  1.00  0.00    -0.000 C 
BRANCH  11  12
ATOM     12  C   UNL     1       9.527   3.384  33.111  1.00  0.00    -0.000 C 
BRANCH  12  13
ATOM     13  C   UNL     1       9.320   2.189  32.164  1.00  0.00    -0.000 C 
BRANCH  13  14
ATOM     14  C   UNL     1       9.360   2.532  30.661  1.00  0.00    -0.000 C 
BRANCH  14  15
ATOM     15  C   UNL     1      10.524   1.899  29.881  1.00  0.00    -0.003 C 
ATOM     16  C   UNL     1      11.550   1.220  30.788  1.00  0.00     0.004 C 
ENDBRANCH  14  15
ENDBRANCH  13  14
ENDBRANCH  12  13
ENDBRANCH  11  12
ENDBRANCH  10  11
ENDBRANCH   1  10
TORSDOF 12
ENDMDL
