MODEL 1
REMARK VINA RESULT:    12.367      0.000      0.000
REMARK INTER + INTRA:          28.331
REMARK INTER:                  28.273
REMARK INTRA:                   0.058
REMARK UNBOUND:                 0.058
REMARK SMILES CCCCCCCCCCCCCCCCCCCCCCCC(=O)[O-]
REMARK SMILES IDX 13 1 14 2 15 3 16 4 17 5 18 6 19 7 20 8 21 9 22 10 23 11
REMARK SMILES IDX 24 12 25 13 26 14 12 15 11 16 10 17 9 18 8 19 7 20 6 21 5 22
REMARK SMILES IDX 4 23 3 24 2 25 1 26
REMARK H PARENT
REMARK Flexibility Score: inf
ROOT
ATOM      1  C   UNL     1      -8.491  29.393 -11.994  1.00  0.00     0.000 C 
ENDROOT
BRANCH   1   2
ATOM      2  C   UNL     1      -7.495  28.892 -10.941  1.00  0.00     0.000 C 
BRANCH   2   3
ATOM      3  C   UNL     1      -8.224  28.350  -9.702  1.00  0.00     0.000 C 
BRANCH   3   4
ATOM      4  C   UNL     1      -8.955  27.020  -9.967  1.00  0.00     0.000 C 
BRANCH   4   5
ATOM      5  C   UNL     1      -8.438  25.813  -9.161  1.00  0.00     0.000 C 
BRANCH   5   6
ATOM      6  C   UNL     1      -8.850  25.861  -7.679  1.00  0.00     0.000 C 
BRANCH   6   7
ATOM      7  C   UNL     1      -8.070  24.859  -6.808  1.00  0.00     0.000 C 
BRANCH   7   8
ATOM      8  C   UNL     1      -8.342  24.956  -5.296  1.00  0.00     0.000 C 
BRANCH   8   9
ATOM      9  C   UNL     1      -9.685  25.636  -4.973  1.00  0.00     0.000 C 
BRANCH   9  10
ATOM     10  C   UNL     1      -9.585  27.170  -4.974  1.00  0.00     0.006 C 
BRANCH  10  11
ATOM     11  C   UNL     1     -10.638  27.829  -4.074  1.00  0.00     0.053 C 
BRANCH  11  12
ATOM     12  C   UNL     1     -12.017  27.461  -4.522  1.00  0.00     0.041 C 
ATOM     13  O   UNL     1     -13.018  28.061  -4.052  1.00  0.00    -0.550 OA
ATOM     14  O   UNL     1     -12.195  26.482  -5.494  1.00  0.00    -0.550 OA
ENDBRANCH  11  12
ENDBRANCH  10  11
ENDBRANCH   9  10
ENDBRANCH   8   9
ENDBRANCH   7   8
ENDBRANCH   6   7
ENDBRANCH   5   6
ENDBRANCH   4   5
ENDBRANCH   3   4
ENDBRANCH   2   3
ENDBRANCH   1   2
BRANCH   1  15
ATOM     15  C   UNL     1      -7.764  29.789 -13.289  1.00  0.00     0.000 C 
BRANCH  15  16
ATOM     16  C   UNL     1      -8.628  29.588 -14.544  1.00  0.00     0.000 C 
BRANCH  16  17
ATOM     17  C   UNL     1      -9.243  30.903 -15.057  1.00  0.00     0.000 C 
BRANCH  17  18
ATOM     18  C   UNL     1      -8.965  31.133 -16.551  1.00  0.00    -0.000 C 
BRANCH  18  19
ATOM     19  C   UNL     1      -9.515  30.000 -17.437  1.00  0.00    -0.000 C 
BRANCH  19  20
ATOM     20  C   UNL     1      -8.448  29.415 -18.375  1.00  0.00    -0.000 C 
BRANCH  20  21
ATOM     21  C   UNL     1      -7.226  28.876 -17.613  1.00  0.00    -0.000 C 
BRANCH  21  22
ATOM     22  C   UNL     1      -6.100  28.403 -18.547  1.00  0.00    -0.000 C 
BRANCH  22  23
ATOM     23  C   UNL     1      -6.596  27.969 -19.943  1.00  0.00    -0.000 C 
BRANCH  23  24
ATOM     24  C   UNL     1      -6.230  28.988 -21.032  1.00  0.00    -0.000 C 
BRANCH  24  25
ATOM     25  C   UNL     1      -5.444  28.322 -22.166  1.00  0.00    -0.003 C 
ATOM     26  C   UNL     1      -6.338  27.399 -22.990  1.00  0.00     0.004 C 
ENDBRANCH  24  25
ENDBRANCH  23  24
ENDBRANCH  22  23
ENDBRANCH  21  22
ENDBRANCH  20  21
ENDBRANCH  19  20
ENDBRANCH  18  19
ENDBRANCH  17  18
ENDBRANCH  16  17
ENDBRANCH  15  16
ENDBRANCH   1  15
TORSDOF 22
ENDMDL
MODEL 2
REMARK VINA RESULT:    13.018      0.754      1.560
REMARK INTER + INTRA:          29.818
REMARK INTER:                  30.439
REMARK INTRA:                  -0.622
REMARK UNBOUND:                 0.058
REMARK SMILES CCCCCCCCCCCCCCCCCCCCCCCC(=O)[O-]
REMARK SMILES IDX 13 1 14 2 15 3 16 4 17 5 18 6 19 7 20 8 21 9 22 10 23 11
REMARK SMILES IDX 24 12 25 13 26 14 12 15 11 16 10 17 9 18 8 19 7 20 6 21 5 22
REMARK SMILES IDX 4 23 3 24 2 25 1 26
REMARK H PARENT
REMARK Flexibility Score: inf
ROOT
ATOM      1  C   UNL     1      -8.407  30.130 -13.204  1.00  0.00     0.000 C 
ENDROOT
BRANCH   1   2
ATOM      2  C   UNL     1      -7.505  28.994 -12.705  1.00  0.00     0.000 C 
BRANCH   2   3
ATOM      3  C   UNL     1      -7.233  29.124 -11.199  1.00  0.00     0.000 C 
BRANCH   3   4
ATOM      4  C   UNL     1      -7.352  27.785 -10.447  1.00  0.00     0.000 C 
BRANCH   4   5
ATOM      5  C   UNL     1      -8.753  27.465  -9.890  1.00  0.00     0.000 C 
BRANCH   5   6
ATOM      6  C   UNL     1      -8.758  26.257  -8.936  1.00  0.00     0.000 C 
BRANCH   6   7
ATOM      7  C   UNL     1      -9.557  26.517  -7.645  1.00  0.00     0.000 C 
BRANCH   7   8
ATOM      8  C   UNL     1      -8.728  26.505  -6.348  1.00  0.00     0.000 C 
BRANCH   8   9
ATOM      9  C   UNL     1      -9.044  25.297  -5.449  1.00  0.00     0.000 C 
BRANCH   9  10
ATOM     10  C   UNL     1     -10.057  25.634  -4.342  1.00  0.00     0.006 C 
BRANCH  10  11
ATOM     11  C   UNL     1     -10.529  27.093  -4.401  1.00  0.00     0.053 C 
BRANCH  11  12
ATOM     12  C   UNL     1     -11.981  27.161  -4.752  1.00  0.00     0.041 C 
ATOM     13  O   UNL     1     -12.591  28.261  -4.720  1.00  0.00    -0.550 OA
ATOM     14  O   UNL     1     -12.655  26.012  -5.156  1.00  0.00    -0.550 OA
ENDBRANCH  11  12
ENDBRANCH  10  11
ENDBRANCH   9  10
ENDBRANCH   8   9
ENDBRANCH   7   8
ENDBRANCH   6   7
ENDBRANCH   5   6
ENDBRANCH   4   5
ENDBRANCH   3   4
ENDBRANCH   2   3
ENDBRANCH   1   2
BRANCH   1  15
ATOM     15  C   UNL     1      -8.757  29.938 -14.688  1.00  0.00     0.000 C 
BRANCH  15  16
ATOM     16  C   UNL     1      -9.339  31.205 -15.333  1.00  0.00     0.000 C 
BRANCH  16  17
ATOM     17  C   UNL     1      -9.150  31.233 -16.860  1.00  0.00     0.000 C 
BRANCH  17  18
ATOM     18  C   UNL     1      -9.507  29.890 -17.517  1.00  0.00    -0.000 C 
BRANCH  18  19
ATOM     19  C   UNL     1      -8.380  29.353 -18.418  1.00  0.00    -0.000 C 
BRANCH  19  20
ATOM     20  C   UNL     1      -7.288  28.621 -17.621  1.00  0.00    -0.000 C 
BRANCH  20  21
ATOM     21  C   UNL     1      -6.003  28.412 -18.439  1.00  0.00    -0.000 C 
BRANCH  21  22
ATOM     22  C   UNL     1      -6.281  28.081 -19.915  1.00  0.00    -0.000 C 
BRANCH  22  23
ATOM     23  C   UNL     1      -6.381  29.327 -20.820  1.00  0.00    -0.000 C 
BRANCH  23  24
ATOM     24  C   UNL     1      -6.226  28.979 -22.308  1.00  0.00    -0.000 C 
BRANCH  24  25
ATOM     25  C   UNL     1      -6.270  27.464 -22.526  1.00  0.00    -0.003 C 
ATOM     26  C   UNL     1      -4.875  26.905 -22.795  1.00  0.00     0.004 C 
ENDBRANCH  24  25
ENDBRANCH  23  24
ENDBRANCH  22  23
ENDBRANCH  21  22
ENDBRANCH  20  21
ENDBRANCH  19  20
ENDBRANCH  18  19
ENDBRANCH  17  18
ENDBRANCH  16  17
ENDBRANCH  15  16
ENDBRANCH   1  15
TORSDOF 22
ENDMDL
MODEL 3
REMARK VINA RESULT:    13.743      5.192     12.984
REMARK INTER + INTRA:          31.475
REMARK INTER:                  31.643
REMARK INTRA:                  -0.168
REMARK UNBOUND:                 0.058
REMARK SMILES CCCCCCCCCCCCCCCCCCCCCCCC(=O)[O-]
REMARK SMILES IDX 13 1 14 2 15 3 16 4 17 5 18 6 19 7 20 8 21 9 22 10 23 11
REMARK SMILES IDX 24 12 25 13 26 14 12 15 11 16 10 17 9 18 8 19 7 20 6 21 5 22
REMARK SMILES IDX 4 23 3 24 2 25 1 26
REMARK H PARENT
REMARK Flexibility Score: inf
ROOT
ATOM      1  C   UNL     1      -8.654  29.286 -11.416  1.00  0.00     0.000 C 
ENDROOT
BRANCH   1   2
ATOM      2  C   UNL     1      -7.628  29.620 -12.506  1.00  0.00     0.000 C 
BRANCH   2   3
ATOM      3  C   UNL     1      -8.184  29.311 -13.904  1.00  0.00     0.000 C 
BRANCH   3   4
ATOM      4  C   UNL     1      -9.257  30.318 -14.362  1.00  0.00     0.000 C 
BRANCH   4   5
ATOM      5  C   UNL     1      -8.969  31.023 -15.701  1.00  0.00     0.000 C 
BRANCH   5   6
ATOM      6  C   UNL     1      -9.627  30.321 -16.902  1.00  0.00     0.000 C 
BRANCH   6   7
ATOM      7  C   UNL     1      -8.622  29.520 -17.751  1.00  0.00     0.000 C 
BRANCH   7   8
ATOM      8  C   UNL     1      -7.475  28.864 -16.960  1.00  0.00     0.000 C 
BRANCH   8   9
ATOM      9  C   UNL     1      -6.368  28.301 -17.870  1.00  0.00     0.000 C 
BRANCH   9  10
ATOM     10  C   UNL     1      -6.510  28.765 -19.328  1.00  0.00     0.006 C 
BRANCH  10  11
ATOM     11  C   UNL     1      -6.341  27.616 -20.331  1.00  0.00     0.053 C 
BRANCH  11  12
ATOM     12  C   UNL     1      -6.137  28.151 -21.713  1.00  0.00     0.041 C 
ATOM     13  O   UNL     1      -6.093  27.367 -22.696  1.00  0.00    -0.550 OA
ATOM     14  O   UNL     1      -6.038  29.523 -21.921  1.00  0.00    -0.550 OA
ENDBRANCH  11  12
ENDBRANCH  10  11
ENDBRANCH   9  10
ENDBRANCH   8   9
ENDBRANCH   7   8
ENDBRANCH   6   7
ENDBRANCH   5   6
ENDBRANCH   4   5
ENDBRANCH   3   4
ENDBRANCH   2   3
ENDBRANCH   1   2
BRANCH   1  15
ATOM     15  C   UNL     1      -8.080  28.268 -10.419  1.00  0.00     0.000 C 
BRANCH  15  16
ATOM     16  C   UNL     1      -9.168  27.435  -9.722  1.00  0.00     0.000 C 
BRANCH  16  17
ATOM     17  C   UNL     1      -8.686  26.022  -9.350  1.00  0.00     0.000 C 
BRANCH  17  18
ATOM     18  C   UNL     1      -8.273  25.916  -7.873  1.00  0.00    -0.000 C 
BRANCH  18  19
ATOM     19  C   UNL     1      -8.568  24.528  -7.275  1.00  0.00    -0.000 C 
BRANCH  19  20
ATOM     20  C   UNL     1      -7.582  24.146  -6.159  1.00  0.00    -0.000 C 
BRANCH  20  21
ATOM     21  C   UNL     1      -7.839  24.922  -4.856  1.00  0.00    -0.000 C 
BRANCH  21  22
ATOM     22  C   UNL     1      -9.321  25.277  -4.654  1.00  0.00    -0.000 C 
BRANCH  22  23
ATOM     23  C   UNL     1      -9.683  26.706  -5.112  1.00  0.00    -0.000 C 
BRANCH  23  24
ATOM     24  C   UNL     1     -10.750  27.351  -4.216  1.00  0.00    -0.000 C 
BRANCH  24  25
ATOM     25  C   UNL     1     -12.091  27.462  -4.950  1.00  0.00    -0.003 C 
ATOM     26  C   UNL     1     -12.608  26.087  -5.363  1.00  0.00     0.004 C 
ENDBRANCH  24  25
ENDBRANCH  23  24
ENDBRANCH  22  23
ENDBRANCH  21  22
ENDBRANCH  20  21
ENDBRANCH  19  20
ENDBRANCH  18  19
ENDBRANCH  17  18
ENDBRANCH  16  17
ENDBRANCH  15  16
ENDBRANCH   1  15
TORSDOF 22
ENDMDL
MODEL 4
REMARK VINA RESULT:    14.381      2.244      3.077
REMARK INTER + INTRA:          32.934
REMARK INTER:                  33.406
REMARK INTRA:                  -0.472
REMARK UNBOUND:                 0.058
REMARK SMILES CCCCCCCCCCCCCCCCCCCCCCCC(=O)[O-]
REMARK SMILES IDX 13 1 14 2 15 3 16 4 17 5 18 6 19 7 20 8 21 9 22 10 23 11
REMARK SMILES IDX 24 12 25 13 26 14 12 15 11 16 10 17 9 18 8 19 7 20 6 21 5 22
REMARK SMILES IDX 4 23 3 24 2 25 1 26
REMARK H PARENT
REMARK Flexibility Score: inf
ROOT
ATOM      1  C   UNL     1      -8.865  29.555 -11.837  1.00  0.00     0.000 C 
ENDROOT
BRANCH   1   2
ATOM      2  C   UNL     1      -8.205  28.607 -10.827  1.00  0.00     0.000 C 
BRANCH   2   3
ATOM      3  C   UNL     1      -9.254  27.746 -10.108  1.00  0.00     0.000 C 
BRANCH   3   4
ATOM      4  C   UNL     1      -8.694  26.397  -9.619  1.00  0.00     0.000 C 
BRANCH   4   5
ATOM      5  C   UNL     1      -8.609  26.234  -8.090  1.00  0.00     0.000 C 
BRANCH   5   6
ATOM      6  C   UNL     1      -9.810  26.851  -7.353  1.00  0.00     0.000 C 
BRANCH   6   7
ATOM      7  C   UNL     1      -9.481  27.254  -5.903  1.00  0.00     0.000 C 
BRANCH   7   8
ATOM      8  C   UNL     1     -10.209  26.441  -4.817  1.00  0.00     0.000 C 
BRANCH   8   9
ATOM      9  C   UNL     1      -9.531  25.089  -4.528  1.00  0.00     0.000 C 
BRANCH   9  10
ATOM     10  C   UNL     1      -8.282  24.859  -5.395  1.00  0.00     0.006 C 
BRANCH  10  11
ATOM     11  C   UNL     1      -7.427  23.686  -4.895  1.00  0.00     0.053 C 
BRANCH  11  12
ATOM     12  C   UNL     1      -5.978  23.940  -5.168  1.00  0.00     0.041 C 
ATOM     13  O   UNL     1      -5.130  23.029  -4.987  1.00  0.00    -0.550 OA
ATOM     14  O   UNL     1      -5.568  25.174  -5.662  1.00  0.00    -0.550 OA
ENDBRANCH  11  12
ENDBRANCH  10  11
ENDBRANCH   9  10
ENDBRANCH   8   9
ENDBRANCH   7   8
ENDBRANCH   6   7
ENDBRANCH   5   6
ENDBRANCH   4   5
ENDBRANCH   3   4
ENDBRANCH   2   3
ENDBRANCH   1   2
BRANCH   1  15
ATOM     15  C   UNL     1      -7.920  29.846 -13.012  1.00  0.00     0.000 C 
BRANCH  15  16
ATOM     16  C   UNL     1      -8.597  29.672 -14.381  1.00  0.00     0.000 C 
BRANCH  16  17
ATOM     17  C   UNL     1      -9.006  31.014 -15.014  1.00  0.00     0.000 C 
BRANCH  17  18
ATOM     18  C   UNL     1      -9.286  30.887 -16.521  1.00  0.00    -0.000 C 
BRANCH  18  19
ATOM     19  C   UNL     1      -9.022  29.467 -17.054  1.00  0.00    -0.000 C 
BRANCH  19  20
ATOM     20  C   UNL     1      -8.067  29.458 -18.258  1.00  0.00    -0.000 C 
BRANCH  20  21
ATOM     21  C   UNL     1      -6.800  28.627 -17.998  1.00  0.00    -0.000 C 
BRANCH  21  22
ATOM     22  C   UNL     1      -6.115  28.161 -19.294  1.00  0.00    -0.000 C 
BRANCH  22  23
ATOM     23  C   UNL     1      -6.086  29.237 -20.400  1.00  0.00    -0.000 C 
BRANCH  23  24
ATOM     24  C   UNL     1      -6.501  28.677 -21.768  1.00  0.00    -0.000 C 
BRANCH  24  25
ATOM     25  C   UNL     1      -5.290  28.129 -22.530  1.00  0.00    -0.003 C 
ATOM     26  C   UNL     1      -5.586  26.756 -23.125  1.00  0.00     0.004 C 
ENDBRANCH  24  25
ENDBRANCH  23  24
ENDBRANCH  22  23
ENDBRANCH  21  22
ENDBRANCH  20  21
ENDBRANCH  19  20
ENDBRANCH  18  19
ENDBRANCH  17  18
ENDBRANCH  16  17
ENDBRANCH  15  16
ENDBRANCH   1  15
TORSDOF 22
ENDMDL
MODEL 5
REMARK VINA RESULT:    14.409      2.318      2.961
REMARK INTER + INTRA:          32.998
REMARK INTER:                  33.803
REMARK INTRA:                  -0.805
REMARK UNBOUND:                 0.058
REMARK SMILES CCCCCCCCCCCCCCCCCCCCCCCC(=O)[O-]
REMARK SMILES IDX 13 1 14 2 15 3 16 4 17 5 18 6 19 7 20 8 21 9 22 10 23 11
REMARK SMILES IDX 24 12 25 13 26 14 12 15 11 16 10 17 9 18 8 19 7 20 6 21 5 22
REMARK SMILES IDX 4 23 3 24 2 25 1 26
REMARK H PARENT
REMARK Flexibility Score: inf
ROOT
ATOM      1  C   UNL     1      -8.285  24.503 -13.694  1.00  0.00     0.000 C 
ENDROOT
BRANCH   1   2
ATOM      2  C   UNL     1      -9.100  24.483 -12.395  1.00  0.00     0.000 C 
BRANCH   2   3
ATOM      3  C   UNL     1      -8.925  23.151 -11.652  1.00  0.00     0.000 C 
BRANCH   3   4
ATOM      4  C   UNL     1      -9.056  23.292 -10.123  1.00  0.00     0.000 C 
BRANCH   4   5
ATOM      5  C   UNL     1      -9.492  22.015  -9.379  1.00  0.00     0.000 C 
BRANCH   5   6
ATOM      6  C   UNL     1      -9.384  22.146  -7.849  1.00  0.00     0.000 C 
BRANCH   6   7
ATOM      7  C   UNL     1      -8.650  23.427  -7.408  1.00  0.00     0.000 C 
BRANCH   7   8
ATOM      8  C   UNL     1      -7.840  23.301  -6.106  1.00  0.00     0.000 C 
BRANCH   8   9
ATOM      9  C   UNL     1      -7.671  24.644  -5.374  1.00  0.00     0.000 C 
BRANCH   9  10
ATOM     10  C   UNL     1      -8.840  25.608  -5.634  1.00  0.00     0.006 C 
BRANCH  10  11
ATOM     11  C   UNL     1      -9.803  25.701  -4.443  1.00  0.00     0.053 C 
BRANCH  11  12
ATOM     12  C   UNL     1     -10.768  26.827  -4.635  1.00  0.00     0.041 C 
ATOM     13  O   UNL     1     -10.429  28.007  -4.356  1.00  0.00    -0.550 OA
ATOM     14  O   UNL     1     -12.031  26.581  -5.164  1.00  0.00    -0.550 OA
ENDBRANCH  11  12
ENDBRANCH  10  11
ENDBRANCH   9  10
ENDBRANCH   8   9
ENDBRANCH   7   8
ENDBRANCH   6   7
ENDBRANCH   5   6
ENDBRANCH   4   5
ENDBRANCH   3   4
ENDBRANCH   2   3
ENDBRANCH   1   2
BRANCH   1  15
ATOM     15  C   UNL     1      -7.266  25.653 -13.682  1.00  0.00     0.000 C 
BRANCH  15  16
ATOM     16  C   UNL     1      -7.196  26.404 -15.021  1.00  0.00     0.000 C 
BRANCH  16  17
ATOM     17  C   UNL     1      -7.108  27.930 -14.840  1.00  0.00     0.000 C 
BRANCH  17  18
ATOM     18  C   UNL     1      -7.535  28.693 -16.104  1.00  0.00    -0.000 C 
BRANCH  18  19
ATOM     19  C   UNL     1      -8.467  29.879 -15.793  1.00  0.00    -0.000 C 
BRANCH  19  20
ATOM     20  C   UNL     1      -9.179  30.413 -17.045  1.00  0.00    -0.000 C 
BRANCH  20  21
ATOM     21  C   UNL     1      -9.175  29.400 -18.202  1.00  0.00    -0.000 C 
BRANCH  21  22
ATOM     22  C   UNL     1      -8.150  29.747 -19.296  1.00  0.00    -0.000 C 
BRANCH  22  23
ATOM     23  C   UNL     1      -6.998  28.727 -19.409  1.00  0.00    -0.000 C 
BRANCH  23  24
ATOM     24  C   UNL     1      -6.128  28.968 -20.652  1.00  0.00    -0.000 C 
BRANCH  24  25
ATOM     25  C   UNL     1      -6.086  27.722 -21.543  1.00  0.00    -0.003 C 
ATOM     26  C   UNL     1      -5.895  28.098 -23.009  1.00  0.00     0.004 C 
ENDBRANCH  24  25
ENDBRANCH  23  24
ENDBRANCH  22  23
ENDBRANCH  21  22
ENDBRANCH  20  21
ENDBRANCH  19  20
ENDBRANCH  18  19
ENDBRANCH  17  18
ENDBRANCH  16  17
ENDBRANCH  15  16
ENDBRANCH   1  15
TORSDOF 22
ENDMDL
MODEL 6
REMARK VINA RESULT:    14.815      5.456     12.981
REMARK INTER + INTRA:          33.927
REMARK INTER:                  34.826
REMARK INTRA:                  -0.900
REMARK UNBOUND:                 0.058
REMARK SMILES CCCCCCCCCCCCCCCCCCCCCCCC(=O)[O-]
REMARK SMILES IDX 13 1 14 2 15 3 16 4 17 5 18 6 19 7 20 8 21 9 22 10 23 11
REMARK SMILES IDX 24 12 25 13 26 14 12 15 11 16 10 17 9 18 8 19 7 20 6 21 5 22
REMARK SMILES IDX 4 23 3 24 2 25 1 26
REMARK H PARENT
REMARK Flexibility Score: inf
ROOT
ATOM      1  C   UNL     1      -8.711  29.475 -12.322  1.00  0.00     0.000 C 
ENDROOT
BRANCH   1   2
ATOM      2  C   UNL     1      -8.227  29.881 -13.720  1.00  0.00     0.000 C 
BRANCH   2   3
ATOM      3  C   UNL     1      -9.394  30.371 -14.590  1.00  0.00     0.000 C 
BRANCH   3   4
ATOM      4  C   UNL     1      -8.933  30.993 -15.922  1.00  0.00     0.000 C 
BRANCH   4   5
ATOM      5  C   UNL     1      -9.562  30.381 -17.188  1.00  0.00     0.000 C 
BRANCH   5   6
ATOM      6  C   UNL     1      -8.569  29.532 -18.001  1.00  0.00     0.000 C 
BRANCH   6   7
ATOM      7  C   UNL     1      -7.565  28.772 -17.115  1.00  0.00     0.000 C 
BRANCH   7   8
ATOM      8  C   UNL     1      -6.195  28.502 -17.763  1.00  0.00     0.000 C 
BRANCH   8   9
ATOM      9  C   UNL     1      -6.310  27.877 -19.165  1.00  0.00     0.000 C 
BRANCH   9  10
ATOM     10  C   UNL     1      -6.299  28.931 -20.283  1.00  0.00     0.006 C 
BRANCH  10  11
ATOM     11  C   UNL     1      -6.966  28.432 -21.571  1.00  0.00     0.053 C 
BRANCH  11  12
ATOM     12  C   UNL     1      -5.944  27.874 -22.510  1.00  0.00     0.041 C 
ATOM     13  O   UNL     1      -6.066  26.704 -22.957  1.00  0.00    -0.550 OA
ATOM     14  O   UNL     1      -4.876  28.662 -22.926  1.00  0.00    -0.550 OA
ENDBRANCH  11  12
ENDBRANCH  10  11
ENDBRANCH   9  10
ENDBRANCH   8   9
ENDBRANCH   7   8
ENDBRANCH   6   7
ENDBRANCH   5   6
ENDBRANCH   4   5
ENDBRANCH   3   4
ENDBRANCH   2   3
ENDBRANCH   1   2
BRANCH   1  15
ATOM     15  C   UNL     1      -7.525  29.312 -11.359  1.00  0.00     0.000 C 
BRANCH  15  16
ATOM     16  C   UNL     1      -7.549  27.974 -10.603  1.00  0.00     0.000 C 
BRANCH  16  17
ATOM     17  C   UNL     1      -8.703  27.888  -9.589  1.00  0.00     0.000 C 
BRANCH  17  18
ATOM     18  C   UNL     1      -9.108  26.435  -9.288  1.00  0.00    -0.000 C 
BRANCH  18  19
ATOM     19  C   UNL     1      -8.883  26.052  -7.814  1.00  0.00    -0.000 C 
BRANCH  19  20
ATOM     20  C   UNL     1      -9.159  27.218  -6.853  1.00  0.00    -0.000 C 
BRANCH  20  21
ATOM     21  C   UNL     1      -9.657  26.743  -5.477  1.00  0.00    -0.000 C 
BRANCH  21  22
ATOM     22  C   UNL     1      -9.677  25.211  -5.346  1.00  0.00    -0.000 C 
BRANCH  22  23
ATOM     23  C   UNL     1      -8.440  24.635  -4.626  1.00  0.00    -0.000 C 
BRANCH  23  24
ATOM     24  C   UNL     1      -7.430  24.021  -5.607  1.00  0.00    -0.000 C 
BRANCH  24  25
ATOM     25  C   UNL     1      -6.030  23.961  -4.988  1.00  0.00    -0.003 C 
ATOM     26  C   UNL     1      -5.077  24.928  -5.685  1.00  0.00     0.004 C 
ENDBRANCH  24  25
ENDBRANCH  23  24
ENDBRANCH  22  23
ENDBRANCH  21  22
ENDBRANCH  20  21
ENDBRANCH  19  20
ENDBRANCH  18  19
ENDBRANCH  17  18
ENDBRANCH  16  17
ENDBRANCH  15  16
ENDBRANCH   1  15
TORSDOF 22
ENDMDL
MODEL 7
REMARK VINA RESULT:    15.015      5.200     13.079
REMARK INTER + INTRA:          34.384
REMARK INTER:                  33.302
REMARK INTRA:                   1.082
REMARK UNBOUND:                 0.058
REMARK SMILES CCCCCCCCCCCCCCCCCCCCCCCC(=O)[O-]
REMARK SMILES IDX 13 1 14 2 15 3 16 4 17 5 18 6 19 7 20 8 21 9 22 10 23 11
REMARK SMILES IDX 24 12 25 13 26 14 12 15 11 16 10 17 9 18 8 19 7 20 6 21 5 22
REMARK SMILES IDX 4 23 3 24 2 25 1 26
REMARK H PARENT
REMARK Flexibility Score: inf
ROOT
ATOM      1  C   UNL     1      -7.756  29.655 -13.079  1.00  0.00     0.000 C 
ENDROOT
BRANCH   1   2
ATOM      2  C   UNL     1      -8.984  29.948 -13.950  1.00  0.00     0.000 C 
BRANCH   2   3
ATOM      3  C   UNL     1      -8.648  29.823 -15.443  1.00  0.00     0.000 C 
BRANCH   3   4
ATOM      4  C   UNL     1      -9.166  31.010 -16.279  1.00  0.00     0.000 C 
BRANCH   4   5
ATOM      5  C   UNL     1      -9.090  30.822 -17.806  1.00  0.00     0.000 C 
BRANCH   5   6
ATOM      6  C   UNL     1      -8.833  29.361 -18.219  1.00  0.00     0.000 C 
BRANCH   6   7
ATOM      7  C   UNL     1      -7.602  28.750 -17.524  1.00  0.00     0.000 C 
BRANCH   7   8
ATOM      8  C   UNL     1      -6.302  28.783 -18.348  1.00  0.00     0.000 C 
BRANCH   8   9
ATOM      9  C   UNL     1      -6.527  28.448 -19.833  1.00  0.00     0.000 C 
BRANCH   9  10
ATOM     10  C   UNL     1      -6.081  29.584 -20.768  1.00  0.00     0.006 C 
BRANCH  10  11
ATOM     11  C   UNL     1      -5.811  29.098 -22.198  1.00  0.00     0.053 C 
BRANCH  11  12
ATOM     12  C   UNL     1      -5.989  27.616 -22.291  1.00  0.00     0.041 C 
ATOM     13  O   UNL     1      -7.125  27.127 -22.525  1.00  0.00    -0.550 OA
ATOM     14  O   UNL     1      -4.890  26.772 -22.161  1.00  0.00    -0.550 OA
ENDBRANCH  11  12
ENDBRANCH  10  11
ENDBRANCH   9  10
ENDBRANCH   8   9
ENDBRANCH   7   8
ENDBRANCH   6   7
ENDBRANCH   5   6
ENDBRANCH   4   5
ENDBRANCH   3   4
ENDBRANCH   2   3
ENDBRANCH   1   2
BRANCH   1  15
ATOM     15  C   UNL     1      -8.135  29.624 -11.591  1.00  0.00     0.000 C 
BRANCH  15  16
ATOM     16  C   UNL     1      -7.445  28.486 -10.823  1.00  0.00     0.000 C 
BRANCH  16  17
ATOM     17  C   UNL     1      -8.276  27.989  -9.627  1.00  0.00     0.000 C 
BRANCH  17  18
ATOM     18  C   UNL     1      -9.026  26.684  -9.939  1.00  0.00    -0.000 C 
BRANCH  18  19
ATOM     19  C   UNL     1      -8.438  25.471  -9.195  1.00  0.00    -0.000 C 
BRANCH  19  20
ATOM     20  C   UNL     1      -8.507  25.627  -7.668  1.00  0.00    -0.000 C 
BRANCH  20  21
ATOM     21  C   UNL     1      -8.381  24.282  -6.932  1.00  0.00    -0.000 C 
BRANCH  21  22
ATOM     22  C   UNL     1      -7.931  24.440  -5.470  1.00  0.00    -0.000 C 
BRANCH  22  23
ATOM     23  C   UNL     1      -8.518  25.686  -4.774  1.00  0.00    -0.000 C 
BRANCH  23  24
ATOM     24  C   UNL     1      -9.915  26.044  -5.302  1.00  0.00    -0.000 C 
BRANCH  24  25
ATOM     25  C   UNL     1     -10.491  27.253  -4.557  1.00  0.00    -0.003 C 
ATOM     26  C   UNL     1     -12.010  27.309  -4.688  1.00  0.00     0.004 C 
ENDBRANCH  24  25
ENDBRANCH  23  24
ENDBRANCH  22  23
ENDBRANCH  21  22
ENDBRANCH  20  21
ENDBRANCH  19  20
ENDBRANCH  18  19
ENDBRANCH  17  18
ENDBRANCH  16  17
ENDBRANCH  15  16
ENDBRANCH   1  15
TORSDOF 22
ENDMDL
MODEL 8
REMARK VINA RESULT:    15.147      2.211      3.511
REMARK INTER + INTRA:          34.685
REMARK INTER:                  34.046
REMARK INTRA:                   0.639
REMARK UNBOUND:                 0.058
REMARK SMILES CCCCCCCCCCCCCCCCCCCCCCCC(=O)[O-]
REMARK SMILES IDX 13 1 14 2 15 3 16 4 17 5 18 6 19 7 20 8 21 9 22 10 23 11
REMARK SMILES IDX 24 12 25 13 26 14 12 15 11 16 10 17 9 18 8 19 7 20 6 21 5 22
REMARK SMILES IDX 4 23 3 24 2 25 1 26
REMARK H PARENT
REMARK Flexibility Score: inf
ROOT
ATOM      1  C   UNL     1      -8.402  23.344 -11.883  1.00  0.00     0.000 C 
ENDROOT
BRANCH   1   2
ATOM      2  C   UNL     1      -9.258  23.500 -10.619  1.00  0.00     0.000 C 
BRANCH   2   3
ATOM      3  C   UNL     1      -9.496  22.143  -9.941  1.00  0.00     0.000 C 
BRANCH   3   4
ATOM      4  C   UNL     1      -9.411  22.213  -8.404  1.00  0.00     0.000 C 
BRANCH   4   5
ATOM      5  C   UNL     1      -8.642  23.424  -7.843  1.00  0.00     0.000 C 
BRANCH   5   6
ATOM      6  C   UNL     1      -7.718  23.056  -6.668  1.00  0.00     0.000 C 
BRANCH   6   7
ATOM      7  C   UNL     1      -7.765  24.086  -5.524  1.00  0.00     0.000 C 
BRANCH   7   8
ATOM      8  C   UNL     1      -9.144  24.720  -5.271  1.00  0.00     0.000 C 
BRANCH   8   9
ATOM      9  C   UNL     1      -9.060  26.043  -4.489  1.00  0.00     0.000 C 
BRANCH   9  10
ATOM     10  C   UNL     1      -9.798  27.192  -5.193  1.00  0.00     0.006 C 
BRANCH  10  11
ATOM     11  C   UNL     1     -10.808  27.894  -4.275  1.00  0.00     0.053 C 
BRANCH  11  12
ATOM     12  C   UNL     1     -12.205  27.495  -4.629  1.00  0.00     0.041 C 
ATOM     13  O   UNL     1     -13.161  28.290  -4.435  1.00  0.00    -0.550 OA
ATOM     14  O   UNL     1     -12.449  26.257  -5.215  1.00  0.00    -0.550 OA
ENDBRANCH  11  12
ENDBRANCH  10  11
ENDBRANCH   9  10
ENDBRANCH   8   9
ENDBRANCH   7   8
ENDBRANCH   6   7
ENDBRANCH   5   6
ENDBRANCH   4   5
ENDBRANCH   3   4
ENDBRANCH   2   3
ENDBRANCH   1   2
BRANCH   1  15
ATOM     15  C   UNL     1      -8.723  24.451 -12.900  1.00  0.00     0.000 C 
BRANCH  15  16
ATOM     16  C   UNL     1      -7.481  25.252 -13.322  1.00  0.00     0.000 C 
BRANCH  16  17
ATOM     17  C   UNL     1      -7.552  25.728 -14.783  1.00  0.00     0.000 C 
BRANCH  17  18
ATOM     18  C   UNL     1      -6.778  27.038 -15.009  1.00  0.00    -0.000 C 
BRANCH  18  19
ATOM     19  C   UNL     1      -7.516  28.007 -15.951  1.00  0.00    -0.000 C 
BRANCH  19  20
ATOM     20  C   UNL     1      -7.906  29.321 -15.256  1.00  0.00    -0.000 C 
BRANCH  20  21
ATOM     21  C   UNL     1      -9.034  30.063 -15.992  1.00  0.00    -0.000 C 
BRANCH  21  22
ATOM     22  C   UNL     1      -8.947  29.919 -17.520  1.00  0.00    -0.000 C 
BRANCH  22  23
ATOM     23  C   UNL     1      -7.730  29.098 -17.996  1.00  0.00    -0.000 C 
BRANCH  23  24
ATOM     24  C   UNL     1      -7.634  29.033 -19.527  1.00  0.00    -0.000 C 
BRANCH  24  25
ATOM     25  C   UNL     1      -6.177  28.898 -19.982  1.00  0.00    -0.003 C 
ATOM     26  C   UNL     1      -6.090  28.306 -21.386  1.00  0.00     0.004 C 
ENDBRANCH  24  25
ENDBRANCH  23  24
ENDBRANCH  22  23
ENDBRANCH  21  22
ENDBRANCH  20  21
ENDBRANCH  19  20
ENDBRANCH  18  19
ENDBRANCH  17  18
ENDBRANCH  16  17
ENDBRANCH  15  16
ENDBRANCH   1  15
TORSDOF 22
ENDMDL
MODEL 9
REMARK VINA RESULT:    15.330      2.355      4.335
REMARK INTER + INTRA:          35.105
REMARK INTER:                  35.776
REMARK INTRA:                  -0.672
REMARK UNBOUND:                 0.058
REMARK SMILES CCCCCCCCCCCCCCCCCCCCCCCC(=O)[O-]
REMARK SMILES IDX 13 1 14 2 15 3 16 4 17 5 18 6 19 7 20 8 21 9 22 10 23 11
REMARK SMILES IDX 24 12 25 13 26 14 12 15 11 16 10 17 9 18 8 19 7 20 6 21 5 22
REMARK SMILES IDX 4 23 3 24 2 25 1 26
REMARK H PARENT
REMARK Flexibility Score: inf
ROOT
ATOM      1  C   UNL     1      -8.667  24.023 -12.150  1.00  0.00     0.000 C 
ENDROOT
BRANCH   1   2
ATOM      2  C   UNL     1      -8.943  23.867 -10.649  1.00  0.00     0.000 C 
BRANCH   2   3
ATOM      3  C   UNL     1      -9.340  22.424 -10.306  1.00  0.00     0.000 C 
BRANCH   3   4
ATOM      4  C   UNL     1      -9.626  22.218  -8.806  1.00  0.00     0.000 C 
BRANCH   4   5
ATOM      5  C   UNL     1      -8.871  23.167  -7.855  1.00  0.00     0.000 C 
BRANCH   5   6
ATOM      6  C   UNL     1      -8.362  22.463  -6.585  1.00  0.00     0.000 C 
BRANCH   6   7
ATOM      7  C   UNL     1      -7.578  23.405  -5.652  1.00  0.00     0.000 C 
BRANCH   7   8
ATOM      8  C   UNL     1      -7.898  24.902  -5.815  1.00  0.00     0.000 C 
BRANCH   8   9
ATOM      9  C   UNL     1      -9.166  25.328  -5.053  1.00  0.00     0.000 C 
BRANCH   9  10
ATOM     10  C   UNL     1      -9.590  26.770  -5.373  1.00  0.00     0.006 C 
BRANCH  10  11
ATOM     11  C   UNL     1     -10.502  27.370  -4.295  1.00  0.00     0.053 C 
BRANCH  11  12
ATOM     12  C   UNL     1     -11.937  27.262  -4.702  1.00  0.00     0.041 C 
ATOM     13  O   UNL     1     -12.714  28.241  -4.555  1.00  0.00    -0.550 OA
ATOM     14  O   UNL     1     -12.410  26.091  -5.286  1.00  0.00    -0.550 OA
ENDBRANCH  11  12
ENDBRANCH  10  11
ENDBRANCH   9  10
ENDBRANCH   8   9
ENDBRANCH   7   8
ENDBRANCH   6   7
ENDBRANCH   5   6
ENDBRANCH   4   5
ENDBRANCH   3   4
ENDBRANCH   2   3
ENDBRANCH   1   2
BRANCH   1  15
ATOM     15  C   UNL     1      -7.629  25.127 -12.403  1.00  0.00     0.000 C 
BRANCH  15  16
ATOM     16  C   UNL     1      -7.276  25.284 -13.891  1.00  0.00     0.000 C 
BRANCH  16  17
ATOM     17  C   UNL     1      -7.244  26.756 -14.339  1.00  0.00     0.000 C 
BRANCH  17  18
ATOM     18  C   UNL     1      -6.753  26.915 -15.787  1.00  0.00    -0.000 C 
BRANCH  18  19
ATOM     19  C   UNL     1      -6.962  28.341 -16.330  1.00  0.00    -0.000 C 
BRANCH  19  20
ATOM     20  C   UNL     1      -6.694  28.441 -17.840  1.00  0.00    -0.000 C 
BRANCH  20  21
ATOM     21  C   UNL     1      -7.690  29.370 -18.554  1.00  0.00    -0.000 C 
BRANCH  21  22
ATOM     22  C   UNL     1      -9.084  29.363 -17.905  1.00  0.00    -0.000 C 
BRANCH  22  23
ATOM     23  C   UNL     1      -9.386  30.627 -17.074  1.00  0.00    -0.000 C 
BRANCH  23  24
ATOM     24  C   UNL     1      -9.127  30.414 -15.576  1.00  0.00    -0.000 C 
BRANCH  24  25
ATOM     25  C   UNL     1      -8.970  31.754 -14.849  1.00  0.00    -0.003 C 
ATOM     26  C   UNL     1      -8.767  32.898 -15.839  1.00  0.00     0.004 C 
ENDBRANCH  24  25
ENDBRANCH  23  24
ENDBRANCH  22  23
ENDBRANCH  21  22
ENDBRANCH  20  21
ENDBRANCH  19  20
ENDBRANCH  18  19
ENDBRANCH  17  18
ENDBRANCH  16  17
ENDBRANCH  15  16
ENDBRANCH   1  15
TORSDOF 22
ENDMDL
