MODEL 1
REMARK VINA RESULT:     0.338      0.000      0.000
REMARK INTER + INTRA:           0.101
REMARK INTER:                   0.407
REMARK INTRA:                  -0.306
REMARK UNBOUND:                -0.306
REMARK SMILES O=c1c(O)c(-c2ccc(O)c(O)c2)oc2cc(O)cc(O)c12
REMARK SMILES IDX 5 1 3 2 2 3 1 4 22 5 20 6 19 7 17 8 16 9 15 10 14 11 6 12
REMARK SMILES IDX 7 13 8 14 9 15 13 16 11 17 10 18 12 20 4 22 21 24 18 26
REMARK H PARENT 10 19 12 21 4 23 21 25 18 27
REMARK Flexibility Score: inf
ROOT
ATOM      1  C   UNL     1       0.582  59.886  -5.499  1.00  0.00     0.180 A 
ATOM      2  C   UNL     1       0.447  60.109  -4.118  1.00  0.00     0.208 A 
ATOM      3  C   UNL     1      -0.823  59.990  -3.530  1.00  0.00     0.238 A 
ATOM      4  O   UNL     1      -0.947  60.246  -2.303  1.00  0.00    -0.285 OA
ATOM      5  C   UNL     1      -1.937  59.634  -4.326  1.00  0.00     0.111 A 
ATOM      6  C   UNL     1      -3.262  59.446  -3.829  1.00  0.00     0.134 A 
ATOM      7  C   UNL     1      -4.312  59.221  -4.727  1.00  0.00     0.093 A 
ATOM      8  C   UNL     1      -4.075  59.115  -6.100  1.00  0.00     0.123 A 
ATOM      9  C   UNL     1      -2.776  59.237  -6.589  1.00  0.00     0.094 A 
ATOM     10  C   UNL     1      -1.714  59.498  -5.721  1.00  0.00     0.146 A 
ATOM     11  O   UNL     1      -0.493  59.618  -6.230  1.00  0.00    -0.452 OA
ENDROOT
BRANCH   1  12
ATOM     12  C   UNL     1       1.891  59.969  -6.186  1.00  0.00     0.025 A 
ATOM     13  C   UNL     1       2.770  58.876  -6.135  1.00  0.00     0.016 A 
ATOM     14  C   UNL     1       4.017  58.940  -6.760  1.00  0.00     0.051 A 
ATOM     15  C   UNL     1       4.414  60.102  -7.430  1.00  0.00     0.157 A 
ATOM     16  C   UNL     1       2.300  61.145  -6.844  1.00  0.00     0.062 A 
ATOM     17  C   UNL     1       3.553  61.211  -7.470  1.00  0.00     0.158 A 
BRANCH  15  18
ATOM     18  O   UNL     1       5.665  60.136  -8.046  1.00  0.00    -0.504 OA
ATOM     19  H   UNL     1       5.824  59.734  -8.962  1.00  0.00     0.293 HD
ENDBRANCH  15  18
BRANCH  17  20
ATOM     20  O   UNL     1       3.947  62.377  -8.125  1.00  0.00    -0.504 OA
ATOM     21  H   UNL     1       4.140  63.232  -7.617  1.00  0.00     0.293 HD
ENDBRANCH  17  20
ENDBRANCH   1  12
BRANCH   2  22
ATOM     22  O   UNL     1       1.557  60.483  -3.354  1.00  0.00    -0.502 OA
ATOM     23  H   UNL     1       1.875  59.944  -2.558  1.00  0.00     0.293 HD
ENDBRANCH   2  22
BRANCH   6  24
ATOM     24  O   UNL     1      -3.592  59.442  -2.470  1.00  0.00    -0.507 OA
ATOM     25  H   UNL     1      -3.627  60.263  -1.886  1.00  0.00     0.293 HD
ENDBRANCH   6  24
BRANCH   8  26
ATOM     26  O   UNL     1      -5.123  58.876  -6.986  1.00  0.00    -0.508 OA
ATOM     27  H   UNL     1      -4.956  58.521  -7.921  1.00  0.00     0.293 HD
ENDBRANCH   8  26
TORSDOF 6
ENDMDL
