MODEL 1
REMARK VINA RESULT:    -7.241      0.000      0.000
REMARK INTER + INTRA:         -11.805
REMARK INTER:                 -10.627
REMARK INTRA:                  -1.178
REMARK UNBOUND:                -1.178
REMARK SMILES O=c1c(O[C@H]2O[C@@H](CO)[C@@H](O)[C@H](O)[C@H]2O)c(-c2ccc(O)c(O)c2)oc2cc(O)cc(O)c12
REMARK SMILES IDX 4 1 3 2 16 3 25 4 2 5 26 6 1 7 33 8 27 9 31 10 28 11 30 12
REMARK SMILES IDX 17 13 18 14 19 15 20 16 24 17 22 18 21 19 23 21 32 23 29 25
REMARK SMILES IDX 5 27 14 28 6 29 12 30 7 31 10 32 15 33 13 35 8 37 9 38 11 40
REMARK H PARENT 21 20 23 22 32 24 29 26 15 34 13 36 9 39 11 41
REMARK Flexibility Score: inf
ROOT
ATOM      1  O   UNL     1      54.782   4.421  82.172  1.00  0.00    -0.454 OA
ENDROOT
BRANCH   1   2
ATOM      2  C   UNL     1      55.656   5.345  81.570  1.00  0.00     0.214 A 
ATOM      3  C   UNL     1      55.538   5.583  80.186  1.00  0.00     0.180 A 
ATOM      4  O   UNL     1      56.376   6.414  79.575  1.00  0.00    -0.452 OA
ATOM      5  C   UNL     1      56.660   6.036  82.284  1.00  0.00     0.239 A 
ATOM      6  C   UNL     1      57.336   7.075  80.206  1.00  0.00     0.146 A 
ATOM      7  O   UNL     1      56.778   5.874  83.527  1.00  0.00    -0.285 OA
ATOM      8  C   UNL     1      57.523   6.918  81.599  1.00  0.00     0.111 A 
ATOM      9  C   UNL     1      58.164   7.932  79.475  1.00  0.00     0.094 A 
ATOM     10  C   UNL     1      58.557   7.644  82.240  1.00  0.00     0.134 A 
ATOM     11  C   UNL     1      59.183   8.645  80.114  1.00  0.00     0.123 A 
ATOM     12  C   UNL     1      59.376   8.500  81.489  1.00  0.00     0.093 A 
BRANCH   3  13
ATOM     13  C   UNL     1      54.526   4.888  79.358  1.00  0.00     0.025 A 
ATOM     14  C   UNL     1      53.342   5.530  78.960  1.00  0.00     0.016 A 
ATOM     15  C   UNL     1      52.401   4.855  78.178  1.00  0.00     0.051 A 
ATOM     16  C   UNL     1      52.637   3.536  77.769  1.00  0.00     0.157 A 
ATOM     17  C   UNL     1      54.769   3.574  78.928  1.00  0.00     0.062 A 
ATOM     18  C   UNL     1      53.829   2.895  78.144  1.00  0.00     0.158 A 
BRANCH  16  19
ATOM     19  O   UNL     1      51.696   2.864  76.990  1.00  0.00    -0.504 OA
ATOM     20  H   UNL     1      51.881   1.942  76.614  1.00  0.00     0.293 HD
ENDBRANCH  16  19
BRANCH  18  21
ATOM     21  O   UNL     1      54.099   1.585  77.748  1.00  0.00    -0.504 OA
ATOM     22  H   UNL     1      53.363   0.941  77.483  1.00  0.00     0.293 HD
ENDBRANCH  18  21
ENDBRANCH   3  13
BRANCH  10  23
ATOM     23  O   UNL     1      58.777   7.521  83.612  1.00  0.00    -0.507 OA
ATOM     24  H   UNL     1      58.010   7.492  84.275  1.00  0.00     0.293 HD
ENDBRANCH  10  23
BRANCH  11  25
ATOM     25  O   UNL     1      60.011   9.501  79.391  1.00  0.00    -0.508 OA
ATOM     26  H   UNL     1      59.869   9.665  78.401  1.00  0.00     0.293 HD
ENDBRANCH  11  25
ENDBRANCH   1   2
BRANCH   1  27
ATOM     27  C   UNL     1      54.468   4.335  83.564  1.00  0.00     0.339 C 
ATOM     28  C   UNL     1      54.909   2.974  84.125  1.00  0.00     0.214 C 
ATOM     29  O   UNL     1      53.095   4.604  83.821  1.00  0.00    -0.332 OA
ATOM     30  C   UNL     1      54.024   1.857  83.550  1.00  0.00     0.180 C 
ATOM     31  C   UNL     1      52.197   3.618  83.322  1.00  0.00     0.179 C 
ATOM     32  C   UNL     1      52.545   2.188  83.811  1.00  0.00     0.177 C 
BRANCH  28  33
ATOM     33  O   UNL     1      56.255   2.747  83.791  1.00  0.00    -0.384 OA
ATOM     34  H   UNL     1      56.728   3.613  83.900  1.00  0.00     0.211 HD
ENDBRANCH  28  33
BRANCH  30  35
ATOM     35  O   UNL     1      54.364   0.611  84.110  1.00  0.00    -0.387 OA
ATOM     36  H   UNL     1      54.720   0.774  85.022  1.00  0.00     0.211 HD
ENDBRANCH  30  35
BRANCH  31  37
ATOM     37  C   UNL     1      51.987   3.742  81.798  1.00  0.00     0.191 C 
BRANCH  37  38
ATOM     38  O   UNL     1      50.631   3.593  81.484  1.00  0.00    -0.394 OA
ATOM     39  H   UNL     1      50.588   3.437  80.505  1.00  0.00     0.210 HD
ENDBRANCH  37  38
ENDBRANCH  31  37
BRANCH  32  40
ATOM     40  O   UNL     1      51.715   1.243  83.184  1.00  0.00    -0.387 OA
ATOM     41  H   UNL     1      51.974   0.352  83.536  1.00  0.00     0.211 HD
ENDBRANCH  32  40
ENDBRANCH   1  27
TORSDOF 12
ENDMDL
MODEL 2
REMARK VINA RESULT:    -6.935      2.446      6.779
REMARK INTER + INTRA:         -11.357
REMARK INTER:                 -10.353
REMARK INTRA:                  -1.004
REMARK UNBOUND:                -1.178
REMARK SMILES O=c1c(O[C@H]2O[C@@H](CO)[C@@H](O)[C@H](O)[C@H]2O)c(-c2ccc(O)c(O)c2)oc2cc(O)cc(O)c12
REMARK SMILES IDX 4 1 3 2 16 3 25 4 2 5 26 6 1 7 33 8 27 9 31 10 28 11 30 12
REMARK SMILES IDX 17 13 18 14 19 15 20 16 24 17 22 18 21 19 23 21 32 23 29 25
REMARK SMILES IDX 5 27 14 28 6 29 12 30 7 31 10 32 15 33 13 35 8 37 9 38 11 40
REMARK H PARENT 21 20 23 22 32 24 29 26 15 34 13 36 9 39 11 41
REMARK Flexibility Score: inf
ROOT
ATOM      1  O   UNL     1      54.613   5.965  81.615  1.00  0.00    -0.454 OA
ENDROOT
BRANCH   1   2
ATOM      2  C   UNL     1      53.872   5.323  80.605  1.00  0.00     0.214 A 
ATOM      3  C   UNL     1      54.454   5.182  79.328  1.00  0.00     0.180 A 
ATOM      4  O   UNL     1      53.766   4.623  78.338  1.00  0.00    -0.452 OA
ATOM      5  C   UNL     1      52.565   4.826  80.803  1.00  0.00     0.239 A 
ATOM      6  C   UNL     1      52.535   4.152  78.480  1.00  0.00     0.146 A 
ATOM      7  O   UNL     1      52.024   4.905  81.937  1.00  0.00    -0.285 OA
ATOM      8  C   UNL     1      51.874   4.230  79.728  1.00  0.00     0.111 A 
ATOM      9  C   UNL     1      51.897   3.576  77.377  1.00  0.00     0.094 A 
ATOM     10  C   UNL     1      50.560   3.712  79.842  1.00  0.00     0.134 A 
ATOM     11  C   UNL     1      50.600   3.067  77.498  1.00  0.00     0.123 A 
ATOM     12  C   UNL     1      49.938   3.136  78.725  1.00  0.00     0.093 A 
BRANCH   3  13
ATOM     13  C   UNL     1      55.811   5.690  79.028  1.00  0.00     0.025 A 
ATOM     14  C   UNL     1      56.955   4.920  79.292  1.00  0.00     0.016 A 
ATOM     15  C   UNL     1      58.227   5.419  79.000  1.00  0.00     0.051 A 
ATOM     16  C   UNL     1      58.373   6.688  78.424  1.00  0.00     0.157 A 
ATOM     17  C   UNL     1      55.960   6.953  78.432  1.00  0.00     0.062 A 
ATOM     18  C   UNL     1      57.233   7.456  78.136  1.00  0.00     0.158 A 
BRANCH  16  19
ATOM     19  O   UNL     1      59.643   7.185  78.135  1.00  0.00    -0.504 OA
ATOM     20  H   UNL     1      59.958   7.308  77.180  1.00  0.00     0.293 HD
ENDBRANCH  16  19
BRANCH  18  21
ATOM     21  O   UNL     1      57.342   8.720  77.557  1.00  0.00    -0.504 OA
ATOM     22  H   UNL     1      56.703   9.473  77.783  1.00  0.00     0.293 HD
ENDBRANCH  18  21
ENDBRANCH   3  13
BRANCH  10  23
ATOM     23  O   UNL     1      49.870   3.767  81.054  1.00  0.00    -0.507 OA
ATOM     24  H   UNL     1      49.151   4.460  81.228  1.00  0.00     0.293 HD
ENDBRANCH  10  23
BRANCH  11  25
ATOM     25  O   UNL     1      49.959   2.491  76.404  1.00  0.00    -0.508 OA
ATOM     26  H   UNL     1      48.950   2.406  76.365  1.00  0.00     0.293 HD
ENDBRANCH  11  25
ENDBRANCH   1   2
BRANCH   1  27
ATOM     27  C   UNL     1      54.131   6.347  82.906  1.00  0.00     0.339 C 
ATOM     28  C   UNL     1      54.017   7.876  82.999  1.00  0.00     0.214 C 
ATOM     29  O   UNL     1      54.921   5.801  83.956  1.00  0.00    -0.332 OA
ATOM     30  C   UNL     1      55.417   8.509  83.005  1.00  0.00     0.180 C 
ATOM     31  C   UNL     1      56.240   6.330  84.037  1.00  0.00     0.179 C 
ATOM     32  C   UNL     1      56.261   7.878  84.125  1.00  0.00     0.177 C 
BRANCH  28  33
ATOM     33  O   UNL     1      53.273   8.355  81.907  1.00  0.00    -0.384 OA
ATOM     34  H   UNL     1      53.561   9.291  81.751  1.00  0.00     0.211 HD
ENDBRANCH  28  33
BRANCH  30  35
ATOM     35  O   UNL     1      55.335   9.904  83.165  1.00  0.00    -0.387 OA
ATOM     36  H   UNL     1      55.834  10.327  82.418  1.00  0.00     0.211 HD
ENDBRANCH  30  35
BRANCH  31  37
ATOM     37  C   UNL     1      57.172   5.735  82.960  1.00  0.00     0.191 C 
BRANCH  37  38
ATOM     38  O   UNL     1      56.899   4.373  82.786  1.00  0.00    -0.394 OA
ATOM     39  H   UNL     1      56.559   4.274  81.859  1.00  0.00     0.210 HD
ENDBRANCH  37  38
ENDBRANCH  31  37
BRANCH  32  40
ATOM     40  O   UNL     1      57.582   8.352  84.067  1.00  0.00    -0.387 OA
ATOM     41  H   UNL     1      57.598   9.085  83.399  1.00  0.00     0.211 HD
ENDBRANCH  32  40
ENDBRANCH   1  27
TORSDOF 12
ENDMDL
MODEL 3
REMARK VINA RESULT:    -6.888      1.341      1.869
REMARK INTER + INTRA:         -11.288
REMARK INTER:                 -10.603
REMARK INTRA:                  -0.685
REMARK UNBOUND:                -1.178
REMARK SMILES O=c1c(O[C@H]2O[C@@H](CO)[C@@H](O)[C@H](O)[C@H]2O)c(-c2ccc(O)c(O)c2)oc2cc(O)cc(O)c12
REMARK SMILES IDX 4 1 3 2 16 3 25 4 2 5 26 6 1 7 33 8 27 9 31 10 28 11 30 12
REMARK SMILES IDX 17 13 18 14 19 15 20 16 24 17 22 18 21 19 23 21 32 23 29 25
REMARK SMILES IDX 5 27 14 28 6 29 12 30 7 31 10 32 15 33 13 35 8 37 9 38 11 40
REMARK H PARENT 21 20 23 22 32 24 29 26 15 34 13 36 9 39 11 41
REMARK Flexibility Score: inf
ROOT
ATOM      1  O   UNL     1      54.367   4.417  81.532  1.00  0.00    -0.454 OA
ENDROOT
BRANCH   1   2
ATOM      2  C   UNL     1      55.086   5.208  80.616  1.00  0.00     0.214 A 
ATOM      3  C   UNL     1      54.724   5.159  79.254  1.00  0.00     0.180 A 
ATOM      4  O   UNL     1      55.410   5.856  78.354  1.00  0.00    -0.452 OA
ATOM      5  C   UNL     1      56.166   6.036  80.992  1.00  0.00     0.239 A 
ATOM      6  C   UNL     1      56.434   6.639  78.664  1.00  0.00     0.146 A 
ATOM      7  O   UNL     1      56.499   6.130  82.202  1.00  0.00    -0.285 OA
ATOM      8  C   UNL     1      56.861   6.768  80.007  1.00  0.00     0.111 A 
ATOM      9  C   UNL     1      57.089   7.336  77.645  1.00  0.00     0.094 A 
ATOM     10  C   UNL     1      57.957   7.616  80.300  1.00  0.00     0.134 A 
ATOM     11  C   UNL     1      58.170   8.172  77.942  1.00  0.00     0.123 A 
ATOM     12  C   UNL     1      58.599   8.309  79.263  1.00  0.00     0.093 A 
BRANCH   3  13
ATOM     13  C   UNL     1      53.617   4.304  78.770  1.00  0.00     0.025 A 
ATOM     14  C   UNL     1      53.859   3.031  78.231  1.00  0.00     0.016 A 
ATOM     15  C   UNL     1      52.798   2.240  77.781  1.00  0.00     0.051 A 
ATOM     16  C   UNL     1      51.480   2.704  77.879  1.00  0.00     0.157 A 
ATOM     17  C   UNL     1      52.293   4.757  78.887  1.00  0.00     0.062 A 
ATOM     18  C   UNL     1      51.227   3.967  78.439  1.00  0.00     0.158 A 
BRANCH  16  19
ATOM     19  O   UNL     1      50.423   1.914  77.428  1.00  0.00    -0.504 OA
ATOM     20  H   UNL     1      50.251   0.992  77.810  1.00  0.00     0.293 HD
ENDBRANCH  16  19
BRANCH  18  21
ATOM     21  O   UNL     1      49.927   4.456  78.558  1.00  0.00    -0.504 OA
ATOM     22  H   UNL     1      49.594   4.900  79.406  1.00  0.00     0.293 HD
ENDBRANCH  18  21
ENDBRANCH   3  13
BRANCH  10  23
ATOM     23  O   UNL     1      58.412   7.775  81.610  1.00  0.00    -0.507 OA
ATOM     24  H   UNL     1      58.235   8.624  82.137  1.00  0.00     0.293 HD
ENDBRANCH  10  23
BRANCH  11  25
ATOM     25  O   UNL     1      58.826   8.870  76.931  1.00  0.00    -0.508 OA
ATOM     26  H   UNL     1      58.559   9.816  76.682  1.00  0.00     0.293 HD
ENDBRANCH  11  25
ENDBRANCH   1   2
BRANCH   1  27
ATOM     27  C   UNL     1      54.349   4.573  82.953  1.00  0.00     0.339 C 
ATOM     28  C   UNL     1      54.807   3.276  83.636  1.00  0.00     0.214 C 
ATOM     29  O   UNL     1      53.081   5.013  83.428  1.00  0.00    -0.332 OA
ATOM     30  C   UNL     1      53.749   2.178  83.443  1.00  0.00     0.180 C 
ATOM     31  C   UNL     1      52.035   4.056  83.288  1.00  0.00     0.179 C 
ATOM     32  C   UNL     1      52.384   2.689  83.931  1.00  0.00     0.177 C 
BRANCH  28  33
ATOM     33  O   UNL     1      56.034   2.869  83.086  1.00  0.00    -0.384 OA
ATOM     34  H   UNL     1      56.413   2.188  83.700  1.00  0.00     0.211 HD
ENDBRANCH  28  33
BRANCH  30  35
ATOM     35  O   UNL     1      54.117   1.003  84.125  1.00  0.00    -0.387 OA
ATOM     36  H   UNL     1      53.898   0.231  83.541  1.00  0.00     0.211 HD
ENDBRANCH  30  35
BRANCH  31  37
ATOM     37  C   UNL     1      51.518   3.970  81.837  1.00  0.00     0.191 C 
BRANCH  37  38
ATOM     38  O   UNL     1      50.118   3.913  81.826  1.00  0.00    -0.394 OA
ATOM     39  H   UNL     1      49.805   4.692  82.356  1.00  0.00     0.210 HD
ENDBRANCH  37  38
ENDBRANCH  31  37
BRANCH  32  40
ATOM     40  O   UNL     1      51.379   1.747  83.648  1.00  0.00    -0.387 OA
ATOM     41  H   UNL     1      51.574   0.943  84.197  1.00  0.00     0.211 HD
ENDBRANCH  32  40
ENDBRANCH   1  27
TORSDOF 12
ENDMDL
MODEL 4
REMARK VINA RESULT:    -6.725      2.808      4.745
REMARK INTER + INTRA:         -11.049
REMARK INTER:                 -10.123
REMARK INTRA:                  -0.926
REMARK UNBOUND:                -1.178
REMARK SMILES O=c1c(O[C@H]2O[C@@H](CO)[C@@H](O)[C@H](O)[C@H]2O)c(-c2ccc(O)c(O)c2)oc2cc(O)cc(O)c12
REMARK SMILES IDX 4 1 3 2 16 3 25 4 2 5 26 6 1 7 33 8 27 9 31 10 28 11 30 12
REMARK SMILES IDX 17 13 18 14 19 15 20 16 24 17 22 18 21 19 23 21 32 23 29 25
REMARK SMILES IDX 5 27 14 28 6 29 12 30 7 31 10 32 15 33 13 35 8 37 9 38 11 40
REMARK H PARENT 21 20 23 22 32 24 29 26 15 34 13 36 9 39 11 41
REMARK Flexibility Score: inf
ROOT
ATOM      1  O   UNL     1      55.000   5.475  80.036  1.00  0.00    -0.454 OA
ENDROOT
BRANCH   1   2
ATOM      2  C   UNL     1      54.716   6.428  79.041  1.00  0.00     0.214 A 
ATOM      3  C   UNL     1      53.550   6.266  78.265  1.00  0.00     0.180 A 
ATOM      4  O   UNL     1      53.274   7.120  77.285  1.00  0.00    -0.452 OA
ATOM      5  C   UNL     1      55.552   7.533  78.768  1.00  0.00     0.239 A 
ATOM      6  C   UNL     1      54.036   8.164  76.991  1.00  0.00     0.146 A 
ATOM      7  O   UNL     1      56.585   7.730  79.459  1.00  0.00    -0.285 OA
ATOM      8  C   UNL     1      55.217   8.423  77.726  1.00  0.00     0.111 A 
ATOM      9  C   UNL     1      53.656   9.009  75.944  1.00  0.00     0.094 A 
ATOM     10  C   UNL     1      56.004   9.550  77.385  1.00  0.00     0.134 A 
ATOM     11  C   UNL     1      54.438  10.120  75.614  1.00  0.00     0.123 A 
ATOM     12  C   UNL     1      55.605  10.387  76.333  1.00  0.00     0.093 A 
BRANCH   3  13
ATOM     13  C   UNL     1      52.628   5.126  78.471  1.00  0.00     0.025 A 
ATOM     14  C   UNL     1      52.667   3.994  77.642  1.00  0.00     0.016 A 
ATOM     15  C   UNL     1      51.788   2.930  77.855  1.00  0.00     0.051 A 
ATOM     16  C   UNL     1      50.867   2.975  78.911  1.00  0.00     0.157 A 
ATOM     17  C   UNL     1      51.719   5.159  79.541  1.00  0.00     0.062 A 
ATOM     18  C   UNL     1      50.836   4.094  79.759  1.00  0.00     0.158 A 
BRANCH  16  19
ATOM     19  O   UNL     1      49.989   1.913  79.121  1.00  0.00    -0.504 OA
ATOM     20  H   UNL     1      49.613   1.375  78.349  1.00  0.00     0.293 HD
ENDBRANCH  16  19
BRANCH  18  21
ATOM     21  O   UNL     1      49.938   4.167  80.823  1.00  0.00    -0.504 OA
ATOM     22  H   UNL     1      50.051   4.833  81.578  1.00  0.00     0.293 HD
ENDBRANCH  18  21
ENDBRANCH   3  13
BRANCH  10  23
ATOM     23  O   UNL     1      57.176   9.845  78.083  1.00  0.00    -0.507 OA
ATOM     24  H   UNL     1      58.090   9.601  77.718  1.00  0.00     0.293 HD
ENDBRANCH  10  23
BRANCH  11  25
ATOM     25  O   UNL     1      54.065  10.966  74.572  1.00  0.00    -0.508 OA
ATOM     26  H   UNL     1      53.140  10.922  74.159  1.00  0.00     0.293 HD
ENDBRANCH  11  25
ENDBRANCH   1   2
BRANCH   1  27
ATOM     27  C   UNL     1      55.874   4.350  79.907  1.00  0.00     0.339 C 
ATOM     28  C   UNL     1      55.367   3.182  80.764  1.00  0.00     0.214 C 
ATOM     29  O   UNL     1      57.226   4.686  80.199  1.00  0.00    -0.332 OA
ATOM     30  C   UNL     1      55.528   3.514  82.256  1.00  0.00     0.180 C 
ATOM     31  C   UNL     1      57.470   5.011  81.564  1.00  0.00     0.179 C 
ATOM     32  C   UNL     1      56.988   3.906  82.539  1.00  0.00     0.177 C 
BRANCH  28  33
ATOM     33  O   UNL     1      54.015   2.938  80.466  1.00  0.00    -0.384 OA
ATOM     34  H   UNL     1      53.522   3.777  80.658  1.00  0.00     0.211 HD
ENDBRANCH  28  33
BRANCH  30  35
ATOM     35  O   UNL     1      55.137   2.426  83.057  1.00  0.00    -0.387 OA
ATOM     36  H   UNL     1      54.149   2.349  83.006  1.00  0.00     0.211 HD
ENDBRANCH  30  35
BRANCH  31  37
ATOM     37  C   UNL     1      56.989   6.434  81.917  1.00  0.00     0.191 C 
BRANCH  37  38
ATOM     38  O   UNL     1      58.077   7.316  81.955  1.00  0.00    -0.394 OA
ATOM     39  H   UNL     1      58.076   7.795  81.086  1.00  0.00     0.210 HD
ENDBRANCH  37  38
ENDBRANCH  31  37
BRANCH  32  40
ATOM     40  O   UNL     1      57.130   4.335  83.870  1.00  0.00    -0.387 OA
ATOM     41  H   UNL     1      56.529   5.117  83.988  1.00  0.00     0.211 HD
ENDBRANCH  32  40
ENDBRANCH   1  27
TORSDOF 12
ENDMDL
MODEL 5
REMARK VINA RESULT:    -6.664      2.698      3.990
REMARK INTER + INTRA:         -10.959
REMARK INTER:                 -10.291
REMARK INTRA:                  -0.668
REMARK UNBOUND:                -1.178
REMARK SMILES O=c1c(O[C@H]2O[C@@H](CO)[C@@H](O)[C@H](O)[C@H]2O)c(-c2ccc(O)c(O)c2)oc2cc(O)cc(O)c12
REMARK SMILES IDX 4 1 3 2 16 3 25 4 2 5 26 6 1 7 33 8 27 9 31 10 28 11 30 12
REMARK SMILES IDX 17 13 18 14 19 15 20 16 24 17 22 18 21 19 23 21 32 23 29 25
REMARK SMILES IDX 5 27 14 28 6 29 12 30 7 31 10 32 15 33 13 35 8 37 9 38 11 40
REMARK H PARENT 21 20 23 22 32 24 29 26 15 34 13 36 9 39 11 41
REMARK Flexibility Score: inf
ROOT
ATOM      1  O   UNL     1      54.710   5.680  80.480  1.00  0.00    -0.454 OA
ENDROOT
BRANCH   1   2
ATOM      2  C   UNL     1      54.543   6.583  79.414  1.00  0.00     0.214 A 
ATOM      3  C   UNL     1      53.565   6.303  78.439  1.00  0.00     0.180 A 
ATOM      4  O   UNL     1      53.411   7.109  77.393  1.00  0.00    -0.452 OA
ATOM      5  C   UNL     1      55.322   7.752  79.263  1.00  0.00     0.239 A 
ATOM      6  C   UNL     1      54.127   8.210  77.210  1.00  0.00     0.146 A 
ATOM      7  O   UNL     1      56.185   8.053  80.129  1.00  0.00    -0.285 OA
ATOM      8  C   UNL     1      55.120   8.586  78.144  1.00  0.00     0.111 A 
ATOM      9  C   UNL     1      53.886   8.996  76.079  1.00  0.00     0.094 A 
ATOM     10  C   UNL     1      55.862   9.771  77.916  1.00  0.00     0.134 A 
ATOM     11  C   UNL     1      54.623  10.164  75.861  1.00  0.00     0.123 A 
ATOM     12  C   UNL     1      55.605  10.548  76.777  1.00  0.00     0.093 A 
BRANCH   3  13
ATOM     13  C   UNL     1      52.717   5.091  78.509  1.00  0.00     0.025 A 
ATOM     14  C   UNL     1      53.044   3.927  77.796  1.00  0.00     0.016 A 
ATOM     15  C   UNL     1      52.230   2.795  77.878  1.00  0.00     0.051 A 
ATOM     16  C   UNL     1      51.086   2.805  78.687  1.00  0.00     0.157 A 
ATOM     17  C   UNL     1      51.582   5.090  79.336  1.00  0.00     0.062 A 
ATOM     18  C   UNL     1      50.763   3.957  79.422  1.00  0.00     0.158 A 
BRANCH  16  19
ATOM     19  O   UNL     1      50.273   1.674  78.767  1.00  0.00    -0.504 OA
ATOM     20  H   UNL     1      49.970   1.181  77.936  1.00  0.00     0.293 HD
ENDBRANCH  16  19
BRANCH  18  21
ATOM     21  O   UNL     1      49.637   3.998  80.242  1.00  0.00    -0.504 OA
ATOM     22  H   UNL     1      48.944   3.259  80.242  1.00  0.00     0.293 HD
ENDBRANCH  18  21
ENDBRANCH   3  13
BRANCH  10  23
ATOM     23  O   UNL     1      56.851  10.182  78.811  1.00  0.00    -0.507 OA
ATOM     24  H   UNL     1      57.312   9.528  79.434  1.00  0.00     0.293 HD
ENDBRANCH  10  23
BRANCH  11  25
ATOM     25  O   UNL     1      54.387  10.952  74.737  1.00  0.00    -0.508 OA
ATOM     26  H   UNL     1      54.356  11.964  74.797  1.00  0.00     0.293 HD
ENDBRANCH  11  25
ENDBRANCH   1   2
BRANCH   1  27
ATOM     27  C   UNL     1      54.979   6.019  81.843  1.00  0.00     0.339 C 
ATOM     28  C   UNL     1      56.361   5.491  82.258  1.00  0.00     0.214 C 
ATOM     29  O   UNL     1      53.949   5.576  82.719  1.00  0.00    -0.332 OA
ATOM     30  C   UNL     1      56.338   3.957  82.331  1.00  0.00     0.180 C 
ATOM     31  C   UNL     1      53.853   4.161  82.848  1.00  0.00     0.179 C 
ATOM     32  C   UNL     1      55.196   3.504  83.255  1.00  0.00     0.177 C 
BRANCH  28  33
ATOM     33  O   UNL     1      57.321   5.918  81.324  1.00  0.00    -0.384 OA
ATOM     34  H   UNL     1      58.174   5.472  81.565  1.00  0.00     0.211 HD
ENDBRANCH  28  33
BRANCH  30  35
ATOM     35  O   UNL     1      57.575   3.459  82.782  1.00  0.00    -0.387 OA
ATOM     36  H   UNL     1      57.422   2.548  83.146  1.00  0.00     0.211 HD
ENDBRANCH  30  35
BRANCH  31  37
ATOM     37  C   UNL     1      53.163   3.512  81.630  1.00  0.00     0.191 C 
BRANCH  37  38
ATOM     38  O   UNL     1      54.097   2.794  80.873  1.00  0.00    -0.394 OA
ATOM     39  H   UNL     1      53.740   2.764  79.947  1.00  0.00     0.210 HD
ENDBRANCH  37  38
ENDBRANCH  31  37
BRANCH  32  40
ATOM     40  O   UNL     1      55.078   2.104  83.237  1.00  0.00    -0.387 OA
ATOM     41  H   UNL     1      55.837   1.743  83.766  1.00  0.00     0.211 HD
ENDBRANCH  32  40
ENDBRANCH   1  27
TORSDOF 12
ENDMDL
MODEL 6
REMARK VINA RESULT:    -6.526      2.386      6.922
REMARK INTER + INTRA:         -10.756
REMARK INTER:                  -9.129
REMARK INTRA:                  -1.627
REMARK UNBOUND:                -1.178
REMARK SMILES O=c1c(O[C@H]2O[C@@H](CO)[C@@H](O)[C@H](O)[C@H]2O)c(-c2ccc(O)c(O)c2)oc2cc(O)cc(O)c12
REMARK SMILES IDX 4 1 3 2 16 3 25 4 2 5 26 6 1 7 33 8 27 9 31 10 28 11 30 12
REMARK SMILES IDX 17 13 18 14 19 15 20 16 24 17 22 18 21 19 23 21 32 23 29 25
REMARK SMILES IDX 5 27 14 28 6 29 12 30 7 31 10 32 15 33 13 35 8 37 9 38 11 40
REMARK H PARENT 21 20 23 22 32 24 29 26 15 34 13 36 9 39 11 41
REMARK Flexibility Score: inf
ROOT
ATOM      1  O   UNL     1      56.524   6.498  79.747  1.00  0.00    -0.454 OA
ENDROOT
BRANCH   1   2
ATOM      2  C   UNL     1      55.587   5.629  80.336  1.00  0.00     0.214 A 
ATOM      3  C   UNL     1      54.255   5.660  79.875  1.00  0.00     0.180 A 
ATOM      4  O   UNL     1      53.333   4.888  80.439  1.00  0.00    -0.452 OA
ATOM      5  C   UNL     1      55.912   4.737  81.382  1.00  0.00     0.239 A 
ATOM      6  C   UNL     1      53.594   4.043  81.427  1.00  0.00     0.146 A 
ATOM      7  O   UNL     1      57.096   4.657  81.800  1.00  0.00    -0.285 OA
ATOM      8  C   UNL     1      54.905   3.925  81.946  1.00  0.00     0.111 A 
ATOM      9  C   UNL     1      52.555   3.268  81.951  1.00  0.00     0.094 A 
ATOM     10  C   UNL     1      55.147   3.010  83.000  1.00  0.00     0.134 A 
ATOM     11  C   UNL     1      52.801   2.367  82.991  1.00  0.00     0.123 A 
ATOM     12  C   UNL     1      54.091   2.240  83.510  1.00  0.00     0.093 A 
BRANCH   3  13
ATOM     13  C   UNL     1      53.824   6.578  78.796  1.00  0.00     0.025 A 
ATOM     14  C   UNL     1      54.022   6.259  77.443  1.00  0.00     0.016 A 
ATOM     15  C   UNL     1      53.606   7.139  76.441  1.00  0.00     0.051 A 
ATOM     16  C   UNL     1      52.972   8.343  76.776  1.00  0.00     0.157 A 
ATOM     17  C   UNL     1      53.169   7.774  79.128  1.00  0.00     0.062 A 
ATOM     18  C   UNL     1      52.749   8.659  78.127  1.00  0.00     0.158 A 
BRANCH  16  19
ATOM     19  O   UNL     1      52.559   9.221  75.775  1.00  0.00    -0.504 OA
ATOM     20  H   UNL     1      51.585   9.299  75.508  1.00  0.00     0.293 HD
ENDBRANCH  16  19
BRANCH  18  21
ATOM     21  O   UNL     1      52.114   9.844  78.495  1.00  0.00    -0.504 OA
ATOM     22  H   UNL     1      51.113   9.894  78.646  1.00  0.00     0.293 HD
ENDBRANCH  18  21
ENDBRANCH   3  13
BRANCH  10  23
ATOM     23  O   UNL     1      56.424   2.860  83.542  1.00  0.00    -0.507 OA
ATOM     24  H   UNL     1      57.015   3.659  83.744  1.00  0.00     0.293 HD
ENDBRANCH  10  23
BRANCH  11  25
ATOM     25  O   UNL     1      51.771   1.591  83.516  1.00  0.00    -0.508 OA
ATOM     26  H   UNL     1      50.798   1.801  83.324  1.00  0.00     0.293 HD
ENDBRANCH  11  25
ENDBRANCH   1   2
BRANCH   1  27
ATOM     27  C   UNL     1      57.357   6.207  78.621  1.00  0.00     0.339 C 
ATOM     28  C   UNL     1      58.838   6.295  79.019  1.00  0.00     0.214 C 
ATOM     29  O   UNL     1      57.051   7.031  77.501  1.00  0.00    -0.332 OA
ATOM     30  C   UNL     1      59.220   7.756  79.304  1.00  0.00     0.180 C 
ATOM     31  C   UNL     1      57.372   8.407  77.676  1.00  0.00     0.179 C 
ATOM     32  C   UNL     1      58.848   8.629  78.094  1.00  0.00     0.177 C 
BRANCH  28  33
ATOM     33  O   UNL     1      59.061   5.504  80.159  1.00  0.00    -0.384 OA
ATOM     34  H   UNL     1      58.821   4.573  79.914  1.00  0.00     0.211 HD
ENDBRANCH  28  33
BRANCH  30  35
ATOM     35  O   UNL     1      60.592   7.866  79.598  1.00  0.00    -0.387 OA
ATOM     36  H   UNL     1      61.042   7.047  79.263  1.00  0.00     0.211 HD
ENDBRANCH  30  35
BRANCH  31  37
ATOM     37  C   UNL     1      56.338   9.137  78.559  1.00  0.00     0.191 C 
BRANCH  37  38
ATOM     38  O   UNL     1      56.031  10.388  78.008  1.00  0.00    -0.394 OA
ATOM     39  H   UNL     1      55.797  10.223  77.058  1.00  0.00     0.210 HD
ENDBRANCH  37  38
ENDBRANCH  31  37
BRANCH  32  40
ATOM     40  O   UNL     1      59.074   9.986  78.383  1.00  0.00    -0.387 OA
ATOM     41  H   UNL     1      58.457  10.231  79.121  1.00  0.00     0.211 HD
ENDBRANCH  32  40
ENDBRANCH   1  27
TORSDOF 12
ENDMDL
MODEL 7
REMARK VINA RESULT:    -6.522      1.549      2.121
REMARK INTER + INTRA:         -10.750
REMARK INTER:                  -9.525
REMARK INTRA:                  -1.225
REMARK UNBOUND:                -1.178
REMARK SMILES O=c1c(O[C@H]2O[C@@H](CO)[C@@H](O)[C@H](O)[C@H]2O)c(-c2ccc(O)c(O)c2)oc2cc(O)cc(O)c12
REMARK SMILES IDX 4 1 3 2 16 3 25 4 2 5 26 6 1 7 33 8 27 9 31 10 28 11 30 12
REMARK SMILES IDX 17 13 18 14 19 15 20 16 24 17 22 18 21 19 23 21 32 23 29 25
REMARK SMILES IDX 5 27 14 28 6 29 12 30 7 31 10 32 15 33 13 35 8 37 9 38 11 40
REMARK H PARENT 21 20 23 22 32 24 29 26 15 34 13 36 9 39 11 41
REMARK Flexibility Score: inf
ROOT
ATOM      1  O   UNL     1      55.622   5.628  81.267  1.00  0.00    -0.454 OA
ENDROOT
BRANCH   1   2
ATOM      2  C   UNL     1      56.111   6.503  80.279  1.00  0.00     0.214 A 
ATOM      3  C   UNL     1      55.600   6.395  78.970  1.00  0.00     0.180 A 
ATOM      4  O   UNL     1      56.071   7.173  78.001  1.00  0.00    -0.452 OA
ATOM      5  C   UNL     1      57.103   7.476  80.531  1.00  0.00     0.239 A 
ATOM      6  C   UNL     1      57.007   8.092  78.194  1.00  0.00     0.146 A 
ATOM      7  O   UNL     1      57.562   7.624  81.694  1.00  0.00    -0.285 OA
ATOM      8  C   UNL     1      57.568   8.290  79.477  1.00  0.00     0.111 A 
ATOM      9  C   UNL     1      57.433   8.866  77.110  1.00  0.00     0.094 A 
ATOM     10  C   UNL     1      58.564   9.283  79.645  1.00  0.00     0.134 A 
ATOM     11  C   UNL     1      58.416   9.845  77.284  1.00  0.00     0.123 A 
ATOM     12  C   UNL     1      58.976  10.050  78.546  1.00  0.00     0.093 A 
BRANCH   3  13
ATOM     13  C   UNL     1      54.572   5.391  78.613  1.00  0.00     0.025 A 
ATOM     14  C   UNL     1      53.246   5.767  78.344  1.00  0.00     0.016 A 
ATOM     15  C   UNL     1      52.292   4.802  78.008  1.00  0.00     0.051 A 
ATOM     16  C   UNL     1      52.654   3.451  77.921  1.00  0.00     0.157 A 
ATOM     17  C   UNL     1      54.936   4.039  78.504  1.00  0.00     0.062 A 
ATOM     18  C   UNL     1      53.983   3.070  78.167  1.00  0.00     0.158 A 
BRANCH  16  19
ATOM     19  O   UNL     1      51.701   2.490  77.588  1.00  0.00    -0.504 OA
ATOM     20  H   UNL     1      50.764   2.518  77.973  1.00  0.00     0.293 HD
ENDBRANCH  16  19
BRANCH  18  21
ATOM     21  O   UNL     1      54.378   1.735  78.081  1.00  0.00    -0.504 OA
ATOM     22  H   UNL     1      54.224   1.181  77.247  1.00  0.00     0.293 HD
ENDBRANCH  18  21
ENDBRANCH   3  13
BRANCH  10  23
ATOM     23  O   UNL     1      59.145   9.513  80.893  1.00  0.00    -0.507 OA
ATOM     24  H   UNL     1      58.718  10.132  81.574  1.00  0.00     0.293 HD
ENDBRANCH  10  23
BRANCH  11  25
ATOM     25  O   UNL     1      58.844  10.620  76.209  1.00  0.00    -0.508 OA
ATOM     26  H   UNL     1      58.598  10.383  75.254  1.00  0.00     0.293 HD
ENDBRANCH  11  25
ENDBRANCH   1   2
BRANCH   1  27
ATOM     27  C   UNL     1      55.558   5.888  82.672  1.00  0.00     0.339 C 
ATOM     28  C   UNL     1      56.347   4.822  83.446  1.00  0.00     0.214 C 
ATOM     29  O   UNL     1      54.217   6.006  83.134  1.00  0.00    -0.332 OA
ATOM     30  C   UNL     1      55.627   3.467  83.360  1.00  0.00     0.180 C 
ATOM     31  C   UNL     1      53.470   4.795  83.089  1.00  0.00     0.179 C 
ATOM     32  C   UNL     1      54.172   3.629  83.831  1.00  0.00     0.177 C 
BRANCH  28  33
ATOM     33  O   UNL     1      57.641   4.718  82.906  1.00  0.00    -0.384 OA
ATOM     34  H   UNL     1      58.142   4.082  83.480  1.00  0.00     0.211 HD
ENDBRANCH  28  33
BRANCH  30  35
ATOM     35  O   UNL     1      56.296   2.494  84.125  1.00  0.00    -0.387 OA
ATOM     36  H   UNL     1      55.800   2.384  84.978  1.00  0.00     0.211 HD
ENDBRANCH  30  35
BRANCH  31  37
ATOM     37  C   UNL     1      52.999   4.455  81.659  1.00  0.00     0.191 C 
BRANCH  37  38
ATOM     38  O   UNL     1      51.829   3.687  81.706  1.00  0.00    -0.394 OA
ATOM     39  H   UNL     1      51.345   3.968  82.526  1.00  0.00     0.210 HD
ENDBRANCH  37  38
ENDBRANCH  31  37
BRANCH  32  40
ATOM     40  O   UNL     1      53.461   2.432  83.642  1.00  0.00    -0.387 OA
ATOM     41  H   UNL     1      54.133   1.707  83.552  1.00  0.00     0.211 HD
ENDBRANCH  32  40
ENDBRANCH   1  27
TORSDOF 12
ENDMDL
MODEL 8
REMARK VINA RESULT:    -6.280      2.288      6.835
REMARK INTER + INTRA:         -10.395
REMARK INTER:                  -8.918
REMARK INTRA:                  -1.478
REMARK UNBOUND:                -1.178
REMARK SMILES O=c1c(O[C@H]2O[C@@H](CO)[C@@H](O)[C@H](O)[C@H]2O)c(-c2ccc(O)c(O)c2)oc2cc(O)cc(O)c12
REMARK SMILES IDX 4 1 3 2 16 3 25 4 2 5 26 6 1 7 33 8 27 9 31 10 28 11 30 12
REMARK SMILES IDX 17 13 18 14 19 15 20 16 24 17 22 18 21 19 23 21 32 23 29 25
REMARK SMILES IDX 5 27 14 28 6 29 12 30 7 31 10 32 15 33 13 35 8 37 9 38 11 40
REMARK H PARENT 21 20 23 22 32 24 29 26 15 34 13 36 9 39 11 41
REMARK Flexibility Score: inf
ROOT
ATOM      1  O   UNL     1      55.822   6.401  80.175  1.00  0.00    -0.454 OA
ENDROOT
BRANCH   1   2
ATOM      2  C   UNL     1      54.815   5.582  80.719  1.00  0.00     0.214 A 
ATOM      3  C   UNL     1      53.493   5.740  80.255  1.00  0.00     0.180 A 
ATOM      4  O   UNL     1      52.509   5.017  80.778  1.00  0.00    -0.452 OA
ATOM      5  C   UNL     1      55.061   4.618  81.721  1.00  0.00     0.239 A 
ATOM      6  C   UNL     1      52.695   4.109  81.726  1.00  0.00     0.146 A 
ATOM      7  O   UNL     1      56.232   4.426  82.140  1.00  0.00    -0.285 OA
ATOM      8  C   UNL     1      53.989   3.863  82.243  1.00  0.00     0.111 A 
ATOM      9  C   UNL     1      51.595   3.394  82.208  1.00  0.00     0.094 A 
ATOM     10  C   UNL     1      54.150   2.883  83.253  1.00  0.00     0.134 A 
ATOM     11  C   UNL     1      51.761   2.428  83.205  1.00  0.00     0.123 A 
ATOM     12  C   UNL     1      53.034   2.176  83.722  1.00  0.00     0.093 A 
BRANCH   3  13
ATOM     13  C   UNL     1      53.144   6.739  79.219  1.00  0.00     0.025 A 
ATOM     14  C   UNL     1      52.319   7.837  79.511  1.00  0.00     0.016 A 
ATOM     15  C   UNL     1      52.003   8.768  78.519  1.00  0.00     0.051 A 
ATOM     16  C   UNL     1      52.520   8.623  77.224  1.00  0.00     0.157 A 
ATOM     17  C   UNL     1      53.677   6.609  77.927  1.00  0.00     0.062 A 
ATOM     18  C   UNL     1      53.364   7.540  76.929  1.00  0.00     0.158 A 
BRANCH  16  19
ATOM     19  O   UNL     1      52.201   9.552  76.234  1.00  0.00    -0.504 OA
ATOM     20  H   UNL     1      52.143  10.543  76.437  1.00  0.00     0.293 HD
ENDBRANCH  16  19
BRANCH  18  21
ATOM     21  O   UNL     1      53.901   7.371  75.654  1.00  0.00    -0.504 OA
ATOM     22  H   UNL     1      54.594   6.660  75.451  1.00  0.00     0.293 HD
ENDBRANCH  18  21
ENDBRANCH   3  13
BRANCH  10  23
ATOM     23  O   UNL     1      55.408   2.607  83.791  1.00  0.00    -0.507 OA
ATOM     24  H   UNL     1      56.084   3.341  83.972  1.00  0.00     0.293 HD
ENDBRANCH  10  23
BRANCH  11  25
ATOM     25  O   UNL     1      50.669   1.712  83.689  1.00  0.00    -0.508 OA
ATOM     26  H   UNL     1      49.917   2.169  84.192  1.00  0.00     0.293 HD
ENDBRANCH  11  25
ENDBRANCH   1   2
BRANCH   1  27
ATOM     27  C   UNL     1      56.608   7.361  80.886  1.00  0.00     0.339 C 
ATOM     28  C   UNL     1      56.682   8.676  80.097  1.00  0.00     0.214 C 
ATOM     29  O   UNL     1      57.898   6.858  81.216  1.00  0.00    -0.332 OA
ATOM     30  C   UNL     1      57.525   8.482  78.827  1.00  0.00     0.180 C 
ATOM     31  C   UNL     1      58.752   6.645  80.096  1.00  0.00     0.179 C 
ATOM     32  C   UNL     1      58.900   7.906  79.207  1.00  0.00     0.177 C 
BRANCH  28  33
ATOM     33  O   UNL     1      55.382   9.088  79.757  1.00  0.00    -0.384 OA
ATOM     34  H   UNL     1      55.220   8.790  78.825  1.00  0.00     0.211 HD
ENDBRANCH  28  33
BRANCH  30  35
ATOM     35  O   UNL     1      57.666   9.695  78.129  1.00  0.00    -0.387 OA
ATOM     36  H   UNL     1      57.789  10.419  78.797  1.00  0.00     0.211 HD
ENDBRANCH  30  35
BRANCH  31  37
ATOM     37  C   UNL     1      58.391   5.355  79.328  1.00  0.00     0.191 C 
BRANCH  37  38
ATOM     38  O   UNL     1      58.195   4.298  80.226  1.00  0.00    -0.394 OA
ATOM     39  H   UNL     1      57.912   4.711  81.083  1.00  0.00     0.210 HD
ENDBRANCH  37  38
ENDBRANCH  31  37
BRANCH  32  40
ATOM     40  O   UNL     1      59.639   7.603  78.051  1.00  0.00    -0.387 OA
ATOM     41  H   UNL     1      60.505   7.222  78.353  1.00  0.00     0.211 HD
ENDBRANCH  32  40
ENDBRANCH   1  27
TORSDOF 12
ENDMDL
MODEL 9
REMARK VINA RESULT:    -6.072      1.432      4.515
REMARK INTER + INTRA:         -10.090
REMARK INTER:                  -9.220
REMARK INTRA:                  -0.869
REMARK UNBOUND:                -1.178
REMARK SMILES O=c1c(O[C@H]2O[C@@H](CO)[C@@H](O)[C@H](O)[C@H]2O)c(-c2ccc(O)c(O)c2)oc2cc(O)cc(O)c12
REMARK SMILES IDX 4 1 3 2 16 3 25 4 2 5 26 6 1 7 33 8 27 9 31 10 28 11 30 12
REMARK SMILES IDX 17 13 18 14 19 15 20 16 24 17 22 18 21 19 23 21 32 23 29 25
REMARK SMILES IDX 5 27 14 28 6 29 12 30 7 31 10 32 15 33 13 35 8 37 9 38 11 40
REMARK H PARENT 21 20 23 22 32 24 29 26 15 34 13 36 9 39 11 41
REMARK Flexibility Score: inf
ROOT
ATOM      1  O   UNL     1      54.440   4.664  79.459  1.00  0.00    -0.454 OA
ENDROOT
BRANCH   1   2
ATOM      2  C   UNL     1      55.418   5.316  80.233  1.00  0.00     0.214 A 
ATOM      3  C   UNL     1      55.439   5.088  81.624  1.00  0.00     0.180 A 
ATOM      4  O   UNL     1      56.317   5.723  82.393  1.00  0.00    -0.452 OA
ATOM      5  C   UNL     1      56.372   6.203  79.686  1.00  0.00     0.239 A 
ATOM      6  C   UNL     1      57.223   6.569  81.921  1.00  0.00     0.146 A 
ATOM      7  O   UNL     1      56.405   6.408  78.445  1.00  0.00    -0.285 OA
ATOM      8  C   UNL     1      57.294   6.848  80.536  1.00  0.00     0.111 A 
ATOM      9  C   UNL     1      58.108   7.182  82.812  1.00  0.00     0.094 A 
ATOM     10  C   UNL     1      58.277   7.754  80.068  1.00  0.00     0.134 A 
ATOM     11  C   UNL     1      59.076   8.076  82.343  1.00  0.00     0.123 A 
ATOM     12  C   UNL     1      59.158   8.358  80.978  1.00  0.00     0.093 A 
BRANCH   3  13
ATOM     13  C   UNL     1      54.465   4.189  82.282  1.00  0.00     0.025 A 
ATOM     14  C   UNL     1      53.283   4.685  82.856  1.00  0.00     0.016 A 
ATOM     15  C   UNL     1      52.378   3.817  83.472  1.00  0.00     0.051 A 
ATOM     16  C   UNL     1      52.632   2.440  83.508  1.00  0.00     0.157 A 
ATOM     17  C   UNL     1      54.706   2.805  82.301  1.00  0.00     0.062 A 
ATOM     18  C   UNL     1      53.800   1.932  82.916  1.00  0.00     0.158 A 
BRANCH  16  19
ATOM     19  O   UNL     1      51.728   1.576  84.124  1.00  0.00    -0.504 OA
ATOM     20  H   UNL     1      50.791   1.874  84.366  1.00  0.00     0.293 HD
ENDBRANCH  16  19
BRANCH  18  21
ATOM     21  O   UNL     1      54.079   0.566  82.927  1.00  0.00    -0.504 OA
ATOM     22  H   UNL     1      53.430  -0.119  82.560  1.00  0.00     0.293 HD
ENDBRANCH  18  21
ENDBRANCH   3  13
BRANCH  10  23
ATOM     23  O   UNL     1      58.385   8.059  78.711  1.00  0.00    -0.507 OA
ATOM     24  H   UNL     1      58.339   7.340  77.997  1.00  0.00     0.293 HD
ENDBRANCH  10  23
BRANCH  11  25
ATOM     25  O   UNL     1      59.962   8.690  83.225  1.00  0.00    -0.508 OA
ATOM     26  H   UNL     1      60.800   8.220  83.547  1.00  0.00     0.293 HD
ENDBRANCH  11  25
ENDBRANCH   1   2
BRANCH   1  27
ATOM     27  C   UNL     1      53.489   5.290  78.594  1.00  0.00     0.339 C 
ATOM     28  C   UNL     1      52.219   5.656  79.377  1.00  0.00     0.214 C 
ATOM     29  O   UNL     1      53.204   4.497  77.447  1.00  0.00    -0.332 OA
ATOM     30  C   UNL     1      51.463   4.380  79.779  1.00  0.00     0.180 C 
ATOM     31  C   UNL     1      52.502   3.290  77.725  1.00  0.00     0.179 C 
ATOM     32  C   UNL     1      51.198   3.525  78.528  1.00  0.00     0.177 C 
BRANCH  28  33
ATOM     33  O   UNL     1      52.575   6.390  80.522  1.00  0.00    -0.384 OA
ATOM     34  H   UNL     1      53.156   7.134  80.217  1.00  0.00     0.211 HD
ENDBRANCH  28  33
BRANCH  30  35
ATOM     35  O   UNL     1      50.258   4.698  80.433  1.00  0.00    -0.387 OA
ATOM     36  H   UNL     1      49.588   4.007  80.190  1.00  0.00     0.211 HD
ENDBRANCH  30  35
BRANCH  31  37
ATOM     37  C   UNL     1      53.428   2.201  78.308  1.00  0.00     0.191 C 
BRANCH  37  38
ATOM     38  O   UNL     1      54.690   2.267  77.705  1.00  0.00    -0.394 OA
ATOM     39  H   UNL     1      55.325   2.541  78.417  1.00  0.00     0.210 HD
ENDBRANCH  37  38
ENDBRANCH  31  37
BRANCH  32  40
ATOM     40  O   UNL     1      50.619   2.297  78.890  1.00  0.00    -0.387 OA
ATOM     41  H   UNL     1      49.706   2.282  78.500  1.00  0.00     0.211 HD
ENDBRANCH  32  40
ENDBRANCH   1  27
TORSDOF 12
ENDMDL
