MODEL 1
REMARK VINA RESULT:    -6.646      0.000      0.000
REMARK INTER + INTRA:          -8.324
REMARK INTER:                  -8.005
REMARK INTRA:                  -0.319
REMARK UNBOUND:                -0.319
REMARK SMILES O=c1c(O)c(-c2ccc(O)c(O)c2)oc2cc(O)cc(O)c12
REMARK SMILES IDX 5 1 3 2 2 3 1 4 22 5 20 6 19 7 17 8 16 9 15 10 14 11 6 12
REMARK SMILES IDX 7 13 8 14 9 15 13 16 11 17 10 18 12 20 4 22 21 24 18 26
REMARK H PARENT 10 19 12 21 4 23 21 25 18 27
REMARK Flexibility Score: inf
ROOT
ATOM      1  C   UNL     1      54.740   5.386  79.650  1.00  0.00     0.180 A 
ATOM      2  C   UNL     1      54.175   5.517  80.931  1.00  0.00     0.208 A 
ATOM      3  C   UNL     1      52.885   5.013  81.162  1.00  0.00     0.238 A 
ATOM      4  O   UNL     1      52.365   5.181  82.296  1.00  0.00    -0.285 OA
ATOM      5  C   UNL     1      52.183   4.369  80.115  1.00  0.00     0.111 A 
ATOM      6  C   UNL     1      50.888   3.786  80.249  1.00  0.00     0.134 A 
ATOM      7  C   UNL     1      50.233   3.290  79.113  1.00  0.00     0.093 A 
ATOM      8  C   UNL     1      50.855   3.300  77.863  1.00  0.00     0.123 A 
ATOM      9  C   UNL     1      52.143   3.813  77.734  1.00  0.00     0.094 A 
ATOM     10  C   UNL     1      52.807   4.347  78.841  1.00  0.00     0.146 A 
ATOM     11  O   UNL     1      54.030   4.836  78.672  1.00  0.00    -0.452 OA
ENDROOT
BRANCH   1  12
ATOM     12  C   UNL     1      56.103   5.871  79.337  1.00  0.00     0.025 A 
ATOM     13  C   UNL     1      57.209   5.049  79.611  1.00  0.00     0.016 A 
ATOM     14  C   UNL     1      58.505   5.494  79.342  1.00  0.00     0.051 A 
ATOM     15  C   UNL     1      58.719   6.770  78.812  1.00  0.00     0.157 A 
ATOM     16  C   UNL     1      56.322   7.162  78.822  1.00  0.00     0.062 A 
ATOM     17  C   UNL     1      57.624   7.610  78.554  1.00  0.00     0.158 A 
BRANCH  15  18
ATOM     18  O   UNL     1      60.025   7.186  78.552  1.00  0.00    -0.504 OA
ATOM     19  H   UNL     1      60.804   6.907  79.136  1.00  0.00     0.293 HD
ENDBRANCH  15  18
BRANCH  17  20
ATOM     20  O   UNL     1      57.831   8.888  78.038  1.00  0.00    -0.504 OA
ATOM     21  H   UNL     1      57.106   9.597  78.065  1.00  0.00     0.293 HD
ENDBRANCH  17  20
ENDBRANCH   1  12
BRANCH   2  22
ATOM     22  O   UNL     1      54.878   6.176  81.944  1.00  0.00    -0.502 OA
ATOM     23  H   UNL     1      54.670   7.129  82.220  1.00  0.00     0.293 HD
ENDBRANCH   2  22
BRANCH   6  24
ATOM     24  O   UNL     1      50.217   3.642  81.467  1.00  0.00    -0.507 OA
ATOM     25  H   UNL     1      50.652   3.713  82.374  1.00  0.00     0.293 HD
ENDBRANCH   6  24
BRANCH   8  26
ATOM     26  O   UNL     1      50.204   2.791  76.741  1.00  0.00    -0.508 OA
ATOM     27  H   UNL     1      49.967   1.808  76.666  1.00  0.00     0.293 HD
ENDBRANCH   8  26
TORSDOF 6
ENDMDL
MODEL 2
REMARK VINA RESULT:    -6.572      9.522     11.505
REMARK INTER + INTRA:          -8.235
REMARK INTER:                  -7.922
REMARK INTRA:                  -0.314
REMARK UNBOUND:                -0.319
REMARK SMILES O=c1c(O)c(-c2ccc(O)c(O)c2)oc2cc(O)cc(O)c12
REMARK SMILES IDX 5 1 3 2 2 3 1 4 22 5 20 6 19 7 17 8 16 9 15 10 14 11 6 12
REMARK SMILES IDX 7 13 8 14 9 15 13 16 11 17 10 18 12 20 4 22 21 24 18 26
REMARK H PARENT 10 19 12 21 4 23 21 25 18 27
REMARK Flexibility Score: inf
ROOT
ATOM      1  C   UNL     1      46.370   2.375  73.301  1.00  0.00     0.180 A 
ATOM      2  C   UNL     1      47.592   2.185  73.970  1.00  0.00     0.208 A 
ATOM      3  C   UNL     1      47.880   0.924  74.518  1.00  0.00     0.238 A 
ATOM      4  O   UNL     1      48.951   0.776  75.163  1.00  0.00    -0.285 OA
ATOM      5  C   UNL     1      46.951  -0.135  74.374  1.00  0.00     0.111 A 
ATOM      6  C   UNL     1      47.158  -1.462  74.855  1.00  0.00     0.134 A 
ATOM      7  C   UNL     1      46.116  -2.396  74.773  1.00  0.00     0.093 A 
ATOM      8  C   UNL     1      44.900  -2.067  74.170  1.00  0.00     0.123 A 
ATOM      9  C   UNL     1      44.711  -0.790  73.645  1.00  0.00     0.094 A 
ATOM     10  C   UNL     1      45.718   0.173  73.744  1.00  0.00     0.146 A 
ATOM     11  O   UNL     1      45.492   1.380  73.241  1.00  0.00    -0.452 OA
ENDROOT
BRANCH   1  12
ATOM     12  C   UNL     1      46.007   3.667  72.677  1.00  0.00     0.025 A 
ATOM     13  C   UNL     1      45.106   4.522  73.332  1.00  0.00     0.016 A 
ATOM     14  C   UNL     1      44.734   5.737  72.752  1.00  0.00     0.051 A 
ATOM     15  C   UNL     1      45.240   6.109  71.503  1.00  0.00     0.157 A 
ATOM     16  C   UNL     1      46.500   4.034  71.411  1.00  0.00     0.062 A 
ATOM     17  C   UNL     1      46.124   5.253  70.826  1.00  0.00     0.158 A 
BRANCH  15  18
ATOM     18  O   UNL     1      44.852   7.329  70.950  1.00  0.00    -0.504 OA
ATOM     19  H   UNL     1      44.133   7.905  71.371  1.00  0.00     0.293 HD
ENDBRANCH  15  18
BRANCH  17  20
ATOM     20  O   UNL     1      46.623   5.610  69.575  1.00  0.00    -0.504 OA
ATOM     21  H   UNL     1      47.573   5.942  69.455  1.00  0.00     0.293 HD
ENDBRANCH  17  20
ENDBRANCH   1  12
BRANCH   2  22
ATOM     22  O   UNL     1      48.484   3.250  74.119  1.00  0.00    -0.502 OA
ATOM     23  H   UNL     1      49.299   3.198  74.719  1.00  0.00     0.293 HD
ENDBRANCH   2  22
BRANCH   6  24
ATOM     24  O   UNL     1      48.365  -1.921  75.390  1.00  0.00    -0.507 OA
ATOM     25  H   UNL     1      49.197  -1.360  75.494  1.00  0.00     0.293 HD
ENDBRANCH   6  24
BRANCH   8  26
ATOM     26  O   UNL     1      43.875  -3.005  74.078  1.00  0.00    -0.508 OA
ATOM     27  H   UNL     1      44.070  -3.993  73.956  1.00  0.00     0.293 HD
ENDBRANCH   8  26
TORSDOF 6
ENDMDL
MODEL 3
REMARK VINA RESULT:    -6.546      1.725      7.095
REMARK INTER + INTRA:          -8.204
REMARK INTER:                  -7.882
REMARK INTRA:                  -0.322
REMARK UNBOUND:                -0.319
REMARK SMILES O=c1c(O)c(-c2ccc(O)c(O)c2)oc2cc(O)cc(O)c12
REMARK SMILES IDX 5 1 3 2 2 3 1 4 22 5 20 6 19 7 17 8 16 9 15 10 14 11 6 12
REMARK SMILES IDX 7 13 8 14 9 15 13 16 11 17 10 18 12 20 4 22 21 24 18 26
REMARK H PARENT 10 19 12 21 4 23 21 25 18 27
REMARK Flexibility Score: inf
ROOT
ATOM      1  C   UNL     1      54.685   5.873  78.598  1.00  0.00     0.180 A 
ATOM      2  C   UNL     1      55.847   5.160  78.939  1.00  0.00     0.208 A 
ATOM      3  C   UNL     1      57.101   5.756  78.727  1.00  0.00     0.238 A 
ATOM      4  O   UNL     1      58.138   5.092  78.984  1.00  0.00    -0.285 OA
ATOM      5  C   UNL     1      57.175   7.065  78.193  1.00  0.00     0.111 A 
ATOM      6  C   UNL     1      58.390   7.782  77.974  1.00  0.00     0.134 A 
ATOM      7  C   UNL     1      58.353   9.020  77.318  1.00  0.00     0.093 A 
ATOM      8  C   UNL     1      57.140   9.594  76.933  1.00  0.00     0.123 A 
ATOM      9  C   UNL     1      55.945   8.928  77.196  1.00  0.00     0.094 A 
ATOM     10  C   UNL     1      55.952   7.677  77.816  1.00  0.00     0.146 A 
ATOM     11  O   UNL     1      54.791   7.072  78.038  1.00  0.00    -0.452 OA
ENDROOT
BRANCH   1  12
ATOM     12  C   UNL     1      53.329   5.320  78.815  1.00  0.00     0.025 A 
ATOM     13  C   UNL     1      52.680   5.543  80.041  1.00  0.00     0.016 A 
ATOM     14  C   UNL     1      51.409   5.014  80.274  1.00  0.00     0.051 A 
ATOM     15  C   UNL     1      50.774   4.241  79.297  1.00  0.00     0.157 A 
ATOM     16  C   UNL     1      52.697   4.526  77.841  1.00  0.00     0.062 A 
ATOM     17  C   UNL     1      51.421   3.992  78.076  1.00  0.00     0.158 A 
BRANCH  15  18
ATOM     18  O   UNL     1      49.503   3.728  79.559  1.00  0.00    -0.504 OA
ATOM     19  H   UNL     1      49.158   3.603  80.503  1.00  0.00     0.293 HD
ENDBRANCH  15  18
BRANCH  17  20
ATOM     20  O   UNL     1      50.800   3.212  77.103  1.00  0.00    -0.504 OA
ATOM     21  H   UNL     1      49.831   3.356  76.843  1.00  0.00     0.293 HD
ENDBRANCH  17  20
ENDBRANCH   1  12
BRANCH   2  22
ATOM     22  O   UNL     1      55.751   3.860  79.446  1.00  0.00    -0.502 OA
ATOM     23  H   UNL     1      55.082   3.186  79.091  1.00  0.00     0.293 HD
ENDBRANCH   2  22
BRANCH   6  24
ATOM     24  O   UNL     1      59.645   7.340  78.402  1.00  0.00    -0.507 OA
ATOM     25  H   UNL     1      60.012   6.414  78.248  1.00  0.00     0.293 HD
ENDBRANCH   6  24
BRANCH   8  26
ATOM     26  O   UNL     1      57.111  10.832  76.295  1.00  0.00    -0.508 OA
ATOM     27  H   UNL     1      57.887  11.155  75.729  1.00  0.00     0.293 HD
ENDBRANCH   8  26
TORSDOF 6
ENDMDL
MODEL 4
REMARK VINA RESULT:    -6.531      1.968      6.770
REMARK INTER + INTRA:          -8.186
REMARK INTER:                  -8.279
REMARK INTRA:                   0.094
REMARK UNBOUND:                -0.319
REMARK SMILES O=c1c(O)c(-c2ccc(O)c(O)c2)oc2cc(O)cc(O)c12
REMARK SMILES IDX 5 1 3 2 2 3 1 4 22 5 20 6 19 7 17 8 16 9 15 10 14 11 6 12
REMARK SMILES IDX 7 13 8 14 9 15 13 16 11 17 10 18 12 20 4 22 21 24 18 26
REMARK H PARENT 10 19 12 21 4 23 21 25 18 27
REMARK Flexibility Score: inf
ROOT
ATOM      1  C   UNL     1      53.816   3.733  80.313  1.00  0.00     0.180 A 
ATOM      2  C   UNL     1      53.950   3.266  81.633  1.00  0.00     0.208 A 
ATOM      3  C   UNL     1      55.176   3.435  82.295  1.00  0.00     0.238 A 
ATOM      4  O   UNL     1      55.306   2.967  83.456  1.00  0.00    -0.285 OA
ATOM      5  C   UNL     1      56.248   4.084  81.635  1.00  0.00     0.111 A 
ATOM      6  C   UNL     1      57.522   4.344  82.224  1.00  0.00     0.134 A 
ATOM      7  C   UNL     1      58.552   4.876  81.436  1.00  0.00     0.093 A 
ATOM      8  C   UNL     1      58.333   5.214  80.099  1.00  0.00     0.123 A 
ATOM      9  C   UNL     1      57.076   5.018  79.532  1.00  0.00     0.094 A 
ATOM     10  C   UNL     1      56.039   4.458  80.283  1.00  0.00     0.146 A 
ATOM     11  O   UNL     1      54.860   4.278  79.700  1.00  0.00    -0.452 OA
ENDROOT
BRANCH   1  12
ATOM     12  C   UNL     1      52.547   3.614  79.560  1.00  0.00     0.025 A 
ATOM     13  C   UNL     1      52.582   3.294  78.193  1.00  0.00     0.016 A 
ATOM     14  C   UNL     1      51.398   3.196  77.459  1.00  0.00     0.051 A 
ATOM     15  C   UNL     1      50.164   3.431  78.072  1.00  0.00     0.157 A 
ATOM     16  C   UNL     1      51.305   3.870  80.171  1.00  0.00     0.062 A 
ATOM     17  C   UNL     1      50.116   3.773  79.433  1.00  0.00     0.158 A 
BRANCH  15  18
ATOM     18  O   UNL     1      48.999   3.323  77.313  1.00  0.00    -0.504 OA
ATOM     19  H   UNL     1      48.395   2.511  77.367  1.00  0.00     0.293 HD
ENDBRANCH  15  18
BRANCH  17  20
ATOM     20  O   UNL     1      48.890   4.023  80.047  1.00  0.00    -0.504 OA
ATOM     21  H   UNL     1      48.635   3.583  80.924  1.00  0.00     0.293 HD
ENDBRANCH  17  20
ENDBRANCH   1  12
BRANCH   2  22
ATOM     22  O   UNL     1      52.885   2.610  82.257  1.00  0.00    -0.502 OA
ATOM     23  H   UNL     1      52.893   1.613  82.441  1.00  0.00     0.293 HD
ENDBRANCH   2  22
BRANCH   6  24
ATOM     24  O   UNL     1      57.817   4.129  83.574  1.00  0.00    -0.507 OA
ATOM     25  H   UNL     1      58.288   3.314  83.936  1.00  0.00     0.293 HD
ENDBRANCH   6  24
BRANCH   8  26
ATOM     26  O   UNL     1      59.357   5.756  79.327  1.00  0.00    -0.508 OA
ATOM     27  H   UNL     1      59.536   6.754  79.309  1.00  0.00     0.293 HD
ENDBRANCH   8  26
TORSDOF 6
ENDMDL
MODEL 5
REMARK VINA RESULT:    -6.495     10.483     12.120
REMARK INTER + INTRA:          -8.143
REMARK INTER:                  -7.834
REMARK INTRA:                  -0.309
REMARK UNBOUND:                -0.319
REMARK SMILES O=c1c(O)c(-c2ccc(O)c(O)c2)oc2cc(O)cc(O)c12
REMARK SMILES IDX 5 1 3 2 2 3 1 4 22 5 20 6 19 7 17 8 16 9 15 10 14 11 6 12
REMARK SMILES IDX 7 13 8 14 9 15 13 16 11 17 10 18 12 20 4 22 21 24 18 26
REMARK H PARENT 10 19 12 21 4 23 21 25 18 27
REMARK Flexibility Score: inf
ROOT
ATOM      1  C   UNL     1      45.704   2.479  73.487  1.00  0.00     0.180 A 
ATOM      2  C   UNL     1      45.053   3.353  74.375  1.00  0.00     0.208 A 
ATOM      3  C   UNL     1      44.839   4.686  73.986  1.00  0.00     0.238 A 
ATOM      4  O   UNL     1      44.304   5.476  74.806  1.00  0.00    -0.285 OA
ATOM      5  C   UNL     1      45.264   5.123  72.708  1.00  0.00     0.111 A 
ATOM      6  C   UNL     1      45.063   6.439  72.195  1.00  0.00     0.134 A 
ATOM      7  C   UNL     1      45.641   6.798  70.970  1.00  0.00     0.093 A 
ATOM      8  C   UNL     1      46.357   5.869  70.212  1.00  0.00     0.123 A 
ATOM      9  C   UNL     1      46.507   4.565  70.677  1.00  0.00     0.094 A 
ATOM     10  C   UNL     1      45.973   4.187  71.912  1.00  0.00     0.146 A 
ATOM     11  O   UNL     1      46.149   2.937  72.322  1.00  0.00    -0.452 OA
ENDROOT
BRANCH   1  12
ATOM     12  C   UNL     1      45.942   1.056  73.816  1.00  0.00     0.025 A 
ATOM     13  C   UNL     1      44.911   0.121  73.630  1.00  0.00     0.016 A 
ATOM     14  C   UNL     1      45.108  -1.223  73.953  1.00  0.00     0.051 A 
ATOM     15  C   UNL     1      46.329  -1.652  74.481  1.00  0.00     0.157 A 
ATOM     16  C   UNL     1      47.164   0.626  74.366  1.00  0.00     0.062 A 
ATOM     17  C   UNL     1      47.361  -0.724  74.693  1.00  0.00     0.158 A 
BRANCH  15  18
ATOM     18  O   UNL     1      46.496  -3.002  74.792  1.00  0.00    -0.504 OA
ATOM     19  H   UNL     1      46.417  -3.729  74.090  1.00  0.00     0.293 HD
ENDBRANCH  15  18
BRANCH  17  20
ATOM     20  O   UNL     1      48.576  -1.142  75.232  1.00  0.00    -0.504 OA
ATOM     21  H   UNL     1      48.679  -2.048  75.675  1.00  0.00     0.293 HD
ENDBRANCH  17  20
ENDBRANCH   1  12
BRANCH   2  22
ATOM     22  O   UNL     1      44.661   2.906  75.640  1.00  0.00    -0.502 OA
ATOM     23  H   UNL     1      43.706   2.982  75.973  1.00  0.00     0.293 HD
ENDBRANCH   2  22
BRANCH   6  24
ATOM     24  O   UNL     1      44.288   7.415  72.828  1.00  0.00    -0.507 OA
ATOM     25  H   UNL     1      43.649   8.037  72.357  1.00  0.00     0.293 HD
ENDBRANCH   6  24
BRANCH   8  26
ATOM     26  O   UNL     1      46.914   6.230  68.988  1.00  0.00    -0.508 OA
ATOM     27  H   UNL     1      46.589   7.042  68.476  1.00  0.00     0.293 HD
ENDBRANCH   8  26
TORSDOF 6
ENDMDL
MODEL 6
REMARK VINA RESULT:    -6.367      9.284     11.850
REMARK INTER + INTRA:          -7.989
REMARK INTER:                  -7.845
REMARK INTRA:                  -0.144
REMARK UNBOUND:                -0.319
REMARK SMILES O=c1c(O)c(-c2ccc(O)c(O)c2)oc2cc(O)cc(O)c12
REMARK SMILES IDX 5 1 3 2 2 3 1 4 22 5 20 6 19 7 17 8 16 9 15 10 14 11 6 12
REMARK SMILES IDX 7 13 8 14 9 15 13 16 11 17 10 18 12 20 4 22 21 24 18 26
REMARK H PARENT 10 19 12 21 4 23 21 25 18 27
REMARK Flexibility Score: inf
ROOT
ATOM      1  C   UNL     1      45.981   4.739  71.999  1.00  0.00     0.180 A 
ATOM      2  C   UNL     1      44.897   3.933  71.609  1.00  0.00     0.208 A 
ATOM      3  C   UNL     1      44.818   2.616  72.091  1.00  0.00     0.238 A 
ATOM      4  O   UNL     1      43.875   1.883  71.696  1.00  0.00    -0.285 OA
ATOM      5  C   UNL     1      45.815   2.128  72.971  1.00  0.00     0.111 A 
ATOM      6  C   UNL     1      45.814   0.824  73.551  1.00  0.00     0.134 A 
ATOM      7  C   UNL     1      46.919   0.402  74.303  1.00  0.00     0.093 A 
ATOM      8  C   UNL     1      47.993   1.260  74.547  1.00  0.00     0.123 A 
ATOM      9  C   UNL     1      47.976   2.555  74.033  1.00  0.00     0.094 A 
ATOM     10  C   UNL     1      46.905   2.992  73.250  1.00  0.00     0.146 A 
ATOM     11  O   UNL     1      46.933   4.230  72.772  1.00  0.00    -0.452 OA
ENDROOT
BRANCH   1  12
ATOM     12  C   UNL     1      46.118   6.143  71.552  1.00  0.00     0.025 A 
ATOM     13  C   UNL     1      46.026   7.181  72.494  1.00  0.00     0.016 A 
ATOM     14  C   UNL     1      46.133   8.514  72.091  1.00  0.00     0.051 A 
ATOM     15  C   UNL     1      46.316   8.833  70.742  1.00  0.00     0.157 A 
ATOM     16  C   UNL     1      46.283   6.467  70.192  1.00  0.00     0.062 A 
ATOM     17  C   UNL     1      46.389   7.806  69.787  1.00  0.00     0.158 A 
BRANCH  15  18
ATOM     18  O   UNL     1      46.422  10.173  70.371  1.00  0.00    -0.504 OA
ATOM     19  H   UNL     1      45.739  10.620  69.771  1.00  0.00     0.293 HD
ENDBRANCH  15  18
BRANCH  17  20
ATOM     20  O   UNL     1      46.558   8.117  68.439  1.00  0.00    -0.504 OA
ATOM     21  H   UNL     1      46.470   9.066  68.096  1.00  0.00     0.293 HD
ENDBRANCH  17  20
ENDBRANCH   1  12
BRANCH   2  22
ATOM     22  O   UNL     1      43.936   4.428  70.723  1.00  0.00    -0.502 OA
ATOM     23  H   UNL     1      43.654   3.926  69.889  1.00  0.00     0.293 HD
ENDBRANCH   2  22
BRANCH   6  24
ATOM     24  O   UNL     1      44.751  -0.077  73.446  1.00  0.00    -0.507 OA
ATOM     25  H   UNL     1      44.099  -0.109  72.677  1.00  0.00     0.293 HD
ENDBRANCH   6  24
BRANCH   8  26
ATOM     26  O   UNL     1      49.080   0.839  75.309  1.00  0.00    -0.508 OA
ATOM     27  H   UNL     1      49.488  -0.082  75.187  1.00  0.00     0.293 HD
ENDBRANCH   8  26
TORSDOF 6
ENDMDL
MODEL 7
REMARK VINA RESULT:    -6.339      1.962      7.296
REMARK INTER + INTRA:          -7.955
REMARK INTER:                  -7.623
REMARK INTRA:                  -0.332
REMARK UNBOUND:                -0.319
REMARK SMILES O=c1c(O)c(-c2ccc(O)c(O)c2)oc2cc(O)cc(O)c12
REMARK SMILES IDX 5 1 3 2 2 3 1 4 22 5 20 6 19 7 17 8 16 9 15 10 14 11 6 12
REMARK SMILES IDX 7 13 8 14 9 15 13 16 11 17 10 18 12 20 4 22 21 24 18 26
REMARK H PARENT 10 19 12 21 4 23 21 25 18 27
REMARK Flexibility Score: inf
ROOT
ATOM      1  C   UNL     1      54.042   6.736  78.237  1.00  0.00     0.180 A 
ATOM      2  C   UNL     1      53.740   7.977  77.650  1.00  0.00     0.208 A 
ATOM      3  C   UNL     1      54.790   8.842  77.304  1.00  0.00     0.238 A 
ATOM      4  O   UNL     1      54.510   9.973  76.828  1.00  0.00    -0.285 OA
ATOM      5  C   UNL     1      56.130   8.449  77.534  1.00  0.00     0.111 A 
ATOM      6  C   UNL     1      57.274   9.229  77.186  1.00  0.00     0.134 A 
ATOM      7  C   UNL     1      58.548   8.799  77.579  1.00  0.00     0.093 A 
ATOM      8  C   UNL     1      58.724   7.587  78.250  1.00  0.00     0.123 A 
ATOM      9  C   UNL     1      57.619   6.790  78.541  1.00  0.00     0.094 A 
ATOM     10  C   UNL     1      56.332   7.209  78.194  1.00  0.00     0.146 A 
ATOM     11  O   UNL     1      55.306   6.425  78.500  1.00  0.00    -0.452 OA
ENDROOT
BRANCH   1  12
ATOM     12  C   UNL     1      52.991   5.762  78.606  1.00  0.00     0.025 A 
ATOM     13  C   UNL     1      52.510   5.730  79.925  1.00  0.00     0.016 A 
ATOM     14  C   UNL     1      51.533   4.805  80.300  1.00  0.00     0.051 A 
ATOM     15  C   UNL     1      51.033   3.888  79.370  1.00  0.00     0.157 A 
ATOM     16  C   UNL     1      52.501   4.825  77.677  1.00  0.00     0.062 A 
ATOM     17  C   UNL     1      51.521   3.895  78.054  1.00  0.00     0.158 A 
BRANCH  15  18
ATOM     18  O   UNL     1      50.056   2.978  79.774  1.00  0.00    -0.504 OA
ATOM     19  H   UNL     1      49.861   2.132  79.252  1.00  0.00     0.293 HD
ENDBRANCH  15  18
BRANCH  17  20
ATOM     20  O   UNL     1      51.037   2.975  77.125  1.00  0.00    -0.504 OA
ATOM     21  H   UNL     1      50.961   1.988  77.343  1.00  0.00     0.293 HD
ENDBRANCH  17  20
ENDBRANCH   1  12
BRANCH   2  22
ATOM     22  O   UNL     1      52.408   8.354  77.452  1.00  0.00    -0.502 OA
ATOM     23  H   UNL     1      51.645   7.687  77.465  1.00  0.00     0.293 HD
ENDBRANCH   2  22
BRANCH   6  24
ATOM     24  O   UNL     1      57.217  10.407  76.437  1.00  0.00    -0.507 OA
ATOM     25  H   UNL     1      56.378  10.787  76.025  1.00  0.00     0.293 HD
ENDBRANCH   6  24
BRANCH   8  26
ATOM     26  O   UNL     1      59.996   7.159  78.623  1.00  0.00    -0.508 OA
ATOM     27  H   UNL     1      60.816   7.392  78.074  1.00  0.00     0.293 HD
ENDBRANCH   8  26
TORSDOF 6
ENDMDL
MODEL 8
REMARK VINA RESULT:    -6.339      1.755      7.105
REMARK INTER + INTRA:          -7.954
REMARK INTER:                  -7.847
REMARK INTRA:                  -0.108
REMARK UNBOUND:                -0.319
REMARK SMILES O=c1c(O)c(-c2ccc(O)c(O)c2)oc2cc(O)cc(O)c12
REMARK SMILES IDX 5 1 3 2 2 3 1 4 22 5 20 6 19 7 17 8 16 9 15 10 14 11 6 12
REMARK SMILES IDX 7 13 8 14 9 15 13 16 11 17 10 18 12 20 4 22 21 24 18 26
REMARK H PARENT 10 19 12 21 4 23 21 25 18 27
REMARK Flexibility Score: inf
ROOT
ATOM      1  C   UNL     1      54.166   4.780  79.349  1.00  0.00     0.180 A 
ATOM      2  C   UNL     1      54.795   5.596  78.392  1.00  0.00     0.208 A 
ATOM      3  C   UNL     1      56.160   5.891  78.537  1.00  0.00     0.238 A 
ATOM      4  O   UNL     1      56.703   6.665  77.707  1.00  0.00    -0.285 OA
ATOM      5  C   UNL     1      56.884   5.352  79.628  1.00  0.00     0.111 A 
ATOM      6  C   UNL     1      58.279   5.553  79.852  1.00  0.00     0.134 A 
ATOM      7  C   UNL     1      58.864   5.081  81.035  1.00  0.00     0.093 A 
ATOM      8  C   UNL     1      58.116   4.362  81.970  1.00  0.00     0.123 A 
ATOM      9  C   UNL     1      56.767   4.110  81.732  1.00  0.00     0.094 A 
ATOM     10  C   UNL     1      56.148   4.598  80.579  1.00  0.00     0.146 A 
ATOM     11  O   UNL     1      54.857   4.345  80.397  1.00  0.00    -0.452 OA
ENDROOT
BRANCH   1  12
ATOM     12  C   UNL     1      52.738   4.406  79.250  1.00  0.00     0.025 A 
ATOM     13  C   UNL     1      51.880   4.659  80.332  1.00  0.00     0.016 A 
ATOM     14  C   UNL     1      50.533   4.295  80.268  1.00  0.00     0.051 A 
ATOM     15  C   UNL     1      50.026   3.660  79.131  1.00  0.00     0.157 A 
ATOM     16  C   UNL     1      52.230   3.749  78.114  1.00  0.00     0.062 A 
ATOM     17  C   UNL     1      50.877   3.381  78.050  1.00  0.00     0.158 A 
BRANCH  15  18
ATOM     18  O   UNL     1      48.675   3.311  79.095  1.00  0.00    -0.504 OA
ATOM     19  H   UNL     1      48.117   3.237  79.937  1.00  0.00     0.293 HD
ENDBRANCH  15  18
BRANCH  17  20
ATOM     20  O   UNL     1      50.381   2.736  76.918  1.00  0.00    -0.504 OA
ATOM     21  H   UNL     1      49.801   1.908  76.989  1.00  0.00     0.293 HD
ENDBRANCH  17  20
ENDBRANCH   1  12
BRANCH   2  22
ATOM     22  O   UNL     1      54.056   6.134  77.334  1.00  0.00    -0.502 OA
ATOM     23  H   UNL     1      53.862   7.126  77.254  1.00  0.00     0.293 HD
ENDBRANCH   2  22
BRANCH   6  24
ATOM     24  O   UNL     1      59.134   6.177  78.939  1.00  0.00    -0.507 OA
ATOM     25  H   UNL     1      58.905   6.372  77.977  1.00  0.00     0.293 HD
ENDBRANCH   6  24
BRANCH   8  26
ATOM     26  O   UNL     1      58.709   3.883  83.136  1.00  0.00    -0.508 OA
ATOM     27  H   UNL     1      59.220   4.496  83.761  1.00  0.00     0.293 HD
ENDBRANCH   8  26
TORSDOF 6
ENDMDL
MODEL 9
REMARK VINA RESULT:    -6.235      9.173     11.873
REMARK INTER + INTRA:          -7.829
REMARK INTER:                  -8.207
REMARK INTRA:                   0.377
REMARK UNBOUND:                -0.319
REMARK SMILES O=c1c(O)c(-c2ccc(O)c(O)c2)oc2cc(O)cc(O)c12
REMARK SMILES IDX 5 1 3 2 2 3 1 4 22 5 20 6 19 7 17 8 16 9 15 10 14 11 6 12
REMARK SMILES IDX 7 13 8 14 9 15 13 16 11 17 10 18 12 20 4 22 21 24 18 26
REMARK H PARENT 10 19 12 21 4 23 21 25 18 27
REMARK Flexibility Score: inf
ROOT
ATOM      1  C   UNL     1      46.441  -1.259  74.930  1.00  0.00     0.180 A 
ATOM      2  C   UNL     1      45.165  -1.846  74.988  1.00  0.00     0.208 A 
ATOM      3  C   UNL     1      45.028  -3.125  75.551  1.00  0.00     0.238 A 
ATOM      4  O   UNL     1      43.892  -3.667  75.552  1.00  0.00    -0.285 OA
ATOM      5  C   UNL     1      46.166  -3.794  76.064  1.00  0.00     0.111 A 
ATOM      6  C   UNL     1      46.137  -5.075  76.692  1.00  0.00     0.134 A 
ATOM      7  C   UNL     1      47.341  -5.699  77.044  1.00  0.00     0.093 A 
ATOM      8  C   UNL     1      48.567  -5.059  76.849  1.00  0.00     0.123 A 
ATOM      9  C   UNL     1      48.601  -3.783  76.290  1.00  0.00     0.094 A 
ATOM     10  C   UNL     1      47.419  -3.151  75.897  1.00  0.00     0.146 A 
ATOM     11  O   UNL     1      47.498  -1.939  75.359  1.00  0.00    -0.452 OA
ENDROOT
BRANCH   1  12
ATOM     12  C   UNL     1      46.661   0.095  74.373  1.00  0.00     0.025 A 
ATOM     13  C   UNL     1      45.776   0.596  73.404  1.00  0.00     0.016 A 
ATOM     14  C   UNL     1      45.976   1.863  72.851  1.00  0.00     0.051 A 
ATOM     15  C   UNL     1      47.069   2.642  73.244  1.00  0.00     0.157 A 
ATOM     16  C   UNL     1      47.771   0.872  74.752  1.00  0.00     0.062 A 
ATOM     17  C   UNL     1      47.973   2.144  74.196  1.00  0.00     0.158 A 
BRANCH  15  18
ATOM     18  O   UNL     1      47.241   3.904  72.676  1.00  0.00    -0.504 OA
ATOM     19  H   UNL     1      46.707   4.709  72.982  1.00  0.00     0.293 HD
ENDBRANCH  15  18
BRANCH  17  20
ATOM     20  O   UNL     1      49.073   2.909  74.582  1.00  0.00    -0.504 OA
ATOM     21  H   UNL     1      50.019   2.642  74.336  1.00  0.00     0.293 HD
ENDBRANCH  17  20
ENDBRANCH   1  12
BRANCH   2  22
ATOM     22  O   UNL     1      44.059  -1.177  74.457  1.00  0.00    -0.502 OA
ATOM     23  H   UNL     1      43.640  -0.372  74.909  1.00  0.00     0.293 HD
ENDBRANCH   2  22
BRANCH   6  24
ATOM     24  O   UNL     1      44.962  -5.759  77.016  1.00  0.00    -0.507 OA
ATOM     25  H   UNL     1      44.199  -5.371  77.550  1.00  0.00     0.293 HD
ENDBRANCH   6  24
BRANCH   8  26
ATOM     26  O   UNL     1      49.759  -5.680  77.216  1.00  0.00    -0.508 OA
ATOM     27  H   UNL     1      49.927  -5.984  78.168  1.00  0.00     0.293 HD
ENDBRANCH   8  26
TORSDOF 6
ENDMDL
