MODEL 1
REMARK VINA RESULT:    -4.120      0.000      0.000
REMARK INTER + INTRA:         -13.536
REMARK INTER:                 -10.382
REMARK INTRA:                  -3.154
REMARK UNBOUND:                -3.154
REMARK SMILES CCCCCCCCCCCCCCCCCCCCCCCCCCCC(=O)[O-]
REMARK SMILES IDX 15 1 16 2 17 3 18 4 19 5 20 6 21 7 22 8 23 9 24 10 25 11
REMARK SMILES IDX 26 12 27 13 28 14 29 15 30 16 14 17 13 18 12 19 11 20 10 21
REMARK SMILES IDX 9 22 8 23 7 24 6 25 5 26 4 27 3 28 2 29 1 30
REMARK H PARENT
REMARK Flexibility Score: inf
ROOT
ATOM      1  C   UNL     1       2.751   3.860   8.283  1.00  0.00     0.000 C 
ENDROOT
BRANCH   1   2
ATOM      2  C   UNL     1       4.120   3.379   7.771  1.00  0.00     0.000 C 
BRANCH   2   3
ATOM      3  C   UNL     1       4.729   2.270   8.645  1.00  0.00     0.000 C 
BRANCH   3   4
ATOM      4  C   UNL     1       6.218   2.508   8.957  1.00  0.00     0.000 C 
BRANCH   4   5
ATOM      5  C   UNL     1       6.739   3.846   8.398  1.00  0.00     0.000 C 
BRANCH   5   6
ATOM      6  C   UNL     1       7.821   3.719   7.303  1.00  0.00     0.000 C 
BRANCH   6   7
ATOM      7  C   UNL     1       7.294   3.411   5.885  1.00  0.00     0.000 C 
BRANCH   7   8
ATOM      8  C   UNL     1       7.913   2.167   5.221  1.00  0.00     0.000 C 
BRANCH   8   9
ATOM      9  C   UNL     1       8.297   1.079   6.239  1.00  0.00     0.000 C 
BRANCH   9  10
ATOM     10  C   UNL     1       7.524  -0.233   6.020  1.00  0.00     0.000 C 
BRANCH  10  11
ATOM     11  C   UNL     1       6.939  -0.795   7.329  1.00  0.00     0.000 C 
BRANCH  11  12
ATOM     12  C   UNL     1       5.432  -1.099   7.231  1.00  0.00     0.006 C 
BRANCH  12  13
ATOM     13  C   UNL     1       5.003  -2.379   7.974  1.00  0.00     0.053 C 
BRANCH  13  14
ATOM     14  C   UNL     1       3.522  -2.602   7.929  1.00  0.00     0.041 C 
ATOM     15  O   UNL     1       3.044  -3.537   7.235  1.00  0.00    -0.550 OA
ATOM     16  O   UNL     1       2.667  -1.762   8.633  1.00  0.00    -0.550 OA
ENDBRANCH  13  14
ENDBRANCH  12  13
ENDBRANCH  11  12
ENDBRANCH  10  11
ENDBRANCH   9  10
ENDBRANCH   8   9
ENDBRANCH   7   8
ENDBRANCH   6   7
ENDBRANCH   5   6
ENDBRANCH   4   5
ENDBRANCH   3   4
ENDBRANCH   2   3
ENDBRANCH   1   2
BRANCH   1  17
ATOM     17  C   UNL     1       2.879   5.033   9.270  1.00  0.00     0.000 C 
BRANCH  17  18
ATOM     18  C   UNL     1       3.811   6.142   8.749  1.00  0.00     0.000 C 
BRANCH  18  19
ATOM     19  C   UNL     1       4.666   6.767   9.873  1.00  0.00     0.000 C 
BRANCH  19  20
ATOM     20  C   UNL     1       4.989   8.260   9.662  1.00  0.00     0.000 C 
BRANCH  20  21
ATOM     21  C   UNL     1       4.157   8.964   8.577  1.00  0.00     0.000 C 
BRANCH  21  22
ATOM     22  C   UNL     1       4.956   9.899   7.646  1.00  0.00    -0.000 C 
BRANCH  22  23
ATOM     23  C   UNL     1       4.311  11.290   7.454  1.00  0.00    -0.000 C 
BRANCH  23  24
ATOM     24  C   UNL     1       4.656  11.957   6.109  1.00  0.00    -0.000 C 
BRANCH  24  25
ATOM     25  C   UNL     1       4.552  13.492   6.169  1.00  0.00    -0.000 C 
BRANCH  25  26
ATOM     26  C   UNL     1       5.197  14.075   7.437  1.00  0.00    -0.000 C 
BRANCH  26  27
ATOM     27  C   UNL     1       6.716  14.253   7.301  1.00  0.00    -0.000 C 
BRANCH  27  28
ATOM     28  C   UNL     1       7.470  13.216   8.147  1.00  0.00    -0.000 C 
BRANCH  28  29
ATOM     29  C   UNL     1       8.646  12.577   7.393  1.00  0.00    -0.003 C 
ATOM     30  C   UNL     1       8.253  11.296   6.656  1.00  0.00     0.004 C 
ENDBRANCH  28  29
ENDBRANCH  27  28
ENDBRANCH  26  27
ENDBRANCH  25  26
ENDBRANCH  24  25
ENDBRANCH  23  24
ENDBRANCH  22  23
ENDBRANCH  21  22
ENDBRANCH  20  21
ENDBRANCH  19  20
ENDBRANCH  18  19
ENDBRANCH  17  18
ENDBRANCH   1  17
TORSDOF 26
ENDMDL
MODEL 2
REMARK VINA RESULT:    -4.093      2.443      3.707
REMARK INTER + INTRA:         -13.468
REMARK INTER:                 -10.821
REMARK INTRA:                  -2.648
REMARK UNBOUND:                -3.154
REMARK SMILES CCCCCCCCCCCCCCCCCCCCCCCCCCCC(=O)[O-]
REMARK SMILES IDX 15 1 16 2 17 3 18 4 19 5 20 6 21 7 22 8 23 9 24 10 25 11
REMARK SMILES IDX 26 12 27 13 28 14 29 15 30 16 14 17 13 18 12 19 11 20 10 21
REMARK SMILES IDX 9 22 8 23 7 24 6 25 5 26 4 27 3 28 2 29 1 30
REMARK H PARENT
REMARK Flexibility Score: inf
ROOT
ATOM      1  C   UNL     1       3.012   4.154   7.846  1.00  0.00     0.000 C 
ENDROOT
BRANCH   1   2
ATOM      2  C   UNL     1       2.396   3.459   9.073  1.00  0.00     0.000 C 
BRANCH   2   3
ATOM      3  C   UNL     1       3.032   2.089   9.365  1.00  0.00     0.000 C 
BRANCH   3   4
ATOM      4  C   UNL     1       4.562   2.094   9.190  1.00  0.00     0.000 C 
BRANCH   4   5
ATOM      5  C   UNL     1       5.152   0.678   9.045  1.00  0.00     0.000 C 
BRANCH   5   6
ATOM      6  C   UNL     1       4.392  -0.249   8.070  1.00  0.00     0.000 C 
BRANCH   6   7
ATOM      7  C   UNL     1       4.606  -1.761   8.293  1.00  0.00     0.000 C 
BRANCH   7   8
ATOM      8  C   UNL     1       5.812  -2.361   7.548  1.00  0.00     0.000 C 
BRANCH   8   9
ATOM      9  C   UNL     1       6.039  -1.715   6.169  1.00  0.00     0.000 C 
BRANCH   9  10
ATOM     10  C   UNL     1       7.506  -1.309   5.943  1.00  0.00     0.000 C 
BRANCH  10  11
ATOM     11  C   UNL     1       8.075  -0.488   7.114  1.00  0.00     0.000 C 
BRANCH  11  12
ATOM     12  C   UNL     1       8.290   0.995   6.760  1.00  0.00     0.006 C 
BRANCH  12  13
ATOM     13  C   UNL     1       7.881   1.360   5.319  1.00  0.00     0.053 C 
BRANCH  13  14
ATOM     14  C   UNL     1       8.109   2.806   5.004  1.00  0.00     0.041 C 
ATOM     15  O   UNL     1       7.763   3.696   5.826  1.00  0.00    -0.550 OA
ATOM     16  O   UNL     1       8.681   3.177   3.793  1.00  0.00    -0.550 OA
ENDBRANCH  13  14
ENDBRANCH  12  13
ENDBRANCH  11  12
ENDBRANCH  10  11
ENDBRANCH   9  10
ENDBRANCH   8   9
ENDBRANCH   7   8
ENDBRANCH   6   7
ENDBRANCH   5   6
ENDBRANCH   4   5
ENDBRANCH   3   4
ENDBRANCH   2   3
ENDBRANCH   1   2
BRANCH   1  17
ATOM     17  C   UNL     1       3.693   5.484   8.214  1.00  0.00     0.000 C 
BRANCH  17  18
ATOM     18  C   UNL     1       3.505   5.852   9.697  1.00  0.00     0.000 C 
BRANCH  18  19
ATOM     19  C   UNL     1       3.865   7.326   9.986  1.00  0.00     0.000 C 
BRANCH  19  20
ATOM     20  C   UNL     1       4.265   8.133   8.734  1.00  0.00     0.000 C 
BRANCH  20  21
ATOM     21  C   UNL     1       4.099   9.657   8.856  1.00  0.00     0.000 C 
BRANCH  21  22
ATOM     22  C   UNL     1       4.783  10.479   7.744  1.00  0.00    -0.000 C 
BRANCH  22  23
ATOM     23  C   UNL     1       3.897  11.603   7.162  1.00  0.00    -0.000 C 
BRANCH  23  24
ATOM     24  C   UNL     1       4.605  12.471   6.105  1.00  0.00    -0.000 C 
BRANCH  24  25
ATOM     25  C   UNL     1       4.540  13.973   6.439  1.00  0.00    -0.000 C 
BRANCH  25  26
ATOM     26  C   UNL     1       5.461  14.355   7.609  1.00  0.00    -0.000 C 
BRANCH  26  27
ATOM     27  C   UNL     1       6.740  15.069   7.149  1.00  0.00    -0.000 C 
BRANCH  27  28
ATOM     28  C   UNL     1       7.993  14.308   7.611  1.00  0.00    -0.000 C 
BRANCH  28  29
ATOM     29  C   UNL     1       7.659  12.967   8.281  1.00  0.00    -0.003 C 
ATOM     30  C   UNL     1       8.169  11.763   7.488  1.00  0.00     0.004 C 
ENDBRANCH  28  29
ENDBRANCH  27  28
ENDBRANCH  26  27
ENDBRANCH  25  26
ENDBRANCH  24  25
ENDBRANCH  23  24
ENDBRANCH  22  23
ENDBRANCH  21  22
ENDBRANCH  20  21
ENDBRANCH  19  20
ENDBRANCH  18  19
ENDBRANCH  17  18
ENDBRANCH   1  17
TORSDOF 26
ENDMDL
MODEL 3
REMARK VINA RESULT:    -4.085      3.546     11.096
REMARK INTER + INTRA:         -13.449
REMARK INTER:                 -10.774
REMARK INTRA:                  -2.675
REMARK UNBOUND:                -3.154
REMARK SMILES CCCCCCCCCCCCCCCCCCCCCCCCCCCC(=O)[O-]
REMARK SMILES IDX 15 1 16 2 17 3 18 4 19 5 20 6 21 7 22 8 23 9 24 10 25 11
REMARK SMILES IDX 26 12 27 13 28 14 29 15 30 16 14 17 13 18 12 19 11 20 10 21
REMARK SMILES IDX 9 22 8 23 7 24 6 25 5 26 4 27 3 28 2 29 1 30
REMARK H PARENT
REMARK Flexibility Score: inf
ROOT
ATOM      1  C   UNL     1       4.318   7.991   8.860  1.00  0.00     0.000 C 
ENDROOT
BRANCH   1   2
ATOM      2  C   UNL     1       3.814   9.428   9.074  1.00  0.00     0.000 C 
BRANCH   2   3
ATOM      3  C   UNL     1       4.820  10.491   8.602  1.00  0.00     0.000 C 
BRANCH   3   4
ATOM      4  C   UNL     1       5.355  10.217   7.185  1.00  0.00     0.000 C 
BRANCH   4   5
ATOM      5  C   UNL     1       5.003  11.335   6.185  1.00  0.00     0.000 C 
BRANCH   5   6
ATOM      6  C   UNL     1       4.029  12.407   6.722  1.00  0.00     0.000 C 
BRANCH   6   7
ATOM      7  C   UNL     1       4.496  13.869   6.551  1.00  0.00     0.000 C 
BRANCH   7   8
ATOM      8  C   UNL     1       5.401  14.395   7.681  1.00  0.00     0.000 C 
BRANCH   8   9
ATOM      9  C   UNL     1       6.698  15.033   7.153  1.00  0.00     0.000 C 
BRANCH   9  10
ATOM     10  C   UNL     1       7.945  14.195   7.485  1.00  0.00     0.000 C 
BRANCH  10  11
ATOM     11  C   UNL     1       7.612  12.966   8.350  1.00  0.00     0.000 C 
BRANCH  11  12
ATOM     12  C   UNL     1       8.845  12.093   8.653  1.00  0.00     0.006 C 
BRANCH  12  13
ATOM     13  C   UNL     1       8.501  10.676   9.151  1.00  0.00     0.053 C 
BRANCH  13  14
ATOM     14  C   UNL     1       8.985   9.605   8.222  1.00  0.00     0.041 C 
ATOM     15  O   UNL     1       9.342   9.898   7.050  1.00  0.00    -0.550 OA
ATOM     16  O   UNL     1       9.020   8.280   8.639  1.00  0.00    -0.550 OA
ENDBRANCH  13  14
ENDBRANCH  12  13
ENDBRANCH  11  12
ENDBRANCH  10  11
ENDBRANCH   9  10
ENDBRANCH   8   9
ENDBRANCH   7   8
ENDBRANCH   6   7
ENDBRANCH   5   6
ENDBRANCH   4   5
ENDBRANCH   3   4
ENDBRANCH   2   3
ENDBRANCH   1   2
BRANCH   1  17
ATOM     17  C   UNL     1       3.782   7.023   9.928  1.00  0.00     0.000 C 
BRANCH  17  18
ATOM     18  C   UNL     1       3.966   5.547   9.533  1.00  0.00     0.000 C 
BRANCH  18  19
ATOM     19  C   UNL     1       3.069   5.141   8.343  1.00  0.00     0.000 C 
BRANCH  19  20
ATOM     20  C   UNL     1       3.690   4.069   7.424  1.00  0.00     0.000 C 
BRANCH  20  21
ATOM     21  C   UNL     1       5.105   3.610   7.815  1.00  0.00     0.000 C 
BRANCH  21  22
ATOM     22  C   UNL     1       6.149   3.677   6.680  1.00  0.00    -0.000 C 
BRANCH  22  23
ATOM     23  C   UNL     1       7.600   3.433   7.151  1.00  0.00    -0.000 C 
BRANCH  23  24
ATOM     24  C   UNL     1       8.348   2.362   6.335  1.00  0.00    -0.000 C 
BRANCH  24  25
ATOM     25  C   UNL     1       8.734   1.138   7.186  1.00  0.00    -0.000 C 
BRANCH  25  26
ATOM     26  C   UNL     1       8.073  -0.156   6.686  1.00  0.00    -0.000 C 
BRANCH  26  27
ATOM     27  C   UNL     1       7.625  -0.066   5.220  1.00  0.00    -0.000 C 
BRANCH  27  28
ATOM     28  C   UNL     1       7.056  -1.407   4.733  1.00  0.00    -0.000 C 
BRANCH  28  29
ATOM     29  C   UNL     1       6.545  -2.287   5.884  1.00  0.00    -0.003 C 
ATOM     30  C   UNL     1       7.194  -3.672   5.906  1.00  0.00     0.004 C 
ENDBRANCH  28  29
ENDBRANCH  27  28
ENDBRANCH  26  27
ENDBRANCH  25  26
ENDBRANCH  24  25
ENDBRANCH  23  24
ENDBRANCH  22  23
ENDBRANCH  21  22
ENDBRANCH  20  21
ENDBRANCH  19  20
ENDBRANCH  18  19
ENDBRANCH  17  18
ENDBRANCH   1  17
TORSDOF 26
ENDMDL
MODEL 4
REMARK VINA RESULT:    -4.014      2.509      3.941
REMARK INTER + INTRA:         -13.269
REMARK INTER:                  -9.962
REMARK INTRA:                  -3.308
REMARK UNBOUND:                -3.154
REMARK SMILES CCCCCCCCCCCCCCCCCCCCCCCCCCCC(=O)[O-]
REMARK SMILES IDX 15 1 16 2 17 3 18 4 19 5 20 6 21 7 22 8 23 9 24 10 25 11
REMARK SMILES IDX 26 12 27 13 28 14 29 15 30 16 14 17 13 18 12 19 11 20 10 21
REMARK SMILES IDX 9 22 8 23 7 24 6 25 5 26 4 27 3 28 2 29 1 30
REMARK H PARENT
REMARK Flexibility Score: inf
ROOT
ATOM      1  C   UNL     1       4.697   3.400   8.376  1.00  0.00     0.000 C 
ENDROOT
BRANCH   1   2
ATOM      2  C   UNL     1       3.447   2.543   8.643  1.00  0.00     0.000 C 
BRANCH   2   3
ATOM      3  C   UNL     1       3.775   1.202   9.321  1.00  0.00     0.000 C 
BRANCH   3   4
ATOM      4  C   UNL     1       3.817   0.028   8.327  1.00  0.00     0.000 C 
BRANCH   4   5
ATOM      5  C   UNL     1       5.168  -0.714   8.335  1.00  0.00     0.000 C 
BRANCH   5   6
ATOM      6  C   UNL     1       6.294  -0.028   7.531  1.00  0.00     0.000 C 
BRANCH   6   7
ATOM      7  C   UNL     1       7.720  -0.230   8.087  1.00  0.00     0.000 C 
BRANCH   7   8
ATOM      8  C   UNL     1       8.010   0.504   9.409  1.00  0.00     0.000 C 
BRANCH   8   9
ATOM      9  C   UNL     1       7.976   2.035   9.258  1.00  0.00     0.000 C 
BRANCH   9  10
ATOM     10  C   UNL     1       9.358   2.625   8.925  1.00  0.00     0.000 C 
BRANCH  10  11
ATOM     11  C   UNL     1       9.483   3.025   7.444  1.00  0.00     0.000 C 
BRANCH  11  12
ATOM     12  C   UNL     1       8.280   3.844   6.939  1.00  0.00     0.006 C 
BRANCH  12  13
ATOM     13  C   UNL     1       7.417   3.110   5.894  1.00  0.00     0.053 C 
BRANCH  13  14
ATOM     14  C   UNL     1       8.230   2.544   4.771  1.00  0.00     0.041 C 
ATOM     15  O   UNL     1       8.656   3.296   3.855  1.00  0.00    -0.550 OA
ATOM     16  O   UNL     1       8.498   1.181   4.719  1.00  0.00    -0.550 OA
ENDBRANCH  13  14
ENDBRANCH  12  13
ENDBRANCH  11  12
ENDBRANCH  10  11
ENDBRANCH   9  10
ENDBRANCH   8   9
ENDBRANCH   7   8
ENDBRANCH   6   7
ENDBRANCH   5   6
ENDBRANCH   4   5
ENDBRANCH   3   4
ENDBRANCH   2   3
ENDBRANCH   1   2
BRANCH   1  17
ATOM     17  C   UNL     1       4.338   4.833   7.949  1.00  0.00     0.000 C 
BRANCH  17  18
ATOM     18  C   UNL     1       3.433   5.544   8.970  1.00  0.00     0.000 C 
BRANCH  18  19
ATOM     19  C   UNL     1       4.104   6.793   9.581  1.00  0.00     0.000 C 
BRANCH  19  20
ATOM     20  C   UNL     1       4.143   8.012   8.635  1.00  0.00     0.000 C 
BRANCH  20  21
ATOM     21  C   UNL     1       3.878   9.370   9.305  1.00  0.00     0.000 C 
BRANCH  21  22
ATOM     22  C   UNL     1       4.889  10.481   8.951  1.00  0.00    -0.000 C 
BRANCH  22  23
ATOM     23  C   UNL     1       5.586  10.280   7.587  1.00  0.00    -0.000 C 
BRANCH  23  24
ATOM     24  C   UNL     1       4.844  10.931   6.405  1.00  0.00    -0.000 C 
BRANCH  24  25
ATOM     25  C   UNL     1       3.991  12.138   6.839  1.00  0.00    -0.000 C 
BRANCH  25  26
ATOM     26  C   UNL     1       4.631  13.479   6.448  1.00  0.00    -0.000 C 
BRANCH  26  27
ATOM     27  C   UNL     1       5.242  14.217   7.648  1.00  0.00    -0.000 C 
BRANCH  27  28
ATOM     28  C   UNL     1       6.745  14.461   7.437  1.00  0.00    -0.000 C 
BRANCH  28  29
ATOM     29  C   UNL     1       7.613  13.312   7.971  1.00  0.00    -0.003 C 
ATOM     30  C   UNL     1       7.632  13.241   9.498  1.00  0.00     0.004 C 
ENDBRANCH  28  29
ENDBRANCH  27  28
ENDBRANCH  26  27
ENDBRANCH  25  26
ENDBRANCH  24  25
ENDBRANCH  23  24
ENDBRANCH  22  23
ENDBRANCH  21  22
ENDBRANCH  20  21
ENDBRANCH  19  20
ENDBRANCH  18  19
ENDBRANCH  17  18
ENDBRANCH   1  17
TORSDOF 26
ENDMDL
MODEL 5
REMARK VINA RESULT:    -4.014      1.094      2.155
REMARK INTER + INTRA:         -13.269
REMARK INTER:                 -10.396
REMARK INTRA:                  -2.873
REMARK UNBOUND:                -3.154
REMARK SMILES CCCCCCCCCCCCCCCCCCCCCCCCCCCC(=O)[O-]
REMARK SMILES IDX 15 1 16 2 17 3 18 4 19 5 20 6 21 7 22 8 23 9 24 10 25 11
REMARK SMILES IDX 26 12 27 13 28 14 29 15 30 16 14 17 13 18 12 19 11 20 10 21
REMARK SMILES IDX 9 22 8 23 7 24 6 25 5 26 4 27 3 28 2 29 1 30
REMARK H PARENT
REMARK Flexibility Score: inf
ROOT
ATOM      1  C   UNL     1       3.405   3.348   7.232  1.00  0.00     0.000 C 
ENDROOT
BRANCH   1   2
ATOM      2  C   UNL     1       3.975   2.512   8.391  1.00  0.00     0.000 C 
BRANCH   2   3
ATOM      3  C   UNL     1       5.471   2.199   8.222  1.00  0.00     0.000 C 
BRANCH   3   4
ATOM      4  C   UNL     1       6.321   3.463   7.994  1.00  0.00     0.000 C 
BRANCH   4   5
ATOM      5  C   UNL     1       7.070   3.445   6.647  1.00  0.00     0.000 C 
BRANCH   5   6
ATOM      6  C   UNL     1       8.151   2.349   6.516  1.00  0.00     0.000 C 
BRANCH   6   7
ATOM      7  C   UNL     1       7.988   1.401   5.309  1.00  0.00     0.000 C 
BRANCH   7   8
ATOM      8  C   UNL     1       7.620  -0.050   5.671  1.00  0.00     0.000 C 
BRANCH   8   9
ATOM      9  C   UNL     1       8.052  -0.434   7.097  1.00  0.00     0.000 C 
BRANCH   9  10
ATOM     10  C   UNL     1       7.254  -1.626   7.653  1.00  0.00     0.000 C 
BRANCH  10  11
ATOM     11  C   UNL     1       6.018  -1.182   8.456  1.00  0.00     0.000 C 
BRANCH  11  12
ATOM     12  C   UNL     1       4.694  -1.459   7.721  1.00  0.00     0.006 C 
BRANCH  12  13
ATOM     13  C   UNL     1       4.189  -2.908   7.864  1.00  0.00     0.053 C 
BRANCH  13  14
ATOM     14  C   UNL     1       2.695  -3.005   7.820  1.00  0.00     0.041 C 
ATOM     15  O   UNL     1       2.136  -3.816   7.035  1.00  0.00    -0.550 OA
ATOM     16  O   UNL     1       1.917  -2.184   8.627  1.00  0.00    -0.550 OA
ENDBRANCH  13  14
ENDBRANCH  12  13
ENDBRANCH  11  12
ENDBRANCH  10  11
ENDBRANCH   9  10
ENDBRANCH   8   9
ENDBRANCH   7   8
ENDBRANCH   6   7
ENDBRANCH   5   6
ENDBRANCH   4   5
ENDBRANCH   3   4
ENDBRANCH   2   3
ENDBRANCH   1   2
BRANCH   1  17
ATOM     17  C   UNL     1       2.709   4.627   7.727  1.00  0.00     0.000 C 
BRANCH  17  18
ATOM     18  C   UNL     1       2.334   4.556   9.218  1.00  0.00     0.000 C 
BRANCH  18  19
ATOM     19  C   UNL     1       3.002   5.673  10.047  1.00  0.00     0.000 C 
BRANCH  19  20
ATOM     20  C   UNL     1       4.335   6.181   9.459  1.00  0.00     0.000 C 
BRANCH  20  21
ATOM     21  C   UNL     1       4.735   7.607   9.875  1.00  0.00     0.000 C 
BRANCH  21  22
ATOM     22  C   UNL     1       4.040   8.735   9.086  1.00  0.00    -0.000 C 
BRANCH  22  23
ATOM     23  C   UNL     1       4.653  10.133   9.322  1.00  0.00    -0.000 C 
BRANCH  23  24
ATOM     24  C   UNL     1       5.667  10.559   8.244  1.00  0.00    -0.000 C 
BRANCH  24  25
ATOM     25  C   UNL     1       5.192  10.213   6.820  1.00  0.00    -0.000 C 
BRANCH  25  26
ATOM     26  C   UNL     1       4.915  11.466   5.973  1.00  0.00    -0.000 C 
BRANCH  26  27
ATOM     27  C   UNL     1       4.121  12.535   6.738  1.00  0.00    -0.000 C 
BRANCH  27  28
ATOM     28  C   UNL     1       4.689  13.938   6.472  1.00  0.00    -0.000 C 
BRANCH  28  29
ATOM     29  C   UNL     1       5.434  14.515   7.685  1.00  0.00    -0.003 C 
ATOM     30  C   UNL     1       6.890  14.053   7.762  1.00  0.00     0.004 C 
ENDBRANCH  28  29
ENDBRANCH  27  28
ENDBRANCH  26  27
ENDBRANCH  25  26
ENDBRANCH  24  25
ENDBRANCH  23  24
ENDBRANCH  22  23
ENDBRANCH  21  22
ENDBRANCH  20  21
ENDBRANCH  19  20
ENDBRANCH  18  19
ENDBRANCH  17  18
ENDBRANCH   1  17
TORSDOF 26
ENDMDL
MODEL 6
REMARK VINA RESULT:    -3.976      1.941      3.756
REMARK INTER + INTRA:         -13.174
REMARK INTER:                 -10.247
REMARK INTRA:                  -2.927
REMARK UNBOUND:                -3.154
REMARK SMILES CCCCCCCCCCCCCCCCCCCCCCCCCCCC(=O)[O-]
REMARK SMILES IDX 15 1 16 2 17 3 18 4 19 5 20 6 21 7 22 8 23 9 24 10 25 11
REMARK SMILES IDX 26 12 27 13 28 14 29 15 30 16 14 17 13 18 12 19 11 20 10 21
REMARK SMILES IDX 9 22 8 23 7 24 6 25 5 26 4 27 3 28 2 29 1 30
REMARK H PARENT
REMARK Flexibility Score: inf
ROOT
ATOM      1  C   UNL     1       4.600   7.450   9.384  1.00  0.00     0.000 C 
ENDROOT
BRANCH   1   2
ATOM      2  C   UNL     1       3.725   6.186   9.440  1.00  0.00     0.000 C 
BRANCH   2   3
ATOM      3  C   UNL     1       3.900   5.282   8.208  1.00  0.00     0.000 C 
BRANCH   3   4
ATOM      4  C   UNL     1       2.646   4.442   7.904  1.00  0.00     0.000 C 
BRANCH   4   5
ATOM      5  C   UNL     1       2.031   3.806   9.166  1.00  0.00     0.000 C 
BRANCH   5   6
ATOM      6  C   UNL     1       2.748   2.535   9.672  1.00  0.00     0.000 C 
BRANCH   6   7
ATOM      7  C   UNL     1       3.324   1.618   8.571  1.00  0.00     0.000 C 
BRANCH   7   8
ATOM      8  C   UNL     1       4.756   1.115   8.832  1.00  0.00     0.000 C 
BRANCH   8   9
ATOM      9  C   UNL     1       5.828   2.146   8.437  1.00  0.00     0.000 C 
BRANCH   9  10
ATOM     10  C   UNL     1       7.173   1.490   8.079  1.00  0.00     0.000 C 
BRANCH  10  11
ATOM     11  C   UNL     1       7.126  -0.044   8.192  1.00  0.00     0.000 C 
BRANCH  11  12
ATOM     12  C   UNL     1       8.028  -0.751   7.163  1.00  0.00     0.006 C 
BRANCH  12  13
ATOM     13  C   UNL     1       7.542  -0.615   5.707  1.00  0.00     0.053 C 
BRANCH  13  14
ATOM     14  C   UNL     1       6.725  -1.788   5.260  1.00  0.00     0.041 C 
ATOM     15  O   UNL     1       6.233  -1.813   4.101  1.00  0.00    -0.550 OA
ATOM     16  O   UNL     1       6.484  -2.844   6.130  1.00  0.00    -0.550 OA
ENDBRANCH  13  14
ENDBRANCH  12  13
ENDBRANCH  11  12
ENDBRANCH  10  11
ENDBRANCH   9  10
ENDBRANCH   8   9
ENDBRANCH   7   8
ENDBRANCH   6   7
ENDBRANCH   5   6
ENDBRANCH   4   5
ENDBRANCH   3   4
ENDBRANCH   2   3
ENDBRANCH   1   2
BRANCH   1  17
ATOM     17  C   UNL     1       3.874   8.684   9.944  1.00  0.00     0.000 C 
BRANCH  17  18
ATOM     18  C   UNL     1       4.526  10.005   9.500  1.00  0.00     0.000 C 
BRANCH  18  19
ATOM     19  C   UNL     1       4.731  10.075   7.971  1.00  0.00     0.000 C 
BRANCH  19  20
ATOM     20  C   UNL     1       4.037  11.277   7.297  1.00  0.00     0.000 C 
BRANCH  20  21
ATOM     21  C   UNL     1       4.660  11.731   5.966  1.00  0.00     0.000 C 
BRANCH  21  22
ATOM     22  C   UNL     1       4.883  13.253   5.837  1.00  0.00    -0.000 C 
BRANCH  22  23
ATOM     23  C   UNL     1       4.572  14.043   7.127  1.00  0.00    -0.000 C 
BRANCH  23  24
ATOM     24  C   UNL     1       5.801  14.732   7.748  1.00  0.00    -0.000 C 
BRANCH  24  25
ATOM     25  C   UNL     1       6.849  13.722   8.252  1.00  0.00    -0.000 C 
BRANCH  25  26
ATOM     26  C   UNL     1       8.177  13.822   7.484  1.00  0.00    -0.000 C 
BRANCH  26  27
ATOM     27  C   UNL     1       9.011  12.536   7.572  1.00  0.00    -0.000 C 
BRANCH  27  28
ATOM     28  C   UNL     1       8.288  11.362   6.893  1.00  0.00    -0.000 C 
BRANCH  28  29
ATOM     29  C   UNL     1       8.188  10.124   7.798  1.00  0.00    -0.003 C 
ATOM     30  C   UNL     1       8.427  10.446   9.273  1.00  0.00     0.004 C 
ENDBRANCH  28  29
ENDBRANCH  27  28
ENDBRANCH  26  27
ENDBRANCH  25  26
ENDBRANCH  24  25
ENDBRANCH  23  24
ENDBRANCH  22  23
ENDBRANCH  21  22
ENDBRANCH  20  21
ENDBRANCH  19  20
ENDBRANCH  18  19
ENDBRANCH  17  18
ENDBRANCH   1  17
TORSDOF 26
ENDMDL
MODEL 7
REMARK VINA RESULT:    -3.923      1.579      2.753
REMARK INTER + INTRA:         -13.041
REMARK INTER:                 -10.357
REMARK INTRA:                  -2.684
REMARK UNBOUND:                -3.154
REMARK SMILES CCCCCCCCCCCCCCCCCCCCCCCCCCCC(=O)[O-]
REMARK SMILES IDX 15 1 16 2 17 3 18 4 19 5 20 6 21 7 22 8 23 9 24 10 25 11
REMARK SMILES IDX 26 12 27 13 28 14 29 15 30 16 14 17 13 18 12 19 11 20 10 21
REMARK SMILES IDX 9 22 8 23 7 24 6 25 5 26 4 27 3 28 2 29 1 30
REMARK H PARENT
REMARK Flexibility Score: inf
ROOT
ATOM      1  C   UNL     1       4.441   6.490   8.976  1.00  0.00     0.000 C 
ENDROOT
BRANCH   1   2
ATOM      2  C   UNL     1       3.375   5.501   8.473  1.00  0.00     0.000 C 
BRANCH   2   3
ATOM      3  C   UNL     1       3.980   4.297   7.731  1.00  0.00     0.000 C 
BRANCH   3   4
ATOM      4  C   UNL     1       4.906   3.452   8.625  1.00  0.00     0.000 C 
BRANCH   4   5
ATOM      5  C   UNL     1       6.144   2.925   7.874  1.00  0.00     0.000 C 
BRANCH   5   6
ATOM      6  C   UNL     1       6.485   3.678   6.568  1.00  0.00     0.000 C 
BRANCH   6   7
ATOM      7  C   UNL     1       7.671   3.104   5.765  1.00  0.00     0.000 C 
BRANCH   7   8
ATOM      8  C   UNL     1       8.053   1.655   6.119  1.00  0.00     0.000 C 
BRANCH   8   9
ATOM      9  C   UNL     1       8.040   0.722   4.895  1.00  0.00     0.000 C 
BRANCH   9  10
ATOM     10  C   UNL     1       7.401  -0.643   5.201  1.00  0.00     0.000 C 
BRANCH  10  11
ATOM     11  C   UNL     1       7.083  -0.820   6.696  1.00  0.00     0.000 C 
BRANCH  11  12
ATOM     12  C   UNL     1       5.813  -1.656   6.945  1.00  0.00     0.006 C 
BRANCH  12  13
ATOM     13  C   UNL     1       6.069  -2.972   7.705  1.00  0.00     0.053 C 
BRANCH  13  14
ATOM     14  C   UNL     1       6.899  -3.940   6.918  1.00  0.00     0.041 C 
ATOM     15  O   UNL     1       8.011  -4.328   7.363  1.00  0.00    -0.550 OA
ATOM     16  O   UNL     1       6.458  -4.395   5.682  1.00  0.00    -0.550 OA
ENDBRANCH  13  14
ENDBRANCH  12  13
ENDBRANCH  11  12
ENDBRANCH  10  11
ENDBRANCH   9  10
ENDBRANCH   8   9
ENDBRANCH   7   8
ENDBRANCH   6   7
ENDBRANCH   5   6
ENDBRANCH   4   5
ENDBRANCH   3   4
ENDBRANCH   2   3
ENDBRANCH   1   2
BRANCH   1  17
ATOM     17  C   UNL     1       3.818   7.785   9.525  1.00  0.00     0.000 C 
BRANCH  17  18
ATOM     18  C   UNL     1       4.743   9.003   9.355  1.00  0.00     0.000 C 
BRANCH  18  19
ATOM     19  C   UNL     1       4.852   9.458   7.884  1.00  0.00     0.000 C 
BRANCH  19  20
ATOM     20  C   UNL     1       4.493  10.941   7.656  1.00  0.00     0.000 C 
BRANCH  20  21
ATOM     21  C   UNL     1       4.538  11.409   6.192  1.00  0.00     0.000 C 
BRANCH  21  22
ATOM     22  C   UNL     1       4.715  12.930   5.998  1.00  0.00    -0.000 C 
BRANCH  22  23
ATOM     23  C   UNL     1       4.997  13.699   7.308  1.00  0.00    -0.000 C 
BRANCH  23  24
ATOM     24  C   UNL     1       6.100  14.765   7.180  1.00  0.00    -0.000 C 
BRANCH  24  25
ATOM     25  C   UNL     1       7.192  14.614   8.256  1.00  0.00    -0.000 C 
BRANCH  25  26
ATOM     26  C   UNL     1       8.298  13.632   7.837  1.00  0.00    -0.000 C 
BRANCH  26  27
ATOM     27  C   UNL     1       8.409  12.426   8.781  1.00  0.00    -0.000 C 
BRANCH  27  28
ATOM     28  C   UNL     1       8.128  11.113   8.034  1.00  0.00    -0.000 C 
BRANCH  28  29
ATOM     29  C   UNL     1       8.410  11.215   6.527  1.00  0.00    -0.003 C 
ATOM     30  C   UNL     1       9.627  10.397   6.094  1.00  0.00     0.004 C 
ENDBRANCH  28  29
ENDBRANCH  27  28
ENDBRANCH  26  27
ENDBRANCH  25  26
ENDBRANCH  24  25
ENDBRANCH  23  24
ENDBRANCH  22  23
ENDBRANCH  21  22
ENDBRANCH  20  21
ENDBRANCH  19  20
ENDBRANCH  18  19
ENDBRANCH  17  18
ENDBRANCH   1  17
TORSDOF 26
ENDMDL
MODEL 8
REMARK VINA RESULT:    -3.877     13.368     15.253
REMARK INTER + INTRA:         -12.924
REMARK INTER:                  -8.690
REMARK INTRA:                  -4.234
REMARK UNBOUND:                -3.154
REMARK SMILES CCCCCCCCCCCCCCCCCCCCCCCCCCCC(=O)[O-]
REMARK SMILES IDX 15 1 16 2 17 3 18 4 19 5 20 6 21 7 22 8 23 9 24 10 25 11
REMARK SMILES IDX 26 12 27 13 28 14 29 15 30 16 14 17 13 18 12 19 11 20 10 21
REMARK SMILES IDX 9 22 8 23 7 24 6 25 5 26 4 27 3 28 2 29 1 30
REMARK H PARENT
REMARK Flexibility Score: inf
ROOT
ATOM      1  C   UNL     1       3.682   7.288  -8.931  1.00  0.00     0.000 C 
ENDROOT
BRANCH   1   2
ATOM      2  C   UNL     1       4.675   6.113  -8.897  1.00  0.00     0.000 C 
BRANCH   2   3
ATOM      3  C   UNL     1       5.817   6.266  -9.914  1.00  0.00     0.000 C 
BRANCH   3   4
ATOM      4  C   UNL     1       7.203   6.335  -9.248  1.00  0.00     0.000 C 
BRANCH   4   5
ATOM      5  C   UNL     1       7.194   5.821  -7.795  1.00  0.00     0.000 C 
BRANCH   5   6
ATOM      6  C   UNL     1       8.580   5.441  -7.229  1.00  0.00     0.000 C 
BRANCH   6   7
ATOM      7  C   UNL     1       8.754   3.956  -6.846  1.00  0.00     0.000 C 
BRANCH   7   8
ATOM      8  C   UNL     1       9.505   3.104  -7.887  1.00  0.00     0.000 C 
BRANCH   8   9
ATOM      9  C   UNL     1       8.609   2.680  -9.064  1.00  0.00     0.000 C 
BRANCH   9  10
ATOM     10  C   UNL     1       7.333   1.955  -8.603  1.00  0.00     0.000 C 
BRANCH  10  11
ATOM     11  C   UNL     1       6.055   2.606  -9.160  1.00  0.00     0.000 C 
BRANCH  11  12
ATOM     12  C   UNL     1       4.769   2.040  -8.530  1.00  0.00     0.006 C 
BRANCH  12  13
ATOM     13  C   UNL     1       4.996   0.788  -7.660  1.00  0.00     0.053 C 
BRANCH  13  14
ATOM     14  C   UNL     1       4.671   1.022  -6.217  1.00  0.00     0.041 C 
ATOM     15  O   UNL     1       3.632   0.519  -5.712  1.00  0.00    -0.550 OA
ATOM     16  O   UNL     1       5.498   1.817  -5.433  1.00  0.00    -0.550 OA
ENDBRANCH  13  14
ENDBRANCH  12  13
ENDBRANCH  11  12
ENDBRANCH  10  11
ENDBRANCH   9  10
ENDBRANCH   8   9
ENDBRANCH   7   8
ENDBRANCH   6   7
ENDBRANCH   5   6
ENDBRANCH   4   5
ENDBRANCH   3   4
ENDBRANCH   2   3
ENDBRANCH   1   2
BRANCH   1  17
ATOM     17  C   UNL     1       4.011   8.357  -7.874  1.00  0.00     0.000 C 
BRANCH  17  18
ATOM     18  C   UNL     1       4.475   9.684  -8.502  1.00  0.00     0.000 C 
BRANCH  18  19
ATOM     19  C   UNL     1       6.000   9.889  -8.383  1.00  0.00     0.000 C 
BRANCH  19  20
ATOM     20  C   UNL     1       6.603   9.373  -7.059  1.00  0.00     0.000 C 
BRANCH  20  21
ATOM     21  C   UNL     1       8.140   9.332  -7.011  1.00  0.00     0.000 C 
BRANCH  21  22
ATOM     22  C   UNL     1       8.736   8.751  -5.712  1.00  0.00    -0.000 C 
BRANCH  22  23
ATOM     23  C   UNL     1       8.224   9.438  -4.427  1.00  0.00    -0.000 C 
BRANCH  23  24
ATOM     24  C   UNL     1       9.300  10.249  -3.682  1.00  0.00    -0.000 C 
BRANCH  24  25
ATOM     25  C   UNL     1       8.959  11.749  -3.606  1.00  0.00    -0.000 C 
BRANCH  25  26
ATOM     26  C   UNL     1       8.995  12.430  -4.984  1.00  0.00    -0.000 C 
BRANCH  26  27
ATOM     27  C   UNL     1       7.825  13.402  -5.196  1.00  0.00    -0.000 C 
BRANCH  27  28
ATOM     28  C   UNL     1       6.729  12.764  -6.065  1.00  0.00    -0.000 C 
BRANCH  28  29
ATOM     29  C   UNL     1       5.518  13.688  -6.265  1.00  0.00    -0.003 C 
ATOM     30  C   UNL     1       5.347  14.697  -5.130  1.00  0.00     0.004 C 
ENDBRANCH  28  29
ENDBRANCH  27  28
ENDBRANCH  26  27
ENDBRANCH  25  26
ENDBRANCH  24  25
ENDBRANCH  23  24
ENDBRANCH  22  23
ENDBRANCH  21  22
ENDBRANCH  20  21
ENDBRANCH  19  20
ENDBRANCH  18  19
ENDBRANCH  17  18
ENDBRANCH   1  17
TORSDOF 26
ENDMDL
MODEL 9
REMARK VINA RESULT:    -3.874     14.286     18.205
REMARK INTER + INTRA:         -12.917
REMARK INTER:                  -9.544
REMARK INTRA:                  -3.373
REMARK UNBOUND:                -3.154
REMARK SMILES CCCCCCCCCCCCCCCCCCCCCCCCCCCC(=O)[O-]
REMARK SMILES IDX 15 1 16 2 17 3 18 4 19 5 20 6 21 7 22 8 23 9 24 10 25 11
REMARK SMILES IDX 26 12 27 13 28 14 29 15 30 16 14 17 13 18 12 19 11 20 10 21
REMARK SMILES IDX 9 22 8 23 7 24 6 25 5 26 4 27 3 28 2 29 1 30
REMARK H PARENT
REMARK Flexibility Score: inf
ROOT
ATOM      1  C   UNL     1       1.987   7.225  -9.004  1.00  0.00     0.000 C 
ENDROOT
BRANCH   1   2
ATOM      2  C   UNL     1       2.916   8.430  -9.233  1.00  0.00     0.000 C 
BRANCH   2   3
ATOM      3  C   UNL     1       3.913   8.643  -8.082  1.00  0.00     0.000 C 
BRANCH   3   4
ATOM      4  C   UNL     1       4.603  10.018  -8.139  1.00  0.00     0.000 C 
BRANCH   4   5
ATOM      5  C   UNL     1       6.008  10.009  -7.507  1.00  0.00     0.000 C 
BRANCH   5   6
ATOM      6  C   UNL     1       6.357   8.733  -6.710  1.00  0.00     0.000 C 
BRANCH   6   7
ATOM      7  C   UNL     1       7.802   8.664  -6.172  1.00  0.00     0.000 C 
BRANCH   7   8
ATOM      8  C   UNL     1       7.939   8.882  -4.654  1.00  0.00     0.000 C 
BRANCH   8   9
ATOM      9  C   UNL     1       8.656  10.197  -4.305  1.00  0.00     0.000 C 
BRANCH   9  10
ATOM     10  C   UNL     1       9.310  10.855  -5.532  1.00  0.00     0.000 C 
BRANCH  10  11
ATOM     11  C   UNL     1       9.030  12.367  -5.606  1.00  0.00     0.000 C 
BRANCH  11  12
ATOM     12  C   UNL     1       7.553  12.717  -5.348  1.00  0.00     0.006 C 
BRANCH  12  13
ATOM     13  C   UNL     1       7.178  14.165  -5.719  1.00  0.00     0.053 C 
BRANCH  13  14
ATOM     14  C   UNL     1       5.878  14.597  -5.115  1.00  0.00     0.041 C 
ATOM     15  O   UNL     1       4.870  14.783  -5.847  1.00  0.00    -0.550 OA
ATOM     16  O   UNL     1       5.782  14.820  -3.747  1.00  0.00    -0.550 OA
ENDBRANCH  13  14
ENDBRANCH  12  13
ENDBRANCH  11  12
ENDBRANCH  10  11
ENDBRANCH   9  10
ENDBRANCH   8   9
ENDBRANCH   7   8
ENDBRANCH   6   7
ENDBRANCH   5   6
ENDBRANCH   4   5
ENDBRANCH   3   4
ENDBRANCH   2   3
ENDBRANCH   1   2
BRANCH   1  17
ATOM     17  C   UNL     1       2.236   6.099 -10.022  1.00  0.00     0.000 C 
BRANCH  17  18
ATOM     18  C   UNL     1       2.162   4.700  -9.384  1.00  0.00     0.000 C 
BRANCH  18  19
ATOM     19  C   UNL     1       3.558   4.072  -9.179  1.00  0.00     0.000 C 
BRANCH  19  20
ATOM     20  C   UNL     1       4.726   4.975  -9.628  1.00  0.00     0.000 C 
BRANCH  20  21
ATOM     21  C   UNL     1       5.545   5.602  -8.488  1.00  0.00     0.000 C 
BRANCH  21  22
ATOM     22  C   UNL     1       7.071   5.626  -8.718  1.00  0.00    -0.000 C 
BRANCH  22  23
ATOM     23  C   UNL     1       7.893   5.112  -7.515  1.00  0.00    -0.000 C 
BRANCH  23  24
ATOM     24  C   UNL     1       8.234   3.612  -7.588  1.00  0.00    -0.000 C 
BRANCH  24  25
ATOM     25  C   UNL     1       7.885   2.995  -8.956  1.00  0.00    -0.000 C 
BRANCH  25  26
ATOM     26  C   UNL     1       6.858   1.858  -8.842  1.00  0.00    -0.000 C 
BRANCH  26  27
ATOM     27  C   UNL     1       5.954   1.996  -7.608  1.00  0.00    -0.000 C 
BRANCH  27  28
ATOM     28  C   UNL     1       5.305   0.651  -7.246  1.00  0.00    -0.000 C 
BRANCH  28  29
ATOM     29  C   UNL     1       4.498   0.714  -5.941  1.00  0.00    -0.003 C 
ATOM     30  C   UNL     1       4.442  -0.630  -5.212  1.00  0.00     0.004 C 
ENDBRANCH  28  29
ENDBRANCH  27  28
ENDBRANCH  26  27
ENDBRANCH  25  26
ENDBRANCH  24  25
ENDBRANCH  23  24
ENDBRANCH  22  23
ENDBRANCH  21  22
ENDBRANCH  20  21
ENDBRANCH  19  20
ENDBRANCH  18  19
ENDBRANCH  17  18
ENDBRANCH   1  17
TORSDOF 26
ENDMDL
