MODEL 1
REMARK VINA RESULT:    93.595      0.000      0.000
REMARK INTER + INTRA:         155.887
REMARK INTER:                 153.783
REMARK INTRA:                   2.104
REMARK UNBOUND:                 2.104
REMARK SMILES C[C@H]1O[C@H](OC[C@@H]2O[C@@H](Oc3c(-c4ccc(O)c(O)c4)oc4cc(O)cc(O)c4c3=O)[C@@H](O)[C@@H](O)[C@@H]2O)[C@H](O)[C@H](O)[C@@H]1O
REMARK SMILES IDX 7 1 36 2 34 3 32 4 9 5 8 6 6 7 5 8 4 9 1 10 2 11 42 12 3 13
REMARK SMILES IDX 40 14 38 15 43 16 41 18 39 20 37 22 35 24 10 26 11 27 12 28
REMARK SMILES IDX 30 29 21 30 29 31 31 32 22 33 27 34 23 35 26 36 24 37 13 38
REMARK SMILES IDX 20 39 14 40 18 41 15 42 16 43 19 44 17 46 28 48 25 50 33 52
REMARK H PARENT 43 17 41 19 39 21 37 23 35 25 19 45 17 47 28 49 25 51 33 53
REMARK Flexibility Score: inf
ROOT
ATOM      1  C   UNL     1      -6.009   2.824   3.110  1.00  0.00     0.180 C 
ATOM      2  C   UNL     1      -6.655   2.107   4.319  1.00  0.00     0.177 C 
ATOM      3  C   UNL     1      -5.793   0.895   4.716  1.00  0.00     0.180 C 
ATOM      4  C   UNL     1      -5.528   0.023   3.471  1.00  0.00     0.214 C 
ATOM      5  C   UNL     1      -5.007   0.867   2.284  1.00  0.00     0.339 C 
ATOM      6  O   UNL     1      -5.891   1.941   2.004  1.00  0.00    -0.332 OA
ENDROOT
BRANCH   1   7
ATOM      7  C   UNL     1      -6.830   4.049   2.678  1.00  0.00     0.198 C 
BRANCH   7   8
ATOM      8  O   UNL     1      -6.004   4.978   2.001  1.00  0.00    -0.347 OA
BRANCH   8   9
ATOM      9  C   UNL     1      -6.484   5.272   0.693  1.00  0.00     0.281 C 
ATOM     10  C   UNL     1      -6.206   8.942   0.778  1.00  0.00     0.041 C 
ATOM     11  C   UNL     1      -5.712   7.493   0.790  1.00  0.00     0.150 C 
ATOM     12  C   UNL     1      -4.647   7.272  -0.313  1.00  0.00     0.174 C 
ATOM     13  O   UNL     1      -6.829   6.645   0.586  1.00  0.00    -0.344 OA
ATOM     14  C   UNL     1      -4.214   5.792  -0.385  1.00  0.00     0.179 C 
ATOM     15  C   UNL     1      -5.449   4.869  -0.386  1.00  0.00     0.202 C 
BRANCH  12  16
ATOM     16  O   UNL     1      -3.530   8.113  -0.150  1.00  0.00    -0.388 OA
ATOM     17  H   UNL     1      -2.930   7.976  -0.929  1.00  0.00     0.211 HD
ENDBRANCH  12  16
BRANCH  14  18
ATOM     18  O   UNL     1      -3.301   5.443   0.630  1.00  0.00    -0.387 OA
ATOM     19  H   UNL     1      -3.792   4.971   1.346  1.00  0.00     0.211 HD
ENDBRANCH  14  18
BRANCH  15  20
ATOM     20  O   UNL     1      -5.047   3.535  -0.208  1.00  0.00    -0.385 OA
ATOM     21  H   UNL     1      -4.069   3.505  -0.377  1.00  0.00     0.211 HD
ENDBRANCH  15  20
ENDBRANCH   8   9
ENDBRANCH   7   8
ENDBRANCH   1   7
BRANCH   2  22
ATOM     22  O   UNL     1      -7.951   1.665   3.993  1.00  0.00    -0.387 OA
ATOM     23  H   UNL     1      -8.490   1.699   4.826  1.00  0.00     0.211 HD
ENDBRANCH   2  22
BRANCH   3  24
ATOM     24  O   UNL     1      -4.578   1.331   5.273  1.00  0.00    -0.387 OA
ATOM     25  H   UNL     1      -4.796   2.074   5.894  1.00  0.00     0.211 HD
ENDBRANCH   3  24
BRANCH   5  26
ATOM     26  O   UNL     1      -3.682   1.366   2.519  1.00  0.00    -0.454 OA
BRANCH  26  27
ATOM     27  C   UNL     1      -2.515   0.590   2.437  1.00  0.00     0.214 A 
ATOM     28  C   UNL     1      -2.473  -0.677   1.807  1.00  0.00     0.180 A 
ATOM     29  C   UNL     1      -1.338   1.096   3.002  1.00  0.00     0.239 A 
ATOM     30  O   UNL     1      -1.361  -1.404   1.867  1.00  0.00    -0.452 OA
ATOM     31  C   UNL     1      -0.175   0.302   3.030  1.00  0.00     0.111 A 
ATOM     32  O   UNL     1      -1.345   2.256   3.499  1.00  0.00    -0.285 OA
ATOM     33  C   UNL     1      -0.244  -0.985   2.450  1.00  0.00     0.146 A 
ATOM     34  C   UNL     1       1.039   0.727   3.621  1.00  0.00     0.134 A 
ATOM     35  C   UNL     1       0.869  -1.830   2.473  1.00  0.00     0.094 A 
ATOM     36  C   UNL     1       2.146  -0.134   3.634  1.00  0.00     0.093 A 
ATOM     37  C   UNL     1       2.062  -1.410   3.066  1.00  0.00     0.123 A 
BRANCH  28  38
ATOM     38  C   UNL     1      -3.612  -1.239   1.046  1.00  0.00     0.025 A 
ATOM     39  C   UNL     1      -4.456  -0.378   0.326  1.00  0.00     0.062 A 
ATOM     40  C   UNL     1      -3.896  -2.615   1.067  1.00  0.00     0.016 A 
ATOM     41  C   UNL     1      -5.543  -0.885  -0.399  1.00  0.00     0.158 A 
ATOM     42  C   UNL     1      -4.977  -3.123   0.340  1.00  0.00     0.051 A 
ATOM     43  C   UNL     1      -5.801  -2.266  -0.394  1.00  0.00     0.157 A 
BRANCH  41  44
ATOM     44  O   UNL     1      -6.365  -0.024  -1.122  1.00  0.00    -0.504 OA
ATOM     45  H   UNL     1      -6.173   0.205  -2.092  1.00  0.00     0.293 HD
ENDBRANCH  41  44
BRANCH  43  46
ATOM     46  O   UNL     1      -6.870  -2.802  -1.109  1.00  0.00    -0.504 OA
ATOM     47  H   UNL     1      -7.801  -2.871  -0.715  1.00  0.00     0.293 HD
ENDBRANCH  43  46
ENDBRANCH  28  38
BRANCH  34  48
ATOM     48  O   UNL     1       1.152   1.994   4.196  1.00  0.00    -0.507 OA
ATOM     49  H   UNL     1       0.531   2.300   4.936  1.00  0.00     0.293 HD
ENDBRANCH  34  48
BRANCH  37  50
ATOM     50  O   UNL     1       3.159  -2.268   3.085  1.00  0.00    -0.508 OA
ATOM     51  H   UNL     1       4.108  -1.915   3.055  1.00  0.00     0.293 HD
ENDBRANCH  37  50
ENDBRANCH  26  27
ENDBRANCH   5  26
BRANCH   4  52
ATOM     52  O   UNL     1      -4.682  -1.062   3.754  1.00  0.00    -0.384 OA
ATOM     53  H   UNL     1      -5.184  -1.898   3.584  1.00  0.00     0.211 HD
ENDBRANCH   4  52
TORSDOF 16
ENDMDL
MODEL 2
REMARK VINA RESULT:    94.687      1.817      5.315
REMARK INTER + INTRA:         157.681
REMARK INTER:                 152.408
REMARK INTRA:                   5.273
REMARK UNBOUND:                 2.104
REMARK SMILES C[C@H]1O[C@H](OC[C@@H]2O[C@@H](Oc3c(-c4ccc(O)c(O)c4)oc4cc(O)cc(O)c4c3=O)[C@@H](O)[C@@H](O)[C@@H]2O)[C@H](O)[C@H](O)[C@@H]1O
REMARK SMILES IDX 7 1 36 2 34 3 32 4 9 5 8 6 6 7 5 8 4 9 1 10 2 11 42 12 3 13
REMARK SMILES IDX 40 14 38 15 43 16 41 18 39 20 37 22 35 24 10 26 11 27 12 28
REMARK SMILES IDX 30 29 21 30 29 31 31 32 22 33 27 34 23 35 26 36 24 37 13 38
REMARK SMILES IDX 20 39 14 40 18 41 15 42 16 43 19 44 17 46 28 48 25 50 33 52
REMARK H PARENT 43 17 41 19 39 21 37 23 35 25 19 45 17 47 28 49 25 51 33 53
REMARK Flexibility Score: inf
ROOT
ATOM      1  C   UNL     1      -4.508   0.915   0.997  1.00  0.00     0.180 C 
ATOM      2  C   UNL     1      -5.733   0.358   0.231  1.00  0.00     0.177 C 
ATOM      3  C   UNL     1      -5.742  -1.178   0.329  1.00  0.00     0.180 C 
ATOM      4  C   UNL     1      -4.365  -1.729  -0.098  1.00  0.00     0.214 C 
ATOM      5  C   UNL     1      -3.210  -1.008   0.637  1.00  0.00     0.339 C 
ATOM      6  O   UNL     1      -3.300   0.397   0.460  1.00  0.00    -0.332 OA
ENDROOT
BRANCH   1   7
ATOM      7  C   UNL     1      -4.457   2.449   0.934  1.00  0.00     0.198 C 
BRANCH   7   8
ATOM      8  O   UNL     1      -5.274   3.007   1.947  1.00  0.00    -0.347 OA
BRANCH   8   9
ATOM      9  C   UNL     1      -6.625   3.165   1.522  1.00  0.00     0.281 C 
ATOM     10  C   UNL     1      -7.740   5.627   4.022  1.00  0.00     0.041 C 
ATOM     11  C   UNL     1      -6.929   5.091   2.840  1.00  0.00     0.150 C 
ATOM     12  C   UNL     1      -7.076   6.024   1.611  1.00  0.00     0.174 C 
ATOM     13  O   UNL     1      -7.396   3.787   2.539  1.00  0.00    -0.344 OA
ATOM     14  C   UNL     1      -6.350   5.444   0.378  1.00  0.00     0.179 C 
ATOM     15  C   UNL     1      -6.705   3.955   0.194  1.00  0.00     0.202 C 
BRANCH  12  16
ATOM     16  O   UNL     1      -6.636   7.333   1.882  1.00  0.00    -0.388 OA
ATOM     17  H   UNL     1      -6.981   7.591   2.777  1.00  0.00     0.211 HD
ENDBRANCH  12  16
BRANCH  14  18
ATOM     18  O   UNL     1      -4.957   5.648   0.423  1.00  0.00    -0.387 OA
ATOM     19  H   UNL     1      -4.658   5.975  -0.461  1.00  0.00     0.211 HD
ENDBRANCH  14  18
BRANCH  15  20
ATOM     20  O   UNL     1      -5.864   3.381  -0.772  1.00  0.00    -0.385 OA
ATOM     21  H   UNL     1      -6.443   3.102  -1.529  1.00  0.00     0.211 HD
ENDBRANCH  15  20
ENDBRANCH   8   9
ENDBRANCH   7   8
ENDBRANCH   1   7
BRANCH   2  22
ATOM     22  O   UNL     1      -5.678   0.733  -1.124  1.00  0.00    -0.387 OA
ATOM     23  H   UNL     1      -6.417   0.262  -1.588  1.00  0.00     0.211 HD
ENDBRANCH   2  22
BRANCH   3  24
ATOM     24  O   UNL     1      -6.037  -1.575   1.646  1.00  0.00    -0.387 OA
ATOM     25  H   UNL     1      -7.026  -1.640   1.711  1.00  0.00     0.211 HD
ENDBRANCH   3  24
BRANCH   5  26
ATOM     26  O   UNL     1      -3.178  -1.330   2.035  1.00  0.00    -0.454 OA
BRANCH  26  27
ATOM     27  C   UNL     1      -3.193  -0.382   3.069  1.00  0.00     0.214 A 
ATOM     28  C   UNL     1      -2.017   0.090   3.701  1.00  0.00     0.180 A 
ATOM     29  C   UNL     1      -4.429   0.123   3.492  1.00  0.00     0.239 A 
ATOM     30  O   UNL     1      -2.116   0.904   4.749  1.00  0.00    -0.452 OA
ATOM     31  C   UNL     1      -4.490   0.997   4.596  1.00  0.00     0.111 A 
ATOM     32  O   UNL     1      -5.477  -0.233   2.887  1.00  0.00    -0.285 OA
ATOM     33  C   UNL     1      -3.273   1.353   5.220  1.00  0.00     0.146 A 
ATOM     34  C   UNL     1      -5.705   1.513   5.108  1.00  0.00     0.134 A 
ATOM     35  C   UNL     1      -3.273   2.193   6.337  1.00  0.00     0.094 A 
ATOM     36  C   UNL     1      -5.685   2.356   6.229  1.00  0.00     0.093 A 
ATOM     37  C   UNL     1      -4.474   2.693   6.845  1.00  0.00     0.123 A 
BRANCH  28  38
ATOM     38  C   UNL     1      -0.655  -0.255   3.235  1.00  0.00     0.025 A 
ATOM     39  C   UNL     1      -0.278   0.047   1.916  1.00  0.00     0.062 A 
ATOM     40  C   UNL     1       0.255  -0.923   4.071  1.00  0.00     0.016 A 
ATOM     41  C   UNL     1       1.004  -0.274   1.450  1.00  0.00     0.158 A 
ATOM     42  C   UNL     1       1.536  -1.238   3.609  1.00  0.00     0.051 A 
ATOM     43  C   UNL     1       1.916  -0.916   2.304  1.00  0.00     0.157 A 
BRANCH  41  44
ATOM     44  O   UNL     1       1.374   0.043   0.145  1.00  0.00    -0.504 OA
ATOM     45  H   UNL     1       0.694   0.074  -0.608  1.00  0.00     0.293 HD
ENDBRANCH  41  44
BRANCH  43  46
ATOM     46  O   UNL     1       3.201  -1.243   1.872  1.00  0.00    -0.504 OA
ATOM     47  H   UNL     1       3.366  -1.749   1.010  1.00  0.00     0.293 HD
ENDBRANCH  43  46
ENDBRANCH  28  38
BRANCH  34  48
ATOM     48  O   UNL     1      -6.927   1.194   4.514  1.00  0.00    -0.507 OA
ATOM     49  H   UNL     1      -7.410   1.844   3.905  1.00  0.00     0.293 HD
ENDBRANCH  34  48
BRANCH  37  50
ATOM     50  O   UNL     1      -4.454   3.524   7.962  1.00  0.00    -0.508 OA
ATOM     51  H   UNL     1      -3.596   3.717   8.464  1.00  0.00     0.293 HD
ENDBRANCH  37  50
ENDBRANCH  26  27
ENDBRANCH   5  26
BRANCH   4  52
ATOM     52  O   UNL     1      -4.285  -3.124   0.042  1.00  0.00    -0.384 OA
ATOM     53  H   UNL     1      -5.092  -3.434   0.524  1.00  0.00     0.211 HD
ENDBRANCH   4  52
TORSDOF 16
ENDMDL
MODEL 3
REMARK VINA RESULT:    96.296      1.782      5.753
REMARK INTER + INTRA:         160.324
REMARK INTER:                 161.342
REMARK INTRA:                  -1.018
REMARK UNBOUND:                 2.104
REMARK SMILES C[C@H]1O[C@H](OC[C@@H]2O[C@@H](Oc3c(-c4ccc(O)c(O)c4)oc4cc(O)cc(O)c4c3=O)[C@@H](O)[C@@H](O)[C@@H]2O)[C@H](O)[C@H](O)[C@@H]1O
REMARK SMILES IDX 7 1 36 2 34 3 32 4 9 5 8 6 6 7 5 8 4 9 1 10 2 11 42 12 3 13
REMARK SMILES IDX 40 14 38 15 43 16 41 18 39 20 37 22 35 24 10 26 11 27 12 28
REMARK SMILES IDX 30 29 21 30 29 31 31 32 22 33 27 34 23 35 26 36 24 37 13 38
REMARK SMILES IDX 20 39 14 40 18 41 15 42 16 43 19 44 17 46 28 48 25 50 33 52
REMARK H PARENT 43 17 41 19 39 21 37 23 35 25 19 45 17 47 28 49 25 51 33 53
REMARK Flexibility Score: inf
ROOT
ATOM      1  C   UNL     1      -4.746   0.294   3.376  1.00  0.00     0.180 C 
ATOM      2  C   UNL     1      -4.595  -1.075   4.081  1.00  0.00     0.177 C 
ATOM      3  C   UNL     1      -3.992  -2.094   3.097  1.00  0.00     0.180 C 
ATOM      4  C   UNL     1      -4.810  -2.090   1.789  1.00  0.00     0.214 C 
ATOM      5  C   UNL     1      -5.008  -0.656   1.244  1.00  0.00     0.339 C 
ATOM      6  O   UNL     1      -5.583   0.183   2.234  1.00  0.00    -0.332 OA
ENDROOT
BRANCH   1   7
ATOM      7  C   UNL     1      -5.339   1.350   4.321  1.00  0.00     0.198 C 
BRANCH   7   8
ATOM      8  O   UNL     1      -5.892   2.419   3.575  1.00  0.00    -0.347 OA
BRANCH   8   9
ATOM      9  C   UNL     1      -6.696   3.276   4.379  1.00  0.00     0.281 C 
ATOM     10  C   UNL     1      -5.008   6.476   3.693  1.00  0.00     0.041 C 
ATOM     11  C   UNL     1      -5.821   5.218   3.377  1.00  0.00     0.150 C 
ATOM     12  C   UNL     1      -7.168   5.594   2.707  1.00  0.00     0.174 C 
ATOM     13  O   UNL     1      -6.043   4.519   4.590  1.00  0.00    -0.344 OA
ATOM     14  C   UNL     1      -8.046   4.345   2.477  1.00  0.00     0.179 C 
ATOM     15  C   UNL     1      -8.097   3.479   3.751  1.00  0.00     0.202 C 
BRANCH  12  16
ATOM     16  O   UNL     1      -6.984   6.305   1.507  1.00  0.00    -0.388 OA
ATOM     17  H   UNL     1      -7.381   7.208   1.625  1.00  0.00     0.211 HD
ENDBRANCH  12  16
BRANCH  14  18
ATOM     18  O   UNL     1      -7.644   3.598   1.352  1.00  0.00    -0.387 OA
ATOM     19  H   UNL     1      -8.408   3.049   1.048  1.00  0.00     0.211 HD
ENDBRANCH  14  18
BRANCH  15  20
ATOM     20  O   UNL     1      -8.691   2.240   3.462  1.00  0.00    -0.385 OA
ATOM     21  H   UNL     1      -9.068   1.896   4.314  1.00  0.00     0.211 HD
ENDBRANCH  15  20
ENDBRANCH   8   9
ENDBRANCH   7   8
ENDBRANCH   1   7
BRANCH   2  22
ATOM     22  O   UNL     1      -5.847  -1.543   4.520  1.00  0.00    -0.387 OA
ATOM     23  H   UNL     1      -5.694  -2.417   4.964  1.00  0.00     0.211 HD
ENDBRANCH   2  22
BRANCH   3  24
ATOM     24  O   UNL     1      -2.649  -1.772   2.833  1.00  0.00    -0.387 OA
ATOM     25  H   UNL     1      -2.181  -2.626   2.643  1.00  0.00     0.211 HD
ENDBRANCH   3  24
BRANCH   5  26
ATOM     26  O   UNL     1      -3.780  -0.087   0.766  1.00  0.00    -0.454 OA
BRANCH  26  27
ATOM     27  C   UNL     1      -3.490   1.286   0.757  1.00  0.00     0.214 A 
ATOM     28  C   UNL     1      -2.336   1.835   1.366  1.00  0.00     0.180 A 
ATOM     29  C   UNL     1      -4.383   2.150   0.113  1.00  0.00     0.239 A 
ATOM     30  O   UNL     1      -2.185   3.156   1.416  1.00  0.00    -0.452 OA
ATOM     31  C   UNL     1      -4.179   3.543   0.173  1.00  0.00     0.111 A 
ATOM     32  O   UNL     1      -5.374   1.665  -0.498  1.00  0.00    -0.285 OA
ATOM     33  C   UNL     1      -3.043   4.011   0.873  1.00  0.00     0.146 A 
ATOM     34  C   UNL     1      -5.060   4.481  -0.416  1.00  0.00     0.134 A 
ATOM     35  C   UNL     1      -2.804   5.383   0.991  1.00  0.00     0.094 A 
ATOM     36  C   UNL     1      -4.803   5.854  -0.287  1.00  0.00     0.093 A 
ATOM     37  C   UNL     1      -3.681   6.305   0.417  1.00  0.00     0.123 A 
BRANCH  28  38
ATOM     38  C   UNL     1      -1.251   1.005   1.938  1.00  0.00     0.025 A 
ATOM     39  C   UNL     1      -0.227   0.532   1.101  1.00  0.00     0.062 A 
ATOM     40  C   UNL     1      -1.250   0.640   3.295  1.00  0.00     0.016 A 
ATOM     41  C   UNL     1       0.808  -0.259   1.618  1.00  0.00     0.158 A 
ATOM     42  C   UNL     1      -0.215  -0.144   3.813  1.00  0.00     0.051 A 
ATOM     43  C   UNL     1       0.815  -0.594   2.982  1.00  0.00     0.157 A 
BRANCH  41  44
ATOM     44  O   UNL     1       1.827  -0.711   0.783  1.00  0.00    -0.504 OA
ATOM     45  H   UNL     1       2.306  -1.589   0.955  1.00  0.00     0.293 HD
ENDBRANCH  41  44
BRANCH  43  46
ATOM     46  O   UNL     1       1.833  -1.374   3.528  1.00  0.00    -0.504 OA
ATOM     47  H   UNL     1       2.809  -1.220   3.302  1.00  0.00     0.293 HD
ENDBRANCH  43  46
ENDBRANCH  28  38
BRANCH  34  48
ATOM     48  O   UNL     1      -6.187   4.060  -1.123  1.00  0.00    -0.507 OA
ATOM     49  H   UNL     1      -6.898   4.713  -1.431  1.00  0.00     0.293 HD
ENDBRANCH  34  48
BRANCH  37  50
ATOM     50  O   UNL     1      -3.429   7.668   0.550  1.00  0.00    -0.508 OA
ATOM     51  H   UNL     1      -3.039   8.054   1.402  1.00  0.00     0.293 HD
ENDBRANCH  37  50
ENDBRANCH  26  27
ENDBRANCH   5  26
BRANCH   4  52
ATOM     52  O   UNL     1      -4.263  -2.948   0.819  1.00  0.00    -0.384 OA
ATOM     53  H   UNL     1      -5.009  -3.355   0.311  1.00  0.00     0.211 HD
ENDBRANCH   4  52
TORSDOF 16
ENDMDL
