MODEL 1
REMARK VINA RESULT:    -5.942      0.000      0.000
REMARK INTER + INTRA:         -17.736
REMARK INTER:                 -14.974
REMARK INTRA:                  -2.762
REMARK UNBOUND:                -2.762
REMARK SMILES CCCCCCCCCCCCCCCCCCCCCCCCCCCC(=O)[O-]
REMARK SMILES IDX 15 1 16 2 17 3 18 4 19 5 20 6 21 7 22 8 23 9 24 10 25 11
REMARK SMILES IDX 26 12 27 13 28 14 29 15 30 16 14 17 13 18 12 19 11 20 10 21
REMARK SMILES IDX 9 22 8 23 7 24 6 25 5 26 4 27 3 28 2 29 1 30
REMARK H PARENT
REMARK Flexibility Score: inf
ROOT
ATOM      1  C   UNL     1      -8.390 -13.918  -5.663  1.00  0.00     0.000 C 
ENDROOT
BRANCH   1   2
ATOM      2  C   UNL     1      -8.618 -15.433  -5.826  1.00  0.00     0.000 C 
BRANCH   2   3
ATOM      3  C   UNL     1      -7.359 -16.251  -6.169  1.00  0.00     0.000 C 
BRANCH   3   4
ATOM      4  C   UNL     1      -7.405 -17.680  -5.612  1.00  0.00     0.000 C 
BRANCH   4   5
ATOM      5  C   UNL     1      -8.267 -18.588  -6.503  1.00  0.00     0.000 C 
BRANCH   5   6
ATOM      6  C   UNL     1      -7.685 -18.760  -7.917  1.00  0.00     0.000 C 
BRANCH   6   7
ATOM      7  C   UNL     1      -8.689 -18.533  -9.066  1.00  0.00     0.000 C 
BRANCH   7   8
ATOM      8  C   UNL     1      -9.581 -17.287  -8.923  1.00  0.00     0.000 C 
BRANCH   8   9
ATOM      9  C   UNL     1      -9.187 -16.158  -9.891  1.00  0.00     0.000 C 
BRANCH   9  10
ATOM     10  C   UNL     1      -9.927 -16.246 -11.235  1.00  0.00     0.000 C 
BRANCH  10  11
ATOM     11  C   UNL     1     -11.404 -15.820 -11.134  1.00  0.00     0.000 C 
BRANCH  11  12
ATOM     12  C   UNL     1     -11.677 -14.437 -11.752  1.00  0.00     0.006 C 
BRANCH  12  13
ATOM     13  C   UNL     1     -11.456 -13.264 -10.782  1.00  0.00     0.053 C 
BRANCH  13  14
ATOM     14  C   UNL     1     -12.572 -12.263 -10.822  1.00  0.00     0.041 C 
ATOM     15  O   UNL     1     -12.341 -11.049 -10.583  1.00  0.00    -0.550 OA
ATOM     16  O   UNL     1     -13.872 -12.674 -11.091  1.00  0.00    -0.550 OA
ENDBRANCH  13  14
ENDBRANCH  12  13
ENDBRANCH  11  12
ENDBRANCH  10  11
ENDBRANCH   9  10
ENDBRANCH   8   9
ENDBRANCH   7   8
ENDBRANCH   6   7
ENDBRANCH   5   6
ENDBRANCH   4   5
ENDBRANCH   3   4
ENDBRANCH   2   3
ENDBRANCH   1   2
BRANCH   1  17
ATOM     17  C   UNL     1      -6.995 -13.509  -5.151  1.00  0.00     0.000 C 
BRANCH  17  18
ATOM     18  C   UNL     1      -6.981 -13.013  -3.689  1.00  0.00     0.000 C 
BRANCH  18  19
ATOM     19  C   UNL     1      -6.127 -13.903  -2.770  1.00  0.00     0.000 C 
BRANCH  19  20
ATOM     20  C   UNL     1      -6.652 -15.348  -2.677  1.00  0.00     0.000 C 
BRANCH  20  21
ATOM     21  C   UNL     1      -5.570 -16.427  -2.473  1.00  0.00     0.000 C 
BRANCH  21  22
ATOM     22  C   UNL     1      -4.373 -15.999  -1.605  1.00  0.00    -0.000 C 
BRANCH  22  23
ATOM     23  C   UNL     1      -3.744 -17.166  -0.831  1.00  0.00    -0.000 C 
BRANCH  23  24
ATOM     24  C   UNL     1      -3.079 -16.668   0.461  1.00  0.00    -0.000 C 
BRANCH  24  25
ATOM     25  C   UNL     1      -1.617 -17.138   0.595  1.00  0.00    -0.000 C 
BRANCH  25  26
ATOM     26  C   UNL     1      -1.255 -18.327  -0.316  1.00  0.00    -0.000 C 
BRANCH  26  27
ATOM     27  C   UNL     1      -0.113 -18.032  -1.314  1.00  0.00    -0.000 C 
BRANCH  27  28
ATOM     28  C   UNL     1      -0.560 -17.192  -2.527  1.00  0.00    -0.000 C 
BRANCH  28  29
ATOM     29  C   UNL     1       0.222 -15.874  -2.692  1.00  0.00    -0.003 C 
ATOM     30  C   UNL     1       0.766 -15.339  -1.366  1.00  0.00     0.004 C 
ENDBRANCH  28  29
ENDBRANCH  27  28
ENDBRANCH  26  27
ENDBRANCH  25  26
ENDBRANCH  24  25
ENDBRANCH  23  24
ENDBRANCH  22  23
ENDBRANCH  21  22
ENDBRANCH  20  21
ENDBRANCH  19  20
ENDBRANCH  18  19
ENDBRANCH  17  18
ENDBRANCH   1  17
TORSDOF 26
ENDMDL
MODEL 2
REMARK VINA RESULT:    -5.904      4.883     11.761
REMARK INTER + INTRA:         -17.640
REMARK INTER:                 -14.544
REMARK INTRA:                  -3.096
REMARK UNBOUND:                -2.762
REMARK SMILES CCCCCCCCCCCCCCCCCCCCCCCCCCCC(=O)[O-]
REMARK SMILES IDX 15 1 16 2 17 3 18 4 19 5 20 6 21 7 22 8 23 9 24 10 25 11
REMARK SMILES IDX 26 12 27 13 28 14 29 15 30 16 14 17 13 18 12 19 11 20 10 21
REMARK SMILES IDX 9 22 8 23 7 24 6 25 5 26 4 27 3 28 2 29 1 30
REMARK H PARENT
REMARK Flexibility Score: inf
ROOT
ATOM      1  C   UNL     1      -8.359 -13.659  -5.627  1.00  0.00     0.000 C 
ENDROOT
BRANCH   1   2
ATOM      2  C   UNL     1      -6.961 -13.318  -5.074  1.00  0.00     0.000 C 
BRANCH   2   3
ATOM      3  C   UNL     1      -6.927 -12.901  -3.592  1.00  0.00     0.000 C 
BRANCH   3   4
ATOM      4  C   UNL     1      -6.132 -13.877  -2.715  1.00  0.00     0.000 C 
BRANCH   4   5
ATOM      5  C   UNL     1      -6.797 -15.261  -2.692  1.00  0.00     0.000 C 
BRANCH   5   6
ATOM      6  C   UNL     1      -5.792 -16.401  -2.450  1.00  0.00     0.000 C 
BRANCH   6   7
ATOM      7  C   UNL     1      -4.435 -15.959  -1.864  1.00  0.00     0.000 C 
BRANCH   7   8
ATOM      8  C   UNL     1      -3.909 -16.823  -0.702  1.00  0.00     0.000 C 
BRANCH   8   9
ATOM      9  C   UNL     1      -2.576 -17.515  -1.032  1.00  0.00     0.000 C 
BRANCH   9  10
ATOM     10  C   UNL     1      -1.495 -16.527  -1.500  1.00  0.00     0.000 C 
BRANCH  10  11
ATOM     11  C   UNL     1      -0.066 -17.016  -1.196  1.00  0.00     0.000 C 
BRANCH  11  12
ATOM     12  C   UNL     1       0.151 -17.359   0.289  1.00  0.00     0.006 C 
BRANCH  12  13
ATOM     13  C   UNL     1       0.277 -16.128   1.203  1.00  0.00     0.053 C 
BRANCH  13  14
ATOM     14  C   UNL     1      -0.816 -16.057   2.228  1.00  0.00     0.041 C 
ATOM     15  O   UNL     1      -0.914 -15.051   2.978  1.00  0.00    -0.550 OA
ATOM     16  O   UNL     1      -1.708 -17.112   2.376  1.00  0.00    -0.550 OA
ENDBRANCH  13  14
ENDBRANCH  12  13
ENDBRANCH  11  12
ENDBRANCH  10  11
ENDBRANCH   9  10
ENDBRANCH   8   9
ENDBRANCH   7   8
ENDBRANCH   6   7
ENDBRANCH   5   6
ENDBRANCH   4   5
ENDBRANCH   3   4
ENDBRANCH   2   3
ENDBRANCH   1   2
BRANCH   1  17
ATOM     17  C   UNL     1      -8.539 -15.106  -6.126  1.00  0.00     0.000 C 
BRANCH  17  18
ATOM     18  C   UNL     1      -7.259 -15.729  -6.726  1.00  0.00     0.000 C 
BRANCH  18  19
ATOM     19  C   UNL     1      -6.874 -17.057  -6.051  1.00  0.00     0.000 C 
BRANCH  19  20
ATOM     20  C   UNL     1      -8.040 -17.693  -5.273  1.00  0.00     0.000 C 
BRANCH  20  21
ATOM     21  C   UNL     1      -8.798 -18.807  -6.022  1.00  0.00     0.000 C 
BRANCH  21  22
ATOM     22  C   UNL     1     -10.002 -18.334  -6.855  1.00  0.00    -0.000 C 
BRANCH  22  23
ATOM     23  C   UNL     1      -9.812 -18.551  -8.363  1.00  0.00    -0.000 C 
BRANCH  23  24
ATOM     24  C   UNL     1      -9.780 -17.207  -9.108  1.00  0.00    -0.000 C 
BRANCH  24  25
ATOM     25  C   UNL     1      -9.493 -17.371 -10.613  1.00  0.00    -0.000 C 
BRANCH  25  26
ATOM     26  C   UNL     1      -9.390 -16.037 -11.380  1.00  0.00    -0.000 C 
BRANCH  26  27
ATOM     27  C   UNL     1     -10.620 -15.118 -11.215  1.00  0.00    -0.000 C 
BRANCH  27  28
ATOM     28  C   UNL     1     -11.759 -15.431 -12.206  1.00  0.00    -0.000 C 
BRANCH  28  29
ATOM     29  C   UNL     1     -13.079 -15.840 -11.527  1.00  0.00    -0.003 C 
ATOM     30  C   UNL     1     -13.122 -17.324 -11.160  1.00  0.00     0.004 C 
ENDBRANCH  28  29
ENDBRANCH  27  28
ENDBRANCH  26  27
ENDBRANCH  25  26
ENDBRANCH  24  25
ENDBRANCH  23  24
ENDBRANCH  22  23
ENDBRANCH  21  22
ENDBRANCH  20  21
ENDBRANCH  19  20
ENDBRANCH  18  19
ENDBRANCH  17  18
ENDBRANCH   1  17
TORSDOF 26
ENDMDL
MODEL 3
REMARK VINA RESULT:    -5.865      1.380      1.884
REMARK INTER + INTRA:         -17.541
REMARK INTER:                 -14.479
REMARK INTRA:                  -3.062
REMARK UNBOUND:                -2.762
REMARK SMILES CCCCCCCCCCCCCCCCCCCCCCCCCCCC(=O)[O-]
REMARK SMILES IDX 15 1 16 2 17 3 18 4 19 5 20 6 21 7 22 8 23 9 24 10 25 11
REMARK SMILES IDX 26 12 27 13 28 14 29 15 30 16 14 17 13 18 12 19 11 20 10 21
REMARK SMILES IDX 9 22 8 23 7 24 6 25 5 26 4 27 3 28 2 29 1 30
REMARK H PARENT
REMARK Flexibility Score: inf
ROOT
ATOM      1  C   UNL     1      -9.308 -14.134  -5.674  1.00  0.00     0.000 C 
ENDROOT
BRANCH   1   2
ATOM      2  C   UNL     1      -8.895 -15.616  -5.756  1.00  0.00     0.000 C 
BRANCH   2   3
ATOM      3  C   UNL     1      -7.582 -15.888  -6.513  1.00  0.00     0.000 C 
BRANCH   3   4
ATOM      4  C   UNL     1      -6.756 -17.021  -5.888  1.00  0.00     0.000 C 
BRANCH   4   5
ATOM      5  C   UNL     1      -7.668 -18.140  -5.363  1.00  0.00     0.000 C 
BRANCH   5   6
ATOM      6  C   UNL     1      -8.261 -19.002  -6.491  1.00  0.00     0.000 C 
BRANCH   6   7
ATOM      7  C   UNL     1      -9.799 -19.114  -6.486  1.00  0.00     0.000 C 
BRANCH   7   8
ATOM      8  C   UNL     1     -10.522 -18.284  -7.564  1.00  0.00     0.000 C 
BRANCH   8   9
ATOM      9  C   UNL     1      -9.654 -18.044  -8.811  1.00  0.00     0.000 C 
BRANCH   9  10
ATOM     10  C   UNL     1     -10.359 -17.173  -9.863  1.00  0.00     0.000 C 
BRANCH  10  11
ATOM     11  C   UNL     1      -9.630 -17.167 -11.220  1.00  0.00     0.000 C 
BRANCH  11  12
ATOM     12  C   UNL     1      -9.499 -15.760 -11.830  1.00  0.00     0.006 C 
BRANCH  12  13
ATOM     13  C   UNL     1     -10.576 -14.770 -11.353  1.00  0.00     0.053 C 
BRANCH  13  14
ATOM     14  C   UNL     1     -11.884 -14.953 -12.064  1.00  0.00     0.041 C 
ATOM     15  O   UNL     1     -12.962 -14.644 -11.493  1.00  0.00    -0.550 OA
ATOM     16  O   UNL     1     -11.916 -15.494 -13.344  1.00  0.00    -0.550 OA
ENDBRANCH  13  14
ENDBRANCH  12  13
ENDBRANCH  11  12
ENDBRANCH  10  11
ENDBRANCH   9  10
ENDBRANCH   8   9
ENDBRANCH   7   8
ENDBRANCH   6   7
ENDBRANCH   5   6
ENDBRANCH   4   5
ENDBRANCH   3   4
ENDBRANCH   2   3
ENDBRANCH   1   2
BRANCH   1  17
ATOM     17  C   UNL     1      -8.148 -13.120  -5.717  1.00  0.00     0.000 C 
BRANCH  17  18
ATOM     18  C   UNL     1      -7.620 -12.707  -4.326  1.00  0.00     0.000 C 
BRANCH  18  19
ATOM     19  C   UNL     1      -6.378 -13.511  -3.901  1.00  0.00     0.000 C 
BRANCH  19  20
ATOM     20  C   UNL     1      -6.506 -14.109  -2.488  1.00  0.00     0.000 C 
BRANCH  20  21
ATOM     21  C   UNL     1      -6.653 -15.642  -2.436  1.00  0.00     0.000 C 
BRANCH  21  22
ATOM     22  C   UNL     1      -5.335 -16.431  -2.536  1.00  0.00    -0.000 C 
BRANCH  22  23
ATOM     23  C   UNL     1      -4.305 -16.017  -1.474  1.00  0.00    -0.000 C 
BRANCH  23  24
ATOM     24  C   UNL     1      -2.918 -16.585  -1.811  1.00  0.00    -0.000 C 
BRANCH  24  25
ATOM     25  C   UNL     1      -2.407 -17.573  -0.744  1.00  0.00    -0.000 C 
BRANCH  25  26
ATOM     26  C   UNL     1      -1.211 -18.430  -1.204  1.00  0.00    -0.000 C 
BRANCH  26  27
ATOM     27  C   UNL     1      -0.754 -18.148  -2.652  1.00  0.00    -0.000 C 
BRANCH  27  28
ATOM     28  C   UNL     1       0.694 -17.627  -2.749  1.00  0.00    -0.000 C 
BRANCH  28  29
ATOM     29  C   UNL     1       0.793 -16.130  -3.102  1.00  0.00    -0.003 C 
ATOM     30  C   UNL     1       0.584 -15.222  -1.889  1.00  0.00     0.004 C 
ENDBRANCH  28  29
ENDBRANCH  27  28
ENDBRANCH  26  27
ENDBRANCH  25  26
ENDBRANCH  24  25
ENDBRANCH  23  24
ENDBRANCH  22  23
ENDBRANCH  21  22
ENDBRANCH  20  21
ENDBRANCH  19  20
ENDBRANCH  18  19
ENDBRANCH  17  18
ENDBRANCH   1  17
TORSDOF 26
ENDMDL
MODEL 4
REMARK VINA RESULT:    -5.715      4.341     11.112
REMARK INTER + INTRA:         -17.164
REMARK INTER:                 -14.098
REMARK INTRA:                  -3.066
REMARK UNBOUND:                -2.762
REMARK SMILES CCCCCCCCCCCCCCCCCCCCCCCCCCCC(=O)[O-]
REMARK SMILES IDX 15 1 16 2 17 3 18 4 19 5 20 6 21 7 22 8 23 9 24 10 25 11
REMARK SMILES IDX 26 12 27 13 28 14 29 15 30 16 14 17 13 18 12 19 11 20 10 21
REMARK SMILES IDX 9 22 8 23 7 24 6 25 5 26 4 27 3 28 2 29 1 30
REMARK H PARENT
REMARK Flexibility Score: inf
ROOT
ATOM      1  C   UNL     1      -8.638 -13.544  -5.715  1.00  0.00     0.000 C 
ENDROOT
BRANCH   1   2
ATOM      2  C   UNL     1      -7.803 -12.802  -4.654  1.00  0.00     0.000 C 
BRANCH   2   3
ATOM      3  C   UNL     1      -6.496 -13.503  -4.242  1.00  0.00     0.000 C 
BRANCH   3   4
ATOM      4  C   UNL     1      -6.475 -13.906  -2.761  1.00  0.00     0.000 C 
BRANCH   4   5
ATOM      5  C   UNL     1      -6.832 -15.390  -2.591  1.00  0.00     0.000 C 
BRANCH   5   6
ATOM      6  C   UNL     1      -5.594 -16.304  -2.600  1.00  0.00     0.000 C 
BRANCH   6   7
ATOM      7  C   UNL     1      -4.396 -15.787  -1.778  1.00  0.00     0.000 C 
BRANCH   7   8
ATOM      8  C   UNL     1      -3.865 -16.758  -0.707  1.00  0.00     0.000 C 
BRANCH   8   9
ATOM      9  C   UNL     1      -2.653 -17.572  -1.191  1.00  0.00     0.000 C 
BRANCH   9  10
ATOM     10  C   UNL     1      -1.470 -17.511  -0.212  1.00  0.00     0.000 C 
BRANCH  10  11
ATOM     11  C   UNL     1      -0.384 -16.510  -0.648  1.00  0.00     0.000 C 
BRANCH  11  12
ATOM     12  C   UNL     1      -0.569 -16.008  -2.092  1.00  0.00     0.006 C 
BRANCH  12  13
ATOM     13  C   UNL     1       0.598 -16.361  -3.031  1.00  0.00     0.053 C 
BRANCH  13  14
ATOM     14  C   UNL     1       0.579 -17.798  -3.459  1.00  0.00     0.041 C 
ATOM     15  O   UNL     1       1.655 -18.448  -3.536  1.00  0.00    -0.550 OA
ATOM     16  O   UNL     1      -0.619 -18.412  -3.805  1.00  0.00    -0.550 OA
ENDBRANCH  13  14
ENDBRANCH  12  13
ENDBRANCH  11  12
ENDBRANCH  10  11
ENDBRANCH   9  10
ENDBRANCH   8   9
ENDBRANCH   7   8
ENDBRANCH   6   7
ENDBRANCH   5   6
ENDBRANCH   4   5
ENDBRANCH   3   4
ENDBRANCH   2   3
ENDBRANCH   1   2
BRANCH   1  17
ATOM     17  C   UNL     1      -8.522 -15.081  -5.693  1.00  0.00     0.000 C 
BRANCH  17  18
ATOM     18  C   UNL     1      -7.416 -15.642  -6.613  1.00  0.00     0.000 C 
BRANCH  18  19
ATOM     19  C   UNL     1      -6.857 -16.987  -6.115  1.00  0.00     0.000 C 
BRANCH  19  20
ATOM     20  C   UNL     1      -7.856 -17.764  -5.239  1.00  0.00     0.000 C 
BRANCH  20  21
ATOM     21  C   UNL     1      -8.418 -19.053  -5.871  1.00  0.00     0.000 C 
BRANCH  21  22
ATOM     22  C   UNL     1      -8.908 -18.911  -7.323  1.00  0.00    -0.000 C 
BRANCH  22  23
ATOM     23  C   UNL     1     -10.291 -18.251  -7.429  1.00  0.00    -0.000 C 
BRANCH  23  24
ATOM     24  C   UNL     1     -10.533 -17.716  -8.849  1.00  0.00    -0.000 C 
BRANCH  24  25
ATOM     25  C   UNL     1      -9.457 -16.706  -9.293  1.00  0.00    -0.000 C 
BRANCH  25  26
ATOM     26  C   UNL     1      -8.922 -16.945 -10.719  1.00  0.00    -0.000 C 
BRANCH  26  27
ATOM     27  C   UNL     1      -9.679 -16.164 -11.816  1.00  0.00    -0.000 C 
BRANCH  27  28
ATOM     28  C   UNL     1     -10.474 -14.959 -11.274  1.00  0.00    -0.000 C 
BRANCH  28  29
ATOM     29  C   UNL     1     -11.983 -15.022 -11.581  1.00  0.00    -0.003 C 
ATOM     30  C   UNL     1     -12.358 -16.211 -12.465  1.00  0.00     0.004 C 
ENDBRANCH  28  29
ENDBRANCH  27  28
ENDBRANCH  26  27
ENDBRANCH  25  26
ENDBRANCH  24  25
ENDBRANCH  23  24
ENDBRANCH  22  23
ENDBRANCH  21  22
ENDBRANCH  20  21
ENDBRANCH  19  20
ENDBRANCH  18  19
ENDBRANCH  17  18
ENDBRANCH   1  17
TORSDOF 26
ENDMDL
MODEL 5
REMARK VINA RESULT:    -5.713      5.101     11.873
REMARK INTER + INTRA:         -17.158
REMARK INTER:                 -14.158
REMARK INTRA:                  -3.000
REMARK UNBOUND:                -2.762
REMARK SMILES CCCCCCCCCCCCCCCCCCCCCCCCCCCC(=O)[O-]
REMARK SMILES IDX 15 1 16 2 17 3 18 4 19 5 20 6 21 7 22 8 23 9 24 10 25 11
REMARK SMILES IDX 26 12 27 13 28 14 29 15 30 16 14 17 13 18 12 19 11 20 10 21
REMARK SMILES IDX 9 22 8 23 7 24 6 25 5 26 4 27 3 28 2 29 1 30
REMARK H PARENT
REMARK Flexibility Score: inf
ROOT
ATOM      1  C   UNL     1      -6.989 -13.559  -5.133  1.00  0.00     0.000 C 
ENDROOT
BRANCH   1   2
ATOM      2  C   UNL     1      -6.873 -12.979  -3.710  1.00  0.00     0.000 C 
BRANCH   2   3
ATOM      3  C   UNL     1      -6.216 -13.912  -2.675  1.00  0.00     0.000 C 
BRANCH   3   4
ATOM      4  C   UNL     1      -6.841 -15.313  -2.652  1.00  0.00     0.000 C 
BRANCH   4   5
ATOM      5  C   UNL     1      -5.754 -16.398  -2.614  1.00  0.00     0.000 C 
BRANCH   5   6
ATOM      6  C   UNL     1      -4.539 -15.992  -1.761  1.00  0.00     0.000 C 
BRANCH   6   7
ATOM      7  C   UNL     1      -4.034 -17.077  -0.788  1.00  0.00     0.000 C 
BRANCH   7   8
ATOM      8  C   UNL     1      -2.543 -16.984  -0.416  1.00  0.00     0.000 C 
BRANCH   8   9
ATOM      9  C   UNL     1      -1.776 -18.286  -0.703  1.00  0.00     0.000 C 
BRANCH   9  10
ATOM     10  C   UNL     1      -0.261 -18.064  -0.836  1.00  0.00     0.000 C 
BRANCH  10  11
ATOM     11  C   UNL     1       0.496 -18.293   0.486  1.00  0.00     0.000 C 
BRANCH  11  12
ATOM     12  C   UNL     1      -0.306 -19.123   1.505  1.00  0.00     0.006 C 
BRANCH  12  13
ATOM     13  C   UNL     1      -0.016 -18.762   2.972  1.00  0.00     0.053 C 
BRANCH  13  14
ATOM     14  C   UNL     1      -0.465 -17.375   3.324  1.00  0.00     0.041 C 
ATOM     15  O   UNL     1       0.294 -16.612   3.977  1.00  0.00    -0.550 OA
ATOM     16  O   UNL     1      -1.732 -16.934   2.960  1.00  0.00    -0.550 OA
ENDBRANCH  13  14
ENDBRANCH  12  13
ENDBRANCH  11  12
ENDBRANCH  10  11
ENDBRANCH   9  10
ENDBRANCH   8   9
ENDBRANCH   7   8
ENDBRANCH   6   7
ENDBRANCH   5   6
ENDBRANCH   4   5
ENDBRANCH   3   4
ENDBRANCH   2   3
ENDBRANCH   1   2
BRANCH   1  17
ATOM     17  C   UNL     1      -8.427 -13.780  -5.643  1.00  0.00     0.000 C 
BRANCH  17  18
ATOM     18  C   UNL     1      -8.728 -15.234  -6.066  1.00  0.00     0.000 C 
BRANCH  18  19
ATOM     19  C   UNL     1      -7.547 -15.896  -6.797  1.00  0.00     0.000 C 
BRANCH  19  20
ATOM     20  C   UNL     1      -6.864 -16.993  -5.962  1.00  0.00     0.000 C 
BRANCH  20  21
ATOM     21  C   UNL     1      -7.811 -18.067  -5.390  1.00  0.00     0.000 C 
BRANCH  21  22
ATOM     22  C   UNL     1      -8.396 -19.044  -6.426  1.00  0.00    -0.000 C 
BRANCH  22  23
ATOM     23  C   UNL     1      -9.839 -18.702  -6.826  1.00  0.00    -0.000 C 
BRANCH  23  24
ATOM     24  C   UNL     1      -9.967 -18.581  -8.353  1.00  0.00    -0.000 C 
BRANCH  24  25
ATOM     25  C   UNL     1      -8.601 -18.612  -9.067  1.00  0.00    -0.000 C 
BRANCH  25  26
ATOM     26  C   UNL     1      -8.505 -17.664 -10.279  1.00  0.00    -0.000 C 
BRANCH  26  27
ATOM     27  C   UNL     1      -9.160 -16.284 -10.053  1.00  0.00    -0.000 C 
BRANCH  27  28
ATOM     28  C   UNL     1     -10.420 -16.053 -10.910  1.00  0.00    -0.000 C 
BRANCH  28  29
ATOM     29  C   UNL     1     -10.637 -17.123 -11.997  1.00  0.00    -0.003 C 
ATOM     30  C   UNL     1     -10.940 -16.521 -13.369  1.00  0.00     0.004 C 
ENDBRANCH  28  29
ENDBRANCH  27  28
ENDBRANCH  26  27
ENDBRANCH  25  26
ENDBRANCH  24  25
ENDBRANCH  23  24
ENDBRANCH  22  23
ENDBRANCH  21  22
ENDBRANCH  20  21
ENDBRANCH  19  20
ENDBRANCH  18  19
ENDBRANCH  17  18
ENDBRANCH   1  17
TORSDOF 26
ENDMDL
MODEL 6
REMARK VINA RESULT:    -5.692      1.919      3.322
REMARK INTER + INTRA:         -17.107
REMARK INTER:                 -13.697
REMARK INTRA:                  -3.410
REMARK UNBOUND:                -2.762
REMARK SMILES CCCCCCCCCCCCCCCCCCCCCCCCCCCC(=O)[O-]
REMARK SMILES IDX 15 1 16 2 17 3 18 4 19 5 20 6 21 7 22 8 23 9 24 10 25 11
REMARK SMILES IDX 26 12 27 13 28 14 29 15 30 16 14 17 13 18 12 19 11 20 10 21
REMARK SMILES IDX 9 22 8 23 7 24 6 25 5 26 4 27 3 28 2 29 1 30
REMARK H PARENT
REMARK Flexibility Score: inf
ROOT
ATOM      1  C   UNL     1      -6.878 -12.910  -3.585  1.00  0.00     0.000 C 
ENDROOT
BRANCH   1   2
ATOM      2  C   UNL     1      -6.944 -13.268  -5.082  1.00  0.00     0.000 C 
BRANCH   2   3
ATOM      3  C   UNL     1      -8.356 -13.550  -5.626  1.00  0.00     0.000 C 
BRANCH   3   4
ATOM      4  C   UNL     1      -8.557 -15.016  -6.033  1.00  0.00     0.000 C 
BRANCH   4   5
ATOM      5  C   UNL     1      -7.249 -15.623  -6.563  1.00  0.00     0.000 C 
BRANCH   5   6
ATOM      6  C   UNL     1      -7.021 -17.064  -6.073  1.00  0.00     0.000 C 
BRANCH   6   7
ATOM      7  C   UNL     1      -8.212 -17.694  -5.324  1.00  0.00     0.000 C 
BRANCH   7   8
ATOM      8  C   UNL     1      -8.990 -18.765  -6.109  1.00  0.00     0.000 C 
BRANCH   8   9
ATOM      9  C   UNL     1     -10.052 -18.163  -7.046  1.00  0.00     0.000 C 
BRANCH   9  10
ATOM     10  C   UNL     1      -9.954 -18.707  -8.480  1.00  0.00     0.000 C 
BRANCH  10  11
ATOM     11  C   UNL     1      -8.907 -17.965  -9.331  1.00  0.00     0.000 C 
BRANCH  11  12
ATOM     12  C   UNL     1      -9.182 -16.454  -9.444  1.00  0.00     0.006 C 
BRANCH  12  13
ATOM     13  C   UNL     1      -9.658 -16.008 -10.838  1.00  0.00     0.053 C 
BRANCH  13  14
ATOM     14  C   UNL     1     -10.824 -16.811 -11.333  1.00  0.00     0.041 C 
ATOM     15  O   UNL     1     -10.674 -17.625 -12.282  1.00  0.00    -0.550 OA
ATOM     16  O   UNL     1     -12.084 -16.639 -10.770  1.00  0.00    -0.550 OA
ENDBRANCH  13  14
ENDBRANCH  12  13
ENDBRANCH  11  12
ENDBRANCH  10  11
ENDBRANCH   9  10
ENDBRANCH   8   9
ENDBRANCH   7   8
ENDBRANCH   6   7
ENDBRANCH   5   6
ENDBRANCH   4   5
ENDBRANCH   3   4
ENDBRANCH   2   3
ENDBRANCH   1   2
BRANCH   1  17
ATOM     17  C   UNL     1      -6.194 -13.955  -2.683  1.00  0.00     0.000 C 
BRANCH  17  18
ATOM     18  C   UNL     1      -6.849 -15.353  -2.732  1.00  0.00     0.000 C 
BRANCH  18  19
ATOM     19  C   UNL     1      -5.818 -16.493  -2.654  1.00  0.00     0.000 C 
BRANCH  19  20
ATOM     20  C   UNL     1      -4.504 -16.067  -1.974  1.00  0.00     0.000 C 
BRANCH  20  21
ATOM     21  C   UNL     1      -4.109 -16.894  -0.735  1.00  0.00     0.000 C 
BRANCH  21  22
ATOM     22  C   UNL     1      -2.690 -17.489  -0.769  1.00  0.00    -0.000 C 
BRANCH  22  23
ATOM     23  C   UNL     1      -1.813 -17.019   0.402  1.00  0.00    -0.000 C 
BRANCH  23  24
ATOM     24  C   UNL     1      -0.689 -18.030   0.680  1.00  0.00    -0.000 C 
BRANCH  24  25
ATOM     25  C   UNL     1       0.680 -17.352   0.881  1.00  0.00    -0.000 C 
BRANCH  25  26
ATOM     26  C   UNL     1       0.633 -15.812   0.818  1.00  0.00    -0.000 C 
BRANCH  26  27
ATOM     27  C   UNL     1       1.894 -15.167   0.200  1.00  0.00    -0.000 C 
BRANCH  27  28
ATOM     28  C   UNL     1       1.802 -14.978  -1.327  1.00  0.00    -0.000 C 
BRANCH  28  29
ATOM     29  C   UNL     1       0.374 -15.122  -1.886  1.00  0.00    -0.003 C 
ATOM     30  C   UNL     1       0.234 -16.292  -2.861  1.00  0.00     0.004 C 
ENDBRANCH  28  29
ENDBRANCH  27  28
ENDBRANCH  26  27
ENDBRANCH  25  26
ENDBRANCH  24  25
ENDBRANCH  23  24
ENDBRANCH  22  23
ENDBRANCH  21  22
ENDBRANCH  20  21
ENDBRANCH  19  20
ENDBRANCH  18  19
ENDBRANCH  17  18
ENDBRANCH   1  17
TORSDOF 26
ENDMDL
MODEL 7
REMARK VINA RESULT:    -5.657      1.496      2.356
REMARK INTER + INTRA:         -17.016
REMARK INTER:                 -14.040
REMARK INTRA:                  -2.977
REMARK UNBOUND:                -2.762
REMARK SMILES CCCCCCCCCCCCCCCCCCCCCCCCCCCC(=O)[O-]
REMARK SMILES IDX 15 1 16 2 17 3 18 4 19 5 20 6 21 7 22 8 23 9 24 10 25 11
REMARK SMILES IDX 26 12 27 13 28 14 29 15 30 16 14 17 13 18 12 19 11 20 10 21
REMARK SMILES IDX 9 22 8 23 7 24 6 25 5 26 4 27 3 28 2 29 1 30
REMARK H PARENT
REMARK Flexibility Score: inf
ROOT
ATOM      1  C   UNL     1      -8.265 -13.682  -5.655  1.00  0.00     0.000 C 
ENDROOT
BRANCH   1   2
ATOM      2  C   UNL     1      -8.534 -15.161  -5.993  1.00  0.00     0.000 C 
BRANCH   2   3
ATOM      3  C   UNL     1      -7.352 -15.912  -6.632  1.00  0.00     0.000 C 
BRANCH   3   4
ATOM      4  C   UNL     1      -6.969 -17.186  -5.865  1.00  0.00     0.000 C 
BRANCH   4   5
ATOM      5  C   UNL     1      -8.219 -17.997  -5.490  1.00  0.00     0.000 C 
BRANCH   5   6
ATOM      6  C   UNL     1      -8.541 -19.101  -6.513  1.00  0.00     0.000 C 
BRANCH   6   7
ATOM      7  C   UNL     1      -7.635 -19.118  -7.761  1.00  0.00     0.000 C 
BRANCH   7   8
ATOM      8  C   UNL     1      -8.356 -18.880  -9.100  1.00  0.00     0.000 C 
BRANCH   8   9
ATOM      9  C   UNL     1      -9.888 -18.885  -8.960  1.00  0.00     0.000 C 
BRANCH   9  10
ATOM     10  C   UNL     1     -10.511 -17.503  -9.214  1.00  0.00     0.000 C 
BRANCH  10  11
ATOM     11  C   UNL     1      -9.490 -16.474  -9.733  1.00  0.00     0.000 C 
BRANCH  11  12
ATOM     12  C   UNL     1      -9.678 -16.136 -11.224  1.00  0.00     0.006 C 
BRANCH  12  13
ATOM     13  C   UNL     1     -10.982 -16.684 -11.829  1.00  0.00     0.053 C 
BRANCH  13  14
ATOM     14  C   UNL     1     -12.034 -15.628 -11.985  1.00  0.00     0.041 C 
ATOM     15  O   UNL     1     -11.824 -14.631 -12.724  1.00  0.00    -0.550 OA
ATOM     16  O   UNL     1     -13.235 -15.726 -11.291  1.00  0.00    -0.550 OA
ENDBRANCH  13  14
ENDBRANCH  12  13
ENDBRANCH  11  12
ENDBRANCH  10  11
ENDBRANCH   9  10
ENDBRANCH   8   9
ENDBRANCH   7   8
ENDBRANCH   6   7
ENDBRANCH   5   6
ENDBRANCH   4   5
ENDBRANCH   3   4
ENDBRANCH   2   3
ENDBRANCH   1   2
BRANCH   1  17
ATOM     17  C   UNL     1      -6.897 -13.389  -5.008  1.00  0.00     0.000 C 
BRANCH  17  18
ATOM     18  C   UNL     1      -6.974 -13.025  -3.510  1.00  0.00     0.000 C 
BRANCH  18  19
ATOM     19  C   UNL     1      -6.092 -13.932  -2.634  1.00  0.00     0.000 C 
BRANCH  19  20
ATOM     20  C   UNL     1      -6.527 -15.408  -2.672  1.00  0.00     0.000 C 
BRANCH  20  21
ATOM     21  C   UNL     1      -5.386 -16.432  -2.514  1.00  0.00     0.000 C 
BRANCH  21  22
ATOM     22  C   UNL     1      -4.254 -16.010  -1.560  1.00  0.00    -0.000 C 
BRANCH  22  23
ATOM     23  C   UNL     1      -3.870 -17.109  -0.558  1.00  0.00    -0.000 C 
BRANCH  23  24
ATOM     24  C   UNL     1      -2.472 -17.667  -0.871  1.00  0.00    -0.000 C 
BRANCH  24  25
ATOM     25  C   UNL     1      -1.591 -16.662  -1.638  1.00  0.00    -0.000 C 
BRANCH  25  26
ATOM     26  C   UNL     1      -0.077 -16.883  -1.448  1.00  0.00    -0.000 C 
BRANCH  26  27
ATOM     27  C   UNL     1       0.637 -15.738  -0.695  1.00  0.00    -0.000 C 
BRANCH  27  28
ATOM     28  C   UNL     1       0.902 -16.052   0.791  1.00  0.00    -0.000 C 
BRANCH  28  29
ATOM     29  C   UNL     1       0.302 -17.391   1.260  1.00  0.00    -0.003 C 
ATOM     30  C   UNL     1      -0.477 -17.264   2.570  1.00  0.00     0.004 C 
ENDBRANCH  28  29
ENDBRANCH  27  28
ENDBRANCH  26  27
ENDBRANCH  25  26
ENDBRANCH  24  25
ENDBRANCH  23  24
ENDBRANCH  22  23
ENDBRANCH  21  22
ENDBRANCH  20  21
ENDBRANCH  19  20
ENDBRANCH  18  19
ENDBRANCH  17  18
ENDBRANCH   1  17
TORSDOF 26
ENDMDL
MODEL 8
REMARK VINA RESULT:    -5.447      4.583     11.561
REMARK INTER + INTRA:         -16.488
REMARK INTER:                 -13.534
REMARK INTRA:                  -2.954
REMARK UNBOUND:                -2.762
REMARK SMILES CCCCCCCCCCCCCCCCCCCCCCCCCCCC(=O)[O-]
REMARK SMILES IDX 15 1 16 2 17 3 18 4 19 5 20 6 21 7 22 8 23 9 24 10 25 11
REMARK SMILES IDX 26 12 27 13 28 14 29 15 30 16 14 17 13 18 12 19 11 20 10 21
REMARK SMILES IDX 9 22 8 23 7 24 6 25 5 26 4 27 3 28 2 29 1 30
REMARK H PARENT
REMARK Flexibility Score: inf
ROOT
ATOM      1  C   UNL     1      -8.773 -15.183  -6.047  1.00  0.00     0.000 C 
ENDROOT
BRANCH   1   2
ATOM      2  C   UNL     1      -8.442 -13.734  -5.640  1.00  0.00     0.000 C 
BRANCH   2   3
ATOM      3  C   UNL     1      -6.960 -13.466  -5.318  1.00  0.00     0.000 C 
BRANCH   3   4
ATOM      4  C   UNL     1      -6.736 -13.015  -3.868  1.00  0.00     0.000 C 
BRANCH   4   5
ATOM      5  C   UNL     1      -6.805 -14.209  -2.905  1.00  0.00     0.000 C 
BRANCH   5   6
ATOM      6  C   UNL     1      -5.985 -15.416  -3.394  1.00  0.00     0.000 C 
BRANCH   6   7
ATOM      7  C   UNL     1      -5.595 -16.426  -2.296  1.00  0.00     0.000 C 
BRANCH   7   8
ATOM      8  C   UNL     1      -4.290 -16.110  -1.544  1.00  0.00     0.000 C 
BRANCH   8   9
ATOM      9  C   UNL     1      -3.877 -17.227  -0.571  1.00  0.00     0.000 C 
BRANCH   9  10
ATOM     10  C   UNL     1      -2.393 -17.604  -0.696  1.00  0.00     0.000 C 
BRANCH  10  11
ATOM     11  C   UNL     1      -1.610 -16.652  -1.619  1.00  0.00     0.000 C 
BRANCH  11  12
ATOM     12  C   UNL     1      -0.480 -17.354  -2.393  1.00  0.00     0.006 C 
BRANCH  12  13
ATOM     13  C   UNL     1       0.934 -16.951  -1.938  1.00  0.00     0.053 C 
BRANCH  13  14
ATOM     14  C   UNL     1       0.938 -15.703  -1.107  1.00  0.00     0.041 C 
ATOM     15  O   UNL     1       1.001 -14.575  -1.662  1.00  0.00    -0.550 OA
ATOM     16  O   UNL     1       0.904 -15.784   0.280  1.00  0.00    -0.550 OA
ENDBRANCH  13  14
ENDBRANCH  12  13
ENDBRANCH  11  12
ENDBRANCH  10  11
ENDBRANCH   9  10
ENDBRANCH   8   9
ENDBRANCH   7   8
ENDBRANCH   6   7
ENDBRANCH   5   6
ENDBRANCH   4   5
ENDBRANCH   3   4
ENDBRANCH   2   3
ENDBRANCH   1   2
BRANCH   1  17
ATOM     17  C   UNL     1      -7.667 -15.920  -6.828  1.00  0.00     0.000 C 
BRANCH  17  18
ATOM     18  C   UNL     1      -7.197 -17.233  -6.166  1.00  0.00     0.000 C 
BRANCH  18  19
ATOM     19  C   UNL     1      -7.800 -18.482  -6.832  1.00  0.00     0.000 C 
BRANCH  19  20
ATOM     20  C   UNL     1      -9.117 -18.934  -6.175  1.00  0.00     0.000 C 
BRANCH  20  21
ATOM     21  C   UNL     1     -10.335 -18.989  -7.117  1.00  0.00     0.000 C 
BRANCH  21  22
ATOM     22  C   UNL     1     -10.289 -18.011  -8.305  1.00  0.00    -0.000 C 
BRANCH  22  23
ATOM     23  C   UNL     1      -9.676 -18.629  -9.570  1.00  0.00    -0.000 C 
BRANCH  23  24
ATOM     24  C   UNL     1      -8.990 -17.552 -10.425  1.00  0.00    -0.000 C 
BRANCH  24  25
ATOM     25  C   UNL     1      -9.485 -16.130 -10.097  1.00  0.00    -0.000 C 
BRANCH  25  26
ATOM     26  C   UNL     1     -10.025 -15.357 -11.316  1.00  0.00    -0.000 C 
BRANCH  26  27
ATOM     27  C   UNL     1     -11.146 -16.092 -12.083  1.00  0.00    -0.000 C 
BRANCH  27  28
ATOM     28  C   UNL     1     -12.418 -16.321 -11.242  1.00  0.00    -0.000 C 
BRANCH  28  29
ATOM     29  C   UNL     1     -13.197 -17.593 -11.628  1.00  0.00    -0.003 C 
ATOM     30  C   UNL     1     -13.215 -18.638 -10.512  1.00  0.00     0.004 C 
ENDBRANCH  28  29
ENDBRANCH  27  28
ENDBRANCH  26  27
ENDBRANCH  25  26
ENDBRANCH  24  25
ENDBRANCH  23  24
ENDBRANCH  22  23
ENDBRANCH  21  22
ENDBRANCH  20  21
ENDBRANCH  19  20
ENDBRANCH  18  19
ENDBRANCH  17  18
ENDBRANCH   1  17
TORSDOF 26
ENDMDL
MODEL 9
REMARK VINA RESULT:    -5.423      5.114     11.835
REMARK INTER + INTRA:         -16.429
REMARK INTER:                 -13.770
REMARK INTRA:                  -2.659
REMARK UNBOUND:                -2.762
REMARK SMILES CCCCCCCCCCCCCCCCCCCCCCCCCCCC(=O)[O-]
REMARK SMILES IDX 15 1 16 2 17 3 18 4 19 5 20 6 21 7 22 8 23 9 24 10 25 11
REMARK SMILES IDX 26 12 27 13 28 14 29 15 30 16 14 17 13 18 12 19 11 20 10 21
REMARK SMILES IDX 9 22 8 23 7 24 6 25 5 26 4 27 3 28 2 29 1 30
REMARK H PARENT
REMARK Flexibility Score: inf
ROOT
ATOM      1  C   UNL     1      -6.524 -12.760  -4.255  1.00  0.00     0.000 C 
ENDROOT
BRANCH   1   2
ATOM      2  C   UNL     1      -6.853 -13.622  -3.021  1.00  0.00     0.000 C 
BRANCH   2   3
ATOM      3  C   UNL     1      -5.649 -14.340  -2.383  1.00  0.00     0.000 C 
BRANCH   3   4
ATOM      4  C   UNL     1      -5.715 -15.866  -2.534  1.00  0.00     0.000 C 
BRANCH   4   5
ATOM      5  C   UNL     1      -4.826 -16.559  -1.491  1.00  0.00     0.000 C 
BRANCH   5   6
ATOM      6  C   UNL     1      -3.324 -16.357  -1.762  1.00  0.00     0.000 C 
BRANCH   6   7
ATOM      7  C   UNL     1      -2.395 -17.373  -1.066  1.00  0.00     0.000 C 
BRANCH   7   8
ATOM      8  C   UNL     1      -1.101 -17.709  -1.829  1.00  0.00     0.000 C 
BRANCH   8   9
ATOM      9  C   UNL     1      -0.201 -18.698  -1.068  1.00  0.00     0.000 C 
BRANCH   9  10
ATOM     10  C   UNL     1      -0.474 -18.704   0.444  1.00  0.00     0.000 C 
BRANCH  10  11
ATOM     11  C   UNL     1       0.730 -18.216   1.271  1.00  0.00     0.000 C 
BRANCH  11  12
ATOM     12  C   UNL     1       0.931 -16.691   1.203  1.00  0.00     0.006 C 
BRANCH  12  13
ATOM     13  C   UNL     1      -0.261 -15.879   1.738  1.00  0.00     0.053 C 
BRANCH  13  14
ATOM     14  C   UNL     1      -0.584 -16.202   3.167  1.00  0.00     0.041 C 
ATOM     15  O   UNL     1       0.207 -15.864   4.085  1.00  0.00    -0.550 OA
ATOM     16  O   UNL     1      -1.742 -16.904   3.482  1.00  0.00    -0.550 OA
ENDBRANCH  13  14
ENDBRANCH  12  13
ENDBRANCH  11  12
ENDBRANCH  10  11
ENDBRANCH   9  10
ENDBRANCH   8   9
ENDBRANCH   7   8
ENDBRANCH   6   7
ENDBRANCH   5   6
ENDBRANCH   4   5
ENDBRANCH   3   4
ENDBRANCH   2   3
ENDBRANCH   1   2
BRANCH   1  17
ATOM     17  C   UNL     1      -7.002 -13.328  -5.606  1.00  0.00     0.000 C 
BRANCH  17  18
ATOM     18  C   UNL     1      -8.507 -13.673  -5.646  1.00  0.00     0.000 C 
BRANCH  18  19
ATOM     19  C   UNL     1      -8.773 -15.103  -6.147  1.00  0.00     0.000 C 
BRANCH  19  20
ATOM     20  C   UNL     1      -8.311 -16.182  -5.151  1.00  0.00     0.000 C 
BRANCH  20  21
ATOM     21  C   UNL     1      -7.113 -17.034  -5.616  1.00  0.00     0.000 C 
BRANCH  21  22
ATOM     22  C   UNL     1      -7.465 -18.455  -6.092  1.00  0.00    -0.000 C 
BRANCH  22  23
ATOM     23  C   UNL     1      -7.596 -18.562  -7.618  1.00  0.00    -0.000 C 
BRANCH  23  24
ATOM     24  C   UNL     1      -9.065 -18.747  -8.028  1.00  0.00    -0.000 C 
BRANCH  24  25
ATOM     25  C   UNL     1      -9.706 -17.442  -8.540  1.00  0.00    -0.000 C 
BRANCH  25  26
ATOM     26  C   UNL     1      -8.848 -16.686  -9.574  1.00  0.00    -0.000 C 
BRANCH  26  27
ATOM     27  C   UNL     1      -9.033 -17.178 -11.027  1.00  0.00    -0.000 C 
BRANCH  27  28
ATOM     28  C   UNL     1      -9.749 -16.158 -11.935  1.00  0.00    -0.000 C 
BRANCH  28  29
ATOM     29  C   UNL     1     -10.534 -15.082 -11.162  1.00  0.00    -0.003 C 
ATOM     30  C   UNL     1     -11.843 -14.694 -11.852  1.00  0.00     0.004 C 
ENDBRANCH  28  29
ENDBRANCH  27  28
ENDBRANCH  26  27
ENDBRANCH  25  26
ENDBRANCH  24  25
ENDBRANCH  23  24
ENDBRANCH  22  23
ENDBRANCH  21  22
ENDBRANCH  20  21
ENDBRANCH  19  20
ENDBRANCH  18  19
ENDBRANCH  17  18
ENDBRANCH   1  17
TORSDOF 26
ENDMDL
