MODEL 1
REMARK VINA RESULT:    -4.021      0.000      0.000
REMARK INTER + INTRA:          -9.606
REMARK INTER:                  -7.312
REMARK INTRA:                  -2.293
REMARK UNBOUND:                -2.293
REMARK SMILES CCCCCCCCCCCCCCCC(=O)[O-]
REMARK SMILES IDX 9 1 10 2 11 3 12 4 13 5 14 6 15 7 16 8 17 9 18 10 8 11 7 12
REMARK SMILES IDX 6 13 5 14 4 15 3 16 2 17 1 18
REMARK H PARENT
REMARK Flexibility Score: inf
ROOT
ATOM      1  C   UNL     1     -33.731  83.815 -19.128  1.00  0.00     0.000 C 
ENDROOT
BRANCH   1   2
ATOM      2  C   UNL     1     -34.921  84.773 -18.947  1.00  0.00     0.000 C 
BRANCH   2   3
ATOM      3  C   UNL     1     -35.843  84.357 -17.789  1.00  0.00     0.000 C 
BRANCH   3   4
ATOM      4  C   UNL     1     -37.073  83.565 -18.268  1.00  0.00     0.000 C 
BRANCH   4   5
ATOM      5  C   UNL     1     -37.268  83.642 -19.790  1.00  0.00     0.000 C 
BRANCH   5   6
ATOM      6  C   UNL     1     -37.580  82.274 -20.420  1.00  0.00     0.006 C 
BRANCH   6   7
ATOM      7  C   UNL     1     -37.416  81.125 -19.417  1.00  0.00     0.053 C 
BRANCH   7   8
ATOM      8  C   UNL     1     -37.743  79.800 -20.034  1.00  0.00     0.041 C 
ATOM      9  O   UNL     1     -38.941  79.480 -20.250  1.00  0.00    -0.550 OA
ATOM     10  O   UNL     1     -36.722  78.934 -20.403  1.00  0.00    -0.550 OA
ENDBRANCH   7   8
ENDBRANCH   6   7
ENDBRANCH   5   6
ENDBRANCH   4   5
ENDBRANCH   3   4
ENDBRANCH   2   3
ENDBRANCH   1   2
BRANCH   1  11
ATOM     11  C   UNL     1     -33.765  83.088 -20.482  1.00  0.00     0.000 C 
BRANCH  11  12
ATOM     12  C   UNL     1     -33.911  81.564 -20.331  1.00  0.00    -0.000 C 
BRANCH  12  13
ATOM     13  C   UNL     1     -33.683  81.088 -18.886  1.00  0.00    -0.000 C 
BRANCH  13  14
ATOM     14  C   UNL     1     -32.293  80.477 -18.626  1.00  0.00    -0.000 C 
BRANCH  14  15
ATOM     15  C   UNL     1     -31.668  79.806 -19.871  1.00  0.00    -0.000 C 
BRANCH  15  16
ATOM     16  C   UNL     1     -30.379  80.498 -20.358  1.00  0.00    -0.000 C 
BRANCH  16  17
ATOM     17  C   UNL     1     -30.215  81.939 -19.844  1.00  0.00    -0.003 C 
ATOM     18  C   UNL     1     -30.171  82.968 -20.973  1.00  0.00     0.004 C 
ENDBRANCH  16  17
ENDBRANCH  15  16
ENDBRANCH  14  15
ENDBRANCH  13  14
ENDBRANCH  12  13
ENDBRANCH  11  12
ENDBRANCH   1  11
TORSDOF 14
ENDMDL
MODEL 2
REMARK VINA RESULT:    -3.830     16.609     19.331
REMARK INTER + INTRA:          -9.259
REMARK INTER:                  -7.080
REMARK INTRA:                  -2.178
REMARK UNBOUND:                -2.293
REMARK SMILES CCCCCCCCCCCCCCCC(=O)[O-]
REMARK SMILES IDX 9 1 10 2 11 3 12 4 13 5 14 6 15 7 16 8 17 9 18 10 8 11 7 12
REMARK SMILES IDX 6 13 5 14 4 15 3 16 2 17 1 18
REMARK H PARENT
REMARK Flexibility Score: inf
ROOT
ATOM      1  C   UNL     1     -25.495  96.022 -33.270  1.00  0.00     0.000 C 
ENDROOT
BRANCH   1   2
ATOM      2  C   UNL     1     -23.958  95.951 -33.294  1.00  0.00     0.000 C 
BRANCH   2   3
ATOM      3  C   UNL     1     -23.337  96.133 -31.899  1.00  0.00     0.000 C 
BRANCH   3   4
ATOM      4  C   UNL     1     -24.387  96.463 -30.822  1.00  0.00     0.000 C 
BRANCH   4   5
ATOM      5  C   UNL     1     -24.073  95.802 -29.471  1.00  0.00     0.000 C 
BRANCH   5   6
ATOM      6  C   UNL     1     -25.213  95.964 -28.451  1.00  0.00     0.006 C 
BRANCH   6   7
ATOM      7  C   UNL     1     -25.615  94.626 -27.817  1.00  0.00     0.053 C 
BRANCH   7   8
ATOM      8  C   UNL     1     -26.606  94.814 -26.708  1.00  0.00     0.041 C 
ATOM      9  O   UNL     1     -26.306  95.509 -25.702  1.00  0.00    -0.550 OA
ATOM     10  O   UNL     1     -27.872  94.251 -26.803  1.00  0.00    -0.550 OA
ENDBRANCH   7   8
ENDBRANCH   6   7
ENDBRANCH   5   6
ENDBRANCH   4   5
ENDBRANCH   3   4
ENDBRANCH   2   3
ENDBRANCH   1   2
BRANCH   1  11
ATOM     11  C   UNL     1     -26.148  94.684 -33.652  1.00  0.00     0.000 C 
BRANCH  11  12
ATOM     12  C   UNL     1     -26.927  94.052 -32.485  1.00  0.00    -0.000 C 
BRANCH  12  13
ATOM     13  C   UNL     1     -26.016  93.278 -31.516  1.00  0.00    -0.000 C 
BRANCH  13  14
ATOM     14  C   UNL     1     -24.952  92.400 -32.202  1.00  0.00    -0.000 C 
BRANCH  14  15
ATOM     15  C   UNL     1     -23.591  92.387 -31.468  1.00  0.00    -0.000 C 
BRANCH  15  16
ATOM     16  C   UNL     1     -23.722  92.267 -29.937  1.00  0.00    -0.000 C 
BRANCH  16  17
ATOM     17  C   UNL     1     -23.255  90.911 -29.378  1.00  0.00    -0.003 C 
ATOM     18  C   UNL     1     -23.389  90.820 -27.858  1.00  0.00     0.004 C 
ENDBRANCH  16  17
ENDBRANCH  15  16
ENDBRANCH  14  15
ENDBRANCH  13  14
ENDBRANCH  12  13
ENDBRANCH  11  12
ENDBRANCH   1  11
TORSDOF 14
ENDMDL
MODEL 3
REMARK VINA RESULT:    -3.771     15.083     17.866
REMARK INTER + INTRA:          -9.150
REMARK INTER:                  -7.241
REMARK INTRA:                  -1.909
REMARK UNBOUND:                -2.293
REMARK SMILES CCCCCCCCCCCCCCCC(=O)[O-]
REMARK SMILES IDX 9 1 10 2 11 3 12 4 13 5 14 6 15 7 16 8 17 9 18 10 8 11 7 12
REMARK SMILES IDX 6 13 5 14 4 15 3 16 2 17 1 18
REMARK H PARENT
REMARK Flexibility Score: inf
ROOT
ATOM      1  C   UNL     1     -24.687  95.300 -30.681  1.00  0.00     0.000 C 
ENDROOT
BRANCH   1   2
ATOM      2  C   UNL     1     -24.466  95.962 -29.310  1.00  0.00     0.000 C 
BRANCH   2   3
ATOM      3  C   UNL     1     -24.822  95.029 -28.140  1.00  0.00     0.000 C 
BRANCH   3   4
ATOM      4  C   UNL     1     -24.301  93.596 -28.347  1.00  0.00     0.000 C 
BRANCH   4   5
ATOM      5  C   UNL     1     -25.371  92.532 -28.051  1.00  0.00     0.000 C 
BRANCH   5   6
ATOM      6  C   UNL     1     -26.705  92.817 -28.761  1.00  0.00     0.006 C 
BRANCH   6   7
ATOM      7  C   UNL     1     -27.904  92.262 -27.981  1.00  0.00     0.053 C 
BRANCH   7   8
ATOM      8  C   UNL     1     -28.671  93.352 -27.294  1.00  0.00     0.041 C 
ATOM      9  O   UNL     1     -28.063  94.333 -26.791  1.00  0.00    -0.550 OA
ATOM     10  O   UNL     1     -30.057  93.300 -27.242  1.00  0.00    -0.550 OA
ENDBRANCH   7   8
ENDBRANCH   6   7
ENDBRANCH   5   6
ENDBRANCH   4   5
ENDBRANCH   3   4
ENDBRANCH   2   3
ENDBRANCH   1   2
BRANCH   1  11
ATOM     11  C   UNL     1     -23.514  95.545 -31.645  1.00  0.00     0.000 C 
BRANCH  11  12
ATOM     12  C   UNL     1     -23.050  94.258 -32.350  1.00  0.00    -0.000 C 
BRANCH  12  13
ATOM     13  C   UNL     1     -23.785  93.006 -31.842  1.00  0.00    -0.000 C 
BRANCH  13  14
ATOM     14  C   UNL     1     -22.984  91.697 -31.974  1.00  0.00    -0.000 C 
BRANCH  14  15
ATOM     15  C   UNL     1     -23.510  90.555 -31.074  1.00  0.00    -0.000 C 
BRANCH  15  16
ATOM     16  C   UNL     1     -22.744  90.422 -29.743  1.00  0.00    -0.000 C 
BRANCH  16  17
ATOM     17  C   UNL     1     -23.368  89.409 -28.765  1.00  0.00    -0.003 C 
ATOM     18  C   UNL     1     -24.711  88.867 -29.254  1.00  0.00     0.004 C 
ENDBRANCH  16  17
ENDBRANCH  15  16
ENDBRANCH  14  15
ENDBRANCH  13  14
ENDBRANCH  12  13
ENDBRANCH  11  12
ENDBRANCH   1  11
TORSDOF 14
ENDMDL
MODEL 4
REMARK VINA RESULT:    -3.718      2.640      5.761
REMARK INTER + INTRA:          -9.053
REMARK INTER:                  -7.225
REMARK INTRA:                  -1.828
REMARK UNBOUND:                -2.293
REMARK SMILES CCCCCCCCCCCCCCCC(=O)[O-]
REMARK SMILES IDX 9 1 10 2 11 3 12 4 13 5 14 6 15 7 16 8 17 9 18 10 8 11 7 12
REMARK SMILES IDX 6 13 5 14 4 15 3 16 2 17 1 18
REMARK H PARENT
REMARK Flexibility Score: inf
ROOT
ATOM      1  C   UNL     1     -37.772  81.925 -21.288  1.00  0.00     0.000 C 
ENDROOT
BRANCH   1   2
ATOM      2  C   UNL     1     -37.883  80.976 -20.081  1.00  0.00     0.000 C 
BRANCH   2   3
ATOM      3  C   UNL     1     -36.774  79.912 -20.063  1.00  0.00     0.000 C 
BRANCH   3   4
ATOM      4  C   UNL     1     -35.479  80.395 -20.741  1.00  0.00     0.000 C 
BRANCH   4   5
ATOM      5  C   UNL     1     -34.324  80.578 -19.743  1.00  0.00     0.000 C 
BRANCH   5   6
ATOM      6  C   UNL     1     -33.047  81.120 -20.405  1.00  0.00     0.006 C 
BRANCH   6   7
ATOM      7  C   UNL     1     -31.876  81.206 -19.418  1.00  0.00     0.053 C 
BRANCH   7   8
ATOM      8  C   UNL     1     -30.923  80.062 -19.586  1.00  0.00     0.041 C 
ATOM      9  O   UNL     1     -29.957  80.154 -20.388  1.00  0.00    -0.550 OA
ATOM     10  O   UNL     1     -31.083  78.907 -18.831  1.00  0.00    -0.550 OA
ENDBRANCH   7   8
ENDBRANCH   6   7
ENDBRANCH   5   6
ENDBRANCH   4   5
ENDBRANCH   3   4
ENDBRANCH   2   3
ENDBRANCH   1   2
BRANCH   1  11
ATOM     11  C   UNL     1     -37.465  83.372 -20.868  1.00  0.00     0.000 C 
BRANCH  11  12
ATOM     12  C   UNL     1     -36.411  84.037 -21.770  1.00  0.00    -0.000 C 
BRANCH  12  13
ATOM     13  C   UNL     1     -35.390  84.869 -20.974  1.00  0.00    -0.000 C 
BRANCH  13  14
ATOM     14  C   UNL     1     -34.864  84.183 -19.698  1.00  0.00    -0.000 C 
BRANCH  14  15
ATOM     15  C   UNL     1     -34.863  85.104 -18.456  1.00  0.00    -0.000 C 
BRANCH  15  16
ATOM     16  C   UNL     1     -36.041  84.840 -17.497  1.00  0.00    -0.000 C 
BRANCH  16  17
ATOM     17  C   UNL     1     -36.747  83.494 -17.736  1.00  0.00    -0.003 C 
ATOM     18  C   UNL     1     -36.053  82.328 -17.033  1.00  0.00     0.004 C 
ENDBRANCH  16  17
ENDBRANCH  15  16
ENDBRANCH  14  15
ENDBRANCH  13  14
ENDBRANCH  12  13
ENDBRANCH  11  12
ENDBRANCH   1  11
TORSDOF 14
ENDMDL
MODEL 5
REMARK VINA RESULT:    -3.712     16.210     19.052
REMARK INTER + INTRA:          -9.043
REMARK INTER:                  -6.886
REMARK INTRA:                  -2.157
REMARK UNBOUND:                -2.293
REMARK SMILES CCCCCCCCCCCCCCCC(=O)[O-]
REMARK SMILES IDX 9 1 10 2 11 3 12 4 13 5 14 6 15 7 16 8 17 9 18 10 8 11 7 12
REMARK SMILES IDX 6 13 5 14 4 15 3 16 2 17 1 18
REMARK H PARENT
REMARK Flexibility Score: inf
ROOT
ATOM      1  C   UNL     1     -23.770  96.052 -32.192  1.00  0.00     0.000 C 
ENDROOT
BRANCH   1   2
ATOM      2  C   UNL     1     -23.734  94.706 -32.936  1.00  0.00     0.000 C 
BRANCH   2   3
ATOM      3  C   UNL     1     -23.018  93.607 -32.134  1.00  0.00     0.000 C 
BRANCH   3   4
ATOM      4  C   UNL     1     -23.591  92.205 -32.409  1.00  0.00     0.000 C 
BRANCH   4   5
ATOM      5  C   UNL     1     -22.762  91.090 -31.751  1.00  0.00     0.000 C 
BRANCH   5   6
ATOM      6  C   UNL     1     -22.880  91.088 -30.217  1.00  0.00     0.006 C 
BRANCH   6   7
ATOM      7  C   UNL     1     -23.555  89.814 -29.692  1.00  0.00     0.053 C 
BRANCH   7   8
ATOM      8  C   UNL     1     -23.467  89.715 -28.200  1.00  0.00     0.041 C 
ATOM      9  O   UNL     1     -23.806  88.652 -27.614  1.00  0.00    -0.550 OA
ATOM     10  O   UNL     1     -22.977  90.782 -27.459  1.00  0.00    -0.550 OA
ENDBRANCH   7   8
ENDBRANCH   6   7
ENDBRANCH   5   6
ENDBRANCH   4   5
ENDBRANCH   3   4
ENDBRANCH   2   3
ENDBRANCH   1   2
BRANCH   1  11
ATOM     11  C   UNL     1     -23.550  95.891 -30.679  1.00  0.00     0.000 C 
BRANCH  11  12
ATOM     12  C   UNL     1     -24.716  96.455 -29.848  1.00  0.00    -0.000 C 
BRANCH  12  13
ATOM     13  C   UNL     1     -24.567  96.168 -28.345  1.00  0.00    -0.000 C 
BRANCH  13  14
ATOM     14  C   UNL     1     -25.451  95.019 -27.822  1.00  0.00    -0.000 C 
BRANCH  14  15
ATOM     15  C   UNL     1     -24.980  93.618 -28.276  1.00  0.00    -0.000 C 
BRANCH  15  16
ATOM     16  C   UNL     1     -26.139  92.633 -28.526  1.00  0.00    -0.000 C 
BRANCH  16  17
ATOM     17  C   UNL     1     -26.329  92.261 -30.008  1.00  0.00    -0.003 C 
ATOM     18  C   UNL     1     -26.696  93.464 -30.877  1.00  0.00     0.004 C 
ENDBRANCH  16  17
ENDBRANCH  15  16
ENDBRANCH  14  15
ENDBRANCH  13  14
ENDBRANCH  12  13
ENDBRANCH  11  12
ENDBRANCH   1  11
TORSDOF 14
ENDMDL
MODEL 6
REMARK VINA RESULT:    -3.703     14.912     18.315
REMARK INTER + INTRA:          -9.026
REMARK INTER:                  -6.957
REMARK INTRA:                  -2.069
REMARK UNBOUND:                -2.293
REMARK SMILES CCCCCCCCCCCCCCCC(=O)[O-]
REMARK SMILES IDX 9 1 10 2 11 3 12 4 13 5 14 6 15 7 16 8 17 9 18 10 8 11 7 12
REMARK SMILES IDX 6 13 5 14 4 15 3 16 2 17 1 18
REMARK H PARENT
REMARK Flexibility Score: inf
ROOT
ATOM      1  C   UNL     1     -23.251  93.374 -31.542  1.00  0.00     0.000 C 
ENDROOT
BRANCH   1   2
ATOM      2  C   UNL     1     -24.400  92.364 -31.707  1.00  0.00     0.000 C 
BRANCH   2   3
ATOM      3  C   UNL     1     -23.973  90.925 -31.373  1.00  0.00     0.000 C 
BRANCH   3   4
ATOM      4  C   UNL     1     -22.646  90.867 -30.597  1.00  0.00     0.000 C 
BRANCH   4   5
ATOM      5  C   UNL     1     -22.832  90.394 -29.146  1.00  0.00     0.000 C 
BRANCH   5   6
ATOM      6  C   UNL     1     -23.651  89.096 -29.044  1.00  0.00     0.006 C 
BRANCH   6   7
ATOM      7  C   UNL     1     -24.482  89.037 -27.755  1.00  0.00     0.053 C 
BRANCH   7   8
ATOM      8  C   UNL     1     -23.678  88.521 -26.601  1.00  0.00     0.041 C 
ATOM      9  O   UNL     1     -23.149  89.325 -25.788  1.00  0.00    -0.550 OA
ATOM     10  O   UNL     1     -23.544  87.154 -26.402  1.00  0.00    -0.550 OA
ENDBRANCH   7   8
ENDBRANCH   6   7
ENDBRANCH   5   6
ENDBRANCH   4   5
ENDBRANCH   3   4
ENDBRANCH   2   3
ENDBRANCH   1   2
BRANCH   1  11
ATOM     11  C   UNL     1     -23.589  94.749 -32.142  1.00  0.00     0.000 C 
BRANCH  11  12
ATOM     12  C   UNL     1     -23.370  95.899 -31.143  1.00  0.00    -0.000 C 
BRANCH  12  13
ATOM     13  C   UNL     1     -24.631  96.221 -30.324  1.00  0.00    -0.000 C 
BRANCH  13  14
ATOM     14  C   UNL     1     -24.453  96.093 -28.799  1.00  0.00    -0.000 C 
BRANCH  14  15
ATOM     15  C   UNL     1     -25.366  95.023 -28.156  1.00  0.00    -0.000 C 
BRANCH  15  16
ATOM     16  C   UNL     1     -24.732  93.618 -28.117  1.00  0.00    -0.000 C 
BRANCH  16  17
ATOM     17  C   UNL     1     -25.738  92.477 -28.352  1.00  0.00    -0.003 C 
ATOM     18  C   UNL     1     -27.007  92.944 -29.063  1.00  0.00     0.004 C 
ENDBRANCH  16  17
ENDBRANCH  15  16
ENDBRANCH  14  15
ENDBRANCH  13  14
ENDBRANCH  12  13
ENDBRANCH  11  12
ENDBRANCH   1  11
TORSDOF 14
ENDMDL
MODEL 7
REMARK VINA RESULT:    -3.683     14.347     17.650
REMARK INTER + INTRA:          -8.990
REMARK INTER:                  -6.991
REMARK INTRA:                  -1.999
REMARK UNBOUND:                -2.293
REMARK SMILES CCCCCCCCCCCCCCCC(=O)[O-]
REMARK SMILES IDX 9 1 10 2 11 3 12 4 13 5 14 6 15 7 16 8 17 9 18 10 8 11 7 12
REMARK SMILES IDX 6 13 5 14 4 15 3 16 2 17 1 18
REMARK H PARENT
REMARK Flexibility Score: inf
ROOT
ATOM      1  C   UNL     1     -24.044  90.957 -31.488  1.00  0.00     0.000 C 
ENDROOT
BRANCH   1   2
ATOM      2  C   UNL     1     -22.743  91.014 -30.669  1.00  0.00     0.000 C 
BRANCH   2   3
ATOM      3  C   UNL     1     -22.828  90.197 -29.369  1.00  0.00     0.000 C 
BRANCH   3   4
ATOM      4  C   UNL     1     -24.048  89.259 -29.338  1.00  0.00     0.000 C 
BRANCH   4   5
ATOM      5  C   UNL     1     -24.366  88.752 -27.922  1.00  0.00     0.000 C 
BRANCH   5   6
ATOM      6  C   UNL     1     -23.332  87.736 -27.408  1.00  0.00     0.006 C 
BRANCH   6   7
ATOM      7  C   UNL     1     -23.628  87.286 -25.972  1.00  0.00     0.053 C 
BRANCH   7   8
ATOM      8  C   UNL     1     -22.631  87.839 -25.000  1.00  0.00     0.041 C 
ATOM      9  O   UNL     1     -21.853  87.066 -24.382  1.00  0.00    -0.550 OA
ATOM     10  O   UNL     1     -22.538  89.211 -24.805  1.00  0.00    -0.550 OA
ENDBRANCH   7   8
ENDBRANCH   6   7
ENDBRANCH   5   6
ENDBRANCH   4   5
ENDBRANCH   3   4
ENDBRANCH   2   3
ENDBRANCH   1   2
BRANCH   1  11
ATOM     11  C   UNL     1     -24.522  92.351 -31.927  1.00  0.00     0.000 C 
BRANCH  11  12
ATOM     12  C   UNL     1     -23.364  93.356 -32.063  1.00  0.00    -0.000 C 
BRANCH  12  13
ATOM     13  C   UNL     1     -23.665  94.701 -31.380  1.00  0.00    -0.000 C 
BRANCH  13  14
ATOM     14  C   UNL     1     -24.875  94.678 -30.427  1.00  0.00    -0.000 C 
BRANCH  14  15
ATOM     15  C   UNL     1     -24.486  94.714 -28.930  1.00  0.00    -0.000 C 
BRANCH  15  16
ATOM     16  C   UNL     1     -24.410  93.317 -28.283  1.00  0.00    -0.000 C 
BRANCH  16  17
ATOM     17  C   UNL     1     -25.763  92.803 -27.758  1.00  0.00    -0.003 C 
ATOM     18  C   UNL     1     -26.480  91.898 -28.759  1.00  0.00     0.004 C 
ENDBRANCH  16  17
ENDBRANCH  15  16
ENDBRANCH  14  15
ENDBRANCH  13  14
ENDBRANCH  12  13
ENDBRANCH  11  12
ENDBRANCH   1  11
TORSDOF 14
ENDMDL
MODEL 8
REMARK VINA RESULT:    -3.656      2.013      4.760
REMARK INTER + INTRA:          -8.942
REMARK INTER:                  -6.465
REMARK INTRA:                  -2.477
REMARK UNBOUND:                -2.293
REMARK SMILES CCCCCCCCCCCCCCCC(=O)[O-]
REMARK SMILES IDX 9 1 10 2 11 3 12 4 13 5 14 6 15 7 16 8 17 9 18 10 8 11 7 12
REMARK SMILES IDX 6 13 5 14 4 15 3 16 2 17 1 18
REMARK H PARENT
REMARK Flexibility Score: inf
ROOT
ATOM      1  C   UNL     1     -34.524  85.077 -18.232  1.00  0.00     0.000 C 
ENDROOT
BRANCH   1   2
ATOM      2  C   UNL     1     -34.018  83.964 -19.167  1.00  0.00     0.000 C 
BRANCH   2   3
ATOM      3  C   UNL     1     -32.525  83.657 -18.966  1.00  0.00     0.000 C 
BRANCH   3   4
ATOM      4  C   UNL     1     -32.209  82.155 -19.076  1.00  0.00     0.000 C 
BRANCH   4   5
ATOM      5  C   UNL     1     -33.478  81.290 -19.147  1.00  0.00     0.000 C 
BRANCH   5   6
ATOM      6  C   UNL     1     -33.489  80.348 -20.362  1.00  0.00     0.006 C 
BRANCH   6   7
ATOM      7  C   UNL     1     -33.808  81.090 -21.666  1.00  0.00     0.053 C 
BRANCH   7   8
ATOM      8  C   UNL     1     -34.619  80.246 -22.601  1.00  0.00     0.041 C 
ATOM      9  O   UNL     1     -35.286  80.784 -23.523  1.00  0.00    -0.550 OA
ATOM     10  O   UNL     1     -34.609  78.863 -22.476  1.00  0.00    -0.550 OA
ENDBRANCH   7   8
ENDBRANCH   6   7
ENDBRANCH   5   6
ENDBRANCH   4   5
ENDBRANCH   3   4
ENDBRANCH   2   3
ENDBRANCH   1   2
BRANCH   1  11
ATOM     11  C   UNL     1     -35.857  84.714 -17.557  1.00  0.00     0.000 C 
BRANCH  11  12
ATOM     12  C   UNL     1     -36.153  83.204 -17.609  1.00  0.00    -0.000 C 
BRANCH  12  13
ATOM     13  C   UNL     1     -37.382  82.871 -18.472  1.00  0.00    -0.000 C 
BRANCH  13  14
ATOM     14  C   UNL     1     -37.169  81.713 -19.466  1.00  0.00    -0.000 C 
BRANCH  14  15
ATOM     15  C   UNL     1     -37.397  82.114 -20.942  1.00  0.00    -0.000 C 
BRANCH  15  16
ATOM     16  C   UNL     1     -37.248  83.627 -21.197  1.00  0.00    -0.000 C 
BRANCH  16  17
ATOM     17  C   UNL     1     -36.133  83.981 -22.198  1.00  0.00    -0.003 C 
ATOM     18  C   UNL     1     -35.749  85.460 -22.156  1.00  0.00     0.004 C 
ENDBRANCH  16  17
ENDBRANCH  15  16
ENDBRANCH  14  15
ENDBRANCH  13  14
ENDBRANCH  12  13
ENDBRANCH  11  12
ENDBRANCH   1  11
TORSDOF 14
ENDMDL
MODEL 9
REMARK VINA RESULT:    -3.642     15.437     18.108
REMARK INTER + INTRA:          -8.917
REMARK INTER:                  -6.558
REMARK INTRA:                  -2.359
REMARK UNBOUND:                -2.293
REMARK SMILES CCCCCCCCCCCCCCCC(=O)[O-]
REMARK SMILES IDX 9 1 10 2 11 3 12 4 13 5 14 6 15 7 16 8 17 9 18 10 8 11 7 12
REMARK SMILES IDX 6 13 5 14 4 15 3 16 2 17 1 18
REMARK H PARENT
REMARK Flexibility Score: inf
ROOT
ATOM      1  C   UNL     1     -26.704  92.247 -30.575  1.00  0.00     0.000 C 
ENDROOT
BRANCH   1   2
ATOM      2  C   UNL     1     -26.126  91.176 -31.516  1.00  0.00     0.000 C 
BRANCH   2   3
ATOM      3  C   UNL     1     -25.159  90.220 -30.799  1.00  0.00     0.000 C 
BRANCH   3   4
ATOM      4  C   UNL     1     -23.694  90.432 -31.222  1.00  0.00     0.000 C 
BRANCH   4   5
ATOM      5  C   UNL     1     -22.825  90.987 -30.081  1.00  0.00     0.000 C 
BRANCH   5   6
ATOM      6  C   UNL     1     -23.651  91.395 -28.849  1.00  0.00     0.006 C 
BRANCH   6   7
ATOM      7  C   UNL     1     -23.112  90.767 -27.558  1.00  0.00     0.053 C 
BRANCH   7   8
ATOM      8  C   UNL     1     -23.855  89.517 -27.197  1.00  0.00     0.041 C 
ATOM      9  O   UNL     1     -24.715  89.534 -26.277  1.00  0.00    -0.550 OA
ATOM     10  O   UNL     1     -23.625  88.342 -27.901  1.00  0.00    -0.550 OA
ENDBRANCH   7   8
ENDBRANCH   6   7
ENDBRANCH   5   6
ENDBRANCH   4   5
ENDBRANCH   3   4
ENDBRANCH   2   3
ENDBRANCH   1   2
BRANCH   1  11
ATOM     11  C   UNL     1     -26.568  93.667 -31.150  1.00  0.00     0.000 C 
BRANCH  11  12
ATOM     12  C   UNL     1     -25.193  93.914 -31.795  1.00  0.00    -0.000 C 
BRANCH  12  13
ATOM     13  C   UNL     1     -24.151  94.430 -30.789  1.00  0.00    -0.000 C 
BRANCH  13  14
ATOM     14  C   UNL     1     -24.277  95.928 -30.449  1.00  0.00    -0.000 C 
BRANCH  14  15
ATOM     15  C   UNL     1     -24.734  96.198 -28.997  1.00  0.00    -0.000 C 
BRANCH  15  16
ATOM     16  C   UNL     1     -24.810  94.924 -28.131  1.00  0.00    -0.000 C 
BRANCH  16  17
ATOM     17  C   UNL     1     -26.090  94.826 -27.282  1.00  0.00    -0.003 C 
ATOM     18  C   UNL     1     -26.516  93.381 -27.020  1.00  0.00     0.004 C 
ENDBRANCH  16  17
ENDBRANCH  15  16
ENDBRANCH  14  15
ENDBRANCH  13  14
ENDBRANCH  12  13
ENDBRANCH  11  12
ENDBRANCH   1  11
TORSDOF 14
ENDMDL
