MODEL 1
REMARK VINA RESULT:    -6.941      0.000      0.000
REMARK INTER + INTRA:          -8.517
REMARK INTER:                  -8.361
REMARK INTRA:                  -0.156
REMARK UNBOUND:                -0.156
REMARK SMILES O=c1c(O)c(-c2ccc(O)c(O)c2)oc2cc(O)cc(O)c12
REMARK SMILES IDX 5 1 3 2 2 3 1 4 22 5 20 6 19 7 17 8 16 9 15 10 14 11 6 12
REMARK SMILES IDX 7 13 8 14 9 15 13 16 11 17 10 18 12 20 4 22 21 24 18 26
REMARK H PARENT 10 19 12 21 4 23 21 25 18 27
REMARK Flexibility Score: inf
ROOT
ATOM      1  C   UNL     1      31.142 -92.150  37.156  1.00  0.00     0.180 A 
ATOM      2  C   UNL     1      29.899 -92.727  36.841  1.00  0.00     0.208 A 
ATOM      3  C   UNL     1      29.735 -94.114  36.987  1.00  0.00     0.238 A 
ATOM      4  O   UNL     1      28.605 -94.617  36.756  1.00  0.00    -0.285 OA
ATOM      5  C   UNL     1      30.822 -94.909  37.428  1.00  0.00     0.111 A 
ATOM      6  C   UNL     1      30.780 -96.328  37.571  1.00  0.00     0.134 A 
ATOM      7  C   UNL     1      31.872 -96.997  38.140  1.00  0.00     0.093 A 
ATOM      8  C   UNL     1      33.028 -96.304  38.508  1.00  0.00     0.123 A 
ATOM      9  C   UNL     1      33.101 -94.927  38.316  1.00  0.00     0.094 A 
ATOM     10  C   UNL     1      32.013 -94.227  37.785  1.00  0.00     0.146 A 
ATOM     11  O   UNL     1      32.121 -92.913  37.629  1.00  0.00    -0.452 OA
ENDROOT
BRANCH   1  12
ATOM     12  C   UNL     1      31.398 -90.700  37.005  1.00  0.00     0.025 A 
ATOM     13  C   UNL     1      32.355 -90.216  36.095  1.00  0.00     0.016 A 
ATOM     14  C   UNL     1      32.597 -88.844  35.987  1.00  0.00     0.051 A 
ATOM     15  C   UNL     1      31.898 -87.937  36.795  1.00  0.00     0.157 A 
ATOM     16  C   UNL     1      30.715 -89.788  37.827  1.00  0.00     0.062 A 
ATOM     17  C   UNL     1      30.958 -88.410  37.718  1.00  0.00     0.158 A 
BRANCH  15  18
ATOM     18  O   UNL     1      32.136 -86.569  36.689  1.00  0.00    -0.504 OA
ATOM     19  H   UNL     1      31.823 -86.037  35.886  1.00  0.00     0.293 HD
ENDBRANCH  15  18
BRANCH  17  20
ATOM     20  O   UNL     1      30.268 -87.507  38.526  1.00  0.00    -0.504 OA
ATOM     21  H   UNL     1      29.285 -87.628  38.737  1.00  0.00     0.293 HD
ENDBRANCH  17  20
ENDBRANCH   1  12
BRANCH   2  22
ATOM     22  O   UNL     1      28.834 -91.921  36.429  1.00  0.00    -0.502 OA
ATOM     23  H   UNL     1      28.761 -91.555  35.488  1.00  0.00     0.293 HD
ENDBRANCH   2  22
BRANCH   6  24
ATOM     24  O   UNL     1      29.712 -97.124  37.150  1.00  0.00    -0.507 OA
ATOM     25  H   UNL     1      28.938 -97.404  37.733  1.00  0.00     0.293 HD
ENDBRANCH   6  24
BRANCH   8  26
ATOM     26  O   UNL     1      34.116 -96.979  39.058  1.00  0.00    -0.508 OA
ATOM     27  H   UNL     1      34.956 -97.159  38.519  1.00  0.00     0.293 HD
ENDBRANCH   8  26
TORSDOF 6
ENDMDL
MODEL 2
REMARK VINA RESULT:    -5.843      1.209      2.956
REMARK INTER + INTRA:          -7.194
REMARK INTER:                  -7.105
REMARK INTRA:                  -0.089
REMARK UNBOUND:                -0.156
REMARK SMILES O=c1c(O)c(-c2ccc(O)c(O)c2)oc2cc(O)cc(O)c12
REMARK SMILES IDX 5 1 3 2 2 3 1 4 22 5 20 6 19 7 17 8 16 9 15 10 14 11 6 12
REMARK SMILES IDX 7 13 8 14 9 15 13 16 11 17 10 18 12 20 4 22 21 24 18 26
REMARK H PARENT 10 19 12 21 4 23 21 25 18 27
REMARK Flexibility Score: inf
ROOT
ATOM      1  C   UNL     1      31.285 -92.097  37.116  1.00  0.00     0.180 A 
ATOM      2  C   UNL     1      32.337 -92.941  37.512  1.00  0.00     0.208 A 
ATOM      3  C   UNL     1      32.073 -94.304  37.723  1.00  0.00     0.238 A 
ATOM      4  O   UNL     1      33.030 -95.065  38.024  1.00  0.00    -0.285 OA
ATOM      5  C   UNL     1      30.758 -94.802  37.553  1.00  0.00     0.111 A 
ATOM      6  C   UNL     1      30.370 -96.156  37.780  1.00  0.00     0.134 A 
ATOM      7  C   UNL     1      29.070 -96.566  37.455  1.00  0.00     0.093 A 
ATOM      8  C   UNL     1      28.128 -95.654  36.973  1.00  0.00     0.123 A 
ATOM      9  C   UNL     1      28.480 -94.317  36.805  1.00  0.00     0.094 A 
ATOM     10  C   UNL     1      29.780 -93.887  37.086  1.00  0.00     0.146 A 
ATOM     11  O   UNL     1      30.077 -92.606  36.902  1.00  0.00    -0.452 OA
ENDROOT
BRANCH   1  12
ATOM     12  C   UNL     1      31.479 -90.646  36.898  1.00  0.00     0.025 A 
ATOM     13  C   UNL     1      32.409 -90.164  35.957  1.00  0.00     0.016 A 
ATOM     14  C   UNL     1      32.593 -88.790  35.786  1.00  0.00     0.051 A 
ATOM     15  C   UNL     1      31.863 -87.877  36.559  1.00  0.00     0.157 A 
ATOM     16  C   UNL     1      30.765 -89.726  37.685  1.00  0.00     0.062 A 
ATOM     17  C   UNL     1      30.950 -88.346  37.511  1.00  0.00     0.158 A 
BRANCH  15  18
ATOM     18  O   UNL     1      32.043 -86.506  36.389  1.00  0.00    -0.504 OA
ATOM     19  H   UNL     1      32.540 -86.131  35.590  1.00  0.00     0.293 HD
ENDBRANCH  15  18
BRANCH  17  20
ATOM     20  O   UNL     1      30.230 -87.437  38.285  1.00  0.00    -0.504 OA
ATOM     21  H   UNL     1      29.224 -87.503  38.382  1.00  0.00     0.293 HD
ENDBRANCH  17  20
ENDBRANCH   1  12
BRANCH   2  22
ATOM     22  O   UNL     1      33.631 -92.433  37.652  1.00  0.00    -0.502 OA
ATOM     23  H   UNL     1      33.827 -91.569  38.143  1.00  0.00     0.293 HD
ENDBRANCH   2  22
BRANCH   6  24
ATOM     24  O   UNL     1      31.206 -97.124  38.343  1.00  0.00    -0.507 OA
ATOM     25  H   UNL     1      32.023 -97.509  37.895  1.00  0.00     0.293 HD
ENDBRANCH   6  24
BRANCH   8  26
ATOM     26  O   UNL     1      26.832 -96.067  36.667  1.00  0.00    -0.508 OA
ATOM     27  H   UNL     1      26.021 -95.581  37.032  1.00  0.00     0.293 HD
ENDBRANCH   8  26
TORSDOF 6
ENDMDL
MODEL 3
REMARK VINA RESULT:    -5.662      9.431     11.055
REMARK INTER + INTRA:          -6.976
REMARK INTER:                  -6.892
REMARK INTRA:                  -0.084
REMARK UNBOUND:                -0.156
REMARK SMILES O=c1c(O)c(-c2ccc(O)c(O)c2)oc2cc(O)cc(O)c12
REMARK SMILES IDX 5 1 3 2 2 3 1 4 22 5 20 6 19 7 17 8 16 9 15 10 14 11 6 12
REMARK SMILES IDX 7 13 8 14 9 15 13 16 11 17 10 18 12 20 4 22 21 24 18 26
REMARK H PARENT 10 19 12 21 4 23 21 25 18 27
REMARK Flexibility Score: inf
ROOT
ATOM      1  C   UNL     1      37.799 -95.435  30.677  1.00  0.00     0.180 A 
ATOM      2  C   UNL     1      38.480 -96.065  29.621  1.00  0.00     0.208 A 
ATOM      3  C   UNL     1      37.819 -96.244  28.395  1.00  0.00     0.238 A 
ATOM      4  O   UNL     1      38.452 -96.759  27.437  1.00  0.00    -0.285 OA
ATOM      5  C   UNL     1      36.480 -95.806  28.246  1.00  0.00     0.111 A 
ATOM      6  C   UNL     1      35.701 -95.973  27.062  1.00  0.00     0.134 A 
ATOM      7  C   UNL     1      34.432 -95.384  26.982  1.00  0.00     0.093 A 
ATOM      8  C   UNL     1      33.890 -94.692  28.067  1.00  0.00     0.123 A 
ATOM      9  C   UNL     1      34.619 -94.575  29.248  1.00  0.00     0.094 A 
ATOM     10  C   UNL     1      35.903 -95.120  29.345  1.00  0.00     0.146 A 
ATOM     11  O   UNL     1      36.567 -94.977  30.485  1.00  0.00    -0.452 OA
ENDROOT
BRANCH   1  12
ATOM     12  C   UNL     1      38.420 -95.233  32.005  1.00  0.00     0.025 A 
ATOM     13  C   UNL     1      39.618 -94.508  32.151  1.00  0.00     0.016 A 
ATOM     14  C   UNL     1      40.199 -94.351  33.412  1.00  0.00     0.051 A 
ATOM     15  C   UNL     1      39.601 -94.925  34.542  1.00  0.00     0.157 A 
ATOM     16  C   UNL     1      37.837 -95.824  33.139  1.00  0.00     0.062 A 
ATOM     17  C   UNL     1      38.421 -95.665  34.405  1.00  0.00     0.158 A 
BRANCH  15  18
ATOM     18  O   UNL     1      40.178 -94.769  35.801  1.00  0.00    -0.504 OA
ATOM     19  H   UNL     1      39.768 -94.161  36.500  1.00  0.00     0.293 HD
ENDBRANCH  15  18
BRANCH  17  20
ATOM     20  O   UNL     1      37.832 -96.241  35.529  1.00  0.00    -0.504 OA
ATOM     21  H   UNL     1      38.374 -96.477  36.350  1.00  0.00     0.293 HD
ENDBRANCH  17  20
ENDBRANCH   1  12
BRANCH   2  22
ATOM     22  O   UNL     1      39.808 -96.470  29.782  1.00  0.00    -0.502 OA
ATOM     23  H   UNL     1      40.591 -95.872  29.548  1.00  0.00     0.293 HD
ENDBRANCH   2  22
BRANCH   6  24
ATOM     24  O   UNL     1      36.112 -96.723  25.956  1.00  0.00    -0.507 OA
ATOM     25  H   UNL     1      36.901 -97.350  25.948  1.00  0.00     0.293 HD
ENDBRANCH   6  24
BRANCH   8  26
ATOM     26  O   UNL     1      32.620 -94.123  27.984  1.00  0.00    -0.508 OA
ATOM     27  H   UNL     1      31.893 -94.353  28.652  1.00  0.00     0.293 HD
ENDBRANCH   8  26
TORSDOF 6
ENDMDL
MODEL 4
REMARK VINA RESULT:    -5.615      9.560     10.995
REMARK INTER + INTRA:          -6.919
REMARK INTER:                  -6.698
REMARK INTRA:                  -0.222
REMARK UNBOUND:                -0.156
REMARK SMILES O=c1c(O)c(-c2ccc(O)c(O)c2)oc2cc(O)cc(O)c12
REMARK SMILES IDX 5 1 3 2 2 3 1 4 22 5 20 6 19 7 17 8 16 9 15 10 14 11 6 12
REMARK SMILES IDX 7 13 8 14 9 15 13 16 11 17 10 18 12 20 4 22 21 24 18 26
REMARK H PARENT 10 19 12 21 4 23 21 25 18 27
REMARK Flexibility Score: inf
ROOT
ATOM      1  C   UNL     1      36.526 -95.495  29.481  1.00  0.00     0.180 A 
ATOM      2  C   UNL     1      37.599 -95.927  28.682  1.00  0.00     0.208 A 
ATOM      3  C   UNL     1      38.897 -95.907  29.218  1.00  0.00     0.238 A 
ATOM      4  O   UNL     1      39.846 -96.347  28.518  1.00  0.00    -0.285 OA
ATOM      5  C   UNL     1      39.107 -95.439  30.538  1.00  0.00     0.111 A 
ATOM      6  C   UNL     1      40.384 -95.337  31.167  1.00  0.00     0.134 A 
ATOM      7  C   UNL     1      40.461 -94.984  32.521  1.00  0.00     0.093 A 
ATOM      8  C   UNL     1      39.311 -94.667  33.248  1.00  0.00     0.123 A 
ATOM      9  C   UNL     1      38.066 -94.705  32.626  1.00  0.00     0.094 A 
ATOM     10  C   UNL     1      37.954 -95.089  31.287  1.00  0.00     0.146 A 
ATOM     11  O   UNL     1      36.746 -95.123  30.736  1.00  0.00    -0.452 OA
ENDROOT
BRANCH   1  12
ATOM     12  C   UNL     1      35.133 -95.463  28.978  1.00  0.00     0.025 A 
ATOM     13  C   UNL     1      34.739 -94.566  27.969  1.00  0.00     0.016 A 
ATOM     14  C   UNL     1      33.414 -94.537  27.527  1.00  0.00     0.051 A 
ATOM     15  C   UNL     1      32.461 -95.393  28.096  1.00  0.00     0.157 A 
ATOM     16  C   UNL     1      34.169 -96.304  29.559  1.00  0.00     0.062 A 
ATOM     17  C   UNL     1      32.839 -96.275  29.115  1.00  0.00     0.158 A 
BRANCH  15  18
ATOM     18  O   UNL     1      31.139 -95.368  27.657  1.00  0.00    -0.504 OA
ATOM     19  H   UNL     1      30.646 -94.496  27.507  1.00  0.00     0.293 HD
ENDBRANCH  15  18
BRANCH  17  20
ATOM     20  O   UNL     1      31.888 -97.121  29.684  1.00  0.00    -0.504 OA
ATOM     21  H   UNL     1      32.046 -98.118  29.765  1.00  0.00     0.293 HD
ENDBRANCH  17  20
ENDBRANCH   1  12
BRANCH   2  22
ATOM     22  O   UNL     1      37.366 -96.406  27.390  1.00  0.00    -0.502 OA
ATOM     23  H   UNL     1      37.649 -95.896  26.562  1.00  0.00     0.293 HD
ENDBRANCH   2  22
BRANCH   6  24
ATOM     24  O   UNL     1      41.598 -95.543  30.507  1.00  0.00    -0.507 OA
ATOM     25  H   UNL     1      41.699 -95.655  29.509  1.00  0.00     0.293 HD
ENDBRANCH   6  24
BRANCH   8  26
ATOM     26  O   UNL     1      39.398 -94.301  34.590  1.00  0.00    -0.508 OA
ATOM     27  H   UNL     1      38.689 -94.575  35.261  1.00  0.00     0.293 HD
ENDBRANCH   8  26
TORSDOF 6
ENDMDL
MODEL 5
REMARK VINA RESULT:    -5.510      9.177     11.419
REMARK INTER + INTRA:          -6.794
REMARK INTER:                  -6.539
REMARK INTRA:                  -0.254
REMARK UNBOUND:                -0.156
REMARK SMILES O=c1c(O)c(-c2ccc(O)c(O)c2)oc2cc(O)cc(O)c12
REMARK SMILES IDX 5 1 3 2 2 3 1 4 22 5 20 6 19 7 17 8 16 9 15 10 14 11 6 12
REMARK SMILES IDX 7 13 8 14 9 15 13 16 11 17 10 18 12 20 4 22 21 24 18 26
REMARK H PARENT 10 19 12 21 4 23 21 25 18 27
REMARK Flexibility Score: inf
ROOT
ATOM      1  C   UNL     1      40.786 -95.669  35.659  1.00  0.00     0.180 A 
ATOM      2  C   UNL     1      41.975 -95.706  34.910  1.00  0.00     0.208 A 
ATOM      3  C   UNL     1      41.902 -95.602  33.511  1.00  0.00     0.238 A 
ATOM      4  O   UNL     1      42.973 -95.580  32.850  1.00  0.00    -0.285 OA
ATOM      5  C   UNL     1      40.640 -95.482  32.879  1.00  0.00     0.111 A 
ATOM      6  C   UNL     1      40.446 -95.412  31.467  1.00  0.00     0.134 A 
ATOM      7  C   UNL     1      39.165 -95.163  30.957  1.00  0.00     0.093 A 
ATOM      8  C   UNL     1      38.063 -95.047  31.807  1.00  0.00     0.123 A 
ATOM      9  C   UNL     1      38.233 -95.174  33.184  1.00  0.00     0.094 A 
ATOM     10  C   UNL     1      39.504 -95.386  33.724  1.00  0.00     0.146 A 
ATOM     11  O   UNL     1      39.624 -95.490  35.042  1.00  0.00    -0.452 OA
ENDROOT
BRANCH   1  12
ATOM     12  C   UNL     1      40.780 -95.797  37.134  1.00  0.00     0.025 A 
ATOM     13  C   UNL     1      41.064 -97.022  37.765  1.00  0.00     0.016 A 
ATOM     14  C   UNL     1      41.028 -97.125  39.157  1.00  0.00     0.051 A 
ATOM     15  C   UNL     1      40.697 -96.011  39.940  1.00  0.00     0.157 A 
ATOM     16  C   UNL     1      40.428 -94.689  37.923  1.00  0.00     0.062 A 
ATOM     17  C   UNL     1      40.394 -94.792  39.322  1.00  0.00     0.158 A 
BRANCH  15  18
ATOM     18  O   UNL     1      40.663 -96.109  41.329  1.00  0.00    -0.504 OA
ATOM     19  H   UNL     1      41.341 -96.664  41.839  1.00  0.00     0.293 HD
ENDBRANCH  15  18
BRANCH  17  20
ATOM     20  O   UNL     1      40.058 -93.686  40.101  1.00  0.00    -0.504 OA
ATOM     21  H   UNL     1      40.492 -92.783  39.956  1.00  0.00     0.293 HD
ENDBRANCH  17  20
ENDBRANCH   1  12
BRANCH   2  22
ATOM     22  O   UNL     1      43.211 -95.802  35.556  1.00  0.00    -0.502 OA
ATOM     23  H   UNL     1      43.744 -96.662  35.584  1.00  0.00     0.293 HD
ENDBRANCH   2  22
BRANCH   6  24
ATOM     24  O   UNL     1      41.464 -95.606  30.528  1.00  0.00    -0.507 OA
ATOM     25  H   UNL     1      42.403 -95.251  30.617  1.00  0.00     0.293 HD
ENDBRANCH   6  24
BRANCH   8  26
ATOM     26  O   UNL     1      36.789 -94.815  31.291  1.00  0.00    -0.508 OA
ATOM     27  H   UNL     1      36.512 -95.173  30.384  1.00  0.00     0.293 HD
ENDBRANCH   8  26
TORSDOF 6
ENDMDL
MODEL 6
REMARK VINA RESULT:    -5.436      8.190     10.802
REMARK INTER + INTRA:          -6.704
REMARK INTER:                  -6.527
REMARK INTRA:                  -0.178
REMARK UNBOUND:                -0.156
REMARK SMILES O=c1c(O)c(-c2ccc(O)c(O)c2)oc2cc(O)cc(O)c12
REMARK SMILES IDX 5 1 3 2 2 3 1 4 22 5 20 6 19 7 17 8 16 9 15 10 14 11 6 12
REMARK SMILES IDX 7 13 8 14 9 15 13 16 11 17 10 18 12 20 4 22 21 24 18 26
REMARK H PARENT 10 19 12 21 4 23 21 25 18 27
REMARK Flexibility Score: inf
ROOT
ATOM      1  C   UNL     1      40.196 -95.391  34.961  1.00  0.00     0.180 A 
ATOM      2  C   UNL     1      41.249 -95.038  35.823  1.00  0.00     0.208 A 
ATOM      3  C   UNL     1      41.039 -95.089  37.211  1.00  0.00     0.238 A 
ATOM      4  O   UNL     1      42.002 -94.825  37.977  1.00  0.00    -0.285 OA
ATOM      5  C   UNL     1      39.775 -95.475  37.719  1.00  0.00     0.111 A 
ATOM      6  C   UNL     1      39.439 -95.522  39.105  1.00  0.00     0.134 A 
ATOM      7  C   UNL     1      38.200 -96.043  39.498  1.00  0.00     0.093 A 
ATOM      8  C   UNL     1      37.260 -96.458  38.551  1.00  0.00     0.123 A 
ATOM      9  C   UNL     1      37.556 -96.360  37.193  1.00  0.00     0.094 A 
ATOM     10  C   UNL     1      38.798 -95.878  36.771  1.00  0.00     0.146 A 
ATOM     11  O   UNL     1      39.043 -95.811  35.468  1.00  0.00    -0.452 OA
ENDROOT
BRANCH   1  12
ATOM     12  C   UNL     1      40.332 -95.338  33.488  1.00  0.00     0.025 A 
ATOM     13  C   UNL     1      39.580 -94.436  32.714  1.00  0.00     0.016 A 
ATOM     14  C   UNL     1      39.708 -94.421  31.323  1.00  0.00     0.051 A 
ATOM     15  C   UNL     1      40.577 -95.315  30.684  1.00  0.00     0.157 A 
ATOM     16  C   UNL     1      41.186 -96.247  32.840  1.00  0.00     0.062 A 
ATOM     17  C   UNL     1      41.314 -96.231  31.443  1.00  0.00     0.158 A 
BRANCH  15  18
ATOM     18  O   UNL     1      40.708 -95.302  29.296  1.00  0.00    -0.504 OA
ATOM     19  H   UNL     1      40.583 -94.452  28.760  1.00  0.00     0.293 HD
ENDBRANCH  15  18
BRANCH  17  20
ATOM     20  O   UNL     1      42.173 -97.125  30.805  1.00  0.00    -0.504 OA
ATOM     21  H   UNL     1      42.317 -97.099  29.803  1.00  0.00     0.293 HD
ENDBRANCH  17  20
ENDBRANCH   1  12
BRANCH   2  22
ATOM     22  O   UNL     1      42.495 -94.681  35.301  1.00  0.00    -0.502 OA
ATOM     23  H   UNL     1      42.747 -94.844  34.334  1.00  0.00     0.293 HD
ENDBRANCH   2  22
BRANCH   6  24
ATOM     24  O   UNL     1      40.268 -95.048  40.125  1.00  0.00    -0.507 OA
ATOM     25  H   UNL     1      40.066 -95.120  41.110  1.00  0.00     0.293 HD
ENDBRANCH   6  24
BRANCH   8  26
ATOM     26  O   UNL     1      36.023 -96.961  38.950  1.00  0.00    -0.508 OA
ATOM     27  H   UNL     1      35.598 -97.754  38.484  1.00  0.00     0.293 HD
ENDBRANCH   8  26
TORSDOF 6
ENDMDL
MODEL 7
REMARK VINA RESULT:    -5.397     15.010     16.587
REMARK INTER + INTRA:          -6.658
REMARK INTER:                  -6.376
REMARK INTRA:                  -0.282
REMARK UNBOUND:                -0.156
REMARK SMILES O=c1c(O)c(-c2ccc(O)c(O)c2)oc2cc(O)cc(O)c12
REMARK SMILES IDX 5 1 3 2 2 3 1 4 22 5 20 6 19 7 17 8 16 9 15 10 14 11 6 12
REMARK SMILES IDX 7 13 8 14 9 15 13 16 11 17 10 18 12 20 4 22 21 24 18 26
REMARK H PARENT 10 19 12 21 4 23 21 25 18 27
REMARK Flexibility Score: inf
ROOT
ATOM      1  C   UNL     1      37.548 -77.965  37.315  1.00  0.00     0.180 A 
ATOM      2  C   UNL     1      38.145 -77.836  36.049  1.00  0.00     0.208 A 
ATOM      3  C   UNL     1      37.325 -77.803  34.909  1.00  0.00     0.238 A 
ATOM      4  O   UNL     1      37.861 -77.632  33.784  1.00  0.00    -0.285 OA
ATOM      5  C   UNL     1      35.920 -77.917  35.049  1.00  0.00     0.111 A 
ATOM      6  C   UNL     1      34.997 -77.937  33.961  1.00  0.00     0.134 A 
ATOM      7  C   UNL     1      33.621 -77.921  34.222  1.00  0.00     0.093 A 
ATOM      8  C   UNL     1      33.136 -77.953  35.532  1.00  0.00     0.123 A 
ATOM      9  C   UNL     1      34.030 -77.995  36.599  1.00  0.00     0.094 A 
ATOM     10  C   UNL     1      35.408 -77.974  36.371  1.00  0.00     0.146 A 
ATOM     11  O   UNL     1      36.224 -78.004  37.418  1.00  0.00    -0.452 OA
ENDROOT
BRANCH   1  12
ATOM     12  C   UNL     1      38.347 -78.031  38.559  1.00  0.00     0.025 A 
ATOM     13  C   UNL     1      38.907 -76.875  39.133  1.00  0.00     0.016 A 
ATOM     14  C   UNL     1      39.679 -76.965  40.294  1.00  0.00     0.051 A 
ATOM     15  C   UNL     1      39.913 -78.211  40.892  1.00  0.00     0.157 A 
ATOM     16  C   UNL     1      38.603 -79.280  39.151  1.00  0.00     0.062 A 
ATOM     17  C   UNL     1      39.377 -79.369  40.318  1.00  0.00     0.158 A 
BRANCH  15  18
ATOM     18  O   UNL     1      40.680 -78.304  42.051  1.00  0.00    -0.504 OA
ATOM     19  H   UNL     1      41.198 -77.511  42.409  1.00  0.00     0.293 HD
ENDBRANCH  15  18
BRANCH  17  20
ATOM     20  O   UNL     1      39.616 -80.609  40.910  1.00  0.00    -0.504 OA
ATOM     21  H   UNL     1      40.532 -81.039  40.887  1.00  0.00     0.293 HD
ENDBRANCH  17  20
ENDBRANCH   1  12
BRANCH   2  22
ATOM     22  O   UNL     1      39.532 -77.702  35.935  1.00  0.00    -0.502 OA
ATOM     23  H   UNL     1      40.150 -78.500  35.851  1.00  0.00     0.293 HD
ENDBRANCH   2  22
BRANCH   6  24
ATOM     24  O   UNL     1      35.376 -77.999  32.617  1.00  0.00    -0.507 OA
ATOM     25  H   UNL     1      34.849 -78.460  31.892  1.00  0.00     0.293 HD
ENDBRANCH   6  24
BRANCH   8  26
ATOM     26  O   UNL     1      31.765 -77.954  35.782  1.00  0.00    -0.508 OA
ATOM     27  H   UNL     1      31.319 -78.714  36.283  1.00  0.00     0.293 HD
ENDBRANCH   8  26
TORSDOF 6
ENDMDL
MODEL 8
REMARK VINA RESULT:    -5.379     15.406     16.959
REMARK INTER + INTRA:          -6.636
REMARK INTER:                  -6.598
REMARK INTRA:                  -0.038
REMARK UNBOUND:                -0.156
REMARK SMILES O=c1c(O)c(-c2ccc(O)c(O)c2)oc2cc(O)cc(O)c12
REMARK SMILES IDX 5 1 3 2 2 3 1 4 22 5 20 6 19 7 17 8 16 9 15 10 14 11 6 12
REMARK SMILES IDX 7 13 8 14 9 15 13 16 11 17 10 18 12 20 4 22 21 24 18 26
REMARK H PARENT 10 19 12 21 4 23 21 25 18 27
REMARK Flexibility Score: inf
ROOT
ATOM      1  C   UNL     1      38.712 -78.326  37.911  1.00  0.00     0.180 A 
ATOM      2  C   UNL     1      39.053 -79.056  39.063  1.00  0.00     0.208 A 
ATOM      3  C   UNL     1      40.397 -79.408  39.272  1.00  0.00     0.238 A 
ATOM      4  O   UNL     1      40.704 -80.014  40.332  1.00  0.00    -0.285 OA
ATOM      5  C   UNL     1      41.378 -79.041  38.319  1.00  0.00     0.111 A 
ATOM      6  C   UNL     1      42.761 -79.381  38.410  1.00  0.00     0.134 A 
ATOM      7  C   UNL     1      43.664 -78.853  37.477  1.00  0.00     0.093 A 
ATOM      8  C   UNL     1      43.222 -78.053  36.421  1.00  0.00     0.123 A 
ATOM      9  C   UNL     1      41.866 -77.766  36.290  1.00  0.00     0.094 A 
ATOM     10  C   UNL     1      40.946 -78.247  37.226  1.00  0.00     0.146 A 
ATOM     11  O   UNL     1      39.664 -77.940  37.070  1.00  0.00    -0.452 OA
ENDROOT
BRANCH   1  12
ATOM     12  C   UNL     1      37.315 -77.939  37.610  1.00  0.00     0.025 A 
ATOM     13  C   UNL     1      36.535 -77.227  38.539  1.00  0.00     0.016 A 
ATOM     14  C   UNL     1      35.211 -76.894  38.243  1.00  0.00     0.051 A 
ATOM     15  C   UNL     1      34.642 -77.278  37.021  1.00  0.00     0.157 A 
ATOM     16  C   UNL     1      36.733 -78.340  36.395  1.00  0.00     0.062 A 
ATOM     17  C   UNL     1      35.403 -78.005  36.098  1.00  0.00     0.158 A 
BRANCH  15  18
ATOM     18  O   UNL     1      33.323 -76.947  36.721  1.00  0.00    -0.504 OA
ATOM     19  H   UNL     1      32.745 -77.543  36.140  1.00  0.00     0.293 HD
ENDBRANCH  15  18
BRANCH  17  20
ATOM     20  O   UNL     1      34.834 -78.392  34.885  1.00  0.00    -0.504 OA
ATOM     21  H   UNL     1      33.871 -78.177  34.658  1.00  0.00     0.293 HD
ENDBRANCH  17  20
ENDBRANCH   1  12
BRANCH   2  22
ATOM     22  O   UNL     1      38.073 -79.388  40.002  1.00  0.00    -0.502 OA
ATOM     23  H   UNL     1      37.161 -79.739  39.735  1.00  0.00     0.293 HD
ENDBRANCH   2  22
BRANCH   6  24
ATOM     24  O   UNL     1      43.291 -80.246  39.371  1.00  0.00    -0.507 OA
ATOM     25  H   UNL     1      42.792 -81.014  39.790  1.00  0.00     0.293 HD
ENDBRANCH   6  24
BRANCH   8  26
ATOM     26  O   UNL     1      44.125 -77.546  35.488  1.00  0.00    -0.508 OA
ATOM     27  H   UNL     1      43.879 -76.776  34.877  1.00  0.00     0.293 HD
ENDBRANCH   8  26
TORSDOF 6
ENDMDL
MODEL 9
REMARK VINA RESULT:    -5.319     15.235     17.301
REMARK INTER + INTRA:          -6.564
REMARK INTER:                  -6.232
REMARK INTRA:                  -0.332
REMARK UNBOUND:                -0.156
REMARK SMILES O=c1c(O)c(-c2ccc(O)c(O)c2)oc2cc(O)cc(O)c12
REMARK SMILES IDX 5 1 3 2 2 3 1 4 22 5 20 6 19 7 17 8 16 9 15 10 14 11 6 12
REMARK SMILES IDX 7 13 8 14 9 15 13 16 11 17 10 18 12 20 4 22 21 24 18 26
REMARK H PARENT 10 19 12 21 4 23 21 25 18 27
REMARK Flexibility Score: inf
ROOT
ATOM      1  C   UNL     1      39.230 -78.099  37.678  1.00  0.00     0.180 A 
ATOM      2  C   UNL     1      38.007 -78.576  38.180  1.00  0.00     0.208 A 
ATOM      3  C   UNL     1      36.883 -78.584  37.338  1.00  0.00     0.238 A 
ATOM      4  O   UNL     1      35.804 -79.063  37.774  1.00  0.00    -0.285 OA
ATOM      5  C   UNL     1      36.992 -78.099  36.011  1.00  0.00     0.111 A 
ATOM      6  C   UNL     1      35.909 -78.022  35.085  1.00  0.00     0.134 A 
ATOM      7  C   UNL     1      36.161 -77.648  33.759  1.00  0.00     0.093 A 
ATOM      8  C   UNL     1      37.444 -77.285  33.344  1.00  0.00     0.123 A 
ATOM      9  C   UNL     1      38.496 -77.299  34.256  1.00  0.00     0.094 A 
ATOM     10  C   UNL     1      38.284 -77.703  35.577  1.00  0.00     0.146 A 
ATOM     11  O   UNL     1      39.317 -77.712  36.411  1.00  0.00    -0.452 OA
ENDROOT
BRANCH   1  12
ATOM     12  C   UNL     1      40.452 -78.037  38.512  1.00  0.00     0.025 A 
ATOM     13  C   UNL     1      40.726 -76.923  39.328  1.00  0.00     0.016 A 
ATOM     14  C   UNL     1      41.898 -76.876  40.087  1.00  0.00     0.051 A 
ATOM     15  C   UNL     1      42.818 -77.931  40.034  1.00  0.00     0.157 A 
ATOM     16  C   UNL     1      41.388 -79.082  38.447  1.00  0.00     0.062 A 
ATOM     17  C   UNL     1      42.564 -79.034  39.210  1.00  0.00     0.158 A 
BRANCH  15  18
ATOM     18  O   UNL     1      43.987 -77.887  40.792  1.00  0.00    -0.504 OA
ATOM     19  H   UNL     1      44.124 -77.191  41.515  1.00  0.00     0.293 HD
ENDBRANCH  15  18
BRANCH  17  20
ATOM     20  O   UNL     1      43.484 -80.080  39.153  1.00  0.00    -0.504 OA
ATOM     21  H   UNL     1      43.604 -80.636  38.315  1.00  0.00     0.293 HD
ENDBRANCH  17  20
ENDBRANCH   1  12
BRANCH   2  22
ATOM     22  O   UNL     1      37.926 -79.071  39.484  1.00  0.00    -0.502 OA
ATOM     23  H   UNL     1      37.615 -78.504  40.263  1.00  0.00     0.293 HD
ENDBRANCH   2  22
BRANCH   6  24
ATOM     24  O   UNL     1      34.576 -78.275  35.420  1.00  0.00    -0.507 OA
ATOM     25  H   UNL     1      34.248 -79.106  35.888  1.00  0.00     0.293 HD
ENDBRANCH   6  24
BRANCH   8  26
ATOM     26  O   UNL     1      37.682 -76.898  32.026  1.00  0.00    -0.508 OA
ATOM     27  H   UNL     1      37.184 -77.322  31.252  1.00  0.00     0.293 HD
ENDBRANCH   8  26
TORSDOF 6
ENDMDL
