MODEL 1
REMARK VINA RESULT:    -3.996      0.000      0.000
REMARK INTER + INTRA:          -8.488
REMARK INTER:                  -6.799
REMARK INTRA:                  -1.689
REMARK UNBOUND:                -1.689
REMARK SMILES CCCCCCCCCCCCCC(=O)[O-]
REMARK SMILES IDX 8 1 9 2 10 3 11 4 12 5 13 6 14 7 15 8 16 9 7 10 6 11 5 12
REMARK SMILES IDX 4 13 3 14 2 15 1 16
REMARK H PARENT
REMARK Flexibility Score: inf
ROOT
ATOM      1  C   UNL     1       9.132 -21.558  20.301  1.00  0.00     0.000 C 
ENDROOT
BRANCH   1   2
ATOM      2  C   UNL     1       7.813 -20.865  20.684  1.00  0.00     0.000 C 
BRANCH   2   3
ATOM      3  C   UNL     1       7.905 -19.333  20.595  1.00  0.00     0.000 C 
BRANCH   3   4
ATOM      4  C   UNL     1       8.478 -18.697  21.874  1.00  0.00     0.000 C 
BRANCH   4   5
ATOM      5  C   UNL     1       7.413 -17.942  22.686  1.00  0.00     0.006 C 
BRANCH   5   6
ATOM      6  C   UNL     1       7.972 -17.349  23.985  1.00  0.00     0.053 C 
BRANCH   6   7
ATOM      7  C   UNL     1       6.862 -17.062  24.947  1.00  0.00     0.041 C 
ATOM      8  O   UNL     1       6.921 -17.491  26.129  1.00  0.00    -0.550 OA
ATOM      9  O   UNL     1       5.739 -16.362  24.524  1.00  0.00    -0.550 OA
ENDBRANCH   6   7
ENDBRANCH   5   6
ENDBRANCH   4   5
ENDBRANCH   3   4
ENDBRANCH   2   3
ENDBRANCH   1   2
BRANCH   1  10
ATOM     10  C   UNL     1       9.507 -22.689  21.272  1.00  0.00     0.000 C 
BRANCH  10  11
ATOM     11  C   UNL     1       8.783 -22.577  22.623  1.00  0.00    -0.000 C 
BRANCH  11  12
ATOM     12  C   UNL     1       9.756 -22.147  23.732  1.00  0.00    -0.000 C 
BRANCH  12  13
ATOM     13  C   UNL     1       9.192 -21.029  24.628  1.00  0.00    -0.000 C 
BRANCH  13  14
ATOM     14  C   UNL     1       7.656 -20.983  24.719  1.00  0.00    -0.000 C 
BRANCH  14  15
ATOM     15  C   UNL     1       7.142 -20.990  26.166  1.00  0.00    -0.003 C 
ATOM     16  C   UNL     1       8.275 -20.726  27.153  1.00  0.00     0.004 C 
ENDBRANCH  14  15
ENDBRANCH  13  14
ENDBRANCH  12  13
ENDBRANCH  11  12
ENDBRANCH  10  11
ENDBRANCH   1  10
TORSDOF 12
ENDMDL
MODEL 2
REMARK VINA RESULT:    -3.980      2.894      5.267
REMARK INTER + INTRA:          -8.462
REMARK INTER:                  -6.693
REMARK INTRA:                  -1.769
REMARK UNBOUND:                -1.689
REMARK SMILES CCCCCCCCCCCCCC(=O)[O-]
REMARK SMILES IDX 8 1 9 2 10 3 11 4 12 5 13 6 14 7 15 8 16 9 7 10 6 11 5 12
REMARK SMILES IDX 4 13 3 14 2 15 1 16
REMARK H PARENT
REMARK Flexibility Score: inf
ROOT
ATOM      1  C   UNL     1       7.730 -14.713  23.688  1.00  0.00     0.000 C 
ENDROOT
BRANCH   1   2
ATOM      2  C   UNL     1       8.847 -14.646  24.743  1.00  0.00     0.000 C 
BRANCH   2   3
ATOM      3  C   UNL     1      10.202 -15.127  24.198  1.00  0.00     0.000 C 
BRANCH   3   4
ATOM      4  C   UNL     1      10.638 -16.476  24.797  1.00  0.00     0.000 C 
BRANCH   4   5
ATOM      5  C   UNL     1      10.171 -16.653  26.251  1.00  0.00     0.006 C 
BRANCH   5   6
ATOM      6  C   UNL     1       9.537 -18.027  26.503  1.00  0.00     0.053 C 
BRANCH   6   7
ATOM      7  C   UNL     1      10.538 -18.961  27.104  1.00  0.00     0.041 C 
ATOM      8  O   UNL     1      11.770 -18.741  26.971  1.00  0.00    -0.550 OA
ATOM      9  O   UNL     1      10.112 -20.103  27.772  1.00  0.00    -0.550 OA
ENDBRANCH   6   7
ENDBRANCH   5   6
ENDBRANCH   4   5
ENDBRANCH   3   4
ENDBRANCH   2   3
ENDBRANCH   1   2
BRANCH   1  10
ATOM     10  C   UNL     1       6.508 -15.512  24.172  1.00  0.00     0.000 C 
BRANCH  10  11
ATOM     11  C   UNL     1       6.755 -17.028  24.178  1.00  0.00    -0.000 C 
BRANCH  11  12
ATOM     12  C   UNL     1       7.495 -17.468  22.906  1.00  0.00    -0.000 C 
BRANCH  12  13
ATOM     13  C   UNL     1       8.106 -18.877  23.020  1.00  0.00    -0.000 C 
BRANCH  13  14
ATOM     14  C   UNL     1       7.146 -19.960  23.546  1.00  0.00    -0.000 C 
BRANCH  14  15
ATOM     15  C   UNL     1       7.801 -20.891  24.575  1.00  0.00    -0.003 C 
ATOM     16  C   UNL     1       7.133 -20.758  25.941  1.00  0.00     0.004 C 
ENDBRANCH  14  15
ENDBRANCH  13  14
ENDBRANCH  12  13
ENDBRANCH  11  12
ENDBRANCH  10  11
ENDBRANCH   1  10
TORSDOF 12
ENDMDL
MODEL 3
REMARK VINA RESULT:    -3.966      3.414      5.967
REMARK INTER + INTRA:          -8.437
REMARK INTER:                  -6.761
REMARK INTRA:                  -1.675
REMARK UNBOUND:                -1.689
REMARK SMILES CCCCCCCCCCCCCC(=O)[O-]
REMARK SMILES IDX 8 1 9 2 10 3 11 4 12 5 13 6 14 7 15 8 16 9 7 10 6 11 5 12
REMARK SMILES IDX 4 13 3 14 2 15 1 16
REMARK H PARENT
REMARK Flexibility Score: inf
ROOT
ATOM      1  C   UNL     1       8.041 -17.227  22.756  1.00  0.00     0.000 C 
ENDROOT
BRANCH   1   2
ATOM      2  C   UNL     1       7.000 -17.861  23.695  1.00  0.00     0.000 C 
BRANCH   2   3
ATOM      3  C   UNL     1       7.563 -19.058  24.478  1.00  0.00     0.000 C 
BRANCH   3   4
ATOM      4  C   UNL     1       7.085 -20.411  23.921  1.00  0.00     0.000 C 
BRANCH   4   5
ATOM      5  C   UNL     1       8.074 -21.015  22.911  1.00  0.00     0.006 C 
BRANCH   5   6
ATOM      6  C   UNL     1       7.559 -20.947  21.468  1.00  0.00     0.053 C 
BRANCH   6   7
ATOM      7  C   UNL     1       8.332 -21.882  20.594  1.00  0.00     0.041 C 
ATOM      8  O   UNL     1       8.437 -21.656  19.360  1.00  0.00    -0.550 OA
ATOM      9  O   UNL     1       8.898 -23.031  21.133  1.00  0.00    -0.550 OA
ENDBRANCH   6   7
ENDBRANCH   5   6
ENDBRANCH   4   5
ENDBRANCH   3   4
ENDBRANCH   2   3
ENDBRANCH   1   2
BRANCH   1  10
ATOM     10  C   UNL     1       7.878 -15.703  22.637  1.00  0.00     0.000 C 
BRANCH  10  11
ATOM     11  C   UNL     1       7.234 -15.077  23.884  1.00  0.00    -0.000 C 
BRANCH  11  12
ATOM     12  C   UNL     1       8.308 -14.577  24.863  1.00  0.00    -0.000 C 
BRANCH  12  13
ATOM     13  C   UNL     1       8.293 -15.328  26.207  1.00  0.00    -0.000 C 
BRANCH  13  14
ATOM     14  C   UNL     1       9.404 -16.381  26.375  1.00  0.00    -0.000 C 
BRANCH  14  15
ATOM     15  C   UNL     1      10.558 -16.196  25.381  1.00  0.00    -0.003 C 
ATOM     16  C   UNL     1      11.067 -17.542  24.872  1.00  0.00     0.004 C 
ENDBRANCH  14  15
ENDBRANCH  13  14
ENDBRANCH  12  13
ENDBRANCH  11  12
ENDBRANCH  10  11
ENDBRANCH   1  10
TORSDOF 12
ENDMDL
MODEL 4
REMARK VINA RESULT:    -3.960      2.327      4.206
REMARK INTER + INTRA:          -8.428
REMARK INTER:                  -6.672
REMARK INTRA:                  -1.756
REMARK UNBOUND:                -1.689
REMARK SMILES CCCCCCCCCCCCCC(=O)[O-]
REMARK SMILES IDX 8 1 9 2 10 3 11 4 12 5 13 6 14 7 15 8 16 9 7 10 6 11 5 12
REMARK SMILES IDX 4 13 3 14 2 15 1 16
REMARK H PARENT
REMARK Flexibility Score: inf
ROOT
ATOM      1  C   UNL     1       8.023 -16.435  22.218  1.00  0.00     0.000 C 
ENDROOT
BRANCH   1   2
ATOM      2  C   UNL     1       7.011 -15.289  22.383  1.00  0.00     0.000 C 
BRANCH   2   3
ATOM      3  C   UNL     1       6.410 -15.232  23.797  1.00  0.00     0.000 C 
BRANCH   3   4
ATOM      4  C   UNL     1       6.282 -16.624  24.443  1.00  0.00     0.000 C 
BRANCH   4   5
ATOM      5  C   UNL     1       6.981 -16.704  25.810  1.00  0.00     0.006 C 
BRANCH   5   6
ATOM      6  C   UNL     1       7.901 -15.505  26.074  1.00  0.00     0.053 C 
BRANCH   6   7
ATOM      7  C   UNL     1       9.333 -15.900  25.900  1.00  0.00     0.041 C 
ATOM      8  O   UNL     1      10.005 -15.440  24.940  1.00  0.00    -0.550 OA
ATOM      9  O   UNL     1       9.914 -16.813  26.771  1.00  0.00    -0.550 OA
ENDBRANCH   6   7
ENDBRANCH   5   6
ENDBRANCH   4   5
ENDBRANCH   3   4
ENDBRANCH   2   3
ENDBRANCH   1   2
BRANCH   1  10
ATOM     10  C   UNL     1       7.903 -17.136  20.855  1.00  0.00     0.000 C 
BRANCH  10  11
ATOM     11  C   UNL     1       8.526 -18.541  20.854  1.00  0.00    -0.000 C 
BRANCH  11  12
ATOM     12  C   UNL     1       7.477 -19.605  20.495  1.00  0.00    -0.000 C 
BRANCH  12  13
ATOM     13  C   UNL     1       7.214 -20.601  21.639  1.00  0.00    -0.000 C 
BRANCH  13  14
ATOM     14  C   UNL     1       6.607 -19.981  22.912  1.00  0.00    -0.000 C 
BRANCH  14  15
ATOM     15  C   UNL     1       7.333 -20.416  24.193  1.00  0.00    -0.003 C 
ATOM     16  C   UNL     1       8.635 -19.643  24.376  1.00  0.00     0.004 C 
ENDBRANCH  14  15
ENDBRANCH  13  14
ENDBRANCH  12  13
ENDBRANCH  11  12
ENDBRANCH  10  11
ENDBRANCH   1  10
TORSDOF 12
ENDMDL
MODEL 5
REMARK VINA RESULT:    -3.944      2.239      3.733
REMARK INTER + INTRA:          -8.400
REMARK INTER:                  -6.305
REMARK INTRA:                  -2.096
REMARK UNBOUND:                -1.689
REMARK SMILES CCCCCCCCCCCCCC(=O)[O-]
REMARK SMILES IDX 8 1 9 2 10 3 11 4 12 5 13 6 14 7 15 8 16 9 7 10 6 11 5 12
REMARK SMILES IDX 4 13 3 14 2 15 1 16
REMARK H PARENT
REMARK Flexibility Score: inf
ROOT
ATOM      1  C   UNL     1       7.994 -20.623  24.330  1.00  0.00     0.000 C 
ENDROOT
BRANCH   1   2
ATOM      2  C   UNL     1       7.027 -20.247  23.195  1.00  0.00     0.000 C 
BRANCH   2   3
ATOM      3  C   UNL     1       7.116 -18.760  22.814  1.00  0.00     0.000 C 
BRANCH   3   4
ATOM      4  C   UNL     1       8.567 -18.251  22.741  1.00  0.00     0.000 C 
BRANCH   4   5
ATOM      5  C   UNL     1       8.657 -16.718  22.797  1.00  0.00     0.006 C 
BRANCH   5   6
ATOM      6  C   UNL     1       7.326 -16.036  22.456  1.00  0.00     0.053 C 
BRANCH   6   7
ATOM      7  C   UNL     1       6.819 -15.263  23.632  1.00  0.00     0.041 C 
ATOM      8  O   UNL     1       5.626 -15.397  24.012  1.00  0.00    -0.550 OA
ATOM      9  O   UNL     1       7.651 -14.359  24.281  1.00  0.00    -0.550 OA
ENDBRANCH   6   7
ENDBRANCH   5   6
ENDBRANCH   4   5
ENDBRANCH   3   4
ENDBRANCH   2   3
ENDBRANCH   1   2
BRANCH   1  10
ATOM     10  C   UNL     1       7.289 -20.738  25.692  1.00  0.00     0.000 C 
BRANCH  10  11
ATOM     11  C   UNL     1       7.843 -19.751  26.732  1.00  0.00    -0.000 C 
BRANCH  11  12
ATOM     12  C   UNL     1       7.354 -18.322  26.446  1.00  0.00    -0.000 C 
BRANCH  12  13
ATOM     13  C   UNL     1       8.504 -17.305  26.332  1.00  0.00    -0.000 C 
BRANCH  13  14
ATOM     14  C   UNL     1       9.891 -17.844  26.728  1.00  0.00    -0.000 C 
BRANCH  14  15
ATOM     15  C   UNL     1      10.925 -17.719  25.601  1.00  0.00    -0.003 C 
ATOM     16  C   UNL     1      11.348 -19.092  25.087  1.00  0.00     0.004 C 
ENDBRANCH  14  15
ENDBRANCH  13  14
ENDBRANCH  12  13
ENDBRANCH  11  12
ENDBRANCH  10  11
ENDBRANCH   1  10
TORSDOF 12
ENDMDL
MODEL 6
REMARK VINA RESULT:    -3.914      2.057      4.253
REMARK INTER + INTRA:          -8.348
REMARK INTER:                  -6.325
REMARK INTRA:                  -2.023
REMARK UNBOUND:                -1.689
REMARK SMILES CCCCCCCCCCCCCC(=O)[O-]
REMARK SMILES IDX 8 1 9 2 10 3 11 4 12 5 13 6 14 7 15 8 16 9 7 10 6 11 5 12
REMARK SMILES IDX 4 13 3 14 2 15 1 16
REMARK H PARENT
REMARK Flexibility Score: inf
ROOT
ATOM      1  C   UNL     1       8.495 -21.030  25.031  1.00  0.00     0.000 C 
ENDROOT
BRANCH   1   2
ATOM      2  C   UNL     1       7.290 -20.499  25.828  1.00  0.00     0.000 C 
BRANCH   2   3
ATOM      3  C   UNL     1       7.640 -19.261  26.670  1.00  0.00     0.000 C 
BRANCH   3   4
ATOM      4  C   UNL     1       7.520 -17.948  25.874  1.00  0.00     0.000 C 
BRANCH   4   5
ATOM      5  C   UNL     1       8.681 -16.981  26.155  1.00  0.00     0.006 C 
BRANCH   5   6
ATOM      6  C   UNL     1       8.213 -15.529  26.316  1.00  0.00     0.053 C 
BRANCH   6   7
ATOM      7  C   UNL     1       8.254 -14.819  25.000  1.00  0.00     0.041 C 
ATOM      8  O   UNL     1       7.195 -14.634  24.346  1.00  0.00    -0.550 OA
ATOM      9  O   UNL     1       9.470 -14.404  24.471  1.00  0.00    -0.550 OA
ENDBRANCH   6   7
ENDBRANCH   5   6
ENDBRANCH   4   5
ENDBRANCH   3   4
ENDBRANCH   2   3
ENDBRANCH   1   2
BRANCH   1  10
ATOM     10  C   UNL     1       8.170 -21.244  23.544  1.00  0.00     0.000 C 
BRANCH  10  11
ATOM     11  C   UNL     1       7.047 -20.323  23.043  1.00  0.00    -0.000 C 
BRANCH  11  12
ATOM     12  C   UNL     1       7.549 -19.414  21.910  1.00  0.00    -0.000 C 
BRANCH  12  13
ATOM     13  C   UNL     1       7.592 -17.927  22.307  1.00  0.00    -0.000 C 
BRANCH  13  14
ATOM     14  C   UNL     1       9.005 -17.323  22.412  1.00  0.00    -0.000 C 
BRANCH  14  15
ATOM     15  C   UNL     1      10.115 -18.379  22.310  1.00  0.00    -0.003 C 
ATOM     16  C   UNL     1      10.854 -18.530  23.636  1.00  0.00     0.004 C 
ENDBRANCH  14  15
ENDBRANCH  13  14
ENDBRANCH  12  13
ENDBRANCH  11  12
ENDBRANCH  10  11
ENDBRANCH   1  10
TORSDOF 12
ENDMDL
MODEL 7
REMARK VINA RESULT:    -3.902      1.689      2.935
REMARK INTER + INTRA:          -8.329
REMARK INTER:                  -6.768
REMARK INTRA:                  -1.561
REMARK UNBOUND:                -1.689
REMARK SMILES CCCCCCCCCCCCCC(=O)[O-]
REMARK SMILES IDX 8 1 9 2 10 3 11 4 12 5 13 6 14 7 15 8 16 9 7 10 6 11 5 12
REMARK SMILES IDX 4 13 3 14 2 15 1 16
REMARK H PARENT
REMARK Flexibility Score: inf
ROOT
ATOM      1  C   UNL     1       9.112 -19.054  21.491  1.00  0.00     0.000 C 
ENDROOT
BRANCH   1   2
ATOM      2  C   UNL     1       8.883 -18.083  22.662  1.00  0.00     0.000 C 
BRANCH   2   3
ATOM      3  C   UNL     1       7.484 -17.446  22.636  1.00  0.00     0.000 C 
BRANCH   3   4
ATOM      4  C   UNL     1       6.774 -17.515  24.000  1.00  0.00     0.000 C 
BRANCH   4   5
ATOM      5  C   UNL     1       6.288 -16.138  24.481  1.00  0.00     0.006 C 
BRANCH   5   6
ATOM      6  C   UNL     1       7.169 -14.990  23.970  1.00  0.00     0.053 C 
BRANCH   6   7
ATOM      7  C   UNL     1       8.336 -14.784  24.882  1.00  0.00     0.041 C 
ATOM      8  O   UNL     1       8.210 -14.955  26.123  1.00  0.00    -0.550 OA
ATOM      9  O   UNL     1       9.553 -14.355  24.367  1.00  0.00    -0.550 OA
ENDBRANCH   6   7
ENDBRANCH   5   6
ENDBRANCH   4   5
ENDBRANCH   3   4
ENDBRANCH   2   3
ENDBRANCH   1   2
BRANCH   1  10
ATOM     10  C   UNL     1       7.843 -19.839  21.120  1.00  0.00     0.000 C 
BRANCH  10  11
ATOM     11  C   UNL     1       8.154 -21.210  20.500  1.00  0.00    -0.000 C 
BRANCH  11  12
ATOM     12  C   UNL     1       9.330 -21.884  21.223  1.00  0.00    -0.000 C 
BRANCH  12  13
ATOM     13  C   UNL     1       8.909 -22.597  22.522  1.00  0.00    -0.000 C 
BRANCH  13  14
ATOM     14  C   UNL     1       9.812 -22.319  23.737  1.00  0.00    -0.000 C 
BRANCH  14  15
ATOM     15  C   UNL     1       9.301 -21.164  24.610  1.00  0.00    -0.003 C 
ATOM     16  C   UNL     1       7.775 -21.109  24.612  1.00  0.00     0.004 C 
ENDBRANCH  14  15
ENDBRANCH  13  14
ENDBRANCH  12  13
ENDBRANCH  11  12
ENDBRANCH  10  11
ENDBRANCH   1  10
TORSDOF 12
ENDMDL
MODEL 8
REMARK VINA RESULT:    -3.902      3.104      5.672
REMARK INTER + INTRA:          -8.329
REMARK INTER:                  -6.144
REMARK INTRA:                  -2.184
REMARK UNBOUND:                -1.689
REMARK SMILES CCCCCCCCCCCCCC(=O)[O-]
REMARK SMILES IDX 8 1 9 2 10 3 11 4 12 5 13 6 14 7 15 8 16 9 7 10 6 11 5 12
REMARK SMILES IDX 4 13 3 14 2 15 1 16
REMARK H PARENT
REMARK Flexibility Score: inf
ROOT
ATOM      1  C   UNL     1      10.832 -16.529  25.396  1.00  0.00     0.000 C 
ENDROOT
BRANCH   1   2
ATOM      2  C   UNL     1      10.488 -15.448  24.357  1.00  0.00     0.000 C 
BRANCH   2   3
ATOM      3  C   UNL     1      10.350 -16.019  22.936  1.00  0.00     0.000 C 
BRANCH   3   4
ATOM      4  C   UNL     1       9.873 -17.482  22.928  1.00  0.00     0.000 C 
BRANCH   4   5
ATOM      5  C   UNL     1       8.582 -17.677  22.117  1.00  0.00     0.006 C 
BRANCH   5   6
ATOM      6  C   UNL     1       7.823 -18.950  22.513  1.00  0.00     0.053 C 
BRANCH   6   7
ATOM      7  C   UNL     1       7.762 -19.901  21.360  1.00  0.00     0.041 C 
ATOM      8  O   UNL     1       8.639 -19.861  20.458  1.00  0.00    -0.550 OA
ATOM      9  O   UNL     1       6.708 -20.800  21.255  1.00  0.00    -0.550 OA
ENDBRANCH   6   7
ENDBRANCH   5   6
ENDBRANCH   4   5
ENDBRANCH   3   4
ENDBRANCH   2   3
ENDBRANCH   1   2
BRANCH   1  10
ATOM     10  C   UNL     1       9.767 -16.648  26.498  1.00  0.00     0.000 C 
BRANCH  10  11
ATOM     11  C   UNL     1       9.099 -18.032  26.530  1.00  0.00    -0.000 C 
BRANCH  11  12
ATOM     12  C   UNL     1       7.653 -17.954  26.014  1.00  0.00    -0.000 C 
BRANCH  12  13
ATOM     13  C   UNL     1       7.123 -16.511  25.925  1.00  0.00    -0.000 C 
BRANCH  13  14
ATOM     14  C   UNL     1       6.438 -16.153  24.593  1.00  0.00    -0.000 C 
BRANCH  14  15
ATOM     15  C   UNL     1       6.947 -14.833  23.996  1.00  0.00    -0.003 C 
ATOM     16  C   UNL     1       6.304 -14.560  22.639  1.00  0.00     0.004 C 
ENDBRANCH  14  15
ENDBRANCH  13  14
ENDBRANCH  12  13
ENDBRANCH  11  12
ENDBRANCH  10  11
ENDBRANCH   1  10
TORSDOF 12
ENDMDL
MODEL 9
REMARK VINA RESULT:    -3.880      2.802      5.958
REMARK INTER + INTRA:          -8.290
REMARK INTER:                  -6.919
REMARK INTRA:                  -1.371
REMARK UNBOUND:                -1.689
REMARK SMILES CCCCCCCCCCCCCC(=O)[O-]
REMARK SMILES IDX 8 1 9 2 10 3 11 4 12 5 13 6 14 7 15 8 16 9 7 10 6 11 5 12
REMARK SMILES IDX 4 13 3 14 2 15 1 16
REMARK H PARENT
REMARK Flexibility Score: inf
ROOT
ATOM      1  C   UNL     1       8.313 -18.366  22.852  1.00  0.00     0.000 C 
ENDROOT
BRANCH   1   2
ATOM      2  C   UNL     1       7.102 -19.314  22.888  1.00  0.00     0.000 C 
BRANCH   2   3
ATOM      3  C   UNL     1       7.435 -20.672  23.528  1.00  0.00     0.000 C 
BRANCH   3   4
ATOM      4  C   UNL     1       7.144 -20.703  25.039  1.00  0.00     0.000 C 
BRANCH   4   5
ATOM      5  C   UNL     1       8.417 -20.891  25.881  1.00  0.00     0.006 C 
BRANCH   5   6
ATOM      6  C   UNL     1       8.729 -19.672  26.758  1.00  0.00     0.053 C 
BRANCH   6   7
ATOM      7  C   UNL     1       9.998 -19.888  27.519  1.00  0.00     0.041 C 
ATOM      8  O   UNL     1      10.342 -21.050  27.862  1.00  0.00    -0.550 OA
ATOM      9  O   UNL     1      10.780 -18.801  27.891  1.00  0.00    -0.550 OA
ENDBRANCH   6   7
ENDBRANCH   5   6
ENDBRANCH   4   5
ENDBRANCH   3   4
ENDBRANCH   2   3
ENDBRANCH   1   2
BRANCH   1  10
ATOM     10  C   UNL     1       8.113 -17.119  23.729  1.00  0.00     0.000 C 
BRANCH  10  11
ATOM     11  C   UNL     1       6.702 -17.040  24.334  1.00  0.00    -0.000 C 
BRANCH  11  12
ATOM     12  C   UNL     1       6.017 -15.719  23.954  1.00  0.00    -0.000 C 
BRANCH  12  13
ATOM     13  C   UNL     1       6.857 -14.859  22.992  1.00  0.00    -0.000 C 
BRANCH  13  14
ATOM     14  C   UNL     1       6.044 -13.939  22.064  1.00  0.00    -0.000 C 
BRANCH  14  15
ATOM     15  C   UNL     1       6.050 -14.407  20.602  1.00  0.00    -0.003 C 
ATOM     16  C   UNL     1       7.123 -15.467  20.369  1.00  0.00     0.004 C 
ENDBRANCH  14  15
ENDBRANCH  13  14
ENDBRANCH  12  13
ENDBRANCH  11  12
ENDBRANCH  10  11
ENDBRANCH   1  10
TORSDOF 12
ENDMDL
