MODEL 1
REMARK VINA RESULT:    -6.646      0.000      0.000
REMARK INTER + INTRA:          -7.931
REMARK INTER:                  -7.812
REMARK INTRA:                  -0.119
REMARK UNBOUND:                -0.119
REMARK SMILES O=c1c(O)c(-c2ccc(O)cc2)oc2cc(O)cc(O)c12
REMARK SMILES IDX 5 1 3 2 2 3 1 4 21 5 19 6 18 7 16 8 15 9 14 10 13 11 6 12
REMARK SMILES IDX 7 13 8 14 9 15 12 16 11 17 10 18 4 20 20 22 17 24
REMARK H PARENT 10 19 4 21 20 23 17 25
REMARK Flexibility Score: inf
ROOT
ATOM      1  C   UNL     1       4.853 -60.240 190.021  1.00  0.00     0.180 A 
ATOM      2  C   UNL     1       3.520 -60.440 189.624  1.00  0.00     0.208 A 
ATOM      3  C   UNL     1       3.200 -61.573 188.859  1.00  0.00     0.238 A 
ATOM      4  O   UNL     1       2.014 -61.718 188.461  1.00  0.00    -0.285 OA
ATOM      5  C   UNL     1       4.213 -62.500 188.514  1.00  0.00     0.111 A 
ATOM      6  C   UNL     1       3.994 -63.702 187.777  1.00  0.00     0.134 A 
ATOM      7  C   UNL     1       5.091 -64.478 187.382  1.00  0.00     0.093 A 
ATOM      8  C   UNL     1       6.392 -64.130 187.753  1.00  0.00     0.123 A 
ATOM      9  C   UNL     1       6.610 -62.990 188.523  1.00  0.00     0.094 A 
ATOM     10  C   UNL     1       5.539 -62.176 188.901  1.00  0.00     0.146 A 
ATOM     11  O   UNL     1       5.792 -61.093 189.627  1.00  0.00    -0.452 OA
ENDROOT
BRANCH   1  12
ATOM     12  C   UNL     1       5.264 -59.084 190.850  1.00  0.00     0.021 A 
ATOM     13  C   UNL     1       5.176 -57.786 190.317  1.00  0.00     0.016 A 
ATOM     14  C   UNL     1       5.579 -56.682 191.074  1.00  0.00     0.047 A 
ATOM     15  C   UNL     1       6.089 -56.862 192.367  1.00  0.00     0.115 A 
ATOM     16  C   UNL     1       5.795 -59.258 192.141  1.00  0.00     0.016 A 
ATOM     17  C   UNL     1       6.197 -58.152 192.895  1.00  0.00     0.047 A 
BRANCH  15  18
ATOM     18  O   UNL     1       6.493 -55.769 193.131  1.00  0.00    -0.508 OA
ATOM     19  H   UNL     1       7.237 -55.155 192.823  1.00  0.00     0.293 HD
ENDBRANCH  15  18
ENDBRANCH   1  12
BRANCH   2  20
ATOM     20  O   UNL     1       2.539 -59.501 189.956  1.00  0.00    -0.502 OA
ATOM     21  H   UNL     1       2.734 -58.509 190.015  1.00  0.00     0.293 HD
ENDBRANCH   2  20
BRANCH   6  22
ATOM     22  O   UNL     1       2.729 -64.190 187.436  1.00  0.00    -0.507 OA
ATOM     23  H   UNL     1       2.242 -63.973 186.580  1.00  0.00     0.293 HD
ENDBRANCH   6  22
BRANCH   8  24
ATOM     24  O   UNL     1       7.476 -64.916 187.368  1.00  0.00    -0.508 OA
ATOM     25  H   UNL     1       8.338 -64.926 187.902  1.00  0.00     0.293 HD
ENDBRANCH   8  24
TORSDOF 5
ENDMDL
MODEL 2
REMARK VINA RESULT:    -6.525      1.376      3.007
REMARK INTER + INTRA:          -7.789
REMARK INTER:                  -7.769
REMARK INTRA:                  -0.020
REMARK UNBOUND:                -0.119
REMARK SMILES O=c1c(O)c(-c2ccc(O)cc2)oc2cc(O)cc(O)c12
REMARK SMILES IDX 5 1 3 2 2 3 1 4 21 5 19 6 18 7 16 8 15 9 14 10 13 11 6 12
REMARK SMILES IDX 7 13 8 14 9 15 12 16 11 17 10 18 4 20 20 22 17 24
REMARK H PARENT 10 19 4 21 20 23 17 25
REMARK Flexibility Score: inf
ROOT
ATOM      1  C   UNL     1       5.728 -61.005 189.950  1.00  0.00     0.180 A 
ATOM      2  C   UNL     1       6.970 -61.664 189.954  1.00  0.00     0.208 A 
ATOM      3  C   UNL     1       7.125 -62.827 189.182  1.00  0.00     0.238 A 
ATOM      4  O   UNL     1       8.222 -63.443 189.232  1.00  0.00    -0.285 OA
ATOM      5  C   UNL     1       6.045 -63.307 188.404  1.00  0.00     0.111 A 
ATOM      6  C   UNL     1       6.103 -64.451 187.554  1.00  0.00     0.134 A 
ATOM      7  C   UNL     1       4.935 -64.909 186.932  1.00  0.00     0.093 A 
ATOM      8  C   UNL     1       3.725 -64.226 187.077  1.00  0.00     0.123 A 
ATOM      9  C   UNL     1       3.671 -63.073 187.857  1.00  0.00     0.094 A 
ATOM     10  C   UNL     1       4.812 -62.613 188.520  1.00  0.00     0.146 A 
ATOM     11  O   UNL     1       4.714 -61.516 189.261  1.00  0.00    -0.452 OA
ENDROOT
BRANCH   1  12
ATOM     12  C   UNL     1       5.495 -59.760 190.717  1.00  0.00     0.021 A 
ATOM     13  C   UNL     1       5.082 -58.599 190.043  1.00  0.00     0.016 A 
ATOM     14  C   UNL     1       4.878 -57.407 190.745  1.00  0.00     0.047 A 
ATOM     15  C   UNL     1       5.098 -57.357 192.127  1.00  0.00     0.115 A 
ATOM     16  C   UNL     1       5.733 -59.697 192.102  1.00  0.00     0.016 A 
ATOM     17  C   UNL     1       5.528 -58.504 192.802  1.00  0.00     0.047 A 
BRANCH  15  18
ATOM     18  O   UNL     1       4.897 -56.176 192.838  1.00  0.00    -0.508 OA
ATOM     19  H   UNL     1       4.682 -56.184 193.828  1.00  0.00     0.293 HD
ENDBRANCH  15  18
ENDBRANCH   1  12
BRANCH   2  20
ATOM     20  O   UNL     1       8.017 -61.186 190.746  1.00  0.00    -0.502 OA
ATOM     21  H   UNL     1       8.164 -61.498 191.699  1.00  0.00     0.293 HD
ENDBRANCH   2  20
BRANCH   6  22
ATOM     22  O   UNL     1       7.279 -65.151 187.267  1.00  0.00    -0.507 OA
ATOM     23  H   UNL     1       7.322 -66.134 187.046  1.00  0.00     0.293 HD
ENDBRANCH   6  22
BRANCH   8  24
ATOM     24  O   UNL     1       2.571 -64.679 186.442  1.00  0.00    -0.508 OA
ATOM     25  H   UNL     1       2.578 -64.960 185.468  1.00  0.00     0.293 HD
ENDBRANCH   8  24
TORSDOF 5
ENDMDL
MODEL 3
REMARK VINA RESULT:    -6.144      2.041      2.596
REMARK INTER + INTRA:          -7.340
REMARK INTER:                  -7.040
REMARK INTRA:                  -0.300
REMARK UNBOUND:                -0.119
REMARK SMILES O=c1c(O)c(-c2ccc(O)cc2)oc2cc(O)cc(O)c12
REMARK SMILES IDX 5 1 3 2 2 3 1 4 21 5 19 6 18 7 16 8 15 9 14 10 13 11 6 12
REMARK SMILES IDX 7 13 8 14 9 15 12 16 11 17 10 18 4 20 20 22 17 24
REMARK H PARENT 10 19 4 21 20 23 17 25
REMARK Flexibility Score: inf
ROOT
ATOM      1  C   UNL     1       5.115 -59.177 191.812  1.00  0.00     0.180 A 
ATOM      2  C   UNL     1       4.132 -59.312 190.817  1.00  0.00     0.208 A 
ATOM      3  C   UNL     1       4.294 -60.297 189.830  1.00  0.00     0.238 A 
ATOM      4  O   UNL     1       3.438 -60.377 188.909  1.00  0.00    -0.285 OA
ATOM      5  C   UNL     1       5.427 -61.145 189.859  1.00  0.00     0.111 A 
ATOM      6  C   UNL     1       5.672 -62.203 188.934  1.00  0.00     0.134 A 
ATOM      7  C   UNL     1       6.889 -62.894 188.981  1.00  0.00     0.093 A 
ATOM      8  C   UNL     1       7.843 -62.608 189.961  1.00  0.00     0.123 A 
ATOM      9  C   UNL     1       7.587 -61.617 190.906  1.00  0.00     0.094 A 
ATOM     10  C   UNL     1       6.398 -60.886 190.862  1.00  0.00     0.146 A 
ATOM     11  O   UNL     1       6.198 -59.944 191.776  1.00  0.00    -0.452 OA
ENDROOT
BRANCH   1  12
ATOM     12  C   UNL     1       5.002 -58.178 192.900  1.00  0.00     0.021 A 
ATOM     13  C   UNL     1       5.622 -56.925 192.756  1.00  0.00     0.016 A 
ATOM     14  C   UNL     1       5.546 -55.976 193.780  1.00  0.00     0.047 A 
ATOM     15  C   UNL     1       4.864 -56.273 194.967  1.00  0.00     0.115 A 
ATOM     16  C   UNL     1       4.336 -58.476 194.103  1.00  0.00     0.016 A 
ATOM     17  C   UNL     1       4.263 -57.526 195.125  1.00  0.00     0.047 A 
BRANCH  15  18
ATOM     18  O   UNL     1       4.782 -55.336 195.994  1.00  0.00    -0.508 OA
ATOM     19  H   UNL     1       5.567 -54.740 196.230  1.00  0.00     0.293 HD
ENDBRANCH  15  18
ENDBRANCH   1  12
BRANCH   2  20
ATOM     20  O   UNL     1       3.033 -58.449 190.792  1.00  0.00    -0.502 OA
ATOM     21  H   UNL     1       3.029 -57.559 191.276  1.00  0.00     0.293 HD
ENDBRANCH   2  20
BRANCH   6  22
ATOM     22  O   UNL     1       4.749 -62.631 187.975  1.00  0.00    -0.507 OA
ATOM     23  H   UNL     1       4.485 -62.104 187.157  1.00  0.00     0.293 HD
ENDBRANCH   6  22
BRANCH   8  24
ATOM     24  O   UNL     1       9.045 -63.310 190.011  1.00  0.00    -0.508 OA
ATOM     25  H   UNL     1       9.762 -63.183 189.304  1.00  0.00     0.293 HD
ENDBRANCH   8  24
TORSDOF 5
ENDMDL
MODEL 4
REMARK VINA RESULT:    -6.107      1.411      6.483
REMARK INTER + INTRA:          -7.297
REMARK INTER:                  -7.594
REMARK INTRA:                   0.297
REMARK UNBOUND:                -0.119
REMARK SMILES O=c1c(O)c(-c2ccc(O)cc2)oc2cc(O)cc(O)c12
REMARK SMILES IDX 5 1 3 2 2 3 1 4 21 5 19 6 18 7 16 8 15 9 14 10 13 11 6 12
REMARK SMILES IDX 7 13 8 14 9 15 12 16 11 17 10 18 4 20 20 22 17 24
REMARK H PARENT 10 19 4 21 20 23 17 25
REMARK Flexibility Score: inf
ROOT
ATOM      1  C   UNL     1       5.146 -60.785 189.736  1.00  0.00     0.180 A 
ATOM      2  C   UNL     1       3.981 -60.167 189.250  1.00  0.00     0.208 A 
ATOM      3  C   UNL     1       3.492 -59.026 189.905  1.00  0.00     0.238 A 
ATOM      4  O   UNL     1       2.418 -58.509 189.498  1.00  0.00    -0.285 OA
ATOM      5  C   UNL     1       4.181 -58.507 191.027  1.00  0.00     0.111 A 
ATOM      6  C   UNL     1       3.798 -57.334 191.742  1.00  0.00     0.134 A 
ATOM      7  C   UNL     1       4.479 -56.987 192.916  1.00  0.00     0.093 A 
ATOM      8  C   UNL     1       5.570 -57.735 193.363  1.00  0.00     0.123 A 
ATOM      9  C   UNL     1       5.989 -58.848 192.639  1.00  0.00     0.094 A 
ATOM     10  C   UNL     1       5.307 -59.240 191.485  1.00  0.00     0.146 A 
ATOM     11  O   UNL     1       5.733 -60.313 190.830  1.00  0.00    -0.452 OA
ENDROOT
BRANCH   1  12
ATOM     12  C   UNL     1       5.737 -61.977 189.085  1.00  0.00     0.021 A 
ATOM     13  C   UNL     1       7.133 -62.139 189.075  1.00  0.00     0.016 A 
ATOM     14  C   UNL     1       7.713 -63.245 188.446  1.00  0.00     0.047 A 
ATOM     15  C   UNL     1       6.906 -64.194 187.806  1.00  0.00     0.115 A 
ATOM     16  C   UNL     1       4.935 -62.924 188.422  1.00  0.00     0.016 A 
ATOM     17  C   UNL     1       5.517 -64.029 187.794  1.00  0.00     0.047 A 
BRANCH  15  18
ATOM     18  O   UNL     1       7.472 -65.300 187.177  1.00  0.00    -0.508 OA
ATOM     19  H   UNL     1       7.331 -65.477 186.189  1.00  0.00     0.293 HD
ENDBRANCH  15  18
ENDBRANCH   1  12
BRANCH   2  20
ATOM     20  O   UNL     1       3.303 -60.709 188.154  1.00  0.00    -0.502 OA
ATOM     21  H   UNL     1       3.738 -60.820 187.246  1.00  0.00     0.293 HD
ENDBRANCH   2  20
BRANCH   6  22
ATOM     22  O   UNL     1       2.782 -56.465 191.331  1.00  0.00    -0.507 OA
ATOM     23  H   UNL     1       2.908 -55.484 191.139  1.00  0.00     0.293 HD
ENDBRANCH   6  22
BRANCH   8  24
ATOM     24  O   UNL     1       6.252 -57.374 194.523  1.00  0.00    -0.508 OA
ATOM     25  H   UNL     1       7.121 -56.853 194.486  1.00  0.00     0.293 HD
ENDBRANCH   8  24
TORSDOF 5
ENDMDL
MODEL 5
REMARK VINA RESULT:    -5.843      9.913     11.976
REMARK INTER + INTRA:          -6.987
REMARK INTER:                  -6.763
REMARK INTRA:                  -0.224
REMARK UNBOUND:                -0.119
REMARK SMILES O=c1c(O)c(-c2ccc(O)cc2)oc2cc(O)cc(O)c12
REMARK SMILES IDX 5 1 3 2 2 3 1 4 21 5 19 6 18 7 16 8 15 9 14 10 13 11 6 12
REMARK SMILES IDX 7 13 8 14 9 15 12 16 11 17 10 18 4 20 20 22 17 24
REMARK H PARENT 10 19 4 21 20 23 17 25
REMARK Flexibility Score: inf
ROOT
ATOM      1  C   UNL     1      11.450 -56.354 197.438  1.00  0.00     0.180 A 
ATOM      2  C   UNL     1      10.556 -56.293 196.356  1.00  0.00     0.208 A 
ATOM      3  C   UNL     1      11.022 -55.839 195.112  1.00  0.00     0.238 A 
ATOM      4  O   UNL     1      10.204 -55.735 194.160  1.00  0.00    -0.285 OA
ATOM      5  C   UNL     1      12.380 -55.466 194.961  1.00  0.00     0.111 A 
ATOM      6  C   UNL     1      12.970 -55.030 193.738  1.00  0.00     0.134 A 
ATOM      7  C   UNL     1      14.290 -54.563 193.736  1.00  0.00     0.093 A 
ATOM      8  C   UNL     1      15.061 -54.577 194.900  1.00  0.00     0.123 A 
ATOM      9  C   UNL     1      14.513 -55.057 196.087  1.00  0.00     0.094 A 
ATOM     10  C   UNL     1      13.187 -55.495 196.128  1.00  0.00     0.146 A 
ATOM     11  O   UNL     1      12.700 -55.935 197.282  1.00  0.00    -0.452 OA
ENDROOT
BRANCH   1  12
ATOM     12  C   UNL     1      11.038 -56.845 198.773  1.00  0.00     0.021 A 
ATOM     13  C   UNL     1      11.405 -58.141 199.176  1.00  0.00     0.016 A 
ATOM     14  C   UNL     1      11.008 -58.633 200.423  1.00  0.00     0.047 A 
ATOM     15  C   UNL     1      10.228 -57.843 201.276  1.00  0.00     0.115 A 
ATOM     16  C   UNL     1      10.238 -56.065 199.627  1.00  0.00     0.016 A 
ATOM     17  C   UNL     1       9.843 -56.560 200.874  1.00  0.00     0.047 A 
BRANCH  15  18
ATOM     18  O   UNL     1       9.827 -58.322 202.521  1.00  0.00    -0.508 OA
ATOM     19  H   UNL     1       9.065 -57.893 203.033  1.00  0.00     0.293 HD
ENDBRANCH  15  18
ENDBRANCH   1  12
BRANCH   2  20
ATOM     20  O   UNL     1       9.214 -56.645 196.531  1.00  0.00    -0.502 OA
ATOM     21  H   UNL     1       8.896 -57.200 197.316  1.00  0.00     0.293 HD
ENDBRANCH   2  20
BRANCH   6  22
ATOM     22  O   UNL     1      12.317 -55.062 192.501  1.00  0.00    -0.507 OA
ATOM     23  H   UNL     1      11.748 -55.826 192.172  1.00  0.00     0.293 HD
ENDBRANCH   6  22
BRANCH   8  24
ATOM     24  O   UNL     1      16.379 -54.125 194.886  1.00  0.00    -0.508 OA
ATOM     25  H   UNL     1      17.152 -54.751 194.689  1.00  0.00     0.293 HD
ENDBRANCH   8  24
TORSDOF 5
ENDMDL
MODEL 6
REMARK VINA RESULT:    -5.711      2.168      3.278
REMARK INTER + INTRA:          -6.832
REMARK INTER:                  -6.644
REMARK INTRA:                  -0.188
REMARK UNBOUND:                -0.119
REMARK SMILES O=c1c(O)c(-c2ccc(O)cc2)oc2cc(O)cc(O)c12
REMARK SMILES IDX 5 1 3 2 2 3 1 4 21 5 19 6 18 7 16 8 15 9 14 10 13 11 6 12
REMARK SMILES IDX 7 13 8 14 9 15 12 16 11 17 10 18 4 20 20 22 17 24
REMARK H PARENT 10 19 4 21 20 23 17 25
REMARK Flexibility Score: inf
ROOT
ATOM      1  C   UNL     1       4.362 -59.753 190.822  1.00  0.00     0.180 A 
ATOM      2  C   UNL     1       5.666 -60.166 191.144  1.00  0.00     0.208 A 
ATOM      3  C   UNL     1       6.227 -61.249 190.448  1.00  0.00     0.238 A 
ATOM      4  O   UNL     1       7.375 -61.650 190.778  1.00  0.00    -0.285 OA
ATOM      5  C   UNL     1       5.486 -61.894 189.430  1.00  0.00     0.111 A 
ATOM      6  C   UNL     1       5.971 -62.974 188.634  1.00  0.00     0.134 A 
ATOM      7  C   UNL     1       5.104 -63.620 187.744  1.00  0.00     0.093 A 
ATOM      8  C   UNL     1       3.788 -63.182 187.574  1.00  0.00     0.123 A 
ATOM      9  C   UNL     1       3.323 -62.090 188.303  1.00  0.00     0.094 A 
ATOM     10  C   UNL     1       4.153 -61.449 189.225  1.00  0.00     0.146 A 
ATOM     11  O   UNL     1       3.667 -60.419 189.907  1.00  0.00    -0.452 OA
ENDROOT
BRANCH   1  12
ATOM     12  C   UNL     1       3.712 -58.604 191.493  1.00  0.00     0.021 A 
ATOM     13  C   UNL     1       4.183 -57.303 191.249  1.00  0.00     0.016 A 
ATOM     14  C   UNL     1       3.598 -56.206 191.889  1.00  0.00     0.047 A 
ATOM     15  C   UNL     1       2.545 -56.397 192.793  1.00  0.00     0.115 A 
ATOM     16  C   UNL     1       2.667 -58.790 192.417  1.00  0.00     0.016 A 
ATOM     17  C   UNL     1       2.085 -57.691 193.056  1.00  0.00     0.047 A 
BRANCH  15  18
ATOM     18  O   UNL     1       1.955 -55.312 193.437  1.00  0.00    -0.508 OA
ATOM     19  H   UNL     1       1.233 -55.441 194.136  1.00  0.00     0.293 HD
ENDBRANCH  15  18
ENDBRANCH   1  12
BRANCH   2  20
ATOM     20  O   UNL     1       6.373 -59.531 192.168  1.00  0.00    -0.502 OA
ATOM     21  H   UNL     1       7.383 -59.459 192.169  1.00  0.00     0.293 HD
ENDBRANCH   2  20
BRANCH   6  22
ATOM     22  O   UNL     1       7.293 -63.430 188.658  1.00  0.00    -0.507 OA
ATOM     23  H   UNL     1       8.039 -62.997 189.180  1.00  0.00     0.293 HD
ENDBRANCH   6  22
BRANCH   8  24
ATOM     24  O   UNL     1       2.936 -63.821 186.675  1.00  0.00    -0.508 OA
ATOM     25  H   UNL     1       2.442 -64.670 186.926  1.00  0.00     0.293 HD
ENDBRANCH   8  24
TORSDOF 5
ENDMDL
MODEL 7
REMARK VINA RESULT:    -5.686     10.345     12.174
REMARK INTER + INTRA:          -6.802
REMARK INTER:                  -6.513
REMARK INTRA:                  -0.289
REMARK UNBOUND:                -0.119
REMARK SMILES O=c1c(O)c(-c2ccc(O)cc2)oc2cc(O)cc(O)c12
REMARK SMILES IDX 5 1 3 2 2 3 1 4 21 5 19 6 18 7 16 8 15 9 14 10 13 11 6 12
REMARK SMILES IDX 7 13 8 14 9 15 12 16 11 17 10 18 4 20 20 22 17 24
REMARK H PARENT 10 19 4 21 20 23 17 25
REMARK Flexibility Score: inf
ROOT
ATOM      1  C   UNL     1      12.244 -55.622 196.698  1.00  0.00     0.180 A 
ATOM      2  C   UNL     1      10.967 -55.418 196.149  1.00  0.00     0.208 A 
ATOM      3  C   UNL     1       9.845 -55.910 196.834  1.00  0.00     0.238 A 
ATOM      4  O   UNL     1       8.708 -55.772 196.310  1.00  0.00    -0.285 OA
ATOM      5  C   UNL     1      10.012 -56.585 198.067  1.00  0.00     0.111 A 
ATOM      6  C   UNL     1       8.943 -57.089 198.866  1.00  0.00     0.134 A 
ATOM      7  C   UNL     1       9.232 -57.854 200.003  1.00  0.00     0.093 A 
ATOM      8  C   UNL     1      10.551 -58.078 200.405  1.00  0.00     0.123 A 
ATOM      9  C   UNL     1      11.600 -57.539 199.664  1.00  0.00     0.094 A 
ATOM     10  C   UNL     1      11.344 -56.803 198.505  1.00  0.00     0.146 A 
ATOM     11  O   UNL     1      12.374 -56.315 197.823  1.00  0.00    -0.452 OA
ENDROOT
BRANCH   1  12
ATOM     12  C   UNL     1      13.473 -55.111 196.047  1.00  0.00     0.021 A 
ATOM     13  C   UNL     1      13.927 -53.815 196.348  1.00  0.00     0.016 A 
ATOM     14  C   UNL     1      15.071 -53.305 195.728  1.00  0.00     0.047 A 
ATOM     15  C   UNL     1      15.768 -54.077 194.789  1.00  0.00     0.115 A 
ATOM     16  C   UNL     1      14.166 -55.872 195.089  1.00  0.00     0.016 A 
ATOM     17  C   UNL     1      15.310 -55.359 194.471  1.00  0.00     0.047 A 
BRANCH  15  18
ATOM     18  O   UNL     1      16.909 -53.579 194.166  1.00  0.00    -0.508 OA
ATOM     19  H   UNL     1      16.944 -53.433 193.164  1.00  0.00     0.293 HD
ENDBRANCH  15  18
ENDBRANCH   1  12
BRANCH   2  20
ATOM     20  O   UNL     1      10.826 -54.768 194.919  1.00  0.00    -0.502 OA
ATOM     21  H   UNL     1      11.556 -54.188 194.524  1.00  0.00     0.293 HD
ENDBRANCH   2  20
BRANCH   6  22
ATOM     22  O   UNL     1       7.591 -56.846 198.606  1.00  0.00    -0.507 OA
ATOM     23  H   UNL     1       6.950 -57.521 198.218  1.00  0.00     0.293 HD
ENDBRANCH   6  22
BRANCH   8  24
ATOM     24  O   UNL     1      10.830 -58.827 201.546  1.00  0.00    -0.508 OA
ATOM     25  H   UNL     1      11.053 -59.815 201.489  1.00  0.00     0.293 HD
ENDBRANCH   8  24
TORSDOF 5
ENDMDL
MODEL 8
REMARK VINA RESULT:    -5.639      1.995      6.841
REMARK INTER + INTRA:          -6.747
REMARK INTER:                  -7.160
REMARK INTRA:                   0.413
REMARK UNBOUND:                -0.119
REMARK SMILES O=c1c(O)c(-c2ccc(O)cc2)oc2cc(O)cc(O)c12
REMARK SMILES IDX 5 1 3 2 2 3 1 4 21 5 19 6 18 7 16 8 15 9 14 10 13 11 6 12
REMARK SMILES IDX 7 13 8 14 9 15 12 16 11 17 10 18 4 20 20 22 17 24
REMARK H PARENT 10 19 4 21 20 23 17 25
REMARK Flexibility Score: inf
ROOT
ATOM      1  C   UNL     1       5.622 -60.099 191.078  1.00  0.00     0.180 A 
ATOM      2  C   UNL     1       4.247 -59.810 191.090  1.00  0.00     0.208 A 
ATOM      3  C   UNL     1       3.784 -58.740 191.872  1.00  0.00     0.238 A 
ATOM      4  O   UNL     1       2.544 -58.519 191.922  1.00  0.00    -0.285 OA
ATOM      5  C   UNL     1       4.701 -57.962 192.618  1.00  0.00     0.111 A 
ATOM      6  C   UNL     1       4.348 -56.831 193.412  1.00  0.00     0.134 A 
ATOM      7  C   UNL     1       5.321 -56.216 194.210  1.00  0.00     0.093 A 
ATOM      8  C   UNL     1       6.648 -56.652 194.193  1.00  0.00     0.123 A 
ATOM      9  C   UNL     1       7.015 -57.719 193.376  1.00  0.00     0.094 A 
ATOM     10  C   UNL     1       6.059 -58.375 192.596  1.00  0.00     0.146 A 
ATOM     11  O   UNL     1       6.450 -59.393 191.839  1.00  0.00    -0.452 OA
ENDROOT
BRANCH   1  12
ATOM     12  C   UNL     1       6.189 -61.196 190.259  1.00  0.00     0.021 A 
ATOM     13  C   UNL     1       7.502 -61.634 190.504  1.00  0.00     0.016 A 
ATOM     14  C   UNL     1       8.064 -62.652 189.729  1.00  0.00     0.047 A 
ATOM     15  C   UNL     1       7.328 -63.235 188.690  1.00  0.00     0.115 A 
ATOM     16  C   UNL     1       5.463 -61.772 189.201  1.00  0.00     0.016 A 
ATOM     17  C   UNL     1       6.028 -62.790 188.427  1.00  0.00     0.047 A 
BRANCH  15  18
ATOM     18  O   UNL     1       7.877 -64.250 187.911  1.00  0.00    -0.508 OA
ATOM     19  H   UNL     1       7.619 -64.370 186.938  1.00  0.00     0.293 HD
ENDBRANCH  15  18
ENDBRANCH   1  12
BRANCH   2  20
ATOM     20  O   UNL     1       3.354 -60.604 190.364  1.00  0.00    -0.502 OA
ATOM     21  H   UNL     1       2.872 -60.266 189.540  1.00  0.00     0.293 HD
ENDBRANCH   2  20
BRANCH   6  22
ATOM     22  O   UNL     1       3.073 -56.257 193.430  1.00  0.00    -0.507 OA
ATOM     23  H   UNL     1       2.880 -55.292 193.649  1.00  0.00     0.293 HD
ENDBRANCH   6  22
BRANCH   8  24
ATOM     24  O   UNL     1       7.613 -56.026 194.979  1.00  0.00    -0.508 OA
ATOM     25  H   UNL     1       8.597 -56.250 194.887  1.00  0.00     0.293 HD
ENDBRANCH   8  24
TORSDOF 5
ENDMDL
MODEL 9
REMARK VINA RESULT:    -5.428      8.994     10.689
REMARK INTER + INTRA:          -6.499
REMARK INTER:                  -6.309
REMARK INTRA:                  -0.189
REMARK UNBOUND:                -0.119
REMARK SMILES O=c1c(O)c(-c2ccc(O)cc2)oc2cc(O)cc(O)c12
REMARK SMILES IDX 5 1 3 2 2 3 1 4 21 5 19 6 18 7 16 8 15 9 14 10 13 11 6 12
REMARK SMILES IDX 7 13 8 14 9 15 12 16 11 17 10 18 4 20 20 22 17 24
REMARK H PARENT 10 19 4 21 20 23 17 25
REMARK Flexibility Score: inf
ROOT
ATOM      1  C   UNL     1       6.227 -59.141 200.167  1.00  0.00     0.180 A 
ATOM      2  C   UNL     1       5.405 -58.836 199.069  1.00  0.00     0.208 A 
ATOM      3  C   UNL     1       4.685 -59.871 198.450  1.00  0.00     0.238 A 
ATOM      4  O   UNL     1       3.992 -59.601 197.433  1.00  0.00    -0.285 OA
ATOM      5  C   UNL     1       4.783 -61.193 198.946  1.00  0.00     0.111 A 
ATOM      6  C   UNL     1       4.068 -62.310 198.422  1.00  0.00     0.134 A 
ATOM      7  C   UNL     1       4.341 -63.595 198.908  1.00  0.00     0.093 A 
ATOM      8  C   UNL     1       5.258 -63.794 199.943  1.00  0.00     0.123 A 
ATOM      9  C   UNL     1       5.917 -62.702 200.502  1.00  0.00     0.094 A 
ATOM     10  C   UNL     1       5.692 -61.413 200.014  1.00  0.00     0.146 A 
ATOM     11  O   UNL     1       6.349 -60.401 200.568  1.00  0.00    -0.452 OA
ENDROOT
BRANCH   1  12
ATOM     12  C   UNL     1       6.997 -58.101 200.887  1.00  0.00     0.021 A 
ATOM     13  C   UNL     1       8.402 -58.138 200.862  1.00  0.00     0.016 A 
ATOM     14  C   UNL     1       9.148 -57.179 201.553  1.00  0.00     0.047 A 
ATOM     15  C   UNL     1       8.500 -56.180 202.291  1.00  0.00     0.115 A 
ATOM     16  C   UNL     1       6.354 -57.106 201.646  1.00  0.00     0.016 A 
ATOM     17  C   UNL     1       7.103 -56.148 202.337  1.00  0.00     0.047 A 
BRANCH  15  18
ATOM     18  O   UNL     1       9.233 -55.219 202.983  1.00  0.00    -0.508 OA
ATOM     19  H   UNL     1      10.008 -55.475 203.582  1.00  0.00     0.293 HD
ENDBRANCH  15  18
ENDBRANCH   1  12
BRANCH   2  20
ATOM     20  O   UNL     1       5.339 -57.528 198.581  1.00  0.00    -0.502 OA
ATOM     21  H   UNL     1       5.970 -57.181 197.868  1.00  0.00     0.293 HD
ENDBRANCH   2  20
BRANCH   6  22
ATOM     22  O   UNL     1       3.066 -62.211 197.452  1.00  0.00    -0.507 OA
ATOM     23  H   UNL     1       2.971 -61.447 196.801  1.00  0.00     0.293 HD
ENDBRANCH   6  22
BRANCH   8  24
ATOM     24  O   UNL     1       5.513 -65.074 200.432  1.00  0.00    -0.508 OA
ATOM     25  H   UNL     1       6.430 -65.499 200.348  1.00  0.00     0.293 HD
ENDBRANCH   8  24
TORSDOF 5
ENDMDL
