MODEL 1
REMARK VINA RESULT:    -5.907      0.000      0.000
REMARK INTER + INTRA:         -16.439
REMARK INTER:                 -12.814
REMARK INTRA:                  -3.625
REMARK UNBOUND:                -3.625
REMARK SMILES CCCCCCCCCCCCCCCCCCCCCC(=O)[O-]
REMARK SMILES IDX 12 1 11 2 10 3 9 4 8 5 7 6 6 7 5 8 4 9 3 10 2 11 1 12 13 13
REMARK SMILES IDX 14 14 15 15 16 16 17 17 18 18 19 19 20 20 21 21 22 22 23 23
REMARK SMILES IDX 24 24
REMARK H PARENT
REMARK Flexibility Score: inf
ROOT
ATOM      1  C   UNL     1     217.928  -8.782  26.309  1.00  0.00     0.000 C 
ENDROOT
BRANCH   1   2
ATOM      2  C   UNL     1     217.525  -7.376  25.840  1.00  0.00     0.000 C 
BRANCH   2   3
ATOM      3  C   UNL     1     218.393  -6.880  24.664  1.00  0.00     0.000 C 
BRANCH   3   4
ATOM      4  C   UNL     1     219.849  -6.578  25.060  1.00  0.00    -0.000 C 
BRANCH   4   5
ATOM      5  C   UNL     1     220.837  -6.772  23.898  1.00  0.00    -0.000 C 
BRANCH   5   6
ATOM      6  C   UNL     1     221.595  -8.106  23.982  1.00  0.00    -0.000 C 
BRANCH   6   7
ATOM      7  C   UNL     1     221.938  -8.677  22.598  1.00  0.00    -0.000 C 
BRANCH   7   8
ATOM      8  C   UNL     1     220.867  -8.298  21.565  1.00  0.00    -0.000 C 
BRANCH   8   9
ATOM      9  C   UNL     1     219.817  -9.404  21.356  1.00  0.00    -0.000 C 
BRANCH   9  10
ATOM     10  C   UNL     1     218.383  -9.026  21.769  1.00  0.00    -0.000 C 
BRANCH  10  11
ATOM     11  C   UNL     1     217.787  -9.987  22.808  1.00  0.00    -0.003 C 
ATOM     12  C   UNL     1     218.875 -10.837  23.459  1.00  0.00     0.004 C 
ENDBRANCH  10  11
ENDBRANCH   9  10
ENDBRANCH   8   9
ENDBRANCH   7   8
ENDBRANCH   6   7
ENDBRANCH   5   6
ENDBRANCH   4   5
ENDBRANCH   3   4
ENDBRANCH   2   3
ENDBRANCH   1   2
BRANCH   1  13
ATOM     13  C   UNL     1     217.194  -9.164  27.604  1.00  0.00     0.000 C 
BRANCH  13  14
ATOM     14  C   UNL     1     217.918  -8.678  28.873  1.00  0.00     0.000 C 
BRANCH  14  15
ATOM     15  C   UNL     1     219.384  -9.132  29.003  1.00  0.00     0.000 C 
BRANCH  15  16
ATOM     16  C   UNL     1     220.386  -7.973  28.863  1.00  0.00     0.000 C 
BRANCH  16  17
ATOM     17  C   UNL     1     221.396  -8.201  27.726  1.00  0.00     0.000 C 
BRANCH  17  18
ATOM     18  C   UNL     1     221.560  -9.689  27.369  1.00  0.00     0.000 C 
BRANCH  18  19
ATOM     19  C   UNL     1     222.990 -10.206  27.607  1.00  0.00     0.000 C 
BRANCH  19  20
ATOM     20  C   UNL     1     223.677  -9.669  28.879  1.00  0.00     0.006 C 
BRANCH  20  21
ATOM     21  C   UNL     1     223.594 -10.610  30.093  1.00  0.00     0.053 C 
BRANCH  21  22
ATOM     22  C   UNL     1     222.386 -10.332  30.934  1.00  0.00     0.041 C 
ATOM     23  O   UNL     1     222.299  -9.259  31.586  1.00  0.00    -0.550 OA
ATOM     24  O   UNL     1     221.370 -11.276  31.023  1.00  0.00    -0.550 OA
ENDBRANCH  21  22
ENDBRANCH  20  21
ENDBRANCH  19  20
ENDBRANCH  18  19
ENDBRANCH  17  18
ENDBRANCH  16  17
ENDBRANCH  15  16
ENDBRANCH  14  15
ENDBRANCH  13  14
ENDBRANCH   1  13
TORSDOF 20
ENDMDL
MODEL 2
REMARK VINA RESULT:    -5.874      2.715      6.549
REMARK INTER + INTRA:         -16.368
REMARK INTER:                 -12.924
REMARK INTRA:                  -3.445
REMARK UNBOUND:                -3.625
REMARK SMILES CCCCCCCCCCCCCCCCCCCCCC(=O)[O-]
REMARK SMILES IDX 12 1 11 2 10 3 9 4 8 5 7 6 6 7 5 8 4 9 3 10 2 11 1 12 13 13
REMARK SMILES IDX 14 14 15 15 16 16 17 17 18 18 19 19 20 20 21 21 22 22 23 23
REMARK SMILES IDX 24 24
REMARK H PARENT
REMARK Flexibility Score: inf
ROOT
ATOM      1  C   UNL     1     217.823  -9.469  28.381  1.00  0.00     0.000 C 
ENDROOT
BRANCH   1   2
ATOM      2  C   UNL     1     218.088  -8.440  29.490  1.00  0.00     0.000 C 
BRANCH   2   3
ATOM      3  C   UNL     1     218.832  -9.056  30.694  1.00  0.00     0.000 C 
BRANCH   3   4
ATOM      4  C   UNL     1     219.778 -10.206  30.310  1.00  0.00    -0.000 C 
BRANCH   4   5
ATOM      5  C   UNL     1     221.168 -10.079  30.956  1.00  0.00    -0.000 C 
BRANCH   5   6
ATOM      6  C   UNL     1     222.178 -11.088  30.390  1.00  0.00    -0.000 C 
BRANCH   6   7
ATOM      7  C   UNL     1     223.444 -10.412  29.842  1.00  0.00    -0.000 C 
BRANCH   7   8
ATOM      8  C   UNL     1     223.197  -8.921  29.571  1.00  0.00    -0.000 C 
BRANCH   8   9
ATOM      9  C   UNL     1     223.148  -8.584  28.069  1.00  0.00    -0.000 C 
BRANCH   9  10
ATOM     10  C   UNL     1     221.741  -8.306  27.511  1.00  0.00    -0.000 C 
BRANCH  10  11
ATOM     11  C   UNL     1     221.083  -9.551  26.900  1.00  0.00    -0.003 C 
ATOM     12  C   UNL     1     222.089 -10.361  26.085  1.00  0.00     0.004 C 
ENDBRANCH  10  11
ENDBRANCH   9  10
ENDBRANCH   8   9
ENDBRANCH   7   8
ENDBRANCH   6   7
ENDBRANCH   5   6
ENDBRANCH   4   5
ENDBRANCH   3   4
ENDBRANCH   2   3
ENDBRANCH   1   2
BRANCH   1  13
ATOM     13  C   UNL     1     217.252  -8.794  27.125  1.00  0.00     0.000 C 
BRANCH  13  14
ATOM     14  C   UNL     1     217.943  -7.458  26.792  1.00  0.00     0.000 C 
BRANCH  14  15
ATOM     15  C   UNL     1     218.467  -7.335  25.349  1.00  0.00     0.000 C 
BRANCH  15  16
ATOM     16  C   UNL     1     219.576  -6.279  25.202  1.00  0.00     0.000 C 
BRANCH  16  17
ATOM     17  C   UNL     1     220.590  -6.639  24.104  1.00  0.00     0.000 C 
BRANCH  17  18
ATOM     18  C   UNL     1     220.438  -8.087  23.608  1.00  0.00     0.000 C 
BRANCH  18  19
ATOM     19  C   UNL     1     220.552  -8.209  22.077  1.00  0.00     0.000 C 
BRANCH  19  20
ATOM     20  C   UNL     1     219.465  -9.073  21.406  1.00  0.00     0.006 C 
BRANCH  20  21
ATOM     21  C   UNL     1     218.137  -9.140  22.178  1.00  0.00     0.053 C 
BRANCH  21  22
ATOM     22  C   UNL     1     217.922 -10.484  22.804  1.00  0.00     0.041 C 
ATOM     23  O   UNL     1     217.879 -10.602  24.057  1.00  0.00    -0.550 OA
ATOM     24  O   UNL     1     217.806 -11.613  22.003  1.00  0.00    -0.550 OA
ENDBRANCH  21  22
ENDBRANCH  20  21
ENDBRANCH  19  20
ENDBRANCH  18  19
ENDBRANCH  17  18
ENDBRANCH  16  17
ENDBRANCH  15  16
ENDBRANCH  14  15
ENDBRANCH  13  14
ENDBRANCH   1  13
TORSDOF 20
ENDMDL
MODEL 3
REMARK VINA RESULT:    -5.805      1.253      2.611
REMARK INTER + INTRA:         -16.217
REMARK INTER:                 -12.273
REMARK INTRA:                  -3.944
REMARK UNBOUND:                -3.625
REMARK SMILES CCCCCCCCCCCCCCCCCCCCCC(=O)[O-]
REMARK SMILES IDX 12 1 11 2 10 3 9 4 8 5 7 6 6 7 5 8 4 9 3 10 2 11 1 12 13 13
REMARK SMILES IDX 14 14 15 15 16 16 17 17 18 18 19 19 20 20 21 21 22 22 23 23
REMARK SMILES IDX 24 24
REMARK H PARENT
REMARK Flexibility Score: inf
ROOT
ATOM      1  C   UNL     1     217.763  -8.783  28.671  1.00  0.00     0.000 C 
ENDROOT
BRANCH   1   2
ATOM      2  C   UNL     1     218.187  -8.797  27.194  1.00  0.00     0.000 C 
BRANCH   2   3
ATOM      3  C   UNL     1     217.710  -7.540  26.437  1.00  0.00     0.000 C 
BRANCH   3   4
ATOM      4  C   UNL     1     218.850  -6.765  25.752  1.00  0.00    -0.000 C 
BRANCH   4   5
ATOM      5  C   UNL     1     218.697  -6.703  24.223  1.00  0.00    -0.000 C 
BRANCH   5   6
ATOM      6  C   UNL     1     217.443  -7.437  23.724  1.00  0.00    -0.000 C 
BRANCH   6   7
ATOM      7  C   UNL     1     217.780  -8.637  22.826  1.00  0.00    -0.000 C 
BRANCH   7   8
ATOM      8  C   UNL     1     218.082  -9.885  23.667  1.00  0.00    -0.000 C 
BRANCH   8   9
ATOM      9  C   UNL     1     219.519 -10.404  23.476  1.00  0.00    -0.000 C 
BRANCH   9  10
ATOM     10  C   UNL     1     220.484 -10.083  24.632  1.00  0.00    -0.000 C 
BRANCH  10  11
ATOM     11  C   UNL     1     221.516  -9.005  24.268  1.00  0.00    -0.003 C 
ATOM     12  C   UNL     1     221.579  -8.791  22.758  1.00  0.00     0.004 C 
ENDBRANCH  10  11
ENDBRANCH   9  10
ENDBRANCH   8   9
ENDBRANCH   7   8
ENDBRANCH   6   7
ENDBRANCH   5   6
ENDBRANCH   4   5
ENDBRANCH   3   4
ENDBRANCH   2   3
ENDBRANCH   1   2
BRANCH   1  13
ATOM     13  C   UNL     1     218.616  -9.755  29.500  1.00  0.00     0.000 C 
BRANCH  13  14
ATOM     14  C   UNL     1     219.384  -9.061  30.640  1.00  0.00     0.000 C 
BRANCH  14  15
ATOM     15  C   UNL     1     219.880  -7.638  30.322  1.00  0.00     0.000 C 
BRANCH  15  16
ATOM     16  C   UNL     1     221.346  -7.604  29.855  1.00  0.00     0.000 C 
BRANCH  16  17
ATOM     17  C   UNL     1     221.479  -7.685  28.326  1.00  0.00     0.000 C 
BRANCH  17  18
ATOM     18  C   UNL     1     222.530  -8.714  27.876  1.00  0.00     0.000 C 
BRANCH  18  19
ATOM     19  C   UNL     1     222.072 -10.169  28.093  1.00  0.00     0.000 C 
BRANCH  19  20
ATOM     20  C   UNL     1     222.742 -10.896  29.276  1.00  0.00     0.006 C 
BRANCH  20  21
ATOM     21  C   UNL     1     221.767 -11.642  30.201  1.00  0.00     0.053 C 
BRANCH  21  22
ATOM     22  C   UNL     1     222.177 -11.548  31.639  1.00  0.00     0.041 C 
ATOM     23  O   UNL     1     222.426 -12.592  32.297  1.00  0.00    -0.550 OA
ATOM     24  O   UNL     1     222.250 -10.308  32.261  1.00  0.00    -0.550 OA
ENDBRANCH  21  22
ENDBRANCH  20  21
ENDBRANCH  19  20
ENDBRANCH  18  19
ENDBRANCH  17  18
ENDBRANCH  16  17
ENDBRANCH  15  16
ENDBRANCH  14  15
ENDBRANCH  13  14
ENDBRANCH   1  13
TORSDOF 20
ENDMDL
MODEL 4
REMARK VINA RESULT:    -5.765      2.816      6.118
REMARK INTER + INTRA:         -16.130
REMARK INTER:                 -12.438
REMARK INTRA:                  -3.692
REMARK UNBOUND:                -3.625
REMARK SMILES CCCCCCCCCCCCCCCCCCCCCC(=O)[O-]
REMARK SMILES IDX 12 1 11 2 10 3 9 4 8 5 7 6 6 7 5 8 4 9 3 10 2 11 1 12 13 13
REMARK SMILES IDX 14 14 15 15 16 16 17 17 18 18 19 19 20 20 21 21 22 22 23 23
REMARK SMILES IDX 24 24
REMARK H PARENT
REMARK Flexibility Score: inf
ROOT
ATOM      1  C   UNL     1     217.202  -9.012  27.765  1.00  0.00     0.000 C 
ENDROOT
BRANCH   1   2
ATOM      2  C   UNL     1     218.095  -9.100  29.012  1.00  0.00     0.000 C 
BRANCH   2   3
ATOM      3  C   UNL     1     218.623  -7.717  29.452  1.00  0.00     0.000 C 
BRANCH   3   4
ATOM      4  C   UNL     1     219.804  -7.794  30.435  1.00  0.00    -0.000 C 
BRANCH   4   5
ATOM      5  C   UNL     1     221.166  -7.586  29.751  1.00  0.00    -0.000 C 
BRANCH   5   6
ATOM      6  C   UNL     1     221.036  -7.319  28.244  1.00  0.00    -0.000 C 
BRANCH   6   7
ATOM      7  C   UNL     1     222.019  -8.155  27.410  1.00  0.00    -0.000 C 
BRANCH   7   8
ATOM      8  C   UNL     1     221.532  -9.605  27.277  1.00  0.00    -0.000 C 
BRANCH   8   9
ATOM      9  C   UNL     1     222.636 -10.638  27.571  1.00  0.00    -0.000 C 
BRANCH   9  10
ATOM     10  C   UNL     1     223.603 -10.250  28.704  1.00  0.00    -0.000 C 
BRANCH  10  11
ATOM     11  C   UNL     1     222.997 -10.445  30.101  1.00  0.00    -0.003 C 
ATOM     12  C   UNL     1     222.005 -11.606  30.114  1.00  0.00     0.004 C 
ENDBRANCH  10  11
ENDBRANCH   9  10
ENDBRANCH   8   9
ENDBRANCH   7   8
ENDBRANCH   6   7
ENDBRANCH   5   6
ENDBRANCH   4   5
ENDBRANCH   3   4
ENDBRANCH   2   3
ENDBRANCH   1   2
BRANCH   1  13
ATOM     13  C   UNL     1     218.038  -8.756  26.503  1.00  0.00     0.000 C 
BRANCH  13  14
ATOM     14  C   UNL     1     217.272  -7.973  25.420  1.00  0.00     0.000 C 
BRANCH  14  15
ATOM     15  C   UNL     1     218.136  -7.034  24.558  1.00  0.00     0.000 C 
BRANCH  15  16
ATOM     16  C   UNL     1     219.352  -6.474  25.315  1.00  0.00     0.000 C 
BRANCH  16  17
ATOM     17  C   UNL     1     220.556  -6.222  24.392  1.00  0.00     0.000 C 
BRANCH  17  18
ATOM     18  C   UNL     1     220.706  -7.301  23.305  1.00  0.00     0.000 C 
BRANCH  18  19
ATOM     19  C   UNL     1     221.633  -8.454  23.733  1.00  0.00     0.000 C 
BRANCH  19  20
ATOM     20  C   UNL     1     221.141  -9.865  23.352  1.00  0.00     0.006 C 
BRANCH  20  21
ATOM     21  C   UNL     1     219.839 -10.296  24.047  1.00  0.00     0.053 C 
BRANCH  21  22
ATOM     22  C   UNL     1     218.719 -10.481  23.069  1.00  0.00     0.041 C 
ATOM     23  O   UNL     1     218.661  -9.775  22.029  1.00  0.00    -0.550 OA
ATOM     24  O   UNL     1     217.719 -11.412  23.327  1.00  0.00    -0.550 OA
ENDBRANCH  21  22
ENDBRANCH  20  21
ENDBRANCH  19  20
ENDBRANCH  18  19
ENDBRANCH  17  18
ENDBRANCH  16  17
ENDBRANCH  15  16
ENDBRANCH  14  15
ENDBRANCH  13  14
ENDBRANCH   1  13
TORSDOF 20
ENDMDL
MODEL 5
REMARK VINA RESULT:    -5.761      1.040      2.108
REMARK INTER + INTRA:         -16.122
REMARK INTER:                 -12.606
REMARK INTRA:                  -3.516
REMARK UNBOUND:                -3.625
REMARK SMILES CCCCCCCCCCCCCCCCCCCCCC(=O)[O-]
REMARK SMILES IDX 12 1 11 2 10 3 9 4 8 5 7 6 6 7 5 8 4 9 3 10 2 11 1 12 13 13
REMARK SMILES IDX 14 14 15 15 16 16 17 17 18 18 19 19 20 20 21 21 22 22 23 23
REMARK SMILES IDX 24 24
REMARK H PARENT
REMARK Flexibility Score: inf
ROOT
ATOM      1  C   UNL     1     217.809  -8.120  28.660  1.00  0.00     0.000 C 
ENDROOT
BRANCH   1   2
ATOM      2  C   UNL     1     217.529  -9.112  27.520  1.00  0.00     0.000 C 
BRANCH   2   3
ATOM      3  C   UNL     1     218.225  -8.703  26.204  1.00  0.00     0.000 C 
BRANCH   3   4
ATOM      4  C   UNL     1     217.410  -7.706  25.362  1.00  0.00    -0.000 C 
BRANCH   4   5
ATOM      5  C   UNL     1     218.268  -6.948  24.336  1.00  0.00    -0.000 C 
BRANCH   5   6
ATOM      6  C   UNL     1     219.518  -6.314  24.964  1.00  0.00    -0.000 C 
BRANCH   6   7
ATOM      7  C   UNL     1     220.810  -6.705  24.230  1.00  0.00    -0.000 C 
BRANCH   7   8
ATOM      8  C   UNL     1     220.531  -7.761  23.151  1.00  0.00    -0.000 C 
BRANCH   8   9
ATOM      9  C   UNL     1     221.170  -9.126  23.467  1.00  0.00    -0.000 C 
BRANCH   9  10
ATOM     10  C   UNL     1     220.170 -10.268  23.725  1.00  0.00    -0.000 C 
BRANCH  10  11
ATOM     11  C   UNL     1     218.947 -10.212  22.798  1.00  0.00    -0.003 C 
ATOM     12  C   UNL     1     217.829 -11.119  23.307  1.00  0.00     0.004 C 
ENDBRANCH  10  11
ENDBRANCH   9  10
ENDBRANCH   8   9
ENDBRANCH   7   8
ENDBRANCH   6   7
ENDBRANCH   5   6
ENDBRANCH   4   5
ENDBRANCH   3   4
ENDBRANCH   2   3
ENDBRANCH   1   2
BRANCH   1  13
ATOM     13  C   UNL     1     218.825  -8.696  29.657  1.00  0.00     0.000 C 
BRANCH  13  14
ATOM     14  C   UNL     1     219.785  -7.631  30.221  1.00  0.00     0.000 C 
BRANCH  14  15
ATOM     15  C   UNL     1     221.175  -7.589  29.560  1.00  0.00     0.000 C 
BRANCH  15  16
ATOM     16  C   UNL     1     221.107  -7.489  28.026  1.00  0.00     0.000 C 
BRANCH  16  17
ATOM     17  C   UNL     1     222.126  -8.407  27.331  1.00  0.00     0.000 C 
BRANCH  17  18
ATOM     18  C   UNL     1     221.602  -9.842  27.145  1.00  0.00     0.000 C 
BRANCH  18  19
ATOM     19  C   UNL     1     222.258 -10.847  28.110  1.00  0.00     0.000 C 
BRANCH  19  20
ATOM     20  C   UNL     1     223.363 -10.261  29.014  1.00  0.00     0.006 C 
BRANCH  20  21
ATOM     21  C   UNL     1     223.406 -10.853  30.432  1.00  0.00     0.053 C 
BRANCH  21  22
ATOM     22  C   UNL     1     222.091 -11.449  30.829  1.00  0.00     0.041 C 
ATOM     23  O   UNL     1     221.858 -12.669  30.622  1.00  0.00    -0.550 OA
ATOM     24  O   UNL     1     221.108 -10.648  31.397  1.00  0.00    -0.550 OA
ENDBRANCH  21  22
ENDBRANCH  20  21
ENDBRANCH  19  20
ENDBRANCH  18  19
ENDBRANCH  17  18
ENDBRANCH  16  17
ENDBRANCH  15  16
ENDBRANCH  14  15
ENDBRANCH  13  14
ENDBRANCH   1  13
TORSDOF 20
ENDMDL
MODEL 6
REMARK VINA RESULT:    -5.719      1.180      4.818
REMARK INTER + INTRA:         -16.030
REMARK INTER:                 -12.361
REMARK INTRA:                  -3.669
REMARK UNBOUND:                -3.625
REMARK SMILES CCCCCCCCCCCCCCCCCCCCCC(=O)[O-]
REMARK SMILES IDX 12 1 11 2 10 3 9 4 8 5 7 6 6 7 5 8 4 9 3 10 2 11 1 12 13 13
REMARK SMILES IDX 14 14 15 15 16 16 17 17 18 18 19 19 20 20 21 21 22 22 23 23
REMARK SMILES IDX 24 24
REMARK H PARENT
REMARK Flexibility Score: inf
ROOT
ATOM      1  C   UNL     1     220.731  -7.879  22.303  1.00  0.00     0.000 C 
ENDROOT
BRANCH   1   2
ATOM      2  C   UNL     1     219.763  -8.678  21.418  1.00  0.00     0.000 C 
BRANCH   2   3
ATOM      3  C   UNL     1     218.419  -8.958  22.125  1.00  0.00     0.000 C 
BRANCH   3   4
ATOM      4  C   UNL     1     218.479 -10.134  23.116  1.00  0.00    -0.000 C 
BRANCH   4   5
ATOM      5  C   UNL     1     218.259  -9.700  24.574  1.00  0.00    -0.000 C 
BRANCH   5   6
ATOM      6  C   UNL     1     218.013  -8.190  24.711  1.00  0.00    -0.000 C 
BRANCH   6   7
ATOM      7  C   UNL     1     217.683  -7.774  26.152  1.00  0.00    -0.000 C 
BRANCH   7   8
ATOM      8  C   UNL     1     217.534  -9.003  27.059  1.00  0.00    -0.000 C 
BRANCH   8   9
ATOM      9  C   UNL     1     217.799  -8.690  28.543  1.00  0.00    -0.000 C 
BRANCH   9  10
ATOM     10  C   UNL     1     218.961  -9.477  29.176  1.00  0.00    -0.000 C 
BRANCH  10  11
ATOM     11  C   UNL     1     219.409  -8.899  30.526  1.00  0.00    -0.003 C 
ATOM     12  C   UNL     1     220.385  -7.740  30.332  1.00  0.00     0.004 C 
ENDBRANCH  10  11
ENDBRANCH   9  10
ENDBRANCH   8   9
ENDBRANCH   7   8
ENDBRANCH   6   7
ENDBRANCH   5   6
ENDBRANCH   4   5
ENDBRANCH   3   4
ENDBRANCH   2   3
ENDBRANCH   1   2
BRANCH   1  13
ATOM     13  C   UNL     1     221.983  -8.703  22.638  1.00  0.00     0.000 C 
BRANCH  13  14
ATOM     14  C   UNL     1     222.008  -9.195  24.097  1.00  0.00     0.000 C 
BRANCH  14  15
ATOM     15  C   UNL     1     221.639  -8.134  25.151  1.00  0.00     0.000 C 
BRANCH  15  16
ATOM     16  C   UNL     1     221.595  -8.698  26.581  1.00  0.00     0.000 C 
BRANCH  16  17
ATOM     17  C   UNL     1     221.593 -10.236  26.608  1.00  0.00     0.000 C 
BRANCH  17  18
ATOM     18  C   UNL     1     222.253 -10.808  27.874  1.00  0.00     0.000 C 
BRANCH  18  19
ATOM     19  C   UNL     1     223.119  -9.772  28.616  1.00  0.00     0.000 C 
BRANCH  19  20
ATOM     20  C   UNL     1     223.375 -10.080  30.105  1.00  0.00     0.006 C 
BRANCH  20  21
ATOM     21  C   UNL     1     222.497 -11.201  30.685  1.00  0.00     0.053 C 
BRANCH  21  22
ATOM     22  C   UNL     1     222.412 -11.128  32.179  1.00  0.00     0.041 C 
ATOM     23  O   UNL     1     223.447 -11.271  32.881  1.00  0.00    -0.550 OA
ATOM     24  O   UNL     1     221.182 -10.937  32.797  1.00  0.00    -0.550 OA
ENDBRANCH  21  22
ENDBRANCH  20  21
ENDBRANCH  19  20
ENDBRANCH  18  19
ENDBRANCH  17  18
ENDBRANCH  16  17
ENDBRANCH  15  16
ENDBRANCH  14  15
ENDBRANCH  13  14
ENDBRANCH   1  13
TORSDOF 20
ENDMDL
MODEL 7
REMARK VINA RESULT:    -5.712      1.353      3.786
REMARK INTER + INTRA:         -16.017
REMARK INTER:                 -12.432
REMARK INTRA:                  -3.584
REMARK UNBOUND:                -3.625
REMARK SMILES CCCCCCCCCCCCCCCCCCCCCC(=O)[O-]
REMARK SMILES IDX 12 1 11 2 10 3 9 4 8 5 7 6 6 7 5 8 4 9 3 10 2 11 1 12 13 13
REMARK SMILES IDX 14 14 15 15 16 16 17 17 18 18 19 19 20 20 21 21 22 22 23 23
REMARK SMILES IDX 24 24
REMARK H PARENT
REMARK Flexibility Score: inf
ROOT
ATOM      1  C   UNL     1     218.019  -9.495  24.380  1.00  0.00     0.000 C 
ENDROOT
BRANCH   1   2
ATOM      2  C   UNL     1     217.506  -9.727  22.950  1.00  0.00     0.000 C 
BRANCH   2   3
ATOM      3  C   UNL     1     218.641 -10.116  21.978  1.00  0.00     0.000 C 
BRANCH   3   4
ATOM      4  C   UNL     1     218.999  -9.004  20.976  1.00  0.00    -0.000 C 
BRANCH   4   5
ATOM      5  C   UNL     1     220.493  -8.638  20.999  1.00  0.00    -0.000 C 
BRANCH   5   6
ATOM      6  C   UNL     1     220.898  -7.887  22.277  1.00  0.00    -0.000 C 
BRANCH   6   7
ATOM      7  C   UNL     1     221.834  -8.712  23.173  1.00  0.00    -0.000 C 
BRANCH   7   8
ATOM      8  C   UNL     1     221.604  -8.385  24.656  1.00  0.00    -0.000 C 
BRANCH   8   9
ATOM      9  C   UNL     1     221.582  -9.638  25.550  1.00  0.00    -0.000 C 
BRANCH   9  10
ATOM     10  C   UNL     1     221.362  -9.363  27.049  1.00  0.00    -0.000 C 
BRANCH  10  11
ATOM     11  C   UNL     1     221.413  -7.868  27.396  1.00  0.00    -0.003 C 
ATOM     12  C   UNL     1     222.518  -7.575  28.408  1.00  0.00     0.004 C 
ENDBRANCH  10  11
ENDBRANCH   9  10
ENDBRANCH   8   9
ENDBRANCH   7   8
ENDBRANCH   6   7
ENDBRANCH   5   6
ENDBRANCH   4   5
ENDBRANCH   3   4
ENDBRANCH   2   3
ENDBRANCH   1   2
BRANCH   1  13
ATOM     13  C   UNL     1     217.911  -8.014  24.772  1.00  0.00     0.000 C 
BRANCH  13  14
ATOM     14  C   UNL     1     217.939  -7.791  26.296  1.00  0.00     0.000 C 
BRANCH  14  15
ATOM     15  C   UNL     1     217.114  -8.798  27.119  1.00  0.00     0.000 C 
BRANCH  15  16
ATOM     16  C   UNL     1     217.860  -9.310  28.363  1.00  0.00     0.000 C 
BRANCH  16  17
ATOM     17  C   UNL     1     218.270  -8.173  29.313  1.00  0.00     0.000 C 
BRANCH  17  18
ATOM     18  C   UNL     1     219.300  -8.620  30.365  1.00  0.00     0.000 C 
BRANCH  18  19
ATOM     19  C   UNL     1     219.599 -10.130  30.302  1.00  0.00     0.000 C 
BRANCH  19  20
ATOM     20  C   UNL     1     220.796 -10.596  31.155  1.00  0.00     0.006 C 
BRANCH  20  21
ATOM     21  C   UNL     1     222.035 -11.007  30.342  1.00  0.00     0.053 C 
BRANCH  21  22
ATOM     22  C   UNL     1     223.267 -10.288  30.800  1.00  0.00     0.041 C 
ATOM     23  O   UNL     1     224.406 -10.689  30.443  1.00  0.00    -0.550 OA
ATOM     24  O   UNL     1     223.158  -9.193  31.649  1.00  0.00    -0.550 OA
ENDBRANCH  21  22
ENDBRANCH  20  21
ENDBRANCH  19  20
ENDBRANCH  18  19
ENDBRANCH  17  18
ENDBRANCH  16  17
ENDBRANCH  15  16
ENDBRANCH  14  15
ENDBRANCH  13  14
ENDBRANCH   1  13
TORSDOF 20
ENDMDL
MODEL 8
REMARK VINA RESULT:    -5.670      1.465      2.358
REMARK INTER + INTRA:         -15.925
REMARK INTER:                 -12.266
REMARK INTRA:                  -3.659
REMARK UNBOUND:                -3.625
REMARK SMILES CCCCCCCCCCCCCCCCCCCCCC(=O)[O-]
REMARK SMILES IDX 12 1 11 2 10 3 9 4 8 5 7 6 6 7 5 8 4 9 3 10 2 11 1 12 13 13
REMARK SMILES IDX 14 14 15 15 16 16 17 17 18 18 19 19 20 20 21 21 22 22 23 23
REMARK SMILES IDX 24 24
REMARK H PARENT
REMARK Flexibility Score: inf
ROOT
ATOM      1  C   UNL     1     219.176  -7.116  25.795  1.00  0.00     0.000 C 
ENDROOT
BRANCH   1   2
ATOM      2  C   UNL     1     220.499  -7.143  26.574  1.00  0.00     0.000 C 
BRANCH   2   3
ATOM      3  C   UNL     1     221.497  -8.171  25.999  1.00  0.00     0.000 C 
BRANCH   3   4
ATOM      4  C   UNL     1     220.872  -9.552  25.734  1.00  0.00    -0.000 C 
BRANCH   4   5
ATOM      5  C   UNL     1     221.255 -10.128  24.361  1.00  0.00    -0.000 C 
BRANCH   5   6
ATOM      6  C   UNL     1     221.997  -9.112  23.479  1.00  0.00    -0.000 C 
BRANCH   6   7
ATOM      7  C   UNL     1     221.242  -8.797  22.179  1.00  0.00    -0.000 C 
BRANCH   7   8
ATOM      8  C   UNL     1     220.118  -7.782  22.428  1.00  0.00    -0.000 C 
BRANCH   8   9
ATOM      9  C   UNL     1     218.713  -8.396  22.289  1.00  0.00    -0.000 C 
BRANCH   9  10
ATOM     10  C   UNL     1     218.649  -9.691  21.460  1.00  0.00    -0.000 C 
BRANCH  10  11
ATOM     11  C   UNL     1     218.058 -10.873  22.242  1.00  0.00    -0.003 C 
ATOM     12  C   UNL     1     217.753 -10.481  23.686  1.00  0.00     0.004 C 
ENDBRANCH  10  11
ENDBRANCH   9  10
ENDBRANCH   8   9
ENDBRANCH   7   8
ENDBRANCH   6   7
ENDBRANCH   5   6
ENDBRANCH   4   5
ENDBRANCH   3   4
ENDBRANCH   2   3
ENDBRANCH   1   2
BRANCH   1  13
ATOM     13  C   UNL     1     217.975  -7.260  26.741  1.00  0.00     0.000 C 
BRANCH  13  14
ATOM     14  C   UNL     1     217.508  -8.718  26.905  1.00  0.00     0.000 C 
BRANCH  14  15
ATOM     15  C   UNL     1     217.600  -9.277  28.338  1.00  0.00     0.000 C 
BRANCH  15  16
ATOM     16  C   UNL     1     218.054  -8.224  29.364  1.00  0.00     0.000 C 
BRANCH  16  17
ATOM     17  C   UNL     1     219.301  -8.665  30.149  1.00  0.00     0.000 C 
BRANCH  17  18
ATOM     18  C   UNL     1     220.163  -9.676  29.373  1.00  0.00     0.000 C 
BRANCH  18  19
ATOM     19  C   UNL     1     221.673  -9.416  29.530  1.00  0.00     0.000 C 
BRANCH  19  20
ATOM     20  C   UNL     1     222.071  -8.609  30.782  1.00  0.00     0.006 C 
BRANCH  20  21
ATOM     21  C   UNL     1     223.046  -9.334  31.725  1.00  0.00     0.053 C 
BRANCH  21  22
ATOM     22  C   UNL     1     222.327 -10.059  32.822  1.00  0.00     0.041 C 
ATOM     23  O   UNL     1     221.374 -10.836  32.552  1.00  0.00    -0.550 OA
ATOM     24  O   UNL     1     222.687  -9.847  34.147  1.00  0.00    -0.550 OA
ENDBRANCH  21  22
ENDBRANCH  20  21
ENDBRANCH  19  20
ENDBRANCH  18  19
ENDBRANCH  17  18
ENDBRANCH  16  17
ENDBRANCH  15  16
ENDBRANCH  14  15
ENDBRANCH  13  14
ENDBRANCH   1  13
TORSDOF 20
ENDMDL
MODEL 9
REMARK VINA RESULT:    -5.643      1.665      2.990
REMARK INTER + INTRA:         -15.866
REMARK INTER:                 -12.153
REMARK INTRA:                  -3.713
REMARK UNBOUND:                -3.625
REMARK SMILES CCCCCCCCCCCCCCCCCCCCCC(=O)[O-]
REMARK SMILES IDX 12 1 11 2 10 3 9 4 8 5 7 6 6 7 5 8 4 9 3 10 2 11 1 12 13 13
REMARK SMILES IDX 14 14 15 15 16 16 17 17 18 18 19 19 20 20 21 21 22 22 23 23
REMARK SMILES IDX 24 24
REMARK H PARENT
REMARK Flexibility Score: inf
ROOT
ATOM      1  C   UNL     1     217.618  -7.910  26.787  1.00  0.00     0.000 C 
ENDROOT
BRANCH   1   2
ATOM      2  C   UNL     1     217.552  -8.210  25.282  1.00  0.00     0.000 C 
BRANCH   2   3
ATOM      3  C   UNL     1     218.027  -7.016  24.426  1.00  0.00     0.000 C 
BRANCH   3   4
ATOM      4  C   UNL     1     219.308  -6.350  24.958  1.00  0.00    -0.000 C 
BRANCH   4   5
ATOM      5  C   UNL     1     220.512  -6.533  24.019  1.00  0.00    -0.000 C 
BRANCH   5   6
ATOM      6  C   UNL     1     220.271  -7.612  22.952  1.00  0.00    -0.000 C 
BRANCH   6   7
ATOM      7  C   UNL     1     221.537  -8.424  22.638  1.00  0.00    -0.000 C 
BRANCH   7   8
ATOM      8  C   UNL     1     222.031  -9.175  23.882  1.00  0.00    -0.000 C 
BRANCH   8   9
ATOM      9  C   UNL     1     220.915  -9.962  24.592  1.00  0.00    -0.000 C 
BRANCH   9  10
ATOM     10  C   UNL     1     220.833  -9.745  26.114  1.00  0.00    -0.000 C 
BRANCH  10  11
ATOM     11  C   UNL     1     221.952  -8.840  26.650  1.00  0.00    -0.003 C 
ATOM     12  C   UNL     1     221.380  -7.677  27.457  1.00  0.00     0.004 C 
ENDBRANCH  10  11
ENDBRANCH   9  10
ENDBRANCH   8   9
ENDBRANCH   7   8
ENDBRANCH   6   7
ENDBRANCH   5   6
ENDBRANCH   4   5
ENDBRANCH   3   4
ENDBRANCH   2   3
ENDBRANCH   1   2
BRANCH   1  13
ATOM     13  C   UNL     1     217.126  -9.109  27.612  1.00  0.00     0.000 C 
BRANCH  13  14
ATOM     14  C   UNL     1     218.102  -9.510  28.734  1.00  0.00     0.000 C 
BRANCH  14  15
ATOM     15  C   UNL     1     218.439  -8.392  29.738  1.00  0.00     0.000 C 
BRANCH  15  16
ATOM     16  C   UNL     1     219.673  -8.711  30.599  1.00  0.00     0.000 C 
BRANCH  16  17
ATOM     17  C   UNL     1     219.995 -10.214  30.634  1.00  0.00     0.000 C 
BRANCH  17  18
ATOM     18  C   UNL     1     221.104 -10.560  31.642  1.00  0.00     0.000 C 
BRANCH  18  19
ATOM     19  C   UNL     1     222.303 -11.273  30.989  1.00  0.00     0.000 C 
BRANCH  19  20
ATOM     20  C   UNL     1     222.745 -10.697  29.628  1.00  0.00     0.006 C 
BRANCH  20  21
ATOM     21  C   UNL     1     224.170 -10.121  29.613  1.00  0.00     0.053 C 
BRANCH  21  22
ATOM     22  C   UNL     1     224.170  -8.626  29.716  1.00  0.00     0.041 C 
ATOM     23  O   UNL     1     223.260  -8.034  30.353  1.00  0.00    -0.550 OA
ATOM     24  O   UNL     1     225.156  -7.885  29.077  1.00  0.00    -0.550 OA
ENDBRANCH  21  22
ENDBRANCH  20  21
ENDBRANCH  19  20
ENDBRANCH  18  19
ENDBRANCH  17  18
ENDBRANCH  16  17
ENDBRANCH  15  16
ENDBRANCH  14  15
ENDBRANCH  13  14
ENDBRANCH   1  13
TORSDOF 20
ENDMDL
