MODEL 1
REMARK VINA RESULT:    -4.675      0.000      0.000
REMARK INTER + INTRA:          -8.346
REMARK INTER:                  -7.408
REMARK INTRA:                  -0.938
REMARK UNBOUND:                -0.938
REMARK SMILES CCCCCCCCCCCC(=O)[O-]
REMARK SMILES IDX 7 1 8 2 9 3 10 4 11 5 12 6 13 7 14 8 6 9 5 10 4 11 3 12 2 13
REMARK SMILES IDX 1 14
REMARK H PARENT
REMARK Flexibility Score: inf
ROOT
ATOM      1  C   UNL     1      52.706  58.643  92.960  1.00  0.00     0.000 C 
ENDROOT
BRANCH   1   2
ATOM      2  C   UNL     1      53.011  57.696  94.130  1.00  0.00     0.000 C 
BRANCH   2   3
ATOM      3  C   UNL     1      51.794  57.467  95.040  1.00  0.00     0.000 C 
BRANCH   3   4
ATOM      4  C   UNL     1      50.501  57.918  94.349  1.00  0.00     0.006 C 
BRANCH   4   5
ATOM      5  C   UNL     1      49.743  58.933  95.210  1.00  0.00     0.053 C 
BRANCH   5   6
ATOM      6  C   UNL     1      49.635  60.245  94.501  1.00  0.00     0.041 C 
ATOM      7  O   UNL     1      49.774  60.303  93.250  1.00  0.00    -0.550 OA
ATOM      8  O   UNL     1      49.432  61.413  95.224  1.00  0.00    -0.550 OA
ENDBRANCH   5   6
ENDBRANCH   4   5
ENDBRANCH   3   4
ENDBRANCH   2   3
ENDBRANCH   1   2
BRANCH   1   9
ATOM      9  C   UNL     1      52.780  57.941  91.595  1.00  0.00     0.000 C 
BRANCH   9  10
ATOM     10  C   UNL     1      51.639  56.929  91.437  1.00  0.00    -0.000 C 
BRANCH  10  11
ATOM     11  C   UNL     1      51.998  55.851  90.407  1.00  0.00    -0.000 C 
BRANCH  11  12
ATOM     12  C   UNL     1      52.341  54.525  91.095  1.00  0.00    -0.000 C 
BRANCH  12  13
ATOM     13  C   UNL     1      51.843  54.513  92.545  1.00  0.00    -0.003 C 
ATOM     14  C   UNL     1      52.982  54.209  93.515  1.00  0.00     0.004 C 
ENDBRANCH  12  13
ENDBRANCH  11  12
ENDBRANCH  10  11
ENDBRANCH   9  10
ENDBRANCH   1   9
TORSDOF 10
ENDMDL
MODEL 2
REMARK VINA RESULT:    -4.645      2.773      5.119
REMARK INTER + INTRA:          -8.299
REMARK INTER:                  -7.225
REMARK INTRA:                  -1.073
REMARK UNBOUND:                -0.938
REMARK SMILES CCCCCCCCCCCC(=O)[O-]
REMARK SMILES IDX 7 1 8 2 9 3 10 4 11 5 12 6 13 7 14 8 6 9 5 10 4 11 3 12 2 13
REMARK SMILES IDX 1 14
REMARK H PARENT
REMARK Flexibility Score: inf
ROOT
ATOM      1  C   UNL     1      53.321  59.414  91.396  1.00  0.00     0.000 C 
ENDROOT
BRANCH   1   2
ATOM      2  C   UNL     1      52.771  58.326  92.331  1.00  0.00     0.000 C 
BRANCH   2   3
ATOM      3  C   UNL     1      52.031  57.213  91.574  1.00  0.00     0.000 C 
BRANCH   3   4
ATOM      4  C   UNL     1      51.293  56.285  92.546  1.00  0.00     0.006 C 
BRANCH   4   5
ATOM      5  C   UNL     1      52.066  54.979  92.754  1.00  0.00     0.053 C 
BRANCH   5   6
ATOM      6  C   UNL     1      52.859  55.035  94.020  1.00  0.00     0.041 C 
ATOM      7  O   UNL     1      53.809  54.229  94.209  1.00  0.00    -0.550 OA
ATOM      8  O   UNL     1      52.520  55.943  95.014  1.00  0.00    -0.550 OA
ENDBRANCH   5   6
ENDBRANCH   4   5
ENDBRANCH   3   4
ENDBRANCH   2   3
ENDBRANCH   1   2
BRANCH   1   9
ATOM      9  C   UNL     1      52.831  60.821  91.773  1.00  0.00     0.000 C 
BRANCH   9  10
ATOM     10  C   UNL     1      52.341  60.860  93.226  1.00  0.00    -0.000 C 
BRANCH  10  11
ATOM     11  C   UNL     1      50.925  61.441  93.314  1.00  0.00    -0.000 C 
BRANCH  11  12
ATOM     12  C   UNL     1      49.878  60.327  93.422  1.00  0.00    -0.000 C 
BRANCH  12  13
ATOM     13  C   UNL     1      49.675  59.903  94.881  1.00  0.00    -0.003 C 
ATOM     14  C   UNL     1      49.782  58.389  95.035  1.00  0.00     0.004 C 
ENDBRANCH  12  13
ENDBRANCH  11  12
ENDBRANCH  10  11
ENDBRANCH   9  10
ENDBRANCH   1   9
TORSDOF 10
ENDMDL
MODEL 3
REMARK VINA RESULT:    -4.572      3.197      5.419
REMARK INTER + INTRA:          -8.182
REMARK INTER:                  -7.080
REMARK INTRA:                  -1.103
REMARK UNBOUND:                -0.938
REMARK SMILES CCCCCCCCCCCC(=O)[O-]
REMARK SMILES IDX 7 1 8 2 9 3 10 4 11 5 12 6 13 7 14 8 6 9 5 10 4 11 3 12 2 13
REMARK SMILES IDX 1 14
REMARK H PARENT
REMARK Flexibility Score: inf
ROOT
ATOM      1  C   UNL     1      49.676  58.702  95.236  1.00  0.00     0.000 C 
ENDROOT
BRANCH   1   2
ATOM      2  C   UNL     1      50.634  57.957  94.294  1.00  0.00     0.000 C 
BRANCH   2   3
ATOM      3  C   UNL     1      51.858  57.385  95.025  1.00  0.00     0.000 C 
BRANCH   3   4
ATOM      4  C   UNL     1      52.807  56.688  94.042  1.00  0.00     0.006 C 
BRANCH   4   5
ATOM      5  C   UNL     1      52.024  55.914  92.976  1.00  0.00     0.053 C 
BRANCH   5   6
ATOM      6  C   UNL     1      52.429  54.475  92.971  1.00  0.00     0.041 C 
ATOM      7  O   UNL     1      51.778  53.636  92.292  1.00  0.00    -0.550 OA
ATOM      8  O   UNL     1      53.494  54.048  93.753  1.00  0.00    -0.550 OA
ENDBRANCH   5   6
ENDBRANCH   4   5
ENDBRANCH   3   4
ENDBRANCH   2   3
ENDBRANCH   1   2
BRANCH   1   9
ATOM      9  C   UNL     1      49.506  60.182  94.860  1.00  0.00     0.000 C 
BRANCH   9  10
ATOM     10  C   UNL     1      49.942  60.433  93.411  1.00  0.00    -0.000 C 
BRANCH  10  11
ATOM     11  C   UNL     1      51.045  61.496  93.346  1.00  0.00    -0.000 C 
BRANCH  11  12
ATOM     12  C   UNL     1      52.428  60.846  93.211  1.00  0.00    -0.000 C 
BRANCH  12  13
ATOM     13  C   UNL     1      52.783  60.610  91.739  1.00  0.00    -0.003 C 
ATOM     14  C   UNL     1      53.321  59.198  91.522  1.00  0.00     0.004 C 
ENDBRANCH  12  13
ENDBRANCH  11  12
ENDBRANCH  10  11
ENDBRANCH   9  10
ENDBRANCH   1   9
TORSDOF 10
ENDMDL
MODEL 4
REMARK VINA RESULT:    -4.560      3.247      5.429
REMARK INTER + INTRA:          -8.164
REMARK INTER:                  -7.235
REMARK INTRA:                  -0.929
REMARK UNBOUND:                -0.938
REMARK SMILES CCCCCCCCCCCC(=O)[O-]
REMARK SMILES IDX 7 1 8 2 9 3 10 4 11 5 12 6 13 7 14 8 6 9 5 10 4 11 3 12 2 13
REMARK SMILES IDX 1 14
REMARK H PARENT
REMARK Flexibility Score: inf
ROOT
ATOM      1  C   UNL     1      53.055  58.268  92.253  1.00  0.00     0.000 C 
ENDROOT
BRANCH   1   2
ATOM      2  C   UNL     1      53.502  58.049  93.706  1.00  0.00     0.000 C 
BRANCH   2   3
ATOM      3  C   UNL     1      52.745  56.902  94.392  1.00  0.00     0.000 C 
BRANCH   3   4
ATOM      4  C   UNL     1      51.985  56.054  93.364  1.00  0.00     0.006 C 
BRANCH   4   5
ATOM      5  C   UNL     1      52.584  54.648  93.262  1.00  0.00     0.053 C 
BRANCH   5   6
ATOM      6  C   UNL     1      52.051  53.938  92.058  1.00  0.00     0.041 C 
ATOM      7  O   UNL     1      52.452  54.255  90.906  1.00  0.00    -0.550 OA
ATOM      8  O   UNL     1      51.074  52.961  92.201  1.00  0.00    -0.550 OA
ENDBRANCH   5   6
ENDBRANCH   4   5
ENDBRANCH   3   4
ENDBRANCH   2   3
ENDBRANCH   1   2
BRANCH   1   9
ATOM      9  C   UNL     1      53.013  59.755  91.865  1.00  0.00     0.000 C 
BRANCH   9  10
ATOM     10  C   UNL     1      52.381  60.596  92.981  1.00  0.00    -0.000 C 
BRANCH  10  11
ATOM     11  C   UNL     1      50.864  60.381  93.041  1.00  0.00    -0.000 C 
BRANCH  11  12
ATOM     12  C   UNL     1      50.236  61.202  94.173  1.00  0.00    -0.000 C 
BRANCH  12  13
ATOM     13  C   UNL     1      49.266  60.348  94.999  1.00  0.00    -0.003 C 
ATOM     14  C   UNL     1      49.768  58.913  95.125  1.00  0.00     0.004 C 
ENDBRANCH  12  13
ENDBRANCH  11  12
ENDBRANCH  10  11
ENDBRANCH   9  10
ENDBRANCH   1   9
TORSDOF 10
ENDMDL
MODEL 5
REMARK VINA RESULT:    -4.555      2.849      5.859
REMARK INTER + INTRA:          -8.155
REMARK INTER:                  -7.214
REMARK INTRA:                  -0.942
REMARK UNBOUND:                -0.938
REMARK SMILES CCCCCCCCCCCC(=O)[O-]
REMARK SMILES IDX 7 1 8 2 9 3 10 4 11 5 12 6 13 7 14 8 6 9 5 10 4 11 3 12 2 13
REMARK SMILES IDX 1 14
REMARK H PARENT
REMARK Flexibility Score: inf
ROOT
ATOM      1  C   UNL     1      52.683  57.761  94.108  1.00  0.00     0.000 C 
ENDROOT
BRANCH   1   2
ATOM      2  C   UNL     1      52.520  58.546  92.797  1.00  0.00     0.000 C 
BRANCH   2   3
ATOM      3  C   UNL     1      52.700  57.664  91.553  1.00  0.00     0.000 C 
BRANCH   3   4
ATOM      4  C   UNL     1      51.569  56.633  91.442  1.00  0.00     0.006 C 
BRANCH   4   5
ATOM      5  C   UNL     1      52.116  55.258  91.046  1.00  0.00     0.053 C 
BRANCH   5   6
ATOM      6  C   UNL     1      52.031  54.309  92.199  1.00  0.00     0.041 C 
ATOM      7  O   UNL     1      52.805  54.438  93.185  1.00  0.00    -0.550 OA
ATOM      8  O   UNL     1      51.132  53.251  92.164  1.00  0.00    -0.550 OA
ENDBRANCH   5   6
ENDBRANCH   4   5
ENDBRANCH   3   4
ENDBRANCH   2   3
ENDBRANCH   1   2
BRANCH   1   9
ATOM      9  C   UNL     1      51.361  57.611  94.877  1.00  0.00     0.000 C 
BRANCH   9  10
ATOM     10  C   UNL     1      50.255  58.459  94.237  1.00  0.00    -0.000 C 
BRANCH  10  11
ATOM     11  C   UNL     1      49.545  59.322  95.287  1.00  0.00    -0.000 C 
BRANCH  11  12
ATOM     12  C   UNL     1      49.590  60.805  94.902  1.00  0.00    -0.000 C 
BRANCH  12  13
ATOM     13  C   UNL     1      49.820  60.976  93.396  1.00  0.00    -0.003 C 
ATOM     14  C   UNL     1      48.522  61.333  92.678  1.00  0.00     0.004 C 
ENDBRANCH  12  13
ENDBRANCH  11  12
ENDBRANCH  10  11
ENDBRANCH   9  10
ENDBRANCH   1   9
TORSDOF 10
ENDMDL
MODEL 6
REMARK VINA RESULT:    -4.547      1.307      2.713
REMARK INTER + INTRA:          -8.142
REMARK INTER:                  -7.053
REMARK INTRA:                  -1.089
REMARK UNBOUND:                -0.938
REMARK SMILES CCCCCCCCCCCC(=O)[O-]
REMARK SMILES IDX 7 1 8 2 9 3 10 4 11 5 12 6 13 7 14 8 6 9 5 10 4 11 3 12 2 13
REMARK SMILES IDX 1 14
REMARK H PARENT
REMARK Flexibility Score: inf
ROOT
ATOM      1  C   UNL     1      53.498  58.020  93.570  1.00  0.00     0.000 C 
ENDROOT
BRANCH   1   2
ATOM      2  C   UNL     1      52.508  58.571  92.532  1.00  0.00     0.000 C 
BRANCH   2   3
ATOM      3  C   UNL     1      52.600  60.096  92.378  1.00  0.00     0.000 C 
BRANCH   3   4
ATOM      4  C   UNL     1      51.517  60.798  93.206  1.00  0.00     0.006 C 
BRANCH   4   5
ATOM      5  C   UNL     1      50.260  59.930  93.315  1.00  0.00     0.053 C 
BRANCH   5   6
ATOM      6  C   UNL     1      49.719  59.964  94.709  1.00  0.00     0.041 C 
ATOM      7  O   UNL     1      49.572  61.064  95.305  1.00  0.00    -0.550 OA
ATOM      8  O   UNL     1      49.423  58.779  95.370  1.00  0.00    -0.550 OA
ENDBRANCH   5   6
ENDBRANCH   4   5
ENDBRANCH   3   4
ENDBRANCH   2   3
ENDBRANCH   1   2
BRANCH   1   9
ATOM      9  C   UNL     1      52.813  57.611  94.883  1.00  0.00     0.000 C 
BRANCH   9  10
ATOM     10  C   UNL     1      51.962  56.350  94.689  1.00  0.00    -0.000 C 
BRANCH  10  11
ATOM     11  C   UNL     1      52.796  55.083  94.910  1.00  0.00    -0.000 C 
BRANCH  11  12
ATOM     12  C   UNL     1      53.063  54.360  93.584  1.00  0.00    -0.000 C 
BRANCH  12  13
ATOM     13  C   UNL     1      51.924  54.603  92.588  1.00  0.00    -0.003 C 
ATOM     14  C   UNL     1      52.214  53.936  91.246  1.00  0.00     0.004 C 
ENDBRANCH  12  13
ENDBRANCH  11  12
ENDBRANCH  10  11
ENDBRANCH   9  10
ENDBRANCH   1   9
TORSDOF 10
ENDMDL
MODEL 7
REMARK VINA RESULT:    -4.507      1.252      2.473
REMARK INTER + INTRA:          -8.079
REMARK INTER:                  -7.027
REMARK INTRA:                  -1.052
REMARK UNBOUND:                -0.938
REMARK SMILES CCCCCCCCCCCC(=O)[O-]
REMARK SMILES IDX 7 1 8 2 9 3 10 4 11 5 12 6 13 7 14 8 6 9 5 10 4 11 3 12 2 13
REMARK SMILES IDX 1 14
REMARK H PARENT
REMARK Flexibility Score: inf
ROOT
ATOM      1  C   UNL     1      52.343  58.317  93.460  1.00  0.00     0.000 C 
ENDROOT
BRANCH   1   2
ATOM      2  C   UNL     1      51.090  57.683  92.837  1.00  0.00     0.000 C 
BRANCH   2   3
ATOM      3  C   UNL     1      49.788  58.236  93.434  1.00  0.00     0.000 C 
BRANCH   3   4
ATOM      4  C   UNL     1      50.041  58.875  94.806  1.00  0.00     0.006 C 
BRANCH   4   5
ATOM      5  C   UNL     1      49.407  60.267  94.889  1.00  0.00     0.053 C 
BRANCH   5   6
ATOM      6  C   UNL     1      49.738  61.067  93.669  1.00  0.00     0.041 C 
ATOM      7  O   UNL     1      50.910  61.491  93.487  1.00  0.00    -0.550 OA
ATOM      8  O   UNL     1      48.741  61.388  92.756  1.00  0.00    -0.550 OA
ENDBRANCH   5   6
ENDBRANCH   4   5
ENDBRANCH   3   4
ENDBRANCH   2   3
ENDBRANCH   1   2
BRANCH   1   9
ATOM      9  C   UNL     1      53.246  57.285  94.154  1.00  0.00     0.000 C 
BRANCH   9  10
ATOM     10  C   UNL     1      52.462  56.489  95.205  1.00  0.00    -0.000 C 
BRANCH  10  11
ATOM     11  C   UNL     1      52.751  54.988  95.088  1.00  0.00    -0.000 C 
BRANCH  11  12
ATOM     12  C   UNL     1      53.236  54.629  93.678  1.00  0.00    -0.000 C 
BRANCH  12  13
ATOM     13  C   UNL     1      52.089  54.068  92.829  1.00  0.00    -0.003 C 
ATOM     14  C   UNL     1      52.264  54.433  91.358  1.00  0.00     0.004 C 
ENDBRANCH  12  13
ENDBRANCH  11  12
ENDBRANCH  10  11
ENDBRANCH   9  10
ENDBRANCH   1   9
TORSDOF 10
ENDMDL
MODEL 8
REMARK VINA RESULT:    -4.502      3.221      5.241
REMARK INTER + INTRA:          -8.071
REMARK INTER:                  -6.853
REMARK INTRA:                  -1.218
REMARK UNBOUND:                -0.938
REMARK SMILES CCCCCCCCCCCC(=O)[O-]
REMARK SMILES IDX 7 1 8 2 9 3 10 4 11 5 12 6 13 7 14 8 6 9 5 10 4 11 3 12 2 13
REMARK SMILES IDX 1 14
REMARK H PARENT
REMARK Flexibility Score: inf
ROOT
ATOM      1  C   UNL     1      52.727  59.859  92.033  1.00  0.00     0.000 C 
ENDROOT
BRANCH   1   2
ATOM      2  C   UNL     1      52.988  58.376  92.335  1.00  0.00     0.000 C 
BRANCH   2   3
ATOM      3  C   UNL     1      53.425  58.136  93.788  1.00  0.00     0.000 C 
BRANCH   3   4
ATOM      4  C   UNL     1      52.907  56.786  94.300  1.00  0.00     0.006 C 
BRANCH   4   5
ATOM      5  C   UNL     1      52.258  55.982  93.170  1.00  0.00     0.053 C 
BRANCH   5   6
ATOM      6  C   UNL     1      52.725  54.561  93.202  1.00  0.00     0.041 C 
ATOM      7  O   UNL     1      52.203  53.705  92.440  1.00  0.00    -0.550 OA
ATOM      8  O   UNL     1      53.701  54.170  94.109  1.00  0.00    -0.550 OA
ENDBRANCH   5   6
ENDBRANCH   4   5
ENDBRANCH   3   4
ENDBRANCH   2   3
ENDBRANCH   1   2
BRANCH   1   9
ATOM      9  C   UNL     1      52.431  60.679  93.298  1.00  0.00     0.000 C 
BRANCH   9  10
ATOM     10  C   UNL     1      51.134  61.482  93.142  1.00  0.00    -0.000 C 
BRANCH  10  11
ATOM     11  C   UNL     1      49.906  60.595  93.377  1.00  0.00    -0.000 C 
BRANCH  11  12
ATOM     12  C   UNL     1      49.677  60.357  94.875  1.00  0.00    -0.000 C 
BRANCH  12  13
ATOM     13  C   UNL     1      49.667  58.859  95.198  1.00  0.00    -0.003 C 
ATOM     14  C   UNL     1      49.648  58.021  93.923  1.00  0.00     0.004 C 
ENDBRANCH  12  13
ENDBRANCH  11  12
ENDBRANCH  10  11
ENDBRANCH   9  10
ENDBRANCH   1   9
TORSDOF 10
ENDMDL
MODEL 9
REMARK VINA RESULT:    -4.439      2.749      5.514
REMARK INTER + INTRA:          -7.972
REMARK INTER:                  -6.991
REMARK INTRA:                  -0.981
REMARK UNBOUND:                -0.938
REMARK SMILES CCCCCCCCCCCC(=O)[O-]
REMARK SMILES IDX 7 1 8 2 9 3 10 4 11 5 12 6 13 7 14 8 6 9 5 10 4 11 3 12 2 13
REMARK SMILES IDX 1 14
REMARK H PARENT
REMARK Flexibility Score: inf
ROOT
ATOM      1  C   UNL     1      53.354  57.604  94.104  1.00  0.00     0.000 C 
ENDROOT
BRANCH   1   2
ATOM      2  C   UNL     1      52.410  56.859  95.060  1.00  0.00     0.000 C 
BRANCH   2   3
ATOM      3  C   UNL     1      52.706  55.353  95.132  1.00  0.00     0.000 C 
BRANCH   3   4
ATOM      4  C   UNL     1      53.044  54.794  93.744  1.00  0.00     0.006 C 
BRANCH   4   5
ATOM      5  C   UNL     1      51.775  54.587  92.911  1.00  0.00     0.053 C 
BRANCH   5   6
ATOM      6  C   UNL     1      52.089  54.665  91.451  1.00  0.00     0.041 C 
ATOM      7  O   UNL     1      52.057  55.774  90.854  1.00  0.00    -0.550 OA
ATOM      8  O   UNL     1      52.366  53.507  90.736  1.00  0.00    -0.550 OA
ENDBRANCH   5   6
ENDBRANCH   4   5
ENDBRANCH   3   4
ENDBRANCH   2   3
ENDBRANCH   1   2
BRANCH   1   9
ATOM      9  C   UNL     1      52.602  58.504  93.111  1.00  0.00     0.000 C 
BRANCH   9  10
ATOM     10  C   UNL     1      51.109  58.154  93.075  1.00  0.00    -0.000 C 
BRANCH  10  11
ATOM     11  C   UNL     1      50.245  59.409  93.248  1.00  0.00    -0.000 C 
BRANCH  11  12
ATOM     12  C   UNL     1      49.799  59.574  94.706  1.00  0.00    -0.000 C 
BRANCH  12  13
ATOM     13  C   UNL     1      49.558  61.050  95.043  1.00  0.00    -0.003 C 
ATOM     14  C   UNL     1      49.483  61.898  93.777  1.00  0.00     0.004 C 
ENDBRANCH  12  13
ENDBRANCH  11  12
ENDBRANCH  10  11
ENDBRANCH   9  10
ENDBRANCH   1   9
TORSDOF 10
ENDMDL
