MODEL 1
REMARK VINA RESULT:     1.500      0.000      0.000
REMARK INTER + INTRA:           1.639
REMARK INTER:                   1.763
REMARK INTRA:                  -0.124
REMARK UNBOUND:                -0.124
REMARK SMILES O=C([O-])C=Cc1ccc(O)c(O)c1
REMARK SMILES IDX 6 1 13 2 7 3 11 4 8 5 9 6 5 7 4 8 2 9 1 10 3 11 12 12 10 14
REMARK H PARENT 12 13 10 15
REMARK Flexibility Score: inf
ROOT
ATOM      1  C   UNL     1      -3.770  -1.042   2.378  1.00  0.00    -0.022 A 
ATOM      2  C   UNL     1      -3.897  -0.836   0.990  1.00  0.00     0.058 A 
ATOM      3  C   UNL     1      -4.623  -1.961   3.005  1.00  0.00     0.012 A 
ATOM      4  C   UNL     1      -4.872  -1.513   0.246  1.00  0.00     0.157 A 
ATOM      5  C   UNL     1      -5.600  -2.637   2.272  1.00  0.00     0.051 A 
ATOM      6  C   UNL     1      -5.740  -2.421   0.897  1.00  0.00     0.157 A 
ENDROOT
BRANCH   1   7
ATOM      7  C   UNL     1      -2.742  -0.354   3.197  1.00  0.00     0.010 C 
ATOM      8  C   UNL     1      -1.489  -0.121   2.779  1.00  0.00     0.025 C 
BRANCH   8   9
ATOM      9  C   UNL     1      -0.498   0.577   3.615  1.00  0.00     0.064 C 
ATOM     10  O   UNL     1      -0.856   1.379   4.519  1.00  0.00    -0.545 OA
ATOM     11  O   UNL     1       0.854   0.345   3.407  1.00  0.00    -0.545 OA
ENDBRANCH   8   9
ENDBRANCH   1   7
BRANCH   4  12
ATOM     12  O   UNL     1      -4.940  -1.259  -1.125  1.00  0.00    -0.504 OA
ATOM     13  H   UNL     1      -4.150  -1.326  -1.751  1.00  0.00     0.293 HD
ENDBRANCH   4  12
BRANCH   6  14
ATOM     14  O   UNL     1      -6.740  -3.125   0.225  1.00  0.00    -0.504 OA
ATOM     15  H   UNL     1      -7.722  -2.895   0.274  1.00  0.00     0.293 HD
ENDBRANCH   6  14
TORSDOF 4
ENDMDL
MODEL 2
REMARK VINA RESULT:     3.523      1.095      5.757
REMARK INTER + INTRA:           4.017
REMARK INTER:                   4.156
REMARK INTRA:                  -0.139
REMARK UNBOUND:                -0.124
REMARK SMILES O=C([O-])C=Cc1ccc(O)c(O)c1
REMARK SMILES IDX 6 1 13 2 7 3 11 4 8 5 9 6 5 7 4 8 2 9 1 10 3 11 12 12 10 14
REMARK H PARENT 12 13 10 15
REMARK Flexibility Score: inf
ROOT
ATOM      1  C   UNL     1      -3.139  -0.585   2.048  1.00  0.00    -0.022 A 
ATOM      2  C   UNL     1      -1.735  -0.464   2.032  1.00  0.00     0.058 A 
ATOM      3  C   UNL     1      -3.853  -0.016   3.111  1.00  0.00     0.012 A 
ATOM      4  C   UNL     1      -1.055   0.187   3.070  1.00  0.00     0.157 A 
ATOM      5  C   UNL     1      -3.184   0.631   4.150  1.00  0.00     0.051 A 
ATOM      6  C   UNL     1      -1.789   0.737   4.147  1.00  0.00     0.157 A 
ENDROOT
BRANCH   1   7
ATOM      7  C   UNL     1      -3.895  -1.256   0.962  1.00  0.00     0.010 C 
ATOM      8  C   UNL     1      -4.821  -2.203   1.174  1.00  0.00     0.025 C 
BRANCH   8   9
ATOM      9  C   UNL     1      -5.562  -2.838   0.072  1.00  0.00     0.064 C 
ATOM     10  O   UNL     1      -6.784  -3.125   0.187  1.00  0.00    -0.545 OA
ATOM     11  O   UNL     1      -4.904  -3.124  -1.116  1.00  0.00    -0.545 OA
ENDBRANCH   8   9
ENDBRANCH   1   7
BRANCH   4  12
ATOM     12  O   UNL     1       0.336   0.268   2.987  1.00  0.00    -0.504 OA
ATOM     13  H   UNL     1       0.946  -0.533   2.922  1.00  0.00     0.293 HD
ENDBRANCH   4  12
BRANCH   6  14
ATOM     14  O   UNL     1      -1.181   1.392   5.219  1.00  0.00    -0.504 OA
ATOM     15  H   UNL     1      -1.558   2.218   5.662  1.00  0.00     0.293 HD
ENDBRANCH   6  14
TORSDOF 4
ENDMDL
