MODEL 1
REMARK VINA RESULT:    -4.273      0.000      0.000
REMARK INTER + INTRA:          -9.824
REMARK INTER:                  -8.270
REMARK INTRA:                  -1.554
REMARK UNBOUND:                -1.554
REMARK SMILES CCCCCCCCCCCCCCCCCC(=O)[O-]
REMARK SMILES IDX 10 1 11 2 12 3 13 4 14 5 15 6 16 7 17 8 18 9 19 10 20 11
REMARK SMILES IDX 9 12 8 13 7 14 6 15 5 16 4 17 3 18 2 19 1 20
REMARK H PARENT
REMARK Flexibility Score: inf
ROOT
ATOM      1  C   UNL     1      41.237  67.745  49.462  1.00  0.00     0.000 C 
ENDROOT
BRANCH   1   2
ATOM      2  C   UNL     1      40.076  67.844  48.460  1.00  0.00     0.000 C 
BRANCH   2   3
ATOM      3  C   UNL     1      40.280  66.952  47.225  1.00  0.00     0.000 C 
BRANCH   3   4
ATOM      4  C   UNL     1      40.249  65.455  47.575  1.00  0.00     0.000 C 
BRANCH   4   5
ATOM      5  C   UNL     1      41.096  64.634  46.592  1.00  0.00     0.000 C 
BRANCH   5   6
ATOM      6  C   UNL     1      42.549  65.130  46.518  1.00  0.00     0.000 C 
BRANCH   6   7
ATOM      7  C   UNL     1      43.363  64.409  45.429  1.00  0.00     0.006 C 
BRANCH   7   8
ATOM      8  C   UNL     1      43.299  65.138  44.081  1.00  0.00     0.053 C 
BRANCH   8   9
ATOM      9  C   UNL     1      44.176  66.353  44.061  1.00  0.00     0.041 C 
ATOM     10  O   UNL     1      45.416  66.236  43.875  1.00  0.00    -0.550 OA
ATOM     11  O   UNL     1      43.620  67.617  44.212  1.00  0.00    -0.550 OA
ENDBRANCH   8   9
ENDBRANCH   7   8
ENDBRANCH   6   7
ENDBRANCH   5   6
ENDBRANCH   4   5
ENDBRANCH   3   4
ENDBRANCH   2   3
ENDBRANCH   1   2
BRANCH   1  12
ATOM     12  C   UNL     1      42.568  68.125  48.793  1.00  0.00     0.000 C 
BRANCH  12  13
ATOM     13  C   UNL     1      43.794  67.747  49.642  1.00  0.00    -0.000 C 
BRANCH  13  14
ATOM     14  C   UNL     1      44.431  66.381  49.288  1.00  0.00    -0.000 C 
BRANCH  14  15
ATOM     15  C   UNL     1      45.513  65.906  50.279  1.00  0.00    -0.000 C 
BRANCH  15  16
ATOM     16  C   UNL     1      45.275  66.302  51.747  1.00  0.00    -0.000 C 
BRANCH  16  17
ATOM     17  C   UNL     1      44.374  65.312  52.523  1.00  0.00    -0.000 C 
BRANCH  17  18
ATOM     18  C   UNL     1      43.210  66.017  53.241  1.00  0.00    -0.000 C 
BRANCH  18  19
ATOM     19  C   UNL     1      42.752  65.273  54.505  1.00  0.00    -0.003 C 
ATOM     20  C   UNL     1      43.661  64.096  54.857  1.00  0.00     0.004 C 
ENDBRANCH  18  19
ENDBRANCH  17  18
ENDBRANCH  16  17
ENDBRANCH  15  16
ENDBRANCH  14  15
ENDBRANCH  13  14
ENDBRANCH  12  13
ENDBRANCH   1  12
TORSDOF 16
ENDMDL
MODEL 2
REMARK VINA RESULT:    -4.130      3.303      5.854
REMARK INTER + INTRA:          -9.547
REMARK INTER:                  -8.604
REMARK INTRA:                  -0.943
REMARK UNBOUND:                -1.554
REMARK SMILES CCCCCCCCCCCCCCCCCC(=O)[O-]
REMARK SMILES IDX 10 1 11 2 12 3 13 4 14 5 15 6 16 7 17 8 18 9 19 10 20 11
REMARK SMILES IDX 9 12 8 13 7 14 6 15 5 16 4 17 3 18 2 19 1 20
REMARK H PARENT
REMARK Flexibility Score: inf
ROOT
ATOM      1  C   UNL     1      42.804  66.049  53.554  1.00  0.00     0.000 C 
ENDROOT
BRANCH   1   2
ATOM      2  C   UNL     1      43.800  66.621  52.532  1.00  0.00     0.000 C 
BRANCH   2   3
ATOM      3  C   UNL     1      44.833  65.583  52.065  1.00  0.00     0.000 C 
BRANCH   3   4
ATOM      4  C   UNL     1      45.178  65.733  50.574  1.00  0.00     0.000 C 
BRANCH   4   5
ATOM      5  C   UNL     1      44.208  66.694  49.871  1.00  0.00     0.000 C 
BRANCH   5   6
ATOM      6  C   UNL     1      44.367  66.670  48.342  1.00  0.00     0.000 C 
BRANCH   6   7
ATOM      7  C   UNL     1      43.025  66.481  47.613  1.00  0.00     0.006 C 
BRANCH   7   8
ATOM      8  C   UNL     1      43.043  65.272  46.670  1.00  0.00     0.053 C 
BRANCH   8   9
ATOM      9  C   UNL     1      41.698  65.018  46.062  1.00  0.00     0.041 C 
ATOM     10  O   UNL     1      41.335  65.657  45.039  1.00  0.00    -0.550 OA
ATOM     11  O   UNL     1      40.860  64.051  46.602  1.00  0.00    -0.550 OA
ENDBRANCH   8   9
ENDBRANCH   7   8
ENDBRANCH   6   7
ENDBRANCH   5   6
ENDBRANCH   4   5
ENDBRANCH   3   4
ENDBRANCH   2   3
ENDBRANCH   1   2
BRANCH   1  12
ATOM     12  C   UNL     1      43.290  64.691  54.085  1.00  0.00     0.000 C 
BRANCH  12  13
ATOM     13  C   UNL     1      43.288  64.615  55.622  1.00  0.00    -0.000 C 
BRANCH  13  14
ATOM     14  C   UNL     1      42.163  65.428  56.309  1.00  0.00    -0.000 C 
BRANCH  14  15
ATOM     15  C   UNL     1      40.890  64.616  56.622  1.00  0.00    -0.000 C 
BRANCH  15  16
ATOM     16  C   UNL     1      39.818  64.627  55.517  1.00  0.00    -0.000 C 
BRANCH  16  17
ATOM     17  C   UNL     1      38.444  64.086  55.975  1.00  0.00    -0.000 C 
BRANCH  17  18
ATOM     18  C   UNL     1      37.272  64.921  55.429  1.00  0.00    -0.000 C 
BRANCH  18  19
ATOM     19  C   UNL     1      36.044  64.067  55.078  1.00  0.00    -0.003 C 
ATOM     20  C   UNL     1      36.229  62.593  55.440  1.00  0.00     0.004 C 
ENDBRANCH  18  19
ENDBRANCH  17  18
ENDBRANCH  16  17
ENDBRANCH  15  16
ENDBRANCH  14  15
ENDBRANCH  13  14
ENDBRANCH  12  13
ENDBRANCH   1  12
TORSDOF 16
ENDMDL
MODEL 3
REMARK VINA RESULT:    -4.128     11.466     14.142
REMARK INTER + INTRA:          -9.542
REMARK INTER:                  -8.853
REMARK INTRA:                  -0.690
REMARK UNBOUND:                -1.554
REMARK SMILES CCCCCCCCCCCCCCCCCC(=O)[O-]
REMARK SMILES IDX 10 1 11 2 12 3 13 4 14 5 15 6 16 7 17 8 18 9 19 10 20 11
REMARK SMILES IDX 9 12 8 13 7 14 6 15 5 16 4 17 3 18 2 19 1 20
REMARK H PARENT
REMARK Flexibility Score: inf
ROOT
ATOM      1  C   UNL     1      36.244  61.471  55.496  1.00  0.00     0.000 C 
ENDROOT
BRANCH   1   2
ATOM      2  C   UNL     1      36.496  60.076  56.090  1.00  0.00     0.000 C 
BRANCH   2   3
ATOM      3  C   UNL     1      37.230  59.140  55.117  1.00  0.00     0.000 C 
BRANCH   3   4
ATOM      4  C   UNL     1      37.180  57.671  55.569  1.00  0.00     0.000 C 
BRANCH   4   5
ATOM      5  C   UNL     1      37.634  57.522  57.029  1.00  0.00     0.000 C 
BRANCH   5   6
ATOM      6  C   UNL     1      37.070  56.253  57.689  1.00  0.00     0.000 C 
BRANCH   6   7
ATOM      7  C   UNL     1      36.653  55.189  56.660  1.00  0.00     0.006 C 
BRANCH   7   8
ATOM      8  C   UNL     1      35.410  54.408  57.106  1.00  0.00     0.053 C 
BRANCH   8   9
ATOM      9  C   UNL     1      35.332  53.063  56.451  1.00  0.00     0.041 C 
ATOM     10  O   UNL     1      34.559  52.878  55.474  1.00  0.00    -0.550 OA
ATOM     11  O   UNL     1      36.138  52.023  56.895  1.00  0.00    -0.550 OA
ENDBRANCH   8   9
ENDBRANCH   7   8
ENDBRANCH   6   7
ENDBRANCH   5   6
ENDBRANCH   4   5
ENDBRANCH   3   4
ENDBRANCH   2   3
ENDBRANCH   1   2
BRANCH   1  12
ATOM     12  C   UNL     1      36.382  62.556  56.576  1.00  0.00     0.000 C 
BRANCH  12  13
ATOM     13  C   UNL     1      36.663  63.950  55.990  1.00  0.00    -0.000 C 
BRANCH  13  14
ATOM     14  C   UNL     1      35.654  65.046  56.413  1.00  0.00    -0.000 C 
BRANCH  14  15
ATOM     15  C   UNL     1      34.971  65.774  55.237  1.00  0.00    -0.000 C 
BRANCH  15  16
ATOM     16  C   UNL     1      33.441  65.899  55.344  1.00  0.00    -0.000 C 
BRANCH  16  17
ATOM     17  C   UNL     1      32.879  67.213  54.753  1.00  0.00    -0.000 C 
BRANCH  17  18
ATOM     18  C   UNL     1      31.576  66.994  53.965  1.00  0.00    -0.000 C 
BRANCH  18  19
ATOM     19  C   UNL     1      31.677  67.462  52.505  1.00  0.00    -0.003 C 
ATOM     20  C   UNL     1      33.119  67.516  52.002  1.00  0.00     0.004 C 
ENDBRANCH  18  19
ENDBRANCH  17  18
ENDBRANCH  16  17
ENDBRANCH  15  16
ENDBRANCH  14  15
ENDBRANCH  13  14
ENDBRANCH  12  13
ENDBRANCH   1  12
TORSDOF 16
ENDMDL
MODEL 4
REMARK VINA RESULT:    -4.062      3.392      6.066
REMARK INTER + INTRA:          -9.414
REMARK INTER:                  -8.358
REMARK INTRA:                  -1.056
REMARK UNBOUND:                -1.554
REMARK SMILES CCCCCCCCCCCCCCCCCC(=O)[O-]
REMARK SMILES IDX 10 1 11 2 12 3 13 4 14 5 15 6 16 7 17 8 18 9 19 10 20 11
REMARK SMILES IDX 9 12 8 13 7 14 6 15 5 16 4 17 3 18 2 19 1 20
REMARK H PARENT
REMARK Flexibility Score: inf
ROOT
ATOM      1  C   UNL     1      43.543  64.558  53.694  1.00  0.00     0.000 C 
ENDROOT
BRANCH   1   2
ATOM      2  C   UNL     1      44.021  65.639  52.712  1.00  0.00     0.000 C 
BRANCH   2   3
ATOM      3  C   UNL     1      45.119  65.134  51.763  1.00  0.00     0.000 C 
BRANCH   3   4
ATOM      4  C   UNL     1      45.413  66.129  50.628  1.00  0.00     0.000 C 
BRANCH   4   5
ATOM      5  C   UNL     1      44.414  67.295  50.636  1.00  0.00     0.000 C 
BRANCH   5   6
ATOM      6  C   UNL     1      43.922  67.654  49.225  1.00  0.00     0.000 C 
BRANCH   6   7
ATOM      7  C   UNL     1      43.987  66.460  48.257  1.00  0.00     0.006 C 
BRANCH   7   8
ATOM      8  C   UNL     1      42.663  66.246  47.512  1.00  0.00     0.053 C 
BRANCH   8   9
ATOM      9  C   UNL     1      42.744  65.103  46.547  1.00  0.00     0.041 C 
ATOM     10  O   UNL     1      43.850  64.780  46.039  1.00  0.00    -0.550 OA
ATOM     11  O   UNL     1      41.605  64.371  46.237  1.00  0.00    -0.550 OA
ENDBRANCH   8   9
ENDBRANCH   7   8
ENDBRANCH   6   7
ENDBRANCH   5   6
ENDBRANCH   4   5
ENDBRANCH   3   4
ENDBRANCH   2   3
ENDBRANCH   1   2
BRANCH   1  12
ATOM     12  C   UNL     1      43.188  65.178  55.056  1.00  0.00     0.000 C 
BRANCH  12  13
ATOM     13  C   UNL     1      41.755  65.736  55.103  1.00  0.00    -0.000 C 
BRANCH  13  14
ATOM     14  C   UNL     1      40.693  64.855  54.402  1.00  0.00    -0.000 C 
BRANCH  14  15
ATOM     15  C   UNL     1      39.435  64.576  55.249  1.00  0.00    -0.000 C 
BRANCH  15  16
ATOM     16  C   UNL     1      39.707  64.060  56.674  1.00  0.00    -0.000 C 
BRANCH  16  17
ATOM     17  C   UNL     1      38.715  62.971  57.144  1.00  0.00    -0.000 C 
BRANCH  17  18
ATOM     18  C   UNL     1      38.248  62.064  55.992  1.00  0.00    -0.000 C 
BRANCH  18  19
ATOM     19  C   UNL     1      36.718  61.983  55.879  1.00  0.00    -0.003 C 
ATOM     20  C   UNL     1      36.089  63.305  55.439  1.00  0.00     0.004 C 
ENDBRANCH  18  19
ENDBRANCH  17  18
ENDBRANCH  16  17
ENDBRANCH  15  16
ENDBRANCH  14  15
ENDBRANCH  13  14
ENDBRANCH  12  13
ENDBRANCH   1  12
TORSDOF 16
ENDMDL
MODEL 5
REMARK VINA RESULT:    -4.026     11.350     13.931
REMARK INTER + INTRA:          -9.345
REMARK INTER:                  -8.339
REMARK INTRA:                  -1.006
REMARK UNBOUND:                -1.554
REMARK SMILES CCCCCCCCCCCCCCCCCC(=O)[O-]
REMARK SMILES IDX 10 1 11 2 12 3 13 4 14 5 15 6 16 7 17 8 18 9 19 10 20 11
REMARK SMILES IDX 9 12 8 13 7 14 6 15 5 16 4 17 3 18 2 19 1 20
REMARK H PARENT
REMARK Flexibility Score: inf
ROOT
ATOM      1  C   UNL     1      37.608  61.088  57.174  1.00  0.00     0.000 C 
ENDROOT
BRANCH   1   2
ATOM      2  C   UNL     1      36.793  59.814  56.902  1.00  0.00     0.000 C 
BRANCH   2   3
ATOM      3  C   UNL     1      37.044  59.237  55.500  1.00  0.00     0.000 C 
BRANCH   3   4
ATOM      4  C   UNL     1      37.273  57.717  55.527  1.00  0.00     0.000 C 
BRANCH   4   5
ATOM      5  C   UNL     1      37.626  57.231  56.940  1.00  0.00     0.000 C 
BRANCH   5   6
ATOM      6  C   UNL     1      36.710  56.091  57.412  1.00  0.00     0.000 C 
BRANCH   6   7
ATOM      7  C   UNL     1      36.478  55.030  56.322  1.00  0.00     0.006 C 
BRANCH   7   8
ATOM      8  C   UNL     1      35.772  53.783  56.868  1.00  0.00     0.053 C 
BRANCH   8   9
ATOM      9  C   UNL     1      34.582  53.408  56.039  1.00  0.00     0.041 C 
ATOM     10  O   UNL     1      33.522  54.085  56.109  1.00  0.00    -0.550 OA
ATOM     11  O   UNL     1      34.654  52.333  55.162  1.00  0.00    -0.550 OA
ENDBRANCH   8   9
ENDBRANCH   7   8
ENDBRANCH   6   7
ENDBRANCH   5   6
ENDBRANCH   4   5
ENDBRANCH   3   4
ENDBRANCH   2   3
ENDBRANCH   1   2
BRANCH   1  12
ATOM     12  C   UNL     1      37.764  61.919  55.890  1.00  0.00     0.000 C 
BRANCH  12  13
ATOM     13  C   UNL     1      36.553  62.827  55.614  1.00  0.00    -0.000 C 
BRANCH  13  14
ATOM     14  C   UNL     1      36.156  63.751  56.791  1.00  0.00    -0.000 C 
BRANCH  14  15
ATOM     15  C   UNL     1      35.738  65.175  56.371  1.00  0.00    -0.000 C 
BRANCH  15  16
ATOM     16  C   UNL     1      35.649  65.410  54.852  1.00  0.00    -0.000 C 
BRANCH  16  17
ATOM     17  C   UNL     1      34.608  66.479  54.445  1.00  0.00    -0.000 C 
BRANCH  17  18
ATOM     18  C   UNL     1      33.498  66.649  55.497  1.00  0.00    -0.000 C 
BRANCH  18  19
ATOM     19  C   UNL     1      32.116  66.223  54.978  1.00  0.00    -0.003 C 
ATOM     20  C   UNL     1      31.675  67.024  53.753  1.00  0.00     0.004 C 
ENDBRANCH  18  19
ENDBRANCH  17  18
ENDBRANCH  16  17
ENDBRANCH  15  16
ENDBRANCH  14  15
ENDBRANCH  13  14
ENDBRANCH  12  13
ENDBRANCH   1  12
TORSDOF 16
ENDMDL
MODEL 6
REMARK VINA RESULT:    -3.997     11.744     14.427
REMARK INTER + INTRA:          -9.290
REMARK INTER:                  -8.580
REMARK INTRA:                  -0.711
REMARK UNBOUND:                -1.554
REMARK SMILES CCCCCCCCCCCCCCCCCC(=O)[O-]
REMARK SMILES IDX 10 1 11 2 12 3 13 4 14 5 15 6 16 7 17 8 18 9 19 10 20 11
REMARK SMILES IDX 9 12 8 13 7 14 6 15 5 16 4 17 3 18 2 19 1 20
REMARK H PARENT
REMARK Flexibility Score: inf
ROOT
ATOM      1  C   UNL     1      37.216  59.290  55.129  1.00  0.00     0.000 C 
ENDROOT
BRANCH   1   2
ATOM      2  C   UNL     1      37.252  57.814  55.556  1.00  0.00     0.000 C 
BRANCH   2   3
ATOM      3  C   UNL     1      37.656  57.631  57.028  1.00  0.00     0.000 C 
BRANCH   3   4
ATOM      4  C   UNL     1      36.894  56.480  57.704  1.00  0.00     0.000 C 
BRANCH   4   5
ATOM      5  C   UNL     1      36.626  55.334  56.718  1.00  0.00     0.000 C 
BRANCH   5   6
ATOM      6  C   UNL     1      35.547  54.364  57.228  1.00  0.00     0.000 C 
BRANCH   6   7
ATOM      7  C   UNL     1      35.156  53.312  56.176  1.00  0.00     0.006 C 
BRANCH   7   8
ATOM      8  C   UNL     1      33.749  53.551  55.613  1.00  0.00     0.053 C 
BRANCH   8   9
ATOM      9  C   UNL     1      33.320  52.447  54.697  1.00  0.00     0.041 C 
ATOM     10  O   UNL     1      34.161  51.605  54.282  1.00  0.00    -0.550 OA
ATOM     11  O   UNL     1      31.987  52.325  54.328  1.00  0.00    -0.550 OA
ENDBRANCH   8   9
ENDBRANCH   7   8
ENDBRANCH   6   7
ENDBRANCH   5   6
ENDBRANCH   4   5
ENDBRANCH   3   4
ENDBRANCH   2   3
ENDBRANCH   1   2
BRANCH   1  12
ATOM     12  C   UNL     1      36.244  60.089  56.012  1.00  0.00     0.000 C 
BRANCH  12  13
ATOM     13  C   UNL     1      36.199  61.583  55.651  1.00  0.00    -0.000 C 
BRANCH  13  14
ATOM     14  C   UNL     1      37.403  62.410  56.166  1.00  0.00    -0.000 C 
BRANCH  14  15
ATOM     15  C   UNL     1      37.321  63.918  55.854  1.00  0.00    -0.000 C 
BRANCH  15  16
ATOM     16  C   UNL     1      36.172  64.331  54.915  1.00  0.00    -0.000 C 
BRANCH  16  17
ATOM     17  C   UNL     1      35.706  65.793  55.104  1.00  0.00    -0.000 C 
BRANCH  17  18
ATOM     18  C   UNL     1      34.220  65.892  55.488  1.00  0.00    -0.000 C 
BRANCH  18  19
ATOM     19  C   UNL     1      33.399  66.721  54.487  1.00  0.00    -0.003 C 
ATOM     20  C   UNL     1      31.893  66.600  54.718  1.00  0.00     0.004 C 
ENDBRANCH  18  19
ENDBRANCH  17  18
ENDBRANCH  16  17
ENDBRANCH  15  16
ENDBRANCH  14  15
ENDBRANCH  13  14
ENDBRANCH  12  13
ENDBRANCH   1  12
TORSDOF 16
ENDMDL
MODEL 7
REMARK VINA RESULT:    -3.979      1.819      3.968
REMARK INTER + INTRA:          -9.255
REMARK INTER:                  -7.884
REMARK INTRA:                  -1.372
REMARK UNBOUND:                -1.554
REMARK SMILES CCCCCCCCCCCCCCCCCC(=O)[O-]
REMARK SMILES IDX 10 1 11 2 12 3 13 4 14 5 15 6 16 7 17 8 18 9 19 10 20 11
REMARK SMILES IDX 9 12 8 13 7 14 6 15 5 16 4 17 3 18 2 19 1 20
REMARK H PARENT
REMARK Flexibility Score: inf
ROOT
ATOM      1  C   UNL     1      45.047  65.916  50.678  1.00  0.00     0.000 C 
ENDROOT
BRANCH   1   2
ATOM      2  C   UNL     1      44.532  67.357  50.533  1.00  0.00     0.000 C 
BRANCH   2   3
ATOM      3  C   UNL     1      43.565  67.525  49.350  1.00  0.00     0.000 C 
BRANCH   3   4
ATOM      4  C   UNL     1      42.128  67.822  49.809  1.00  0.00     0.000 C 
BRANCH   4   5
ATOM      5  C   UNL     1      41.105  67.411  48.740  1.00  0.00     0.000 C 
BRANCH   5   6
ATOM      6  C   UNL     1      41.755  67.183  47.366  1.00  0.00     0.000 C 
BRANCH   6   7
ATOM      7  C   UNL     1      41.000  66.140  46.523  1.00  0.00     0.006 C 
BRANCH   7   8
ATOM      8  C   UNL     1      41.724  64.788  46.492  1.00  0.00     0.053 C 
BRANCH   8   9
ATOM      9  C   UNL     1      42.865  64.788  45.521  1.00  0.00     0.041 C 
ATOM     10  O   UNL     1      43.931  64.177  45.797  1.00  0.00    -0.550 OA
ATOM     11  O   UNL     1      42.739  65.432  44.297  1.00  0.00    -0.550 OA
ENDBRANCH   8   9
ENDBRANCH   7   8
ENDBRANCH   6   7
ENDBRANCH   5   6
ENDBRANCH   4   5
ENDBRANCH   3   4
ENDBRANCH   2   3
ENDBRANCH   1   2
BRANCH   1  12
ATOM     12  C   UNL     1      44.775  65.381  52.094  1.00  0.00     0.000 C 
BRANCH  12  13
ATOM     13  C   UNL     1      43.744  66.224  52.864  1.00  0.00    -0.000 C 
BRANCH  13  14
ATOM     14  C   UNL     1      42.755  65.406  53.729  1.00  0.00    -0.000 C 
BRANCH  14  15
ATOM     15  C   UNL     1      43.420  64.345  54.629  1.00  0.00    -0.000 C 
BRANCH  15  16
ATOM     16  C   UNL     1      43.076  64.448  56.127  1.00  0.00    -0.000 C 
BRANCH  16  17
ATOM     17  C   UNL     1      42.430  65.795  56.528  1.00  0.00    -0.000 C 
BRANCH  17  18
ATOM     18  C   UNL     1      40.973  65.631  56.996  1.00  0.00    -0.000 C 
BRANCH  18  19
ATOM     19  C   UNL     1      40.295  64.384  56.406  1.00  0.00    -0.003 C 
ATOM     20  C   UNL     1      39.163  64.731  55.440  1.00  0.00     0.004 C 
ENDBRANCH  18  19
ENDBRANCH  17  18
ENDBRANCH  16  17
ENDBRANCH  15  16
ENDBRANCH  14  15
ENDBRANCH  13  14
ENDBRANCH  12  13
ENDBRANCH   1  12
TORSDOF 16
ENDMDL
MODEL 8
REMARK VINA RESULT:    -3.974     10.375     13.086
REMARK INTER + INTRA:          -9.246
REMARK INTER:                  -8.058
REMARK INTRA:                  -1.188
REMARK UNBOUND:                -1.554
REMARK SMILES CCCCCCCCCCCCCCCCCC(=O)[O-]
REMARK SMILES IDX 10 1 11 2 12 3 13 4 14 5 15 6 16 7 17 8 18 9 19 10 20 11
REMARK SMILES IDX 9 12 8 13 7 14 6 15 5 16 4 17 3 18 2 19 1 20
REMARK H PARENT
REMARK Flexibility Score: inf
ROOT
ATOM      1  C   UNL     1      36.102  64.187  55.200  1.00  0.00     0.000 C 
ENDROOT
BRANCH   1   2
ATOM      2  C   UNL     1      37.066  63.547  56.211  1.00  0.00     0.000 C 
BRANCH   2   3
ATOM      3  C   UNL     1      37.514  62.137  55.794  1.00  0.00     0.000 C 
BRANCH   3   4
ATOM      4  C   UNL     1      36.342  61.142  55.746  1.00  0.00     0.000 C 
BRANCH   4   5
ATOM      5  C   UNL     1      36.825  59.701  55.966  1.00  0.00     0.000 C 
BRANCH   5   6
ATOM      6  C   UNL     1      36.536  59.200  57.390  1.00  0.00     0.000 C 
BRANCH   6   7
ATOM      7  C   UNL     1      37.497  58.081  57.828  1.00  0.00     0.006 C 
BRANCH   7   8
ATOM      8  C   UNL     1      37.843  57.131  56.674  1.00  0.00     0.053 C 
BRANCH   8   9
ATOM      9  C   UNL     1      36.833  56.033  56.534  1.00  0.00     0.041 C 
ATOM     10  O   UNL     1      36.424  55.415  57.552  1.00  0.00    -0.550 OA
ATOM     11  O   UNL     1      36.318  55.715  55.284  1.00  0.00    -0.550 OA
ENDBRANCH   8   9
ENDBRANCH   7   8
ENDBRANCH   6   7
ENDBRANCH   5   6
ENDBRANCH   4   5
ENDBRANCH   3   4
ENDBRANCH   2   3
ENDBRANCH   1   2
BRANCH   1  12
ATOM     12  C   UNL     1      35.068  65.070  55.917  1.00  0.00     0.000 C 
BRANCH  12  13
ATOM     13  C   UNL     1      35.225  66.564  55.584  1.00  0.00    -0.000 C 
BRANCH  13  14
ATOM     14  C   UNL     1      33.951  67.415  55.807  1.00  0.00    -0.000 C 
BRANCH  14  15
ATOM     15  C   UNL     1      32.634  66.612  55.776  1.00  0.00    -0.000 C 
BRANCH  15  16
ATOM     16  C   UNL     1      31.808  66.759  54.485  1.00  0.00    -0.000 C 
BRANCH  16  17
ATOM     17  C   UNL     1      32.289  67.904  53.563  1.00  0.00    -0.000 C 
BRANCH  17  18
ATOM     18  C   UNL     1      32.249  67.517  52.075  1.00  0.00    -0.000 C 
BRANCH  18  19
ATOM     19  C   UNL     1      33.649  67.331  51.469  1.00  0.00    -0.003 C 
ATOM     20  C   UNL     1      34.739  68.032  52.280  1.00  0.00     0.004 C 
ENDBRANCH  18  19
ENDBRANCH  17  18
ENDBRANCH  16  17
ENDBRANCH  15  16
ENDBRANCH  14  15
ENDBRANCH  13  14
ENDBRANCH  12  13
ENDBRANCH   1  12
TORSDOF 16
ENDMDL
MODEL 9
REMARK VINA RESULT:    -3.963     10.537     13.456
REMARK INTER + INTRA:          -9.224
REMARK INTER:                  -8.290
REMARK INTRA:                  -0.934
REMARK UNBOUND:                -1.554
REMARK SMILES CCCCCCCCCCCCCCCCCC(=O)[O-]
REMARK SMILES IDX 10 1 11 2 12 3 13 4 14 5 15 6 16 7 17 8 18 9 19 10 20 11
REMARK SMILES IDX 9 12 8 13 7 14 6 15 5 16 4 17 3 18 2 19 1 20
REMARK H PARENT
REMARK Flexibility Score: inf
ROOT
ATOM      1  C   UNL     1      36.116  60.162  56.347  1.00  0.00     0.000 C 
ENDROOT
BRANCH   1   2
ATOM      2  C   UNL     1      36.632  61.520  56.850  1.00  0.00     0.000 C 
BRANCH   2   3
ATOM      3  C   UNL     1      37.950  61.940  56.179  1.00  0.00     0.000 C 
BRANCH   3   4
ATOM      4  C   UNL     1      38.087  63.467  56.067  1.00  0.00     0.000 C 
BRANCH   4   5
ATOM      5  C   UNL     1      36.715  64.155  56.106  1.00  0.00     0.000 C 
BRANCH   5   6
ATOM      6  C   UNL     1      36.140  64.392  54.701  1.00  0.00     0.000 C 
BRANCH   6   7
ATOM      7  C   UNL     1      35.460  65.765  54.566  1.00  0.00     0.006 C 
BRANCH   7   8
ATOM      8  C   UNL     1      34.357  65.971  55.612  1.00  0.00     0.053 C 
BRANCH   8   9
ATOM      9  C   UNL     1      33.128  66.584  55.014  1.00  0.00     0.041 C 
ATOM     10  O   UNL     1      32.040  65.950  55.016  1.00  0.00    -0.550 OA
ATOM     11  O   UNL     1      33.175  67.868  54.488  1.00  0.00    -0.550 OA
ENDBRANCH   8   9
ENDBRANCH   7   8
ENDBRANCH   6   7
ENDBRANCH   5   6
ENDBRANCH   4   5
ENDBRANCH   3   4
ENDBRANCH   2   3
ENDBRANCH   1   2
BRANCH   1  12
ATOM     12  C   UNL     1      37.137  59.508  55.402  1.00  0.00     0.000 C 
BRANCH  12  13
ATOM     13  C   UNL     1      37.247  57.987  55.603  1.00  0.00    -0.000 C 
BRANCH  13  14
ATOM     14  C   UNL     1      37.909  57.556  56.935  1.00  0.00    -0.000 C 
BRANCH  14  15
ATOM     15  C   UNL     1      37.248  56.338  57.611  1.00  0.00    -0.000 C 
BRANCH  15  16
ATOM     16  C   UNL     1      36.511  55.379  56.658  1.00  0.00    -0.000 C 
BRANCH  16  17
ATOM     17  C   UNL     1      35.456  54.491  57.357  1.00  0.00    -0.000 C 
BRANCH  17  18
ATOM     18  C   UNL     1      35.179  53.189  56.585  1.00  0.00    -0.000 C 
BRANCH  18  19
ATOM     19  C   UNL     1      34.225  53.393  55.397  1.00  0.00    -0.003 C 
ATOM     20  C   UNL     1      32.787  53.664  55.836  1.00  0.00     0.004 C 
ENDBRANCH  18  19
ENDBRANCH  17  18
ENDBRANCH  16  17
ENDBRANCH  15  16
ENDBRANCH  14  15
ENDBRANCH  13  14
ENDBRANCH  12  13
ENDBRANCH   1  12
TORSDOF 16
ENDMDL
