MODEL 1
REMARK VINA RESULT:    -3.571      0.000      0.000
REMARK INTER + INTRA:          -3.675
REMARK INTER:                  -3.675
REMARK INTRA:                   0.000
REMARK UNBOUND:                 0.000
REMARK SMILES CC1(C)[C@H]2CC[C@](C)(C2)[C@@H]1O
REMARK SMILES IDX 1 1 2 2 4 3 5 4 6 5 7 6 9 7 10 8 8 9 3 10 11 11
REMARK H PARENT 11 12
REMARK Flexibility Score: inf
ROOT
ATOM      1  C   UNL     1     162.508 172.559 172.220  1.00  0.00     0.014 C 
ATOM      2  C   UNL     1     163.266 172.230 170.909  1.00  0.00    -0.006 C 
ATOM      3  C   UNL     1     162.484 171.251 169.967  1.00  0.00    -0.002 C 
ATOM      4  C   UNL     1     161.023 171.708 169.766  1.00  0.00     0.005 C 
ATOM      5  C   UNL     1     161.176 172.991 168.933  1.00  0.00     0.010 C 
ATOM      6  C   UNL     1     162.703 173.057 168.681  1.00  0.00    -0.006 C 
ATOM      7  C   UNL     1     163.051 171.584 168.596  1.00  0.00     0.013 C 
ATOM      8  C   UNL     1     163.403 173.501 170.001  1.00  0.00     0.126 C 
ATOM      9  C   UNL     1     163.071 173.873 167.436  1.00  0.00     0.014 C 
ATOM     10  C   UNL     1     164.623 171.598 171.314  1.00  0.00     0.014 C 
ENDROOT
BRANCH   8  11
ATOM     11  O   UNL     1     164.737 173.918 169.816  1.00  0.00    -0.392 OA
ATOM     12  H   UNL     1     164.740 174.860 169.507  1.00  0.00     0.211 HD
ENDBRANCH   8  11
TORSDOF 1
ENDMDL
MODEL 2
REMARK VINA RESULT:    -3.555     13.917     15.143
REMARK INTER + INTRA:          -3.659
REMARK INTER:                  -3.659
REMARK INTRA:                   0.000
REMARK UNBOUND:                 0.000
REMARK SMILES CC1(C)[C@H]2CC[C@](C)(C2)[C@@H]1O
REMARK SMILES IDX 1 1 2 2 4 3 5 4 6 5 7 6 9 7 10 8 8 9 3 10 11 11
REMARK H PARENT 11 12
REMARK Flexibility Score: inf
ROOT
ATOM      1  C   UNL     1     168.659 158.683 172.303  1.00  0.00     0.014 C 
ATOM      2  C   UNL     1     167.870 159.001 171.007  1.00  0.00    -0.006 C 
ATOM      3  C   UNL     1     168.608 160.009 170.061  1.00  0.00    -0.002 C 
ATOM      4  C   UNL     1     170.077 159.595 169.831  1.00  0.00     0.005 C 
ATOM      5  C   UNL     1     169.945 158.315 168.989  1.00  0.00     0.010 C 
ATOM      6  C   UNL     1     168.417 158.209 168.763  1.00  0.00    -0.006 C 
ATOM      7  C   UNL     1     168.026 159.672 168.697  1.00  0.00     0.013 C 
ATOM      8  C   UNL     1     167.752 157.735 170.091  1.00  0.00     0.126 C 
ATOM      9  C   UNL     1     168.049 157.394 167.517  1.00  0.00     0.014 C 
ATOM     10  C   UNL     1     166.502 159.592 171.441  1.00  0.00     0.014 C 
ENDROOT
BRANCH   8  11
ATOM     11  O   UNL     1     166.426 157.282 169.925  1.00  0.00    -0.392 OA
ATOM     12  H   UNL     1     166.408 156.597 169.209  1.00  0.00     0.211 HD
ENDBRANCH   8  11
TORSDOF 1
ENDMDL
MODEL 3
REMARK VINA RESULT:    -3.404     15.132     16.657
REMARK INTER + INTRA:          -3.504
REMARK INTER:                  -3.504
REMARK INTRA:                   0.000
REMARK UNBOUND:                 0.000
REMARK SMILES CC1(C)[C@H]2CC[C@](C)(C2)[C@@H]1O
REMARK SMILES IDX 1 1 2 2 4 3 5 4 6 5 7 6 9 7 10 8 8 9 3 10 11 11
REMARK H PARENT 11 12
REMARK Flexibility Score: inf
ROOT
ATOM      1  C   UNL     1     169.701 158.327 171.278  1.00  0.00     0.014 C 
ATOM      2  C   UNL     1     170.207 158.811 169.895  1.00  0.00    -0.006 C 
ATOM      3  C   UNL     1     171.458 159.752 169.985  1.00  0.00    -0.002 C 
ATOM      4  C   UNL     1     172.551 159.152 170.895  1.00  0.00     0.005 C 
ATOM      5  C   UNL     1     173.046 157.943 170.084  1.00  0.00     0.010 C 
ATOM      6  C   UNL     1     172.238 158.058 168.768  1.00  0.00    -0.006 C 
ATOM      7  C   UNL     1     172.115 159.562 168.628  1.00  0.00     0.013 C 
ATOM      8  C   UNL     1     170.770 157.617 169.050  1.00  0.00     0.126 C 
ATOM      9  C   UNL     1     172.917 157.360 167.583  1.00  0.00     0.014 C 
ATOM     10  C   UNL     1     169.031 159.562 169.217  1.00  0.00     0.014 C 
ENDROOT
BRANCH   8  11
ATOM     11  O   UNL     1     170.027 157.358 167.879  1.00  0.00    -0.392 OA
ATOM     12  H   UNL     1     170.643 157.345 167.103  1.00  0.00     0.211 HD
ENDBRANCH   8  11
TORSDOF 1
ENDMDL
MODEL 4
REMARK VINA RESULT:    -3.386      2.395      3.382
REMARK INTER + INTRA:          -3.485
REMARK INTER:                  -3.485
REMARK INTRA:                   0.000
REMARK UNBOUND:                 0.000
REMARK SMILES CC1(C)[C@H]2CC[C@](C)(C2)[C@@H]1O
REMARK SMILES IDX 1 1 2 2 4 3 5 4 6 5 7 6 9 7 10 8 8 9 3 10 11 11
REMARK H PARENT 11 12
REMARK Flexibility Score: inf
ROOT
ATOM      1  C   UNL     1     161.425 172.915 171.275  1.00  0.00     0.014 C 
ATOM      2  C   UNL     1     160.932 172.428 169.889  1.00  0.00    -0.006 C 
ATOM      3  C   UNL     1     159.673 171.498 169.967  1.00  0.00    -0.002 C 
ATOM      4  C   UNL     1     158.574 172.111 170.860  1.00  0.00     0.005 C 
ATOM      5  C   UNL     1     158.098 173.320 170.037  1.00  0.00     0.010 C 
ATOM      6  C   UNL     1     158.922 173.192 168.732  1.00  0.00    -0.006 C 
ATOM      7  C   UNL     1     159.034 171.686 168.600  1.00  0.00     0.013 C 
ATOM      8  C   UNL     1     160.390 173.623 169.030  1.00  0.00     0.126 C 
ATOM      9  C   UNL     1     158.263 173.890 167.535  1.00  0.00     0.014 C 
ATOM     10  C   UNL     1     162.111 171.665 169.229  1.00  0.00     0.014 C 
ENDROOT
BRANCH   8  11
ATOM     11  O   UNL     1     161.150 173.871 167.868  1.00  0.00    -0.392 OA
ATOM     12  H   UNL     1     160.535 174.102 167.125  1.00  0.00     0.211 HD
ENDBRANCH   8  11
TORSDOF 1
ENDMDL
MODEL 5
REMARK VINA RESULT:    -3.383      8.252      9.781
REMARK INTER + INTRA:          -3.482
REMARK INTER:                  -3.482
REMARK INTRA:                   0.000
REMARK UNBOUND:                 0.000
REMARK SMILES CC1(C)[C@H]2CC[C@](C)(C2)[C@@H]1O
REMARK SMILES IDX 1 1 2 2 4 3 5 4 6 5 7 6 9 7 10 8 8 9 3 10 11 11
REMARK H PARENT 11 12
REMARK Flexibility Score: inf
ROOT
ATOM      1  C   UNL     1     172.403 169.594 171.686  1.00  0.00     0.014 C 
ATOM      2  C   UNL     1     172.234 168.189 171.052  1.00  0.00    -0.006 C 
ATOM      3  C   UNL     1     171.043 167.371 171.661  1.00  0.00    -0.002 C 
ATOM      4  C   UNL     1     169.750 168.211 171.714  1.00  0.00     0.005 C 
ATOM      5  C   UNL     1     169.380 168.365 170.229  1.00  0.00     0.010 C 
ATOM      6  C   UNL     1     170.459 167.513 169.517  1.00  0.00    -0.006 C 
ATOM      7  C   UNL     1     170.687 166.414 170.535  1.00  0.00     0.013 C 
ATOM      8  C   UNL     1     171.806 168.296 169.547  1.00  0.00     0.126 C 
ATOM      9  C   UNL     1     170.017 167.020 168.133  1.00  0.00     0.014 C 
ATOM     10  C   UNL     1     173.566 167.426 171.274  1.00  0.00     0.014 C 
ENDROOT
BRANCH   8  11
ATOM     11  O   UNL     1     172.771 167.789 168.652  1.00  0.00    -0.392 OA
ATOM     12  H   UNL     1     172.694 166.801 168.621  1.00  0.00     0.211 HD
ENDBRANCH   8  11
TORSDOF 1
ENDMDL
MODEL 6
REMARK VINA RESULT:    -3.377      8.827     10.051
REMARK INTER + INTRA:          -3.476
REMARK INTER:                  -3.476
REMARK INTRA:                   0.000
REMARK UNBOUND:                 0.000
REMARK SMILES CC1(C)[C@H]2CC[C@](C)(C2)[C@@H]1O
REMARK SMILES IDX 1 1 2 2 4 3 5 4 6 5 7 6 9 7 10 8 8 9 3 10 11 11
REMARK H PARENT 11 12
REMARK Flexibility Score: inf
ROOT
ATOM      1  C   UNL     1     158.810 161.667 171.666  1.00  0.00     0.014 C 
ATOM      2  C   UNL     1     158.988 163.069 171.030  1.00  0.00    -0.006 C 
ATOM      3  C   UNL     1     160.190 163.878 171.630  1.00  0.00    -0.002 C 
ATOM      4  C   UNL     1     161.476 163.026 171.676  1.00  0.00     0.005 C 
ATOM      5  C   UNL     1     161.835 162.867 170.189  1.00  0.00     0.010 C 
ATOM      6  C   UNL     1     160.759 163.728 169.483  1.00  0.00    -0.006 C 
ATOM      7  C   UNL     1     160.548 164.830 170.501  1.00  0.00     0.013 C 
ATOM      8  C   UNL     1     159.405 162.957 169.523  1.00  0.00     0.126 C 
ATOM      9  C   UNL     1     161.196 164.216 168.096  1.00  0.00     0.014 C 
ATOM     10  C   UNL     1     157.664 163.845 171.260  1.00  0.00     0.014 C 
ENDROOT
BRANCH   8  11
ATOM     11  O   UNL     1     158.439 163.473 168.633  1.00  0.00    -0.392 OA
ATOM     12  H   UNL     1     158.866 164.156 168.055  1.00  0.00     0.211 HD
ENDBRANCH   8  11
TORSDOF 1
ENDMDL
MODEL 7
REMARK VINA RESULT:    -3.311      1.360      2.320
REMARK INTER + INTRA:          -3.408
REMARK INTER:                  -3.408
REMARK INTRA:                   0.000
REMARK UNBOUND:                 0.000
REMARK SMILES CC1(C)[C@H]2CC[C@](C)(C2)[C@@H]1O
REMARK SMILES IDX 1 1 2 2 4 3 5 4 6 5 7 6 9 7 10 8 8 9 3 10 11 11
REMARK H PARENT 11 12
REMARK Flexibility Score: inf
ROOT
ATOM      1  C   UNL     1     163.036 170.662 170.173  1.00  0.00     0.014 C 
ATOM      2  C   UNL     1     162.703 171.916 169.325  1.00  0.00    -0.006 C 
ATOM      3  C   UNL     1     161.164 172.139 169.122  1.00  0.00    -0.002 C 
ATOM      4  C   UNL     1     160.400 172.047 170.459  1.00  0.00     0.005 C 
ATOM      5  C   UNL     1     160.867 173.306 171.208  1.00  0.00     0.010 C 
ATOM      6  C   UNL     1     161.770 174.010 170.166  1.00  0.00    -0.006 C 
ATOM      7  C   UNL     1     161.075 173.635 168.873  1.00  0.00     0.013 C 
ATOM      8  C   UNL     1     163.116 173.230 170.072  1.00  0.00     0.126 C 
ATOM      9  C   UNL     1     161.901 175.519 170.407  1.00  0.00     0.014 C 
ATOM     10  C   UNL     1     163.394 171.731 167.948  1.00  0.00     0.014 C 
ENDROOT
BRANCH   8  11
ATOM     11  O   UNL     1     164.138 173.950 169.419  1.00  0.00    -0.392 OA
ATOM     12  H   UNL     1     164.223 173.617 168.489  1.00  0.00     0.211 HD
ENDBRANCH   8  11
TORSDOF 1
ENDMDL
MODEL 8
REMARK VINA RESULT:    -3.225      2.951      4.206
REMARK INTER + INTRA:          -3.320
REMARK INTER:                  -3.320
REMARK INTRA:                   0.000
REMARK UNBOUND:                 0.000
REMARK SMILES CC1(C)[C@H]2CC[C@](C)(C2)[C@@H]1O
REMARK SMILES IDX 1 1 2 2 4 3 5 4 6 5 7 6 9 7 10 8 8 9 3 10 11 11
REMARK H PARENT 11 12
REMARK Flexibility Score: inf
ROOT
ATOM      1  C   UNL     1     161.843 171.592 169.436  1.00  0.00     0.014 C 
ATOM      2  C   UNL     1     160.403 172.096 169.706  1.00  0.00    -0.006 C 
ATOM      3  C   UNL     1     160.349 173.565 170.252  1.00  0.00    -0.002 C 
ATOM      4  C   UNL     1     161.212 174.517 169.396  1.00  0.00     0.005 C 
ATOM      5  C   UNL     1     160.438 174.580 168.069  1.00  0.00     0.010 C 
ATOM      6  C   UNL     1     159.179 173.729 168.365  1.00  0.00    -0.006 C 
ATOM      7  C   UNL     1     158.962 174.025 169.836  1.00  0.00     0.013 C 
ATOM      8  C   UNL     1     159.589 172.226 168.373  1.00  0.00     0.126 C 
ATOM      9  C   UNL     1     157.991 174.081 167.461  1.00  0.00     0.014 C 
ATOM     10  C   UNL     1     159.768 171.127 170.738  1.00  0.00     0.014 C 
ENDROOT
BRANCH   8  11
ATOM     11  O   UNL     1     158.491 171.343 168.297  1.00  0.00    -0.392 OA
ATOM     12  H   UNL     1     158.447 170.962 167.382  1.00  0.00     0.211 HD
ENDBRANCH   8  11
TORSDOF 1
ENDMDL
MODEL 9
REMARK VINA RESULT:    -3.163      1.747      2.419
REMARK INTER + INTRA:          -3.255
REMARK INTER:                  -3.255
REMARK INTRA:                   0.000
REMARK UNBOUND:                 0.000
REMARK SMILES CC1(C)[C@H]2CC[C@](C)(C2)[C@@H]1O
REMARK SMILES IDX 1 1 2 2 4 3 5 4 6 5 7 6 9 7 10 8 8 9 3 10 11 11
REMARK H PARENT 11 12
REMARK Flexibility Score: inf
ROOT
ATOM      1  C   UNL     1     164.089 173.089 170.612  1.00  0.00     0.014 C 
ATOM      2  C   UNL     1     162.979 172.786 169.574  1.00  0.00    -0.006 C 
ATOM      3  C   UNL     1     161.552 173.242 170.036  1.00  0.00    -0.002 C 
ATOM      4  C   UNL     1     161.566 174.696 170.555  1.00  0.00     0.005 C 
ATOM      5  C   UNL     1     161.827 175.513 169.280  1.00  0.00     0.010 C 
ATOM      6  C   UNL     1     161.838 174.430 168.174  1.00  0.00    -0.006 C 
ATOM      7  C   UNL     1     160.824 173.444 168.717  1.00  0.00     0.013 C 
ATOM      8  C   UNL     1     163.176 173.637 168.272  1.00  0.00     0.126 C 
ATOM      9  C   UNL     1     161.505 174.987 166.784  1.00  0.00     0.014 C 
ATOM     10  C   UNL     1     162.989 171.254 169.331  1.00  0.00     0.014 C 
ENDROOT
BRANCH   8  11
ATOM     11  O   UNL     1     163.453 172.858 167.128  1.00  0.00    -0.392 OA
ATOM     12  H   UNL     1     163.257 171.908 167.330  1.00  0.00     0.211 HD
ENDBRANCH   8  11
TORSDOF 1
ENDMDL
