MODEL 1
REMARK VINA RESULT:    -3.796      0.000      0.000
REMARK INTER + INTRA:          -7.248
REMARK INTER:                  -6.460
REMARK INTRA:                  -0.788
REMARK UNBOUND:                -0.788
REMARK SMILES CCCCCCCCCCCCCC(=O)[O-]
REMARK SMILES IDX 8 1 9 2 10 3 11 4 12 5 13 6 14 7 15 8 16 9 7 10 6 11 5 12
REMARK SMILES IDX 4 13 3 14 2 15 1 16
REMARK H PARENT
REMARK Flexibility Score: inf
ROOT
ATOM      1  C   UNL     1     -23.863 -15.017   3.160  1.00  0.00     0.000 C 
ENDROOT
BRANCH   1   2
ATOM      2  C   UNL     1     -25.151 -15.417   3.909  1.00  0.00     0.000 C 
BRANCH   2   3
ATOM      3  C   UNL     1     -26.094 -16.355   3.134  1.00  0.00     0.000 C 
BRANCH   3   4
ATOM      4  C   UNL     1     -27.413 -16.688   3.856  1.00  0.00     0.000 C 
BRANCH   4   5
ATOM      5  C   UNL     1     -28.281 -15.450   4.167  1.00  0.00     0.006 C 
BRANCH   5   6
ATOM      6  C   UNL     1     -28.984 -14.896   2.921  1.00  0.00     0.053 C 
BRANCH   6   7
ATOM      7  C   UNL     1     -29.942 -15.904   2.371  1.00  0.00     0.041 C 
ATOM      8  O   UNL     1     -30.844 -16.389   3.104  1.00  0.00    -0.550 OA
ATOM      9  O   UNL     1     -29.809 -16.347   1.060  1.00  0.00    -0.550 OA
ENDBRANCH   6   7
ENDBRANCH   5   6
ENDBRANCH   4   5
ENDBRANCH   3   4
ENDBRANCH   2   3
ENDBRANCH   1   2
BRANCH   1  10
ATOM     10  C   UNL     1     -23.154 -13.758   3.692  1.00  0.00     0.000 C 
BRANCH  10  11
ATOM     11  C   UNL     1     -24.073 -12.871   4.549  1.00  0.00    -0.000 C 
BRANCH  11  12
ATOM     12  C   UNL     1     -23.298 -11.827   5.374  1.00  0.00    -0.000 C 
BRANCH  12  13
ATOM     13  C   UNL     1     -22.739 -10.634   4.571  1.00  0.00    -0.000 C 
BRANCH  13  14
ATOM     14  C   UNL     1     -21.374 -10.108   5.048  1.00  0.00    -0.000 C 
BRANCH  14  15
ATOM     15  C   UNL     1     -20.277 -10.247   3.983  1.00  0.00    -0.003 C 
ATOM     16  C   UNL     1     -19.858 -11.703   3.813  1.00  0.00     0.004 C 
ENDBRANCH  14  15
ENDBRANCH  13  14
ENDBRANCH  12  13
ENDBRANCH  11  12
ENDBRANCH  10  11
ENDBRANCH   1  10
TORSDOF 12
ENDMDL
MODEL 2
REMARK VINA RESULT:    -3.747      4.329      7.422
REMARK INTER + INTRA:          -7.164
REMARK INTER:                  -6.147
REMARK INTRA:                  -1.016
REMARK UNBOUND:                -0.788
REMARK SMILES CCCCCCCCCCCCCC(=O)[O-]
REMARK SMILES IDX 8 1 9 2 10 3 11 4 12 5 13 6 14 7 15 8 16 9 7 10 6 11 5 12
REMARK SMILES IDX 4 13 3 14 2 15 1 16
REMARK H PARENT
REMARK Flexibility Score: inf
ROOT
ATOM      1  C   UNL     1     -26.447 -12.424   3.693  1.00  0.00     0.000 C 
ENDROOT
BRANCH   1   2
ATOM      2  C   UNL     1     -26.329 -11.430   4.868  1.00  0.00     0.000 C 
BRANCH   2   3
ATOM      3  C   UNL     1     -25.543 -10.143   4.559  1.00  0.00     0.000 C 
BRANCH   3   4
ATOM      4  C   UNL     1     -24.217  -9.995   5.328  1.00  0.00     0.000 C 
BRANCH   4   5
ATOM      5  C   UNL     1     -22.964 -10.097   4.431  1.00  0.00     0.006 C 
BRANCH   5   6
ATOM      6  C   UNL     1     -22.222 -11.429   4.607  1.00  0.00     0.053 C 
BRANCH   6   7
ATOM      7  C   UNL     1     -20.772 -11.266   4.280  1.00  0.00     0.041 C 
ATOM      8  O   UNL     1     -19.982 -12.239   4.400  1.00  0.00    -0.550 OA
ATOM      9  O   UNL     1     -20.282 -10.025   3.888  1.00  0.00    -0.550 OA
ENDBRANCH   6   7
ENDBRANCH   5   6
ENDBRANCH   4   5
ENDBRANCH   3   4
ENDBRANCH   2   3
ENDBRANCH   1   2
BRANCH   1  10
ATOM     10  C   UNL     1     -27.782 -13.185   3.604  1.00  0.00     0.000 C 
BRANCH  10  11
ATOM     11  C   UNL     1     -27.758 -14.527   4.354  1.00  0.00    -0.000 C 
BRANCH  11  12
ATOM     12  C   UNL     1     -27.882 -15.740   3.415  1.00  0.00    -0.000 C 
BRANCH  12  13
ATOM     13  C   UNL     1     -26.583 -16.545   3.202  1.00  0.00    -0.000 C 
BRANCH  13  14
ATOM     14  C   UNL     1     -25.303 -15.871   3.728  1.00  0.00    -0.000 C 
BRANCH  14  15
ATOM     15  C   UNL     1     -24.200 -15.774   2.665  1.00  0.00    -0.003 C 
ATOM     16  C   UNL     1     -23.357 -14.518   2.860  1.00  0.00     0.004 C 
ENDBRANCH  14  15
ENDBRANCH  13  14
ENDBRANCH  12  13
ENDBRANCH  11  12
ENDBRANCH  10  11
ENDBRANCH   1  10
TORSDOF 12
ENDMDL
MODEL 3
REMARK VINA RESULT:    -3.745      2.205      2.522
REMARK INTER + INTRA:          -7.161
REMARK INTER:                  -6.046
REMARK INTRA:                  -1.115
REMARK UNBOUND:                -0.788
REMARK SMILES CCCCCCCCCCCCCC(=O)[O-]
REMARK SMILES IDX 8 1 9 2 10 3 11 4 12 5 13 6 14 7 15 8 16 9 7 10 6 11 5 12
REMARK SMILES IDX 4 13 3 14 2 15 1 16
REMARK H PARENT
REMARK Flexibility Score: inf
ROOT
ATOM      1  C   UNL     1     -24.246 -14.696   4.500  1.00  0.00     0.000 C 
ENDROOT
BRANCH   1   2
ATOM      2  C   UNL     1     -25.358 -15.196   3.553  1.00  0.00     0.000 C 
BRANCH   2   3
ATOM      3  C   UNL     1     -26.795 -14.996   4.069  1.00  0.00     0.000 C 
BRANCH   3   4
ATOM      4  C   UNL     1     -27.209 -13.528   4.278  1.00  0.00     0.000 C 
BRANCH   4   5
ATOM      5  C   UNL     1     -27.601 -12.801   2.973  1.00  0.00     0.006 C 
BRANCH   5   6
ATOM      6  C   UNL     1     -29.065 -13.042   2.582  1.00  0.00     0.053 C 
BRANCH   6   7
ATOM      7  C   UNL     1     -29.444 -12.179   1.420  1.00  0.00     0.041 C 
ATOM      8  O   UNL     1     -29.607 -12.688   0.280  1.00  0.00    -0.550 OA
ATOM      9  O   UNL     1     -29.569 -10.805   1.586  1.00  0.00    -0.550 OA
ENDBRANCH   6   7
ENDBRANCH   5   6
ENDBRANCH   4   5
ENDBRANCH   3   4
ENDBRANCH   2   3
ENDBRANCH   1   2
BRANCH   1  10
ATOM     10  C   UNL     1     -23.609 -13.348   4.114  1.00  0.00     0.000 C 
BRANCH  10  11
ATOM     11  C   UNL     1     -23.692 -12.303   5.239  1.00  0.00    -0.000 C 
BRANCH  11  12
ATOM     12  C   UNL     1     -24.159 -10.924   4.741  1.00  0.00    -0.000 C 
BRANCH  12  13
ATOM     13  C   UNL     1     -23.033  -9.911   4.450  1.00  0.00    -0.000 C 
BRANCH  13  14
ATOM     14  C   UNL     1     -21.681 -10.228   5.114  1.00  0.00    -0.000 C 
BRANCH  14  15
ATOM     15  C   UNL     1     -20.533 -10.343   4.102  1.00  0.00    -0.003 C 
ATOM     16  C   UNL     1     -20.117 -11.797   3.905  1.00  0.00     0.004 C 
ENDBRANCH  14  15
ENDBRANCH  13  14
ENDBRANCH  12  13
ENDBRANCH  11  12
ENDBRANCH  10  11
ENDBRANCH   1  10
TORSDOF 12
ENDMDL
MODEL 4
REMARK VINA RESULT:    -3.738      4.348      7.424
REMARK INTER + INTRA:          -7.148
REMARK INTER:                  -5.947
REMARK INTRA:                  -1.200
REMARK UNBOUND:                -0.788
REMARK SMILES CCCCCCCCCCCCCC(=O)[O-]
REMARK SMILES IDX 8 1 9 2 10 3 11 4 12 5 13 6 14 7 15 8 16 9 7 10 6 11 5 12
REMARK SMILES IDX 4 13 3 14 2 15 1 16
REMARK H PARENT
REMARK Flexibility Score: inf
ROOT
ATOM      1  C   UNL     1     -25.814 -11.906   6.896  1.00  0.00     0.000 C 
ENDROOT
BRANCH   1   2
ATOM      2  C   UNL     1     -24.819 -11.062   6.071  1.00  0.00     0.000 C 
BRANCH   2   3
ATOM      3  C   UNL     1     -23.360 -11.106   6.561  1.00  0.00     0.000 C 
BRANCH   3   4
ATOM      4  C   UNL     1     -22.444 -10.024   5.962  1.00  0.00     0.000 C 
BRANCH   4   5
ATOM      5  C   UNL     1     -22.152 -10.219   4.458  1.00  0.00     0.006 C 
BRANCH   5   6
ATOM      6  C   UNL     1     -20.674 -10.000   4.112  1.00  0.00     0.053 C 
BRANCH   6   7
ATOM      7  C   UNL     1     -20.002 -11.308   3.840  1.00  0.00     0.041 C 
ATOM      8  O   UNL     1     -18.881 -11.337   3.266  1.00  0.00    -0.550 OA
ATOM      9  O   UNL     1     -20.635 -12.498   4.176  1.00  0.00    -0.550 OA
ENDBRANCH   6   7
ENDBRANCH   5   6
ENDBRANCH   4   5
ENDBRANCH   3   4
ENDBRANCH   2   3
ENDBRANCH   1   2
BRANCH   1  10
ATOM     10  C   UNL     1     -26.676 -12.890   6.084  1.00  0.00     0.000 C 
BRANCH  10  11
ATOM     11  C   UNL     1     -26.948 -12.406   4.651  1.00  0.00    -0.000 C 
BRANCH  11  12
ATOM     12  C   UNL     1     -26.457 -13.396   3.581  1.00  0.00    -0.000 C 
BRANCH  12  13
ATOM     13  C   UNL     1     -25.330 -14.349   4.031  1.00  0.00    -0.000 C 
BRANCH  13  14
ATOM     14  C   UNL     1     -23.901 -13.830   3.790  1.00  0.00    -0.000 C 
BRANCH  14  15
ATOM     15  C   UNL     1     -23.101 -14.715   2.824  1.00  0.00    -0.003 C 
ATOM     16  C   UNL     1     -23.936 -15.899   2.345  1.00  0.00     0.004 C 
ENDBRANCH  14  15
ENDBRANCH  13  14
ENDBRANCH  12  13
ENDBRANCH  11  12
ENDBRANCH  10  11
ENDBRANCH   1  10
TORSDOF 12
ENDMDL
MODEL 5
REMARK VINA RESULT:    -3.711      4.093      7.390
REMARK INTER + INTRA:          -7.101
REMARK INTER:                  -5.448
REMARK INTRA:                  -1.653
REMARK UNBOUND:                -0.788
REMARK SMILES CCCCCCCCCCCCCC(=O)[O-]
REMARK SMILES IDX 8 1 9 2 10 3 11 4 12 5 13 6 14 7 15 8 16 9 7 10 6 11 5 12
REMARK SMILES IDX 4 13 3 14 2 15 1 16
REMARK H PARENT
REMARK Flexibility Score: inf
ROOT
ATOM      1  C   UNL     1     -24.015 -13.329   6.152  1.00  0.00     0.000 C 
ENDROOT
BRANCH   1   2
ATOM      2  C   UNL     1     -25.028 -12.215   6.493  1.00  0.00     0.000 C 
BRANCH   2   3
ATOM      3  C   UNL     1     -24.767 -10.862   5.806  1.00  0.00     0.000 C 
BRANCH   3   4
ATOM      4  C   UNL     1     -23.959 -10.945   4.498  1.00  0.00     0.000 C 
BRANCH   4   5
ATOM      5  C   UNL     1     -22.645 -10.133   4.527  1.00  0.00     0.006 C 
BRANCH   5   6
ATOM      6  C   UNL     1     -21.491 -10.906   5.178  1.00  0.00     0.053 C 
BRANCH   6   7
ATOM      7  C   UNL     1     -20.719 -11.662   4.143  1.00  0.00     0.041 C 
ATOM      8  O   UNL     1     -21.139 -12.774   3.727  1.00  0.00    -0.550 OA
ATOM      9  O   UNL     1     -19.510 -11.162   3.674  1.00  0.00    -0.550 OA
ENDBRANCH   6   7
ENDBRANCH   5   6
ENDBRANCH   4   5
ENDBRANCH   3   4
ENDBRANCH   2   3
ENDBRANCH   1   2
BRANCH   1  10
ATOM     10  C   UNL     1     -24.625 -14.624   5.584  1.00  0.00     0.000 C 
BRANCH  10  11
ATOM     11  C   UNL     1     -24.287 -14.845   4.101  1.00  0.00    -0.000 C 
BRANCH  11  12
ATOM     12  C   UNL     1     -25.307 -15.746   3.382  1.00  0.00    -0.000 C 
BRANCH  12  13
ATOM     13  C   UNL     1     -26.663 -15.909   4.099  1.00  0.00    -0.000 C 
BRANCH  13  14
ATOM     14  C   UNL     1     -27.790 -14.996   3.582  1.00  0.00    -0.000 C 
BRANCH  14  15
ATOM     15  C   UNL     1     -27.842 -13.646   4.310  1.00  0.00    -0.003 C 
ATOM     16  C   UNL     1     -27.295 -12.526   3.431  1.00  0.00     0.004 C 
ENDBRANCH  14  15
ENDBRANCH  13  14
ENDBRANCH  12  13
ENDBRANCH  11  12
ENDBRANCH  10  11
ENDBRANCH   1  10
TORSDOF 12
ENDMDL
MODEL 6
REMARK VINA RESULT:    -3.709     12.425     13.827
REMARK INTER + INTRA:          -7.100
REMARK INTER:                  -6.614
REMARK INTRA:                  -0.485
REMARK UNBOUND:                -0.788
REMARK SMILES CCCCCCCCCCCCCC(=O)[O-]
REMARK SMILES IDX 8 1 9 2 10 3 11 4 12 5 13 6 14 7 15 8 16 9 7 10 6 11 5 12
REMARK SMILES IDX 4 13 3 14 2 15 1 16
REMARK H PARENT
REMARK Flexibility Score: inf
ROOT
ATOM      1  C   UNL     1     -20.148 -22.706  -3.107  1.00  0.00     0.000 C 
ENDROOT
BRANCH   1   2
ATOM      2  C   UNL     1     -19.687 -23.400  -4.406  1.00  0.00     0.000 C 
BRANCH   2   3
ATOM      3  C   UNL     1     -19.317 -24.888  -4.257  1.00  0.00     0.000 C 
BRANCH   3   4
ATOM      4  C   UNL     1     -19.297 -25.407  -2.807  1.00  0.00     0.000 C 
BRANCH   4   5
ATOM      5  C   UNL     1     -18.341 -26.600  -2.588  1.00  0.00     0.006 C 
BRANCH   5   6
ATOM      6  C   UNL     1     -19.080 -27.875  -2.161  1.00  0.00     0.053 C 
BRANCH   6   7
ATOM      7  C   UNL     1     -18.443 -28.465  -0.944  1.00  0.00     0.041 C 
ATOM      8  O   UNL     1     -17.333 -28.031  -0.536  1.00  0.00    -0.550 OA
ATOM      9  O   UNL     1     -19.050 -29.529  -0.288  1.00  0.00    -0.550 OA
ENDBRANCH   6   7
ENDBRANCH   5   6
ENDBRANCH   4   5
ENDBRANCH   3   4
ENDBRANCH   2   3
ENDBRANCH   1   2
BRANCH   1  10
ATOM     10  C   UNL     1     -20.096 -21.167  -3.128  1.00  0.00     0.000 C 
BRANCH  10  11
ATOM     11  C   UNL     1     -19.192 -20.614  -4.242  1.00  0.00    -0.000 C 
BRANCH  11  12
ATOM     12  C   UNL     1     -19.298 -19.086  -4.396  1.00  0.00    -0.000 C 
BRANCH  12  13
ATOM     13  C   UNL     1     -18.249 -18.270  -3.613  1.00  0.00    -0.000 C 
BRANCH  13  14
ATOM     14  C   UNL     1     -16.995 -17.876  -4.415  1.00  0.00    -0.000 C 
BRANCH  14  15
ATOM     15  C   UNL     1     -16.116 -16.853  -3.682  1.00  0.00    -0.003 C 
ATOM     16  C   UNL     1     -16.926 -16.072  -2.652  1.00  0.00     0.004 C 
ENDBRANCH  14  15
ENDBRANCH  13  14
ENDBRANCH  12  13
ENDBRANCH  11  12
ENDBRANCH  10  11
ENDBRANCH   1  10
TORSDOF 12
ENDMDL
MODEL 7
REMARK VINA RESULT:    -3.675      1.220      2.398
REMARK INTER + INTRA:          -7.041
REMARK INTER:                  -6.049
REMARK INTRA:                  -0.992
REMARK UNBOUND:                -0.788
REMARK SMILES CCCCCCCCCCCCCC(=O)[O-]
REMARK SMILES IDX 8 1 9 2 10 3 11 4 12 5 13 6 14 7 15 8 16 9 7 10 6 11 5 12
REMARK SMILES IDX 4 13 3 14 2 15 1 16
REMARK H PARENT
REMARK Flexibility Score: inf
ROOT
ATOM      1  C   UNL     1     -24.022 -13.005   5.931  1.00  0.00     0.000 C 
ENDROOT
BRANCH   1   2
ATOM      2  C   UNL     1     -24.593 -12.858   4.505  1.00  0.00     0.000 C 
BRANCH   2   3
ATOM      3  C   UNL     1     -25.670 -13.889   4.122  1.00  0.00     0.000 C 
BRANCH   3   4
ATOM      4  C   UNL     1     -25.125 -15.234   3.607  1.00  0.00     0.000 C 
BRANCH   4   5
ATOM      5  C   UNL     1     -26.209 -16.321   3.440  1.00  0.00     0.006 C 
BRANCH   5   6
ATOM      6  C   UNL     1     -27.607 -15.823   3.831  1.00  0.00     0.053 C 
BRANCH   6   7
ATOM      7  C   UNL     1     -28.584 -16.095   2.732  1.00  0.00     0.041 C 
ATOM      8  O   UNL     1     -28.541 -17.184   2.101  1.00  0.00    -0.550 OA
ATOM      9  O   UNL     1     -29.513 -15.127   2.371  1.00  0.00    -0.550 OA
ENDBRANCH   6   7
ENDBRANCH   5   6
ENDBRANCH   4   5
ENDBRANCH   3   4
ENDBRANCH   2   3
ENDBRANCH   1   2
BRANCH   1  10
ATOM     10  C   UNL     1     -23.855 -11.689   6.714  1.00  0.00     0.000 C 
BRANCH  10  11
ATOM     11  C   UNL     1     -22.384 -11.277   6.886  1.00  0.00    -0.000 C 
BRANCH  11  12
ATOM     12  C   UNL     1     -22.030  -9.988   6.123  1.00  0.00    -0.000 C 
BRANCH  12  13
ATOM     13  C   UNL     1     -21.878 -10.146   4.596  1.00  0.00    -0.000 C 
BRANCH  13  14
ATOM     14  C   UNL     1     -20.429 -10.133   4.078  1.00  0.00    -0.000 C 
BRANCH  14  15
ATOM     15  C   UNL     1     -19.862 -11.542   3.860  1.00  0.00    -0.003 C 
ATOM     16  C   UNL     1     -20.982 -12.567   3.706  1.00  0.00     0.004 C 
ENDBRANCH  14  15
ENDBRANCH  13  14
ENDBRANCH  12  13
ENDBRANCH  11  12
ENDBRANCH  10  11
ENDBRANCH   1  10
TORSDOF 12
ENDMDL
MODEL 8
REMARK VINA RESULT:    -3.586      3.363      5.686
REMARK INTER + INTRA:          -6.889
REMARK INTER:                  -5.775
REMARK INTRA:                  -1.114
REMARK UNBOUND:                -0.788
REMARK SMILES CCCCCCCCCCCCCC(=O)[O-]
REMARK SMILES IDX 8 1 9 2 10 3 11 4 12 5 13 6 14 7 15 8 16 9 7 10 6 11 5 12
REMARK SMILES IDX 4 13 3 14 2 15 1 16
REMARK H PARENT
REMARK Flexibility Score: inf
ROOT
ATOM      1  C   UNL     1     -29.843 -16.356   1.630  1.00  0.00     0.000 C 
ENDROOT
BRANCH   1   2
ATOM      2  C   UNL     1     -29.871 -14.822   1.464  1.00  0.00     0.000 C 
BRANCH   2   3
ATOM      3  C   UNL     1     -29.490 -14.020   2.722  1.00  0.00     0.000 C 
BRANCH   3   4
ATOM      4  C   UNL     1     -28.827 -12.659   2.446  1.00  0.00     0.000 C 
BRANCH   4   5
ATOM      5  C   UNL     1     -29.831 -11.494   2.312  1.00  0.00     0.006 C 
BRANCH   5   6
ATOM      6  C   UNL     1     -29.842 -10.886   0.903  1.00  0.00     0.053 C 
BRANCH   6   7
ATOM      7  C   UNL     1     -30.936 -11.492   0.082  1.00  0.00     0.041 C 
ATOM      8  O   UNL     1     -30.662 -12.322  -0.825  1.00  0.00    -0.550 OA
ATOM      9  O   UNL     1     -32.255 -11.105   0.286  1.00  0.00    -0.550 OA
ENDBRANCH   6   7
ENDBRANCH   5   6
ENDBRANCH   4   5
ENDBRANCH   3   4
ENDBRANCH   2   3
ENDBRANCH   1   2
BRANCH   1  10
ATOM     10  C   UNL     1     -29.588 -16.859   3.062  1.00  0.00     0.000 C 
BRANCH  10  11
ATOM     11  C   UNL     1     -28.195 -17.486   3.238  1.00  0.00    -0.000 C 
BRANCH  11  12
ATOM     12  C   UNL     1     -27.274 -16.652   4.146  1.00  0.00    -0.000 C 
BRANCH  12  13
ATOM     13  C   UNL     1     -25.954 -16.185   3.497  1.00  0.00    -0.000 C 
BRANCH  13  14
ATOM     14  C   UNL     1     -25.605 -14.702   3.721  1.00  0.00    -0.000 C 
BRANCH  14  15
ATOM     15  C   UNL     1     -24.187 -14.348   3.253  1.00  0.00    -0.003 C 
ATOM     16  C   UNL     1     -23.498 -15.555   2.625  1.00  0.00     0.004 C 
ENDBRANCH  14  15
ENDBRANCH  13  14
ENDBRANCH  12  13
ENDBRANCH  11  12
ENDBRANCH  10  11
ENDBRANCH   1  10
TORSDOF 12
ENDMDL
MODEL 9
REMARK VINA RESULT:    -3.512      3.171      5.679
REMARK INTER + INTRA:          -6.763
REMARK INTER:                  -5.369
REMARK INTRA:                  -1.394
REMARK UNBOUND:                -0.788
REMARK SMILES CCCCCCCCCCCCCC(=O)[O-]
REMARK SMILES IDX 8 1 9 2 10 3 11 4 12 5 13 6 14 7 15 8 16 9 7 10 6 11 5 12
REMARK SMILES IDX 4 13 3 14 2 15 1 16
REMARK H PARENT
REMARK Flexibility Score: inf
ROOT
ATOM      1  C   UNL     1     -25.252 -12.229   4.549  1.00  0.00     0.000 C 
ENDROOT
BRANCH   1   2
ATOM      2  C   UNL     1     -26.791 -12.337   4.498  1.00  0.00     0.000 C 
BRANCH   2   3
ATOM      3  C   UNL     1     -27.380 -12.637   3.108  1.00  0.00     0.000 C 
BRANCH   3   4
ATOM      4  C   UNL     1     -28.845 -13.112   3.114  1.00  0.00     0.000 C 
BRANCH   4   5
ATOM      5  C   UNL     1     -29.778 -12.259   2.227  1.00  0.00     0.006 C 
BRANCH   5   6
ATOM      6  C   UNL     1     -30.158 -12.969   0.921  1.00  0.00     0.053 C 
BRANCH   6   7
ATOM      7  C   UNL     1     -30.521 -11.969  -0.130  1.00  0.00     0.041 C 
ATOM      8  O   UNL     1     -31.690 -11.504  -0.185  1.00  0.00    -0.550 OA
ATOM      9  O   UNL     1     -29.582 -11.586  -1.080  1.00  0.00    -0.550 OA
ENDBRANCH   6   7
ENDBRANCH   5   6
ENDBRANCH   4   5
ENDBRANCH   3   4
ENDBRANCH   2   3
ENDBRANCH   1   2
BRANCH   1  10
ATOM     10  C   UNL     1     -24.511 -13.533   4.894  1.00  0.00     0.000 C 
BRANCH  10  11
ATOM     11  C   UNL     1     -24.030 -14.296   3.649  1.00  0.00    -0.000 C 
BRANCH  11  12
ATOM     12  C   UNL     1     -24.970 -15.450   3.255  1.00  0.00    -0.000 C 
BRANCH  12  13
ATOM     13  C   UNL     1     -25.779 -16.067   4.414  1.00  0.00    -0.000 C 
BRANCH  13  14
ATOM     14  C   UNL     1     -27.286 -16.231   4.144  1.00  0.00    -0.000 C 
BRANCH  14  15
ATOM     15  C   UNL     1     -27.578 -17.077   2.897  1.00  0.00    -0.003 C 
ATOM     16  C   UNL     1     -28.978 -16.797   2.360  1.00  0.00     0.004 C 
ENDBRANCH  14  15
ENDBRANCH  13  14
ENDBRANCH  12  13
ENDBRANCH  11  12
ENDBRANCH  10  11
ENDBRANCH   1  10
TORSDOF 12
ENDMDL
