MODEL 1
REMARK VINA RESULT:    -3.515      0.000      0.000
REMARK INTER + INTRA:         -11.770
REMARK INTER:                  -8.037
REMARK INTRA:                  -3.734
REMARK UNBOUND:                -3.734
REMARK SMILES CCCCCCCCCCCCCCCCCCCCCCCC(=O)[O-]
REMARK SMILES IDX 13 1 14 2 15 3 16 4 17 5 18 6 19 7 20 8 21 9 22 10 23 11
REMARK SMILES IDX 24 12 25 13 26 14 12 15 11 16 10 17 9 18 8 19 7 20 6 21 5 22
REMARK SMILES IDX 4 23 3 24 2 25 1 26
REMARK H PARENT
REMARK Flexibility Score: inf
ROOT
ATOM      1  C   UNL     1      31.601  10.259 -28.250  1.00  0.00     0.000 C 
ENDROOT
BRANCH   1   2
ATOM      2  C   UNL     1      33.128  10.313 -28.069  1.00  0.00     0.000 C 
BRANCH   2   3
ATOM      3  C   UNL     1      33.615  11.168 -26.881  1.00  0.00     0.000 C 
BRANCH   3   4
ATOM      4  C   UNL     1      32.488  11.615 -25.924  1.00  0.00     0.000 C 
BRANCH   4   5
ATOM      5  C   UNL     1      32.529  10.869 -24.578  1.00  0.00     0.000 C 
BRANCH   5   6
ATOM      6  C   UNL     1      33.827  10.073 -24.376  1.00  0.00     0.000 C 
BRANCH   6   7
ATOM      7  C   UNL     1      33.631   8.560 -24.585  1.00  0.00     0.000 C 
BRANCH   7   8
ATOM      8  C   UNL     1      32.152   8.172 -24.745  1.00  0.00     0.000 C 
BRANCH   8   9
ATOM      9  C   UNL     1      31.834   7.351 -26.010  1.00  0.00     0.000 C 
BRANCH   9  10
ATOM     10  C   UNL     1      33.085   6.937 -26.816  1.00  0.00     0.006 C 
BRANCH  10  11
ATOM     11  C   UNL     1      33.366   5.431 -26.728  1.00  0.00     0.053 C 
BRANCH  11  12
ATOM     12  C   UNL     1      34.641   5.176 -25.991  1.00  0.00     0.041 C 
ATOM     13  O   UNL     1      35.700   4.921 -26.621  1.00  0.00    -0.550 OA
ATOM     14  O   UNL     1      34.654   5.191 -24.601  1.00  0.00    -0.550 OA
ENDBRANCH  11  12
ENDBRANCH  10  11
ENDBRANCH   9  10
ENDBRANCH   8   9
ENDBRANCH   7   8
ENDBRANCH   6   7
ENDBRANCH   5   6
ENDBRANCH   4   5
ENDBRANCH   3   4
ENDBRANCH   2   3
ENDBRANCH   1   2
BRANCH   1  15
ATOM     15  C   UNL     1      31.124   9.681 -29.598  1.00  0.00     0.000 C 
BRANCH  15  16
ATOM     16  C   UNL     1      30.899   8.155 -29.580  1.00  0.00     0.000 C 
BRANCH  16  17
ATOM     17  C   UNL     1      31.678   7.435 -30.696  1.00  0.00     0.000 C 
BRANCH  17  18
ATOM     18  C   UNL     1      33.069   8.050 -30.926  1.00  0.00    -0.000 C 
BRANCH  18  19
ATOM     19  C   UNL     1      34.202   7.112 -30.475  1.00  0.00    -0.000 C 
BRANCH  19  20
ATOM     20  C   UNL     1      35.399   7.122 -31.443  1.00  0.00    -0.000 C 
BRANCH  20  21
ATOM     21  C   UNL     1      35.755   5.750 -32.050  1.00  0.00    -0.000 C 
BRANCH  21  22
ATOM     22  C   UNL     1      35.022   5.399 -33.357  1.00  0.00    -0.000 C 
BRANCH  22  23
ATOM     23  C   UNL     1      34.225   4.089 -33.262  1.00  0.00    -0.000 C 
BRANCH  23  24
ATOM     24  C   UNL     1      32.787   4.348 -32.791  1.00  0.00    -0.000 C 
BRANCH  24  25
ATOM     25  C   UNL     1      32.590   3.861 -31.352  1.00  0.00    -0.003 C 
ATOM     26  C   UNL     1      31.967   2.468 -31.319  1.00  0.00     0.004 C 
ENDBRANCH  24  25
ENDBRANCH  23  24
ENDBRANCH  22  23
ENDBRANCH  21  22
ENDBRANCH  20  21
ENDBRANCH  19  20
ENDBRANCH  18  19
ENDBRANCH  17  18
ENDBRANCH  16  17
ENDBRANCH  15  16
ENDBRANCH   1  15
TORSDOF 22
ENDMDL
MODEL 2
REMARK VINA RESULT:    -3.501     12.008     14.859
REMARK INTER + INTRA:         -11.737
REMARK INTER:                  -7.384
REMARK INTRA:                  -4.353
REMARK UNBOUND:                -3.734
REMARK SMILES CCCCCCCCCCCCCCCCCCCCCCCC(=O)[O-]
REMARK SMILES IDX 13 1 14 2 15 3 16 4 17 5 18 6 19 7 20 8 21 9 22 10 23 11
REMARK SMILES IDX 24 12 25 13 26 14 12 15 11 16 10 17 9 18 8 19 7 20 6 21 5 22
REMARK SMILES IDX 4 23 3 24 2 25 1 26
REMARK H PARENT
REMARK Flexibility Score: inf
ROOT
ATOM      1  C   UNL     1      33.544  -1.966 -37.119  1.00  0.00     0.000 C 
ENDROOT
BRANCH   1   2
ATOM      2  C   UNL     1      33.228  -2.454 -38.542  1.00  0.00     0.000 C 
BRANCH   2   3
ATOM      3  C   UNL     1      31.945  -3.300 -38.674  1.00  0.00     0.000 C 
BRANCH   3   4
ATOM      4  C   UNL     1      30.753  -2.541 -39.297  1.00  0.00     0.000 C 
BRANCH   4   5
ATOM      5  C   UNL     1      29.502  -3.427 -39.440  1.00  0.00     0.000 C 
BRANCH   5   6
ATOM      6  C   UNL     1      29.789  -4.912 -39.173  1.00  0.00     0.000 C 
BRANCH   6   7
ATOM      7  C   UNL     1      28.722  -5.569 -38.278  1.00  0.00     0.000 C 
BRANCH   7   8
ATOM      8  C   UNL     1      27.882  -4.538 -37.506  1.00  0.00     0.000 C 
BRANCH   8   9
ATOM      9  C   UNL     1      26.804  -5.144 -36.586  1.00  0.00     0.000 C 
BRANCH   9  10
ATOM     10  C   UNL     1      26.097  -4.107 -35.686  1.00  0.00     0.006 C 
BRANCH  10  11
ATOM     11  C   UNL     1      25.180  -3.170 -36.481  1.00  0.00     0.053 C 
BRANCH  11  12
ATOM     12  C   UNL     1      23.961  -2.827 -35.686  1.00  0.00     0.041 C 
ATOM     13  O   UNL     1      23.683  -3.471 -34.640  1.00  0.00    -0.550 OA
ATOM     14  O   UNL     1      23.113  -1.813 -36.116  1.00  0.00    -0.550 OA
ENDBRANCH  11  12
ENDBRANCH  10  11
ENDBRANCH   9  10
ENDBRANCH   8   9
ENDBRANCH   7   8
ENDBRANCH   6   7
ENDBRANCH   5   6
ENDBRANCH   4   5
ENDBRANCH   3   4
ENDBRANCH   2   3
ENDBRANCH   1   2
BRANCH   1  15
ATOM     15  C   UNL     1      33.507  -0.436 -36.929  1.00  0.00     0.000 C 
BRANCH  15  16
ATOM     16  C   UNL     1      32.993   0.335 -38.163  1.00  0.00     0.000 C 
BRANCH  16  17
ATOM     17  C   UNL     1      31.585   0.916 -37.946  1.00  0.00     0.000 C 
BRANCH  17  18
ATOM     18  C   UNL     1      30.983   1.485 -39.242  1.00  0.00    -0.000 C 
BRANCH  18  19
ATOM     19  C   UNL     1      29.534   1.021 -39.464  1.00  0.00    -0.000 C 
BRANCH  19  20
ATOM     20  C   UNL     1      28.726   0.954 -38.155  1.00  0.00    -0.000 C 
BRANCH  20  21
ATOM     21  C   UNL     1      28.078  -0.414 -37.860  1.00  0.00    -0.000 C 
BRANCH  21  22
ATOM     22  C   UNL     1      28.202  -0.900 -36.405  1.00  0.00    -0.000 C 
BRANCH  22  23
ATOM     23  C   UNL     1      29.285  -0.148 -35.615  1.00  0.00    -0.000 C 
BRANCH  23  24
ATOM     24  C   UNL     1      30.336  -1.116 -35.054  1.00  0.00    -0.000 C 
BRANCH  24  25
ATOM     25  C   UNL     1      30.099  -2.537 -35.575  1.00  0.00    -0.003 C 
ATOM     26  C   UNL     1      29.946  -3.530 -34.425  1.00  0.00     0.004 C 
ENDBRANCH  24  25
ENDBRANCH  23  24
ENDBRANCH  22  23
ENDBRANCH  21  22
ENDBRANCH  20  21
ENDBRANCH  19  20
ENDBRANCH  18  19
ENDBRANCH  17  18
ENDBRANCH  16  17
ENDBRANCH  15  16
ENDBRANCH   1  15
TORSDOF 22
ENDMDL
MODEL 3
REMARK VINA RESULT:    -3.418      7.773     13.041
REMARK INTER + INTRA:         -11.548
REMARK INTER:                  -7.848
REMARK INTRA:                  -3.699
REMARK UNBOUND:                -3.734
REMARK SMILES CCCCCCCCCCCCCCCCCCCCCCCC(=O)[O-]
REMARK SMILES IDX 13 1 14 2 15 3 16 4 17 5 18 6 19 7 20 8 21 9 22 10 23 11
REMARK SMILES IDX 24 12 25 13 26 14 12 15 11 16 10 17 9 18 8 19 7 20 6 21 5 22
REMARK SMILES IDX 4 23 3 24 2 25 1 26
REMARK H PARENT
REMARK Flexibility Score: inf
ROOT
ATOM      1  C   UNL     1      32.804  -1.817 -34.486  1.00  0.00     0.000 C 
ENDROOT
BRANCH   1   2
ATOM      2  C   UNL     1      33.179  -0.331 -34.620  1.00  0.00     0.000 C 
BRANCH   2   3
ATOM      3  C   UNL     1      33.857   0.055 -35.951  1.00  0.00     0.000 C 
BRANCH   3   4
ATOM      4  C   UNL     1      33.869  -1.076 -37.001  1.00  0.00     0.000 C 
BRANCH   4   5
ATOM      5  C   UNL     1      33.305  -0.622 -38.360  1.00  0.00     0.000 C 
BRANCH   5   6
ATOM      6  C   UNL     1      31.775  -0.491 -38.357  1.00  0.00     0.000 C 
BRANCH   6   7
ATOM      7  C   UNL     1      31.306   0.959 -38.575  1.00  0.00     0.000 C 
BRANCH   7   8
ATOM      8  C   UNL     1      30.060   1.309 -37.746  1.00  0.00     0.000 C 
BRANCH   8   9
ATOM      9  C   UNL     1      30.241   1.175 -36.221  1.00  0.00     0.000 C 
BRANCH   9  10
ATOM     10  C   UNL     1      30.584   2.504 -35.514  1.00  0.00     0.006 C 
BRANCH  10  11
ATOM     11  C   UNL     1      31.091   2.291 -34.082  1.00  0.00     0.053 C 
BRANCH  11  12
ATOM     12  C   UNL     1      32.094   3.338 -33.718  1.00  0.00     0.041 C 
ATOM     13  O   UNL     1      33.325   3.072 -33.730  1.00  0.00    -0.550 OA
ATOM     14  O   UNL     1      31.669   4.605 -33.335  1.00  0.00    -0.550 OA
ENDBRANCH  11  12
ENDBRANCH  10  11
ENDBRANCH   9  10
ENDBRANCH   8   9
ENDBRANCH   7   8
ENDBRANCH   6   7
ENDBRANCH   5   6
ENDBRANCH   4   5
ENDBRANCH   3   4
ENDBRANCH   2   3
ENDBRANCH   1   2
BRANCH   1  15
ATOM     15  C   UNL     1      31.317  -2.140 -34.735  1.00  0.00     0.000 C 
BRANCH  15  16
ATOM     16  C   UNL     1      31.066  -3.574 -35.246  1.00  0.00     0.000 C 
BRANCH  16  17
ATOM     17  C   UNL     1      32.372  -4.364 -35.439  1.00  0.00     0.000 C 
BRANCH  17  18
ATOM     18  C   UNL     1      32.395  -5.137 -36.769  1.00  0.00    -0.000 C 
BRANCH  18  19
ATOM     19  C   UNL     1      32.264  -4.206 -37.986  1.00  0.00    -0.000 C 
BRANCH  19  20
ATOM     20  C   UNL     1      30.940  -4.407 -38.745  1.00  0.00    -0.000 C 
BRANCH  20  21
ATOM     21  C   UNL     1      30.087  -5.598 -38.262  1.00  0.00    -0.000 C 
BRANCH  21  22
ATOM     22  C   UNL     1      28.573  -5.334 -38.184  1.00  0.00    -0.000 C 
BRANCH  22  23
ATOM     23  C   UNL     1      28.238  -3.867 -37.868  1.00  0.00    -0.000 C 
BRANCH  23  24
ATOM     24  C   UNL     1      27.584  -3.733 -36.486  1.00  0.00    -0.000 C 
BRANCH  24  25
ATOM     25  C   UNL     1      26.545  -4.837 -36.266  1.00  0.00    -0.003 C 
ATOM     26  C   UNL     1      26.088  -4.885 -34.810  1.00  0.00     0.004 C 
ENDBRANCH  24  25
ENDBRANCH  23  24
ENDBRANCH  22  23
ENDBRANCH  21  22
ENDBRANCH  20  21
ENDBRANCH  19  20
ENDBRANCH  18  19
ENDBRANCH  17  18
ENDBRANCH  16  17
ENDBRANCH  15  16
ENDBRANCH   1  15
TORSDOF 22
ENDMDL
MODEL 4
REMARK VINA RESULT:    -3.379      8.006     13.302
REMARK INTER + INTRA:         -11.459
REMARK INTER:                  -7.546
REMARK INTRA:                  -3.913
REMARK UNBOUND:                -3.734
REMARK SMILES CCCCCCCCCCCCCCCCCCCCCCCC(=O)[O-]
REMARK SMILES IDX 13 1 14 2 15 3 16 4 17 5 18 6 19 7 20 8 21 9 22 10 23 11
REMARK SMILES IDX 24 12 25 13 26 14 12 15 11 16 10 17 9 18 8 19 7 20 6 21 5 22
REMARK SMILES IDX 4 23 3 24 2 25 1 26
REMARK H PARENT
REMARK Flexibility Score: inf
ROOT
ATOM      1  C   UNL     1      32.295   0.799 -38.262  1.00  0.00     0.000 C 
ENDROOT
BRANCH   1   2
ATOM      2  C   UNL     1      33.424  -0.240 -38.150  1.00  0.00     0.000 C 
BRANCH   2   3
ATOM      3  C   UNL     1      33.069  -1.650 -38.664  1.00  0.00     0.000 C 
BRANCH   3   4
ATOM      4  C   UNL     1      33.541  -2.793 -37.739  1.00  0.00     0.000 C 
BRANCH   4   5
ATOM      5  C   UNL     1      33.065  -2.608 -36.287  1.00  0.00     0.000 C 
BRANCH   5   6
ATOM      6  C   UNL     1      32.031  -3.660 -35.859  1.00  0.00     0.000 C 
BRANCH   6   7
ATOM      7  C   UNL     1      30.765  -3.031 -35.248  1.00  0.00     0.000 C 
BRANCH   7   8
ATOM      8  C   UNL     1      30.207  -1.880 -36.100  1.00  0.00     0.000 C 
BRANCH   8   9
ATOM      9  C   UNL     1      29.125  -2.295 -37.116  1.00  0.00     0.000 C 
BRANCH   9  10
ATOM     10  C   UNL     1      29.692  -2.871 -38.432  1.00  0.00     0.006 C 
BRANCH  10  11
ATOM     11  C   UNL     1      28.769  -3.926 -39.055  1.00  0.00     0.053 C 
BRANCH  11  12
ATOM     12  C   UNL     1      28.665  -5.124 -38.168  1.00  0.00     0.041 C 
ATOM     13  O   UNL     1      27.640  -5.304 -37.460  1.00  0.00    -0.550 OA
ATOM     14  O   UNL     1      29.716  -6.031 -38.098  1.00  0.00    -0.550 OA
ENDBRANCH  11  12
ENDBRANCH  10  11
ENDBRANCH   9  10
ENDBRANCH   8   9
ENDBRANCH   7   8
ENDBRANCH   6   7
ENDBRANCH   5   6
ENDBRANCH   4   5
ENDBRANCH   3   4
ENDBRANCH   2   3
ENDBRANCH   1   2
BRANCH   1  15
ATOM     15  C   UNL     1      31.018   0.302 -38.971  1.00  0.00     0.000 C 
BRANCH  15  16
ATOM     16  C   UNL     1      30.108   1.435 -39.488  1.00  0.00     0.000 C 
BRANCH  16  17
ATOM     17  C   UNL     1      29.464   2.237 -38.344  1.00  0.00     0.000 C 
BRANCH  17  18
ATOM     18  C   UNL     1      28.615   1.351 -37.417  1.00  0.00    -0.000 C 
BRANCH  18  19
ATOM     19  C   UNL     1      28.929   1.593 -35.931  1.00  0.00    -0.000 C 
BRANCH  19  20
ATOM     20  C   UNL     1      30.316   2.224 -35.713  1.00  0.00    -0.000 C 
BRANCH  20  21
ATOM     21  C   UNL     1      31.057   1.744 -34.448  1.00  0.00    -0.000 C 
BRANCH  21  22
ATOM     22  C   UNL     1      32.228   0.778 -34.698  1.00  0.00    -0.000 C 
BRANCH  22  23
ATOM     23  C   UNL     1      33.584   1.358 -34.266  1.00  0.00    -0.000 C 
BRANCH  23  24
ATOM     24  C   UNL     1      33.424   2.313 -33.075  1.00  0.00    -0.000 C 
BRANCH  24  25
ATOM     25  C   UNL     1      33.936   3.713 -33.427  1.00  0.00    -0.003 C 
ATOM     26  C   UNL     1      33.221   4.786 -32.608  1.00  0.00     0.004 C 
ENDBRANCH  24  25
ENDBRANCH  23  24
ENDBRANCH  22  23
ENDBRANCH  21  22
ENDBRANCH  20  21
ENDBRANCH  19  20
ENDBRANCH  18  19
ENDBRANCH  17  18
ENDBRANCH  16  17
ENDBRANCH  15  16
ENDBRANCH   1  15
TORSDOF 22
ENDMDL
MODEL 5
REMARK VINA RESULT:    -3.363      9.923     13.838
REMARK INTER + INTRA:         -11.421
REMARK INTER:                  -6.964
REMARK INTRA:                  -4.457
REMARK UNBOUND:                -3.734
REMARK SMILES CCCCCCCCCCCCCCCCCCCCCCCC(=O)[O-]
REMARK SMILES IDX 13 1 14 2 15 3 16 4 17 5 18 6 19 7 20 8 21 9 22 10 23 11
REMARK SMILES IDX 24 12 25 13 26 14 12 15 11 16 10 17 9 18 8 19 7 20 6 21 5 22
REMARK SMILES IDX 4 23 3 24 2 25 1 26
REMARK H PARENT
REMARK Flexibility Score: inf
ROOT
ATOM      1  C   UNL     1      32.084   0.356 -37.813  1.00  0.00     0.000 C 
ENDROOT
BRANCH   1   2
ATOM      2  C   UNL     1      33.394  -0.285 -38.303  1.00  0.00     0.000 C 
BRANCH   2   3
ATOM      3  C   UNL     1      33.329  -1.807 -38.540  1.00  0.00     0.000 C 
BRANCH   3   4
ATOM      4  C   UNL     1      33.074  -2.632 -37.260  1.00  0.00     0.000 C 
BRANCH   4   5
ATOM      5  C   UNL     1      32.202  -3.873 -37.524  1.00  0.00     0.000 C 
BRANCH   5   6
ATOM      6  C   UNL     1      31.801  -4.606 -36.235  1.00  0.00     0.000 C 
BRANCH   6   7
ATOM      7  C   UNL     1      32.099  -3.783 -34.969  1.00  0.00     0.000 C 
BRANCH   7   8
ATOM      8  C   UNL     1      30.841  -3.517 -34.127  1.00  0.00     0.000 C 
BRANCH   8   9
ATOM      9  C   UNL     1      29.844  -2.523 -34.753  1.00  0.00     0.000 C 
BRANCH   9  10
ATOM     10  C   UNL     1      30.459  -1.144 -35.079  1.00  0.00     0.006 C 
BRANCH  10  11
ATOM     11  C   UNL     1      29.418  -0.017 -35.048  1.00  0.00     0.053 C 
BRANCH  11  12
ATOM     12  C   UNL     1      30.041   1.261 -34.589  1.00  0.00     0.041 C 
ATOM     13  O   UNL     1      30.072   2.263 -35.351  1.00  0.00    -0.550 OA
ATOM     14  O   UNL     1      30.616   1.341 -33.326  1.00  0.00    -0.550 OA
ENDBRANCH  11  12
ENDBRANCH  10  11
ENDBRANCH   9  10
ENDBRANCH   8   9
ENDBRANCH   7   8
ENDBRANCH   6   7
ENDBRANCH   5   6
ENDBRANCH   4   5
ENDBRANCH   3   4
ENDBRANCH   2   3
ENDBRANCH   1   2
BRANCH   1  15
ATOM     15  C   UNL     1      31.141   0.851 -38.928  1.00  0.00     0.000 C 
BRANCH  15  16
ATOM     16  C   UNL     1      29.708   0.289 -38.831  1.00  0.00     0.000 C 
BRANCH  16  17
ATOM     17  C   UNL     1      29.690  -1.225 -38.553  1.00  0.00     0.000 C 
BRANCH  17  18
ATOM     18  C   UNL     1      29.873  -2.055 -39.835  1.00  0.00    -0.000 C 
BRANCH  18  19
ATOM     19  C   UNL     1      28.832  -3.181 -39.954  1.00  0.00    -0.000 C 
BRANCH  19  20
ATOM     20  C   UNL     1      29.421  -4.567 -39.636  1.00  0.00    -0.000 C 
BRANCH  20  21
ATOM     21  C   UNL     1      28.789  -5.278 -38.421  1.00  0.00    -0.000 C 
BRANCH  21  22
ATOM     22  C   UNL     1      28.126  -4.350 -37.388  1.00  0.00    -0.000 C 
BRANCH  22  23
ATOM     23  C   UNL     1      26.834  -4.937 -36.799  1.00  0.00    -0.000 C 
BRANCH  23  24
ATOM     24  C   UNL     1      25.811  -3.834 -36.496  1.00  0.00    -0.000 C 
BRANCH  24  25
ATOM     25  C   UNL     1      26.508  -2.576 -35.967  1.00  0.00    -0.003 C 
ATOM     26  C   UNL     1      26.229  -1.370 -36.862  1.00  0.00     0.004 C 
ENDBRANCH  24  25
ENDBRANCH  23  24
ENDBRANCH  22  23
ENDBRANCH  21  22
ENDBRANCH  20  21
ENDBRANCH  19  20
ENDBRANCH  18  19
ENDBRANCH  17  18
ENDBRANCH  16  17
ENDBRANCH  15  16
ENDBRANCH   1  15
TORSDOF 22
ENDMDL
MODEL 6
REMARK VINA RESULT:    -3.327     10.416     14.822
REMARK INTER + INTRA:         -11.339
REMARK INTER:                  -7.782
REMARK INTRA:                  -3.557
REMARK UNBOUND:                -3.734
REMARK SMILES CCCCCCCCCCCCCCCCCCCCCCCC(=O)[O-]
REMARK SMILES IDX 13 1 14 2 15 3 16 4 17 5 18 6 19 7 20 8 21 9 22 10 23 11
REMARK SMILES IDX 24 12 25 13 26 14 12 15 11 16 10 17 9 18 8 19 7 20 6 21 5 22
REMARK SMILES IDX 4 23 3 24 2 25 1 26
REMARK H PARENT
REMARK Flexibility Score: inf
ROOT
ATOM      1  C   UNL     1      31.854  -3.919 -38.447  1.00  0.00     0.000 C 
ENDROOT
BRANCH   1   2
ATOM      2  C   UNL     1      30.955  -5.145 -38.214  1.00  0.00     0.000 C 
BRANCH   2   3
ATOM      3  C   UNL     1      29.583  -5.093 -38.918  1.00  0.00     0.000 C 
BRANCH   3   4
ATOM      4  C   UNL     1      28.544  -4.202 -38.203  1.00  0.00     0.000 C 
BRANCH   4   5
ATOM      5  C   UNL     1      27.570  -5.017 -37.333  1.00  0.00     0.000 C 
BRANCH   5   6
ATOM      6  C   UNL     1      26.903  -4.176 -36.235  1.00  0.00     0.000 C 
BRANCH   6   7
ATOM      7  C   UNL     1      26.156  -5.037 -35.201  1.00  0.00     0.000 C 
BRANCH   7   8
ATOM      8  C   UNL     1      26.318  -4.512 -33.765  1.00  0.00     0.000 C 
BRANCH   8   9
ATOM      9  C   UNL     1      25.009  -4.435 -32.956  1.00  0.00     0.000 C 
BRANCH   9  10
ATOM     10  C   UNL     1      23.810  -3.885 -33.759  1.00  0.00     0.006 C 
BRANCH  10  11
ATOM     11  C   UNL     1      23.924  -2.379 -34.025  1.00  0.00     0.053 C 
BRANCH  11  12
ATOM     12  C   UNL     1      23.708  -2.083 -35.475  1.00  0.00     0.041 C 
ATOM     13  O   UNL     1      23.701  -0.894 -35.887  1.00  0.00    -0.550 OA
ATOM     14  O   UNL     1      23.482  -3.123 -36.370  1.00  0.00    -0.550 OA
ENDBRANCH  11  12
ENDBRANCH  10  11
ENDBRANCH   9  10
ENDBRANCH   8   9
ENDBRANCH   7   8
ENDBRANCH   6   7
ENDBRANCH   5   6
ENDBRANCH   4   5
ENDBRANCH   3   4
ENDBRANCH   2   3
ENDBRANCH   1   2
BRANCH   1  15
ATOM     15  C   UNL     1      32.802  -3.574 -37.280  1.00  0.00     0.000 C 
BRANCH  15  16
ATOM     16  C   UNL     1      33.678  -2.329 -37.533  1.00  0.00     0.000 C 
BRANCH  16  17
ATOM     17  C   UNL     1      33.152  -1.470 -38.697  1.00  0.00     0.000 C 
BRANCH  17  18
ATOM     18  C   UNL     1      33.047   0.018 -38.323  1.00  0.00    -0.000 C 
BRANCH  18  19
ATOM     19  C   UNL     1      31.648   0.592 -38.602  1.00  0.00    -0.000 C 
BRANCH  19  20
ATOM     20  C   UNL     1      30.540  -0.473 -38.503  1.00  0.00    -0.000 C 
BRANCH  20  21
ATOM     21  C   UNL     1      29.715  -0.433 -37.201  1.00  0.00    -0.000 C 
BRANCH  21  22
ATOM     22  C   UNL     1      30.063  -1.521 -36.169  1.00  0.00    -0.000 C 
BRANCH  22  23
ATOM     23  C   UNL     1      31.095  -1.051 -35.131  1.00  0.00    -0.000 C 
BRANCH  23  24
ATOM     24  C   UNL     1      30.849   0.408 -34.725  1.00  0.00    -0.000 C 
BRANCH  24  25
ATOM     25  C   UNL     1      32.099   1.260 -34.971  1.00  0.00    -0.003 C 
ATOM     26  C   UNL     1      33.371   0.483 -34.641  1.00  0.00     0.004 C 
ENDBRANCH  24  25
ENDBRANCH  23  24
ENDBRANCH  22  23
ENDBRANCH  21  22
ENDBRANCH  20  21
ENDBRANCH  19  20
ENDBRANCH  18  19
ENDBRANCH  17  18
ENDBRANCH  16  17
ENDBRANCH  15  16
ENDBRANCH   1  15
TORSDOF 22
ENDMDL
MODEL 7
REMARK VINA RESULT:    -3.321      7.880     13.337
REMARK INTER + INTRA:         -11.326
REMARK INTER:                  -6.920
REMARK INTRA:                  -4.406
REMARK UNBOUND:                -3.734
REMARK SMILES CCCCCCCCCCCCCCCCCCCCCCCC(=O)[O-]
REMARK SMILES IDX 13 1 14 2 15 3 16 4 17 5 18 6 19 7 20 8 21 9 22 10 23 11
REMARK SMILES IDX 24 12 25 13 26 14 12 15 11 16 10 17 9 18 8 19 7 20 6 21 5 22
REMARK SMILES IDX 4 23 3 24 2 25 1 26
REMARK H PARENT
REMARK Flexibility Score: inf
ROOT
ATOM      1  C   UNL     1      31.967  -2.489 -35.653  1.00  0.00     0.000 C 
ENDROOT
BRANCH   1   2
ATOM      2  C   UNL     1      33.373  -1.999 -36.039  1.00  0.00     0.000 C 
BRANCH   2   3
ATOM      3  C   UNL     1      33.460  -1.262 -37.391  1.00  0.00     0.000 C 
BRANCH   3   4
ATOM      4  C   UNL     1      32.592  -1.887 -38.504  1.00  0.00     0.000 C 
BRANCH   4   5
ATOM      5  C   UNL     1      31.470  -0.942 -38.975  1.00  0.00     0.000 C 
BRANCH   5   6
ATOM      6  C   UNL     1      31.696   0.514 -38.541  1.00  0.00     0.000 C 
BRANCH   6   7
ATOM      7  C   UNL     1      30.381   1.305 -38.421  1.00  0.00     0.000 C 
BRANCH   7   8
ATOM      8  C   UNL     1      30.076   1.730 -36.976  1.00  0.00     0.000 C 
BRANCH   8   9
ATOM      9  C   UNL     1      30.923   1.019 -35.903  1.00  0.00     0.000 C 
BRANCH   9  10
ATOM     10  C   UNL     1      31.518   1.973 -34.843  1.00  0.00     0.006 C 
BRANCH  10  11
ATOM     11  C   UNL     1      32.887   1.503 -34.336  1.00  0.00     0.053 C 
BRANCH  11  12
ATOM     12  C   UNL     1      33.406   2.432 -33.286  1.00  0.00     0.041 C 
ATOM     13  O   UNL     1      33.191   2.199 -32.068  1.00  0.00    -0.550 OA
ATOM     14  O   UNL     1      34.105   3.576 -33.654  1.00  0.00    -0.550 OA
ENDBRANCH  11  12
ENDBRANCH  10  11
ENDBRANCH   9  10
ENDBRANCH   8   9
ENDBRANCH   7   8
ENDBRANCH   6   7
ENDBRANCH   5   6
ENDBRANCH   4   5
ENDBRANCH   3   4
ENDBRANCH   2   3
ENDBRANCH   1   2
BRANCH   1  15
ATOM     15  C   UNL     1      31.851  -4.006 -35.399  1.00  0.00     0.000 C 
BRANCH  15  16
ATOM     16  C   UNL     1      33.066  -4.818 -35.894  1.00  0.00     0.000 C 
BRANCH  16  17
ATOM     17  C   UNL     1      32.827  -5.445 -37.279  1.00  0.00     0.000 C 
BRANCH  17  18
ATOM     18  C   UNL     1      31.339  -5.725 -37.543  1.00  0.00    -0.000 C 
BRANCH  18  19
ATOM     19  C   UNL     1      30.839  -5.053 -38.832  1.00  0.00    -0.000 C 
BRANCH  19  20
ATOM     20  C   UNL     1      29.304  -4.960 -38.895  1.00  0.00    -0.000 C 
BRANCH  20  21
ATOM     21  C   UNL     1      28.723  -3.563 -38.595  1.00  0.00    -0.000 C 
BRANCH  21  22
ATOM     22  C   UNL     1      28.636  -3.194 -37.103  1.00  0.00    -0.000 C 
BRANCH  22  23
ATOM     23  C   UNL     1      28.488  -1.682 -36.869  1.00  0.00    -0.000 C 
BRANCH  23  24
ATOM     24  C   UNL     1      27.649  -1.029 -37.976  1.00  0.00    -0.000 C 
BRANCH  24  25
ATOM     25  C   UNL     1      26.568  -0.124 -37.377  1.00  0.00    -0.003 C 
ATOM     26  C   UNL     1      25.253  -0.879 -37.195  1.00  0.00     0.004 C 
ENDBRANCH  24  25
ENDBRANCH  23  24
ENDBRANCH  22  23
ENDBRANCH  21  22
ENDBRANCH  20  21
ENDBRANCH  19  20
ENDBRANCH  18  19
ENDBRANCH  17  18
ENDBRANCH  16  17
ENDBRANCH  15  16
ENDBRANCH   1  15
TORSDOF 22
ENDMDL
MODEL 8
REMARK VINA RESULT:    -3.284      5.586      9.985
REMARK INTER + INTRA:         -11.241
REMARK INTER:                  -7.079
REMARK INTRA:                  -4.162
REMARK UNBOUND:                -3.734
REMARK SMILES CCCCCCCCCCCCCCCCCCCCCCCC(=O)[O-]
REMARK SMILES IDX 13 1 14 2 15 3 16 4 17 5 18 6 19 7 20 8 21 9 22 10 23 11
REMARK SMILES IDX 24 12 25 13 26 14 12 15 11 16 10 17 9 18 8 19 7 20 6 21 5 22
REMARK SMILES IDX 4 23 3 24 2 25 1 26
REMARK H PARENT
REMARK Flexibility Score: inf
ROOT
ATOM      1  C   UNL     1      29.157   3.541 -34.311  1.00  0.00     0.000 C 
ENDROOT
BRANCH   1   2
ATOM      2  C   UNL     1      28.572   2.178 -33.903  1.00  0.00     0.000 C 
BRANCH   2   3
ATOM      3  C   UNL     1      29.599   1.158 -33.371  1.00  0.00     0.000 C 
BRANCH   3   4
ATOM      4  C   UNL     1      29.810  -0.061 -34.296  1.00  0.00     0.000 C 
BRANCH   4   5
ATOM      5  C   UNL     1      31.288  -0.255 -34.684  1.00  0.00     0.000 C 
BRANCH   5   6
ATOM      6  C   UNL     1      32.013   1.071 -34.955  1.00  0.00     0.000 C 
BRANCH   6   7
ATOM      7  C   UNL     1      33.472   1.059 -34.465  1.00  0.00     0.000 C 
BRANCH   7   8
ATOM      8  C   UNL     1      33.873   2.370 -33.770  1.00  0.00     0.000 C 
BRANCH   8   9
ATOM      9  C   UNL     1      32.691   3.217 -33.259  1.00  0.00     0.000 C 
BRANCH   9  10
ATOM     10  C   UNL     1      33.033   4.710 -33.061  1.00  0.00     0.006 C 
BRANCH  10  11
ATOM     11  C   UNL     1      34.545   4.972 -33.081  1.00  0.00     0.053 C 
BRANCH  11  12
ATOM     12  C   UNL     1      34.931   5.902 -31.977  1.00  0.00     0.041 C 
ATOM     13  O   UNL     1      34.524   7.094 -31.977  1.00  0.00    -0.550 OA
ATOM     14  O   UNL     1      35.769   5.462 -30.959  1.00  0.00    -0.550 OA
ENDBRANCH  11  12
ENDBRANCH  10  11
ENDBRANCH   9  10
ENDBRANCH   8   9
ENDBRANCH   7   8
ENDBRANCH   6   7
ENDBRANCH   5   6
ENDBRANCH   4   5
ENDBRANCH   3   4
ENDBRANCH   2   3
ENDBRANCH   1   2
BRANCH   1  15
ATOM     15  C   UNL     1      29.405   3.718 -35.823  1.00  0.00     0.000 C 
BRANCH  15  16
ATOM     16  C   UNL     1      28.765   2.618 -36.696  1.00  0.00     0.000 C 
BRANCH  16  17
ATOM     17  C   UNL     1      29.776   1.973 -37.660  1.00  0.00     0.000 C 
BRANCH  17  18
ATOM     18  C   UNL     1      29.467   0.490 -37.923  1.00  0.00    -0.000 C 
BRANCH  18  19
ATOM     19  C   UNL     1      30.682  -0.269 -38.481  1.00  0.00    -0.000 C 
BRANCH  19  20
ATOM     20  C   UNL     1      31.956   0.594 -38.511  1.00  0.00    -0.000 C 
BRANCH  20  21
ATOM     21  C   UNL     1      33.262  -0.167 -38.202  1.00  0.00    -0.000 C 
BRANCH  21  22
ATOM     22  C   UNL     1      33.171  -1.699 -38.306  1.00  0.00    -0.000 C 
BRANCH  22  23
ATOM     23  C   UNL     1      33.288  -2.399 -36.943  1.00  0.00    -0.000 C 
BRANCH  23  24
ATOM     24  C   UNL     1      32.747  -3.834 -37.008  1.00  0.00    -0.000 C 
BRANCH  24  25
ATOM     25  C   UNL     1      31.653  -4.051 -35.957  1.00  0.00    -0.003 C 
ATOM     26  C   UNL     1      30.325  -3.447 -36.408  1.00  0.00     0.004 C 
ENDBRANCH  24  25
ENDBRANCH  23  24
ENDBRANCH  22  23
ENDBRANCH  21  22
ENDBRANCH  20  21
ENDBRANCH  19  20
ENDBRANCH  18  19
ENDBRANCH  17  18
ENDBRANCH  16  17
ENDBRANCH  15  16
ENDBRANCH   1  15
TORSDOF 22
ENDMDL
MODEL 9
REMARK VINA RESULT:    -3.280      6.788     11.622
REMARK INTER + INTRA:         -11.233
REMARK INTER:                  -7.086
REMARK INTRA:                  -4.148
REMARK UNBOUND:                -3.734
REMARK SMILES CCCCCCCCCCCCCCCCCCCCCCCC(=O)[O-]
REMARK SMILES IDX 13 1 14 2 15 3 16 4 17 5 18 6 19 7 20 8 21 9 22 10 23 11
REMARK SMILES IDX 24 12 25 13 26 14 12 15 11 16 10 17 9 18 8 19 7 20 6 21 5 22
REMARK SMILES IDX 4 23 3 24 2 25 1 26
REMARK H PARENT
REMARK Flexibility Score: inf
ROOT
ATOM      1  C   UNL     1      31.189   0.704 -38.434  1.00  0.00     0.000 C 
ENDROOT
BRANCH   1   2
ATOM      2  C   UNL     1      30.518   1.663 -39.432  1.00  0.00     0.000 C 
BRANCH   2   3
ATOM      3  C   UNL     1      29.198   2.297 -38.944  1.00  0.00     0.000 C 
BRANCH   3   4
ATOM      4  C   UNL     1      28.417   1.424 -37.937  1.00  0.00     0.000 C 
BRANCH   4   5
ATOM      5  C   UNL     1      28.254   2.110 -36.568  1.00  0.00     0.000 C 
BRANCH   5   6
ATOM      6  C   UNL     1      29.317   3.187 -36.310  1.00  0.00     0.000 C 
BRANCH   6   7
ATOM      7  C   UNL     1      30.093   2.950 -35.002  1.00  0.00     0.000 C 
BRANCH   7   8
ATOM      8  C   UNL     1      31.298   2.015 -35.190  1.00  0.00     0.000 C 
BRANCH   8   9
ATOM      9  C   UNL     1      31.844   1.396 -33.889  1.00  0.00     0.000 C 
BRANCH   9  10
ATOM     10  C   UNL     1      33.291   1.822 -33.554  1.00  0.00     0.006 C 
BRANCH  10  11
ATOM     11  C   UNL     1      33.348   2.862 -32.428  1.00  0.00     0.053 C 
BRANCH  11  12
ATOM     12  C   UNL     1      33.479   4.241 -32.991  1.00  0.00     0.041 C 
ATOM     13  O   UNL     1      32.485   5.012 -33.021  1.00  0.00    -0.550 OA
ATOM     14  O   UNL     1      34.695   4.666 -33.513  1.00  0.00    -0.550 OA
ENDBRANCH  11  12
ENDBRANCH  10  11
ENDBRANCH   9  10
ENDBRANCH   8   9
ENDBRANCH   7   8
ENDBRANCH   6   7
ENDBRANCH   5   6
ENDBRANCH   4   5
ENDBRANCH   3   4
ENDBRANCH   2   3
ENDBRANCH   1   2
BRANCH   1  15
ATOM     15  C   UNL     1      31.595  -0.665 -39.017  1.00  0.00     0.000 C 
BRANCH  15  16
ATOM     16  C   UNL     1      33.023  -1.108 -38.636  1.00  0.00     0.000 C 
BRANCH  16  17
ATOM     17  C   UNL     1      33.587  -0.309 -37.448  1.00  0.00     0.000 C 
BRANCH  17  18
ATOM     18  C   UNL     1      33.452  -1.067 -36.118  1.00  0.00    -0.000 C 
BRANCH  18  19
ATOM     19  C   UNL     1      33.072  -2.543 -36.324  1.00  0.00    -0.000 C 
BRANCH  19  20
ATOM     20  C   UNL     1      31.682  -2.882 -35.755  1.00  0.00    -0.000 C 
BRANCH  20  21
ATOM     21  C   UNL     1      30.748  -1.671 -35.557  1.00  0.00    -0.000 C 
BRANCH  21  22
ATOM     22  C   UNL     1      29.248  -1.962 -35.740  1.00  0.00    -0.000 C 
BRANCH  22  23
ATOM     23  C   UNL     1      28.840  -2.095 -37.216  1.00  0.00    -0.000 C 
BRANCH  23  24
ATOM     24  C   UNL     1      28.546  -3.556 -37.581  1.00  0.00    -0.000 C 
BRANCH  24  25
ATOM     25  C   UNL     1      29.045  -3.875 -38.994  1.00  0.00    -0.003 C 
ATOM     26  C   UNL     1      30.519  -4.272 -38.984  1.00  0.00     0.004 C 
ENDBRANCH  24  25
ENDBRANCH  23  24
ENDBRANCH  22  23
ENDBRANCH  21  22
ENDBRANCH  20  21
ENDBRANCH  19  20
ENDBRANCH  18  19
ENDBRANCH  17  18
ENDBRANCH  16  17
ENDBRANCH  15  16
ENDBRANCH   1  15
TORSDOF 22
ENDMDL
