MODEL 1
REMARK VINA RESULT:    -5.646      0.000      0.000
REMARK INTER + INTRA:         -12.870
REMARK INTER:                  -9.277
REMARK INTRA:                  -3.594
REMARK UNBOUND:                -3.594
REMARK SMILES C[C@@H]1O[C@H](OC[C@H]2O[C@@H](Oc3c(-c4ccc(O)c(O)c4)oc4cc(O)cc(O)c4c3=O)[C@H](O)[C@@H](O)[C@@H]2O)[C@@H](O)[C@@H](O)[C@@H]1O
REMARK SMILES IDX 7 1 36 2 34 3 32 4 9 5 8 6 6 7 5 8 4 9 1 10 2 11 42 12 3 13
REMARK SMILES IDX 40 14 38 15 43 16 41 18 39 20 37 22 35 24 10 26 11 27 12 28
REMARK SMILES IDX 30 29 21 30 29 31 31 32 22 33 27 34 23 35 26 36 24 37 13 38
REMARK SMILES IDX 20 39 14 40 18 41 15 42 16 43 19 44 17 46 28 48 25 50 33 52
REMARK H PARENT 43 17 41 19 39 21 37 23 35 25 19 45 17 47 28 49 25 51 33 53
REMARK Flexibility Score: inf
ROOT
ATOM      1  C   UNL     1      14.483  22.998  28.310  1.00  0.00     0.180 C 
ATOM      2  C   UNL     1      14.516  21.697  29.175  1.00  0.00     0.177 C 
ATOM      3  C   UNL     1      14.349  20.455  28.286  1.00  0.00     0.180 C 
ATOM      4  C   UNL     1      13.031  20.574  27.468  1.00  0.00     0.214 C 
ATOM      5  C   UNL     1      12.767  22.041  27.036  1.00  0.00     0.339 C 
ATOM      6  O   UNL     1      13.997  22.742  26.996  1.00  0.00    -0.332 OA
ENDROOT
BRANCH   1   7
ATOM      7  C   UNL     1      15.876  23.695  28.224  1.00  0.00     0.198 C 
BRANCH   7   8
ATOM      8  O   UNL     1      16.306  23.864  26.880  1.00  0.00    -0.347 OA
BRANCH   8   9
ATOM      9  C   UNL     1      17.504  23.143  26.615  1.00  0.00     0.281 C 
ATOM     10  C   UNL     1      19.334  20.839  28.824  1.00  0.00     0.041 C 
ATOM     11  C   UNL     1      18.994  21.612  27.554  1.00  0.00     0.150 C 
ATOM     12  C   UNL     1      18.960  20.662  26.313  1.00  0.00     0.174 C 
ATOM     13  O   UNL     1      17.740  22.274  27.711  1.00  0.00    -0.344 OA
ATOM     14  C   UNL     1      18.607  21.483  25.053  1.00  0.00     0.179 C 
ATOM     15  C   UNL     1      17.335  22.323  25.316  1.00  0.00     0.202 C 
BRANCH  12  16
ATOM     16  O   UNL     1      18.034  19.593  26.442  1.00  0.00    -0.388 OA
ATOM     17  H   UNL     1      17.986  19.385  27.415  1.00  0.00     0.211 HD
ENDBRANCH  12  16
BRANCH  14  18
ATOM     18  O   UNL     1      19.690  22.340  24.726  1.00  0.00    -0.387 OA
ATOM     19  H   UNL     1      19.645  22.491  23.748  1.00  0.00     0.211 HD
ENDBRANCH  14  18
BRANCH  15  20
ATOM     20  O   UNL     1      17.070  23.196  24.244  1.00  0.00    -0.385 OA
ATOM     21  H   UNL     1      16.777  24.040  24.637  1.00  0.00     0.211 HD
ENDBRANCH  15  20
ENDBRANCH   8   9
ENDBRANCH   7   8
ENDBRANCH   1   7
BRANCH   2  22
ATOM     22  O   UNL     1      13.448  21.714  30.088  1.00  0.00    -0.387 OA
ATOM     23  H   UNL     1      13.657  21.033  30.794  1.00  0.00     0.211 HD
ENDBRANCH   2  22
BRANCH   3  24
ATOM     24  O   UNL     1      15.426  20.361  27.378  1.00  0.00    -0.387 OA
ATOM     25  H   UNL     1      16.183  19.907  27.857  1.00  0.00     0.211 HD
ENDBRANCH   3  24
BRANCH   5  26
ATOM     26  O   UNL     1      12.124  21.965  25.742  1.00  0.00    -0.454 OA
BRANCH  26  27
ATOM     27  C   UNL     1      11.287  21.011  25.123  1.00  0.00     0.214 A 
ATOM     28  C   UNL     1      11.763  20.395  23.942  1.00  0.00     0.180 A 
ATOM     29  C   UNL     1       9.971  20.685  25.555  1.00  0.00     0.239 A 
ATOM     30  O   UNL     1      10.923  19.701  23.181  1.00  0.00    -0.452 OA
ATOM     31  C   UNL     1       9.102  20.029  24.659  1.00  0.00     0.111 A 
ATOM     32  O   UNL     1       9.590  20.912  26.726  1.00  0.00    -0.285 OA
ATOM     33  C   UNL     1       9.647  19.526  23.460  1.00  0.00     0.146 A 
ATOM     34  C   UNL     1       7.704  19.908  24.888  1.00  0.00     0.134 A 
ATOM     35  C   UNL     1       8.835  18.857  22.549  1.00  0.00     0.094 A 
ATOM     36  C   UNL     1       6.906  19.258  23.936  1.00  0.00     0.093 A 
ATOM     37  C   UNL     1       7.469  18.719  22.785  1.00  0.00     0.123 A 
BRANCH  28  38
ATOM     38  C   UNL     1      13.195  20.395  23.540  1.00  0.00     0.025 A 
ATOM     39  C   UNL     1      14.189  19.648  24.199  1.00  0.00     0.062 A 
ATOM     40  C   UNL     1      13.552  21.142  22.406  1.00  0.00     0.016 A 
ATOM     41  C   UNL     1      15.489  19.573  23.674  1.00  0.00     0.158 A 
ATOM     42  C   UNL     1      14.858  21.110  21.908  1.00  0.00     0.051 A 
ATOM     43  C   UNL     1      15.828  20.318  22.535  1.00  0.00     0.157 A 
BRANCH  41  44
ATOM     44  O   UNL     1      16.430  18.753  24.305  1.00  0.00    -0.504 OA
ATOM     45  H   UNL     1      16.145  18.023  24.943  1.00  0.00     0.293 HD
ENDBRANCH  41  44
BRANCH  43  46
ATOM     46  O   UNL     1      17.126  20.269  22.017  1.00  0.00    -0.504 OA
ATOM     47  H   UNL     1      17.603  21.106  21.708  1.00  0.00     0.293 HD
ENDBRANCH  43  46
ENDBRANCH  28  38
BRANCH  34  48
ATOM     48  O   UNL     1       7.120  20.439  26.031  1.00  0.00    -0.507 OA
ATOM     49  H   UNL     1       7.645  21.046  26.654  1.00  0.00     0.293 HD
ENDBRANCH  34  48
BRANCH  37  50
ATOM     50  O   UNL     1       6.647  18.080  21.858  1.00  0.00    -0.508 OA
ATOM     51  H   UNL     1       6.972  17.853  20.922  1.00  0.00     0.293 HD
ENDBRANCH  37  50
ENDBRANCH  26  27
ENDBRANCH   5  26
BRANCH   4  52
ATOM     52  O   UNL     1      11.929  20.100  28.211  1.00  0.00    -0.384 OA
ATOM     53  H   UNL     1      12.163  19.165  28.488  1.00  0.00     0.211 HD
ENDBRANCH   4  52
TORSDOF 16
ENDMDL
MODEL 2
REMARK VINA RESULT:    -5.519      2.676      5.291
REMARK INTER + INTRA:         -12.661
REMARK INTER:                  -9.276
REMARK INTRA:                  -3.386
REMARK UNBOUND:                -3.594
REMARK SMILES C[C@@H]1O[C@H](OC[C@H]2O[C@@H](Oc3c(-c4ccc(O)c(O)c4)oc4cc(O)cc(O)c4c3=O)[C@H](O)[C@@H](O)[C@@H]2O)[C@@H](O)[C@@H](O)[C@@H]1O
REMARK SMILES IDX 7 1 36 2 34 3 32 4 9 5 8 6 6 7 5 8 4 9 1 10 2 11 42 12 3 13
REMARK SMILES IDX 40 14 38 15 43 16 41 18 39 20 37 22 35 24 10 26 11 27 12 28
REMARK SMILES IDX 30 29 21 30 29 31 31 32 22 33 27 34 23 35 26 36 24 37 13 38
REMARK SMILES IDX 20 39 14 40 18 41 15 42 16 43 19 44 17 46 28 48 25 50 33 52
REMARK H PARENT 43 17 41 19 39 21 37 23 35 25 19 45 17 47 28 49 25 51 33 53
REMARK Flexibility Score: inf
ROOT
ATOM      1  C   UNL     1      10.489  23.895  23.446  1.00  0.00     0.180 C 
ATOM      2  C   UNL     1      11.163  24.730  24.582  1.00  0.00     0.177 C 
ATOM      3  C   UNL     1      11.004  24.022  25.937  1.00  0.00     0.180 C 
ATOM      4  C   UNL     1       9.495  23.770  26.219  1.00  0.00     0.214 C 
ATOM      5  C   UNL     1       8.729  23.418  24.916  1.00  0.00     0.339 C 
ATOM      6  O   UNL     1       9.641  22.881  23.974  1.00  0.00    -0.332 OA
ENDROOT
BRANCH   1   7
ATOM      7  C   UNL     1      11.530  23.253  22.478  1.00  0.00     0.198 C 
BRANCH   7   8
ATOM      8  O   UNL     1      11.944  21.966  22.916  1.00  0.00    -0.347 OA
BRANCH   8   9
ATOM      9  C   UNL     1      13.361  21.866  22.995  1.00  0.00     0.281 C 
ATOM     10  C   UNL     1      15.548  22.458  25.893  1.00  0.00     0.041 C 
ATOM     11  C   UNL     1      15.156  22.069  24.471  1.00  0.00     0.150 C 
ATOM     12  C   UNL     1      15.766  20.684  24.082  1.00  0.00     0.174 C 
ATOM     13  O   UNL     1      13.735  22.041  24.352  1.00  0.00    -0.344 OA
ATOM     14  C   UNL     1      15.340  20.327  22.641  1.00  0.00     0.179 C 
ATOM     15  C   UNL     1      13.807  20.472  22.498  1.00  0.00     0.202 C 
BRANCH  12  16
ATOM     16  O   UNL     1      15.381  19.630  24.952  1.00  0.00    -0.388 OA
ATOM     17  H   UNL     1      15.907  18.833  24.672  1.00  0.00     0.211 HD
ENDBRANCH  12  16
BRANCH  14  18
ATOM     18  O   UNL     1      15.992  21.193  21.725  1.00  0.00    -0.387 OA
ATOM     19  H   UNL     1      16.444  21.888  22.267  1.00  0.00     0.211 HD
ENDBRANCH  14  18
BRANCH  15  20
ATOM     20  O   UNL     1      13.401  20.301  21.161  1.00  0.00    -0.385 OA
ATOM     21  H   UNL     1      12.582  19.771  21.184  1.00  0.00     0.211 HD
ENDBRANCH  15  20
ENDBRANCH   8   9
ENDBRANCH   7   8
ENDBRANCH   1   7
BRANCH   2  22
ATOM     22  O   UNL     1      10.533  25.983  24.680  1.00  0.00    -0.387 OA
ATOM     23  H   UNL     1       9.731  25.861  25.271  1.00  0.00     0.211 HD
ENDBRANCH   2  22
BRANCH   3  24
ATOM     24  O   UNL     1      11.663  22.774  25.911  1.00  0.00    -0.387 OA
ATOM     25  H   UNL     1      12.041  22.654  24.988  1.00  0.00     0.211 HD
ENDBRANCH   3  24
BRANCH   5  26
ATOM     26  O   UNL     1       7.702  22.476  25.301  1.00  0.00    -0.454 OA
BRANCH  26  27
ATOM     27  C   UNL     1       6.949  21.512  24.595  1.00  0.00     0.214 A 
ATOM     28  C   UNL     1       7.516  20.225  24.444  1.00  0.00     0.180 A 
ATOM     29  C   UNL     1       5.702  21.764  23.958  1.00  0.00     0.239 A 
ATOM     30  O   UNL     1       6.983  19.372  23.575  1.00  0.00    -0.452 OA
ATOM     31  C   UNL     1       5.244  20.862  22.975  1.00  0.00     0.111 A 
ATOM     32  O   UNL     1       4.980  22.732  24.290  1.00  0.00    -0.285 OA
ATOM     33  C   UNL     1       5.928  19.638  22.832  1.00  0.00     0.146 A 
ATOM     34  C   UNL     1       4.168  21.161  22.095  1.00  0.00     0.134 A 
ATOM     35  C   UNL     1       5.506  18.707  21.887  1.00  0.00     0.094 A 
ATOM     36  C   UNL     1       3.787  20.217  21.131  1.00  0.00     0.093 A 
ATOM     37  C   UNL     1       4.436  18.991  21.041  1.00  0.00     0.123 A 
BRANCH  28  38
ATOM     38  C   UNL     1       8.634  19.720  25.285  1.00  0.00     0.025 A 
ATOM     39  C   UNL     1       9.991  19.834  24.928  1.00  0.00     0.062 A 
ATOM     40  C   UNL     1       8.309  19.149  26.526  1.00  0.00     0.016 A 
ATOM     41  C   UNL     1      10.998  19.476  25.838  1.00  0.00     0.158 A 
ATOM     42  C   UNL     1       9.309  18.744  27.415  1.00  0.00     0.051 A 
ATOM     43  C   UNL     1      10.657  18.915  27.076  1.00  0.00     0.157 A 
BRANCH  41  44
ATOM     44  O   UNL     1      12.336  19.683  25.485  1.00  0.00    -0.504 OA
ATOM     45  H   UNL     1      13.025  18.949  25.586  1.00  0.00     0.293 HD
ENDBRANCH  41  44
BRANCH  43  46
ATOM     46  O   UNL     1      11.654  18.534  27.981  1.00  0.00    -0.504 OA
ATOM     47  H   UNL     1      11.437  17.991  28.806  1.00  0.00     0.293 HD
ENDBRANCH  43  46
ENDBRANCH  28  38
BRANCH  34  48
ATOM     48  O   UNL     1       3.504  22.379  22.167  1.00  0.00    -0.507 OA
ATOM     49  H   UNL     1       2.509  22.422  22.371  1.00  0.00     0.293 HD
ENDBRANCH  34  48
BRANCH  37  50
ATOM     50  O   UNL     1       4.034  18.075  20.071  1.00  0.00    -0.508 OA
ATOM     51  H   UNL     1       4.420  17.135  20.030  1.00  0.00     0.293 HD
ENDBRANCH  37  50
ENDBRANCH  26  27
ENDBRANCH   5  26
BRANCH   4  52
ATOM     52  O   UNL     1       8.898  24.898  26.821  1.00  0.00    -0.384 OA
ATOM     53  H   UNL     1       7.954  24.927  26.482  1.00  0.00     0.211 HD
ENDBRANCH   4  52
TORSDOF 16
ENDMDL
MODEL 3
REMARK VINA RESULT:    -5.462      2.015      2.667
REMARK INTER + INTRA:         -12.569
REMARK INTER:                  -9.527
REMARK INTRA:                  -3.042
REMARK UNBOUND:                -3.594
REMARK SMILES C[C@@H]1O[C@H](OC[C@H]2O[C@@H](Oc3c(-c4ccc(O)c(O)c4)oc4cc(O)cc(O)c4c3=O)[C@H](O)[C@@H](O)[C@@H]2O)[C@@H](O)[C@@H](O)[C@@H]1O
REMARK SMILES IDX 7 1 36 2 34 3 32 4 9 5 8 6 6 7 5 8 4 9 1 10 2 11 42 12 3 13
REMARK SMILES IDX 40 14 38 15 43 16 41 18 39 20 37 22 35 24 10 26 11 27 12 28
REMARK SMILES IDX 30 29 21 30 29 31 31 32 22 33 27 34 23 35 26 36 24 37 13 38
REMARK SMILES IDX 20 39 14 40 18 41 15 42 16 43 19 44 17 46 28 48 25 50 33 52
REMARK H PARENT 43 17 41 19 39 21 37 23 35 25 19 45 17 47 28 49 25 51 33 53
REMARK Flexibility Score: inf
ROOT
ATOM      1  C   UNL     1      13.423  23.972  28.796  1.00  0.00     0.180 C 
ATOM      2  C   UNL     1      12.625  23.831  30.132  1.00  0.00     0.177 C 
ATOM      3  C   UNL     1      12.606  22.365  30.595  1.00  0.00     0.180 C 
ATOM      4  C   UNL     1      12.014  21.471  29.469  1.00  0.00     0.214 C 
ATOM      5  C   UNL     1      12.445  21.973  28.065  1.00  0.00     0.339 C 
ATOM      6  O   UNL     1      13.652  22.706  28.186  1.00  0.00    -0.332 OA
ENDROOT
BRANCH   1   7
ATOM      7  C   UNL     1      14.783  24.712  28.987  1.00  0.00     0.198 C 
BRANCH   7   8
ATOM      8  O   UNL     1      15.586  24.103  29.989  1.00  0.00    -0.347 OA
BRANCH   8   9
ATOM      9  C   UNL     1      16.898  23.822  29.515  1.00  0.00     0.281 C 
ATOM     10  C   UNL     1      20.089  25.322  30.565  1.00  0.00     0.041 C 
ATOM     11  C   UNL     1      19.141  24.390  29.817  1.00  0.00     0.150 C 
ATOM     12  C   UNL     1      19.608  22.903  29.938  1.00  0.00     0.174 C 
ATOM     13  O   UNL     1      17.816  24.541  30.323  1.00  0.00    -0.344 OA
ATOM     14  C   UNL     1      18.618  21.995  29.174  1.00  0.00     0.179 C 
ATOM     15  C   UNL     1      17.171  22.305  29.624  1.00  0.00     0.202 C 
BRANCH  12  16
ATOM     16  O   UNL     1      19.711  22.448  31.279  1.00  0.00    -0.388 OA
ATOM     17  H   UNL     1      18.781  22.417  31.633  1.00  0.00     0.211 HD
ENDBRANCH  12  16
BRANCH  14  18
ATOM     18  O   UNL     1      18.746  22.222  27.779  1.00  0.00    -0.387 OA
ATOM     19  H   UNL     1      18.252  23.058  27.583  1.00  0.00     0.211 HD
ENDBRANCH  14  18
BRANCH  15  20
ATOM     20  O   UNL     1      16.233  21.604  28.842  1.00  0.00    -0.385 OA
ATOM     21  H   UNL     1      15.976  20.815  29.355  1.00  0.00     0.211 HD
ENDBRANCH  15  20
ENDBRANCH   8   9
ENDBRANCH   7   8
ENDBRANCH   1   7
BRANCH   2  22
ATOM     22  O   UNL     1      11.294  24.230  29.927  1.00  0.00    -0.387 OA
ATOM     23  H   UNL     1      11.266  25.226  30.045  1.00  0.00     0.211 HD
ENDBRANCH   2  22
BRANCH   3  24
ATOM     24  O   UNL     1      13.921  21.926  30.864  1.00  0.00    -0.387 OA
ATOM     25  H   UNL     1      14.460  22.065  30.028  1.00  0.00     0.211 HD
ENDBRANCH   3  24
BRANCH   5  26
ATOM     26  O   UNL     1      12.589  20.789  27.247  1.00  0.00    -0.454 OA
BRANCH  26  27
ATOM     27  C   UNL     1      11.811  20.215  26.218  1.00  0.00     0.214 A 
ATOM     28  C   UNL     1      12.373  20.173  24.921  1.00  0.00     0.180 A 
ATOM     29  C   UNL     1      10.475  19.751  26.374  1.00  0.00     0.239 A 
ATOM     30  O   UNL     1      11.597  19.894  23.879  1.00  0.00    -0.452 OA
ATOM     31  C   UNL     1       9.678  19.568  25.225  1.00  0.00     0.111 A 
ATOM     32  O   UNL     1      10.013  19.448  27.498  1.00  0.00    -0.285 OA
ATOM     33  C   UNL     1      10.309  19.634  23.967  1.00  0.00     0.146 A 
ATOM     34  C   UNL     1       8.270  19.379  25.284  1.00  0.00     0.134 A 
ATOM     35  C   UNL     1       9.570  19.444  22.802  1.00  0.00     0.094 A 
ATOM     36  C   UNL     1       7.547  19.224  24.093  1.00  0.00     0.093 A 
ATOM     37  C   UNL     1       8.193  19.236  22.863  1.00  0.00     0.123 A 
BRANCH  28  38
ATOM     38  C   UNL     1      13.829  20.328  24.656  1.00  0.00     0.025 A 
ATOM     39  C   UNL     1      14.807  20.356  25.667  1.00  0.00     0.062 A 
ATOM     40  C   UNL     1      14.242  20.395  23.315  1.00  0.00     0.016 A 
ATOM     41  C   UNL     1      16.171  20.350  25.339  1.00  0.00     0.158 A 
ATOM     42  C   UNL     1      15.600  20.440  22.984  1.00  0.00     0.051 A 
ATOM     43  C   UNL     1      16.568  20.408  23.995  1.00  0.00     0.157 A 
BRANCH  41  44
ATOM     44  O   UNL     1      17.117  20.290  26.367  1.00  0.00    -0.504 OA
ATOM     45  H   UNL     1      17.700  19.474  26.498  1.00  0.00     0.293 HD
ENDBRANCH  41  44
BRANCH  43  46
ATOM     46  O   UNL     1      17.926  20.426  23.657  1.00  0.00    -0.504 OA
ATOM     47  H   UNL     1      18.259  20.919  22.840  1.00  0.00     0.293 HD
ENDBRANCH  43  46
ENDBRANCH  28  38
BRANCH  34  48
ATOM     48  O   UNL     1       7.602  19.363  26.503  1.00  0.00    -0.507 OA
ATOM     49  H   UNL     1       6.666  18.975  26.583  1.00  0.00     0.293 HD
ENDBRANCH  34  48
BRANCH  37  50
ATOM     50  O   UNL     1       7.446  19.080  21.697  1.00  0.00    -0.508 OA
ATOM     51  H   UNL     1       6.525  18.648  21.705  1.00  0.00     0.293 HD
ENDBRANCH  37  50
ENDBRANCH  26  27
ENDBRANCH   5  26
BRANCH   4  52
ATOM     52  O   UNL     1      10.605  21.435  29.539  1.00  0.00    -0.384 OA
ATOM     53  H   UNL     1      10.292  22.364  29.324  1.00  0.00     0.211 HD
ENDBRANCH   4  52
TORSDOF 16
ENDMDL
MODEL 4
REMARK VINA RESULT:    -5.404      1.252      2.062
REMARK INTER + INTRA:         -12.472
REMARK INTER:                  -9.127
REMARK INTRA:                  -3.346
REMARK UNBOUND:                -3.594
REMARK SMILES C[C@@H]1O[C@H](OC[C@H]2O[C@@H](Oc3c(-c4ccc(O)c(O)c4)oc4cc(O)cc(O)c4c3=O)[C@H](O)[C@@H](O)[C@@H]2O)[C@@H](O)[C@@H](O)[C@@H]1O
REMARK SMILES IDX 7 1 36 2 34 3 32 4 9 5 8 6 6 7 5 8 4 9 1 10 2 11 42 12 3 13
REMARK SMILES IDX 40 14 38 15 43 16 41 18 39 20 37 22 35 24 10 26 11 27 12 28
REMARK SMILES IDX 30 29 21 30 29 31 31 32 22 33 27 34 23 35 26 36 24 37 13 38
REMARK SMILES IDX 20 39 14 40 18 41 15 42 16 43 19 44 17 46 28 48 25 50 33 52
REMARK H PARENT 43 17 41 19 39 21 37 23 35 25 19 45 17 47 28 49 25 51 33 53
REMARK Flexibility Score: inf
ROOT
ATOM      1  C   UNL     1      15.060  22.915  27.596  1.00  0.00     0.180 C 
ATOM      2  C   UNL     1      14.772  21.940  28.783  1.00  0.00     0.177 C 
ATOM      3  C   UNL     1      14.026  20.692  28.284  1.00  0.00     0.180 C 
ATOM      4  C   UNL     1      12.721  21.122  27.556  1.00  0.00     0.214 C 
ATOM      5  C   UNL     1      12.928  22.435  26.755  1.00  0.00     0.339 C 
ATOM      6  O   UNL     1      14.302  22.574  26.441  1.00  0.00    -0.332 OA
ENDROOT
BRANCH   1   7
ATOM      7  C   UNL     1      16.575  22.977  27.227  1.00  0.00     0.198 C 
BRANCH   7   8
ATOM      8  O   UNL     1      16.932  21.986  26.273  1.00  0.00    -0.347 OA
BRANCH   8   9
ATOM      9  C   UNL     1      17.415  22.567  25.067  1.00  0.00     0.281 C 
ATOM     10  C   UNL     1      17.453  26.110  24.077  1.00  0.00     0.041 C 
ATOM     11  C   UNL     1      17.716  24.610  23.981  1.00  0.00     0.150 C 
ATOM     12  C   UNL     1      19.214  24.325  23.638  1.00  0.00     0.174 C 
ATOM     13  O   UNL     1      17.354  23.977  25.207  1.00  0.00    -0.344 OA
ATOM     14  C   UNL     1      19.436  22.799  23.558  1.00  0.00     0.179 C 
ATOM     15  C   UNL     1      18.877  22.121  24.831  1.00  0.00     0.202 C 
BRANCH  12  16
ATOM     16  O   UNL     1      20.125  24.876  24.578  1.00  0.00    -0.388 OA
ATOM     17  H   UNL     1      20.704  24.123  24.876  1.00  0.00     0.211 HD
ENDBRANCH  12  16
BRANCH  14  18
ATOM     18  O   UNL     1      18.778  22.283  22.411  1.00  0.00    -0.387 OA
ATOM     19  H   UNL     1      18.140  22.982  22.114  1.00  0.00     0.211 HD
ENDBRANCH  14  18
BRANCH  15  20
ATOM     20  O   UNL     1      18.926  20.719  24.725  1.00  0.00    -0.385 OA
ATOM     21  H   UNL     1      18.159  20.452  24.184  1.00  0.00     0.211 HD
ENDBRANCH  15  20
ENDBRANCH   8   9
ENDBRANCH   7   8
ENDBRANCH   1   7
BRANCH   2  22
ATOM     22  O   UNL     1      13.949  22.579  29.726  1.00  0.00    -0.387 OA
ATOM     23  H   UNL     1      13.605  23.416  29.292  1.00  0.00     0.211 HD
ENDBRANCH   2  22
BRANCH   3  24
ATOM     24  O   UNL     1      14.830  19.982  27.366  1.00  0.00    -0.387 OA
ATOM     25  H   UNL     1      15.406  19.353  27.897  1.00  0.00     0.211 HD
ENDBRANCH   3  24
BRANCH   5  26
ATOM     26  O   UNL     1      12.094  22.320  25.579  1.00  0.00    -0.454 OA
BRANCH  26  27
ATOM     27  C   UNL     1      11.265  21.298  25.068  1.00  0.00     0.214 A 
ATOM     28  C   UNL     1      11.760  20.537  23.983  1.00  0.00     0.180 A 
ATOM     29  C   UNL     1       9.939  21.032  25.510  1.00  0.00     0.239 A 
ATOM     30  O   UNL     1      10.932  19.755  23.299  1.00  0.00    -0.452 OA
ATOM     31  C   UNL     1       9.084  20.271  24.685  1.00  0.00     0.111 A 
ATOM     32  O   UNL     1       9.535  21.406  26.635  1.00  0.00    -0.285 OA
ATOM     33  C   UNL     1       9.650  19.620  23.571  1.00  0.00     0.146 A 
ATOM     34  C   UNL     1       7.681  20.184  24.898  1.00  0.00     0.134 A 
ATOM     35  C   UNL     1       8.853  18.844  22.734  1.00  0.00     0.094 A 
ATOM     36  C   UNL     1       6.899  19.422  24.020  1.00  0.00     0.093 A 
ATOM     37  C   UNL     1       7.482  18.740  22.957  1.00  0.00     0.123 A 
BRANCH  28  38
ATOM     38  C   UNL     1      13.200  20.482  23.615  1.00  0.00     0.025 A 
ATOM     39  C   UNL     1      14.194  19.919  24.436  1.00  0.00     0.062 A 
ATOM     40  C   UNL     1      13.568  20.975  22.351  1.00  0.00     0.016 A 
ATOM     41  C   UNL     1      15.506  19.761  23.960  1.00  0.00     0.158 A 
ATOM     42  C   UNL     1      14.884  20.866  21.894  1.00  0.00     0.051 A 
ATOM     43  C   UNL     1      15.855  20.251  22.693  1.00  0.00     0.157 A 
BRANCH  41  44
ATOM     44  O   UNL     1      16.449  19.119  24.769  1.00  0.00    -0.504 OA
ATOM     45  H   UNL     1      17.012  19.636  25.430  1.00  0.00     0.293 HD
ENDBRANCH  41  44
BRANCH  43  46
ATOM     46  O   UNL     1      17.164  20.120  22.219  1.00  0.00    -0.504 OA
ATOM     47  H   UNL     1      17.917  20.687  22.586  1.00  0.00     0.293 HD
ENDBRANCH  43  46
ENDBRANCH  28  38
BRANCH  34  48
ATOM     48  O   UNL     1       7.077  20.856  25.954  1.00  0.00    -0.507 OA
ATOM     49  H   UNL     1       6.827  20.369  26.811  1.00  0.00     0.293 HD
ENDBRANCH  34  48
BRANCH  37  50
ATOM     50  O   UNL     1       6.676  17.992  22.101  1.00  0.00    -0.508 OA
ATOM     51  H   UNL     1       7.059  17.259  21.511  1.00  0.00     0.293 HD
ENDBRANCH  37  50
ENDBRANCH  26  27
ENDBRANCH   5  26
BRANCH   4  52
ATOM     52  O   UNL     1      11.663  21.298  28.474  1.00  0.00    -0.384 OA
ATOM     53  H   UNL     1      11.322  22.230  28.330  1.00  0.00     0.211 HD
ENDBRANCH   4  52
TORSDOF 16
ENDMDL
MODEL 5
REMARK VINA RESULT:    -5.378      2.096      6.227
REMARK INTER + INTRA:         -12.431
REMARK INTER:                  -8.883
REMARK INTRA:                  -3.548
REMARK UNBOUND:                -3.594
REMARK SMILES C[C@@H]1O[C@H](OC[C@H]2O[C@@H](Oc3c(-c4ccc(O)c(O)c4)oc4cc(O)cc(O)c4c3=O)[C@H](O)[C@@H](O)[C@@H]2O)[C@@H](O)[C@@H](O)[C@@H]1O
REMARK SMILES IDX 7 1 36 2 34 3 32 4 9 5 8 6 6 7 5 8 4 9 1 10 2 11 42 12 3 13
REMARK SMILES IDX 40 14 38 15 43 16 41 18 39 20 37 22 35 24 10 26 11 27 12 28
REMARK SMILES IDX 30 29 21 30 29 31 31 32 22 33 27 34 23 35 26 36 24 37 13 38
REMARK SMILES IDX 20 39 14 40 18 41 15 42 16 43 19 44 17 46 28 48 25 50 33 52
REMARK H PARENT 43 17 41 19 39 21 37 23 35 25 19 45 17 47 28 49 25 51 33 53
REMARK Flexibility Score: inf
ROOT
ATOM      1  C   UNL     1      13.567  20.364  22.253  1.00  0.00     0.180 C 
ATOM      2  C   UNL     1      13.093  21.670  21.537  1.00  0.00     0.177 C 
ATOM      3  C   UNL     1      12.092  22.433  22.418  1.00  0.00     0.180 C 
ATOM      4  C   UNL     1      10.898  21.502  22.776  1.00  0.00     0.214 C 
ATOM      5  C   UNL     1      11.370  20.041  22.997  1.00  0.00     0.339 C 
ATOM      6  O   UNL     1      12.738  20.046  23.366  1.00  0.00    -0.332 OA
ENDROOT
BRANCH   1   7
ATOM      7  C   UNL     1      15.055  20.442  22.716  1.00  0.00     0.198 C 
BRANCH   7   8
ATOM      8  O   UNL     1      15.264  21.479  23.666  1.00  0.00    -0.347 OA
BRANCH   8   9
ATOM      9  C   UNL     1      15.647  20.961  24.934  1.00  0.00     0.281 C 
ATOM     10  C   UNL     1      19.031  20.304  26.220  1.00  0.00     0.041 C 
ATOM     11  C   UNL     1      17.509  20.410  26.228  1.00  0.00     0.150 C 
ATOM     12  C   UNL     1      17.011  21.214  27.473  1.00  0.00     0.174 C 
ATOM     13  O   UNL     1      17.062  21.027  25.023  1.00  0.00    -0.344 OA
ATOM     14  C   UNL     1      15.469  21.302  27.437  1.00  0.00     0.179 C 
ATOM     15  C   UNL     1      15.006  21.814  26.053  1.00  0.00     0.202 C 
BRANCH  12  16
ATOM     16  O   UNL     1      17.547  22.526  27.552  1.00  0.00    -0.388 OA
ATOM     17  H   UNL     1      18.371  22.523  26.994  1.00  0.00     0.211 HD
ENDBRANCH  12  16
BRANCH  14  18
ATOM     18  O   UNL     1      14.914  20.020  27.685  1.00  0.00    -0.387 OA
ATOM     19  H   UNL     1      15.520  19.570  28.328  1.00  0.00     0.211 HD
ENDBRANCH  14  18
BRANCH  15  20
ATOM     20  O   UNL     1      13.605  21.765  25.933  1.00  0.00    -0.385 OA
ATOM     21  H   UNL     1      13.242  21.944  26.821  1.00  0.00     0.211 HD
ENDBRANCH  15  20
ENDBRANCH   8   9
ENDBRANCH   7   8
ENDBRANCH   1   7
BRANCH   2  22
ATOM     22  O   UNL     1      12.438  21.336  20.339  1.00  0.00    -0.387 OA
ATOM     23  H   UNL     1      13.053  20.727  19.830  1.00  0.00     0.211 HD
ENDBRANCH   2  22
BRANCH   3  24
ATOM     24  O   UNL     1      12.713  22.837  23.619  1.00  0.00    -0.387 OA
ATOM     25  H   UNL     1      13.610  23.219  23.378  1.00  0.00     0.211 HD
ENDBRANCH   3  24
BRANCH   5  26
ATOM     26  O   UNL     1      10.514  19.498  24.029  1.00  0.00    -0.454 OA
BRANCH  26  27
ATOM     27  C   UNL     1      10.013  20.007  25.247  1.00  0.00     0.214 A 
ATOM     28  C   UNL     1       8.670  20.449  25.266  1.00  0.00     0.180 A 
ATOM     29  C   UNL     1      10.783  20.182  26.431  1.00  0.00     0.239 A 
ATOM     30  O   UNL     1       8.232  21.173  26.291  1.00  0.00    -0.452 OA
ATOM     31  C   UNL     1      10.298  21.041  27.439  1.00  0.00     0.111 A 
ATOM     32  O   UNL     1      11.846  19.548  26.622  1.00  0.00    -0.285 OA
ATOM     33  C   UNL     1       8.973  21.508  27.328  1.00  0.00     0.146 A 
ATOM     34  C   UNL     1      11.103  21.496  28.519  1.00  0.00     0.134 A 
ATOM     35  C   UNL     1       8.441  22.346  28.304  1.00  0.00     0.094 A 
ATOM     36  C   UNL     1      10.551  22.366  29.469  1.00  0.00     0.093 A 
ATOM     37  C   UNL     1       9.224  22.772  29.374  1.00  0.00     0.123 A 
BRANCH  28  38
ATOM     38  C   UNL     1       7.669  20.064  24.235  1.00  0.00     0.025 A 
ATOM     39  C   UNL     1       6.917  20.993  23.492  1.00  0.00     0.062 A 
ATOM     40  C   UNL     1       7.513  18.696  23.960  1.00  0.00     0.016 A 
ATOM     41  C   UNL     1       6.105  20.565  22.431  1.00  0.00     0.158 A 
ATOM     42  C   UNL     1       6.665  18.262  22.936  1.00  0.00     0.051 A 
ATOM     43  C   UNL     1       5.966  19.196  22.162  1.00  0.00     0.157 A 
BRANCH  41  44
ATOM     44  O   UNL     1       5.439  21.522  21.657  1.00  0.00    -0.504 OA
ATOM     45  H   UNL     1       5.452  22.502  21.908  1.00  0.00     0.293 HD
ENDBRANCH  41  44
BRANCH  43  46
ATOM     46  O   UNL     1       5.140  18.758  21.122  1.00  0.00    -0.504 OA
ATOM     47  H   UNL     1       4.498  17.986  21.247  1.00  0.00     0.293 HD
ENDBRANCH  43  46
ENDBRANCH  28  38
BRANCH  34  48
ATOM     48  O   UNL     1      12.431  21.103  28.634  1.00  0.00    -0.507 OA
ATOM     49  H   UNL     1      12.675  20.175  28.971  1.00  0.00     0.293 HD
ENDBRANCH  34  48
BRANCH  37  50
ATOM     50  O   UNL     1       8.705  23.638  30.335  1.00  0.00    -0.508 OA
ATOM     51  H   UNL     1       7.813  23.461  30.788  1.00  0.00     0.293 HD
ENDBRANCH  37  50
ENDBRANCH  26  27
ENDBRANCH   5  26
BRANCH   4  52
ATOM     52  O   UNL     1       9.915  21.527  21.764  1.00  0.00    -0.384 OA
ATOM     53  H   UNL     1      10.301  21.021  20.989  1.00  0.00     0.211 HD
ENDBRANCH   4  52
TORSDOF 16
ENDMDL
MODEL 6
REMARK VINA RESULT:    -5.375      2.508      6.615
REMARK INTER + INTRA:         -12.425
REMARK INTER:                  -9.032
REMARK INTRA:                  -3.392
REMARK UNBOUND:                -3.594
REMARK SMILES C[C@@H]1O[C@H](OC[C@H]2O[C@@H](Oc3c(-c4ccc(O)c(O)c4)oc4cc(O)cc(O)c4c3=O)[C@H](O)[C@@H](O)[C@@H]2O)[C@@H](O)[C@@H](O)[C@@H]1O
REMARK SMILES IDX 7 1 36 2 34 3 32 4 9 5 8 6 6 7 5 8 4 9 1 10 2 11 42 12 3 13
REMARK SMILES IDX 40 14 38 15 43 16 41 18 39 20 37 22 35 24 10 26 11 27 12 28
REMARK SMILES IDX 30 29 21 30 29 31 31 32 22 33 27 34 23 35 26 36 24 37 13 38
REMARK SMILES IDX 20 39 14 40 18 41 15 42 16 43 19 44 17 46 28 48 25 50 33 52
REMARK H PARENT 43 17 41 19 39 21 37 23 35 25 19 45 17 47 28 49 25 51 33 53
REMARK Flexibility Score: inf
ROOT
ATOM      1  C   UNL     1      13.103  22.938  20.300  1.00  0.00     0.180 C 
ATOM      2  C   UNL     1      12.336  24.211  20.786  1.00  0.00     0.177 C 
ATOM      3  C   UNL     1      11.877  24.039  22.242  1.00  0.00     0.180 C 
ATOM      4  C   UNL     1      11.008  22.755  22.366  1.00  0.00     0.214 C 
ATOM      5  C   UNL     1      11.535  21.625  21.443  1.00  0.00     0.339 C 
ATOM      6  O   UNL     1      12.912  21.841  21.188  1.00  0.00    -0.332 OA
ENDROOT
BRANCH   1   7
ATOM      7  C   UNL     1      14.630  23.196  20.110  1.00  0.00     0.198 C 
BRANCH   7   8
ATOM      8  O   UNL     1      15.223  23.766  21.269  1.00  0.00    -0.347 OA
BRANCH   8   9
ATOM      9  C   UNL     1      16.373  23.039  21.684  1.00  0.00     0.281 C 
ATOM     10  C   UNL     1      19.921  23.852  21.150  1.00  0.00     0.041 C 
ATOM     11  C   UNL     1      18.706  23.089  21.667  1.00  0.00     0.150 C 
ATOM     12  C   UNL     1      18.825  22.818  23.202  1.00  0.00     0.174 C 
ATOM     13  O   UNL     1      17.516  23.822  21.380  1.00  0.00    -0.344 OA
ATOM     14  C   UNL     1      17.574  22.051  23.682  1.00  0.00     0.179 C 
ATOM     15  C   UNL     1      16.297  22.783  23.207  1.00  0.00     0.202 C 
BRANCH  12  16
ATOM     16  O   UNL     1      18.969  24.000  23.976  1.00  0.00    -0.388 OA
ATOM     17  H   UNL     1      19.230  23.702  24.890  1.00  0.00     0.211 HD
ENDBRANCH  12  16
BRANCH  14  18
ATOM     18  O   UNL     1      17.595  20.732  23.158  1.00  0.00    -0.387 OA
ATOM     19  H   UNL     1      16.836  20.251  23.576  1.00  0.00     0.211 HD
ENDBRANCH  14  18
BRANCH  15  20
ATOM     20  O   UNL     1      15.142  22.033  23.497  1.00  0.00    -0.385 OA
ATOM     21  H   UNL     1      15.239  21.715  24.415  1.00  0.00     0.211 HD
ENDBRANCH  15  20
ENDBRANCH   8   9
ENDBRANCH   7   8
ENDBRANCH   1   7
BRANCH   2  22
ATOM     22  O   UNL     1      11.188  24.395  19.996  1.00  0.00    -0.387 OA
ATOM     23  H   UNL     1      11.489  24.392  19.039  1.00  0.00     0.211 HD
ENDBRANCH   2  22
BRANCH   3  24
ATOM     24  O   UNL     1      12.998  23.898  23.090  1.00  0.00    -0.387 OA
ATOM     25  H   UNL     1      12.652  23.751  24.021  1.00  0.00     0.211 HD
ENDBRANCH   3  24
BRANCH   5  26
ATOM     26  O   UNL     1      11.284  20.387  22.147  1.00  0.00    -0.454 OA
BRANCH  26  27
ATOM     27  C   UNL     1      11.421  19.985  23.493  1.00  0.00     0.214 A 
ATOM     28  C   UNL     1      10.236  19.774  24.235  1.00  0.00     0.180 A 
ATOM     29  C   UNL     1      12.662  19.857  24.179  1.00  0.00     0.239 A 
ATOM     30  O   UNL     1      10.302  19.658  25.557  1.00  0.00    -0.452 OA
ATOM     31  C   UNL     1      12.662  19.836  25.589  1.00  0.00     0.111 A 
ATOM     32  O   UNL     1      13.740  19.705  23.560  1.00  0.00    -0.285 OA
ATOM     33  C   UNL     1      11.422  19.713  26.248  1.00  0.00     0.146 A 
ATOM     34  C   UNL     1      13.845  19.989  26.363  1.00  0.00     0.134 A 
ATOM     35  C   UNL     1      11.370  19.672  27.638  1.00  0.00     0.094 A 
ATOM     36  C   UNL     1      13.757  19.976  27.762  1.00  0.00     0.093 A 
ATOM     37  C   UNL     1      12.532  19.798  28.395  1.00  0.00     0.123 A 
BRANCH  28  38
ATOM     38  C   UNL     1       8.904  19.571  23.605  1.00  0.00     0.025 A 
ATOM     39  C   UNL     1       7.827  20.465  23.752  1.00  0.00     0.062 A 
ATOM     40  C   UNL     1       8.740  18.448  22.777  1.00  0.00     0.016 A 
ATOM     41  C   UNL     1       6.650  20.292  23.007  1.00  0.00     0.158 A 
ATOM     42  C   UNL     1       7.550  18.244  22.072  1.00  0.00     0.051 A 
ATOM     43  C   UNL     1       6.505  19.170  22.178  1.00  0.00     0.157 A 
BRANCH  41  44
ATOM     44  O   UNL     1       5.634  21.247  23.111  1.00  0.00    -0.504 OA
ATOM     45  H   UNL     1       5.439  21.712  23.987  1.00  0.00     0.293 HD
ENDBRANCH  41  44
BRANCH  43  46
ATOM     46  O   UNL     1       5.327  18.975  21.449  1.00  0.00    -0.504 OA
ATOM     47  H   UNL     1       5.224  18.195  20.813  1.00  0.00     0.293 HD
ENDBRANCH  43  46
ENDBRANCH  28  38
BRANCH  34  48
ATOM     48  O   UNL     1      15.080  20.166  25.751  1.00  0.00    -0.507 OA
ATOM     49  H   UNL     1      15.189  20.802  24.965  1.00  0.00     0.293 HD
ENDBRANCH  34  48
BRANCH  37  50
ATOM     50  O   UNL     1      12.479  19.791  29.788  1.00  0.00    -0.508 OA
ATOM     51  H   UNL     1      11.699  19.376  30.291  1.00  0.00     0.293 HD
ENDBRANCH  37  50
ENDBRANCH  26  27
ENDBRANCH   5  26
BRANCH   4  52
ATOM     52  O   UNL     1       9.659  23.025  22.050  1.00  0.00    -0.384 OA
ATOM     53  H   UNL     1       9.676  23.740  21.347  1.00  0.00     0.211 HD
ENDBRANCH   4  52
TORSDOF 16
ENDMDL
MODEL 7
REMARK VINA RESULT:    -5.303      2.269      4.174
REMARK INTER + INTRA:         -12.308
REMARK INTER:                  -9.347
REMARK INTRA:                  -2.960
REMARK UNBOUND:                -3.594
REMARK SMILES C[C@@H]1O[C@H](OC[C@H]2O[C@@H](Oc3c(-c4ccc(O)c(O)c4)oc4cc(O)cc(O)c4c3=O)[C@H](O)[C@@H](O)[C@@H]2O)[C@@H](O)[C@@H](O)[C@@H]1O
REMARK SMILES IDX 7 1 36 2 34 3 32 4 9 5 8 6 6 7 5 8 4 9 1 10 2 11 42 12 3 13
REMARK SMILES IDX 40 14 38 15 43 16 41 18 39 20 37 22 35 24 10 26 11 27 12 28
REMARK SMILES IDX 30 29 21 30 29 31 31 32 22 33 27 34 23 35 26 36 24 37 13 38
REMARK SMILES IDX 20 39 14 40 18 41 15 42 16 43 19 44 17 46 28 48 25 50 33 52
REMARK H PARENT 43 17 41 19 39 21 37 23 35 25 19 45 17 47 28 49 25 51 33 53
REMARK Flexibility Score: inf
ROOT
ATOM      1  C   UNL     1      11.262  22.159  27.079  1.00  0.00     0.180 C 
ATOM      2  C   UNL     1      10.784  21.087  28.111  1.00  0.00     0.177 C 
ATOM      3  C   UNL     1       9.914  20.025  27.420  1.00  0.00     0.180 C 
ATOM      4  C   UNL     1       8.718  20.717  26.706  1.00  0.00     0.214 C 
ATOM      5  C   UNL     1       9.136  22.082  26.098  1.00  0.00     0.339 C 
ATOM      6  O   UNL     1      10.533  22.074  25.859  1.00  0.00    -0.332 OA
ENDROOT
BRANCH   1   7
ATOM      7  C   UNL     1      12.790  22.064  26.781  1.00  0.00     0.198 C 
BRANCH   7   8
ATOM      8  O   UNL     1      13.141  20.820  26.190  1.00  0.00    -0.347 OA
BRANCH   8   9
ATOM      9  C   UNL     1      14.494  20.809  25.750  1.00  0.00     0.281 C 
ATOM     10  C   UNL     1      15.980  22.511  22.846  1.00  0.00     0.041 C 
ATOM     11  C   UNL     1      15.923  21.672  24.119  1.00  0.00     0.150 C 
ATOM     12  C   UNL     1      16.983  22.160  25.159  1.00  0.00     0.174 C 
ATOM     13  O   UNL     1      14.612  21.730  24.677  1.00  0.00    -0.344 OA
ATOM     14  C   UNL     1      16.886  21.290  26.431  1.00  0.00     0.179 C 
ATOM     15  C   UNL     1      15.418  21.233  26.915  1.00  0.00     0.202 C 
BRANCH  12  16
ATOM     16  O   UNL     1      16.836  23.525  25.520  1.00  0.00    -0.388 OA
ATOM     17  H   UNL     1      17.718  23.954  25.348  1.00  0.00     0.211 HD
ENDBRANCH  12  16
BRANCH  14  18
ATOM     18  O   UNL     1      17.348  19.979  26.146  1.00  0.00    -0.387 OA
ATOM     19  H   UNL     1      18.228  20.081  25.701  1.00  0.00     0.211 HD
ENDBRANCH  14  18
BRANCH  15  20
ATOM     20  O   UNL     1      15.267  20.329  27.983  1.00  0.00    -0.385 OA
ATOM     21  H   UNL     1      14.464  20.599  28.467  1.00  0.00     0.211 HD
ENDBRANCH  15  20
ENDBRANCH   8   9
ENDBRANCH   7   8
ENDBRANCH   1   7
BRANCH   2  22
ATOM     22  O   UNL     1       9.998  21.705  29.099  1.00  0.00    -0.387 OA
ATOM     23  H   UNL     1       9.607  22.532  28.686  1.00  0.00     0.211 HD
ENDBRANCH   2  22
BRANCH   3  24
ATOM     24  O   UNL     1      10.672  19.337  26.447  1.00  0.00    -0.387 OA
ATOM     25  H   UNL     1      10.081  19.205  25.646  1.00  0.00     0.211 HD
ENDBRANCH   3  24
BRANCH   5  26
ATOM     26  O   UNL     1       8.362  22.232  24.886  1.00  0.00    -0.454 OA
BRANCH  26  27
ATOM     27  C   UNL     1       7.471  21.388  24.187  1.00  0.00     0.214 A 
ATOM     28  C   UNL     1       7.997  20.623  23.121  1.00  0.00     0.180 A 
ATOM     29  C   UNL     1       6.070  21.315  24.425  1.00  0.00     0.239 A 
ATOM     30  O   UNL     1       7.168  20.026  22.271  1.00  0.00    -0.452 OA
ATOM     31  C   UNL     1       5.238  20.751  23.435  1.00  0.00     0.111 A 
ATOM     32  O   UNL     1       5.569  21.683  25.513  1.00  0.00    -0.285 OA
ATOM     33  C   UNL     1       5.854  20.084  22.357  1.00  0.00     0.146 A 
ATOM     34  C   UNL     1       3.822  20.879  23.451  1.00  0.00     0.134 A 
ATOM     35  C   UNL     1       5.079  19.497  21.362  1.00  0.00     0.094 A 
ATOM     36  C   UNL     1       3.069  20.306  22.416  1.00  0.00     0.093 A 
ATOM     37  C   UNL     1       3.690  19.603  21.391  1.00  0.00     0.123 A 
BRANCH  28  38
ATOM     38  C   UNL     1       9.450  20.358  22.945  1.00  0.00     0.025 A 
ATOM     39  C   UNL     1      10.381  21.341  22.560  1.00  0.00     0.062 A 
ATOM     40  C   UNL     1       9.915  19.065  23.235  1.00  0.00     0.016 A 
ATOM     41  C   UNL     1      11.756  21.059  22.563  1.00  0.00     0.158 A 
ATOM     42  C   UNL     1      11.280  18.766  23.190  1.00  0.00     0.051 A 
ATOM     43  C   UNL     1      12.205  19.765  22.863  1.00  0.00     0.157 A 
BRANCH  41  44
ATOM     44  O   UNL     1      12.659  22.083  22.258  1.00  0.00    -0.504 OA
ATOM     45  H   UNL     1      12.482  22.732  21.503  1.00  0.00     0.293 HD
ENDBRANCH  41  44
BRANCH  43  46
ATOM     46  O   UNL     1      13.572  19.468  22.846  1.00  0.00    -0.504 OA
ATOM     47  H   UNL     1      13.935  18.684  22.319  1.00  0.00     0.293 HD
ENDBRANCH  43  46
ENDBRANCH  28  38
BRANCH  34  48
ATOM     48  O   UNL     1       3.180  21.577  24.467  1.00  0.00    -0.507 OA
ATOM     49  H   UNL     1       3.506  22.494  24.760  1.00  0.00     0.293 HD
ENDBRANCH  34  48
BRANCH  37  50
ATOM     50  O   UNL     1       2.913  19.046  20.377  1.00  0.00    -0.508 OA
ATOM     51  H   UNL     1       2.416  19.624  19.705  1.00  0.00     0.293 HD
ENDBRANCH  37  50
ENDBRANCH  26  27
ENDBRANCH   5  26
BRANCH   4  52
ATOM     52  O   UNL     1       7.641  20.913  27.597  1.00  0.00    -0.384 OA
ATOM     53  H   UNL     1       7.702  21.867  27.901  1.00  0.00     0.211 HD
ENDBRANCH   4  52
TORSDOF 16
ENDMDL
MODEL 8
REMARK VINA RESULT:    -5.281      3.107      7.516
REMARK INTER + INTRA:         -12.271
REMARK INTER:                  -9.128
REMARK INTRA:                  -3.142
REMARK UNBOUND:                -3.594
REMARK SMILES C[C@@H]1O[C@H](OC[C@H]2O[C@@H](Oc3c(-c4ccc(O)c(O)c4)oc4cc(O)cc(O)c4c3=O)[C@H](O)[C@@H](O)[C@@H]2O)[C@@H](O)[C@@H](O)[C@@H]1O
REMARK SMILES IDX 7 1 36 2 34 3 32 4 9 5 8 6 6 7 5 8 4 9 1 10 2 11 42 12 3 13
REMARK SMILES IDX 40 14 38 15 43 16 41 18 39 20 37 22 35 24 10 26 11 27 12 28
REMARK SMILES IDX 30 29 21 30 29 31 31 32 22 33 27 34 23 35 26 36 24 37 13 38
REMARK SMILES IDX 20 39 14 40 18 41 15 42 16 43 19 44 17 46 28 48 25 50 33 52
REMARK H PARENT 43 17 41 19 39 21 37 23 35 25 19 45 17 47 28 49 25 51 33 53
REMARK Flexibility Score: inf
ROOT
ATOM      1  C   UNL     1      10.851  20.056  22.930  1.00  0.00     0.180 C 
ATOM      2  C   UNL     1      11.897  21.056  22.339  1.00  0.00     0.177 C 
ATOM      3  C   UNL     1      11.699  22.458  22.938  1.00  0.00     0.180 C 
ATOM      4  C   UNL     1      10.238  22.930  22.687  1.00  0.00     0.214 C 
ATOM      5  C   UNL     1       9.238  21.748  22.794  1.00  0.00     0.339 C 
ATOM      6  O   UNL     1       9.801  20.736  23.610  1.00  0.00    -0.332 OA
ENDROOT
BRANCH   1   7
ATOM      7  C   UNL     1      11.500  19.009  23.887  1.00  0.00     0.198 C 
BRANCH   7   8
ATOM      8  O   UNL     1      10.854  18.971  25.153  1.00  0.00    -0.347 OA
BRANCH   8   9
ATOM      9  C   UNL     1      11.745  19.310  26.209  1.00  0.00     0.281 C 
ATOM     10  C   UNL     1      15.112  20.776  25.993  1.00  0.00     0.041 C 
ATOM     11  C   UNL     1      13.841  20.240  26.643  1.00  0.00     0.150 C 
ATOM     12  C   UNL     1      13.289  21.244  27.706  1.00  0.00     0.174 C 
ATOM     13  O   UNL     1      12.858  19.982  25.642  1.00  0.00    -0.344 OA
ATOM     14  C   UNL     1      12.001  20.665  28.333  1.00  0.00     0.179 C 
ATOM     15  C   UNL     1      11.023  20.236  27.214  1.00  0.00     0.202 C 
BRANCH  12  16
ATOM     16  O   UNL     1      13.008  22.532  27.178  1.00  0.00    -0.388 OA
ATOM     17  H   UNL     1      12.574  22.380  26.295  1.00  0.00     0.211 HD
ENDBRANCH  12  16
BRANCH  14  18
ATOM     18  O   UNL     1      12.328  19.546  29.141  1.00  0.00    -0.387 OA
ATOM     19  H   UNL     1      12.941  19.876  29.846  1.00  0.00     0.211 HD
ENDBRANCH  14  18
BRANCH  15  20
ATOM     20  O   UNL     1       9.904  19.567  27.745  1.00  0.00    -0.385 OA
ATOM     21  H   UNL     1      10.176  18.642  27.892  1.00  0.00     0.211 HD
ENDBRANCH  15  20
ENDBRANCH   8   9
ENDBRANCH   7   8
ENDBRANCH   1   7
BRANCH   2  22
ATOM     22  O   UNL     1      11.714  21.157  20.949  1.00  0.00    -0.387 OA
ATOM     23  H   UNL     1      11.100  20.411  20.680  1.00  0.00     0.211 HD
ENDBRANCH   2  22
BRANCH   3  24
ATOM     24  O   UNL     1      11.919  22.423  24.332  1.00  0.00    -0.387 OA
ATOM     25  H   UNL     1      11.824  23.363  24.673  1.00  0.00     0.211 HD
ENDBRANCH   3  24
BRANCH   5  26
ATOM     26  O   UNL     1       8.024  22.304  23.351  1.00  0.00    -0.454 OA
BRANCH  26  27
ATOM     27  C   UNL     1       7.417  22.242  24.624  1.00  0.00     0.214 A 
ATOM     28  C   UNL     1       6.138  21.645  24.709  1.00  0.00     0.180 A 
ATOM     29  C   UNL     1       7.962  22.809  25.810  1.00  0.00     0.239 A 
ATOM     30  O   UNL     1       5.416  21.797  25.814  1.00  0.00    -0.452 OA
ATOM     31  C   UNL     1       7.112  23.028  26.914  1.00  0.00     0.111 A 
ATOM     32  O   UNL     1       9.185  23.059  25.915  1.00  0.00    -0.285 OA
ATOM     33  C   UNL     1       5.819  22.471  26.873  1.00  0.00     0.146 A 
ATOM     34  C   UNL     1       7.485  23.830  28.028  1.00  0.00     0.134 A 
ATOM     35  C   UNL     1       4.946  22.645  27.943  1.00  0.00     0.094 A 
ATOM     36  C   UNL     1       6.573  24.015  29.077  1.00  0.00     0.093 A 
ATOM     37  C   UNL     1       5.321  23.411  29.045  1.00  0.00     0.123 A 
BRANCH  28  38
ATOM     38  C   UNL     1       5.579  20.757  23.655  1.00  0.00     0.025 A 
ATOM     39  C   UNL     1       4.527  21.131  22.798  1.00  0.00     0.062 A 
ATOM     40  C   UNL     1       6.179  19.500  23.478  1.00  0.00     0.016 A 
ATOM     41  C   UNL     1       4.154  20.303  21.727  1.00  0.00     0.158 A 
ATOM     42  C   UNL     1       5.776  18.651  22.444  1.00  0.00     0.051 A 
ATOM     43  C   UNL     1       4.768  19.054  21.559  1.00  0.00     0.157 A 
BRANCH  41  44
ATOM     44  O   UNL     1       3.163  20.743  20.842  1.00  0.00    -0.504 OA
ATOM     45  H   UNL     1       3.271  20.642  19.842  1.00  0.00     0.293 HD
ENDBRANCH  41  44
BRANCH  43  46
ATOM     46  O   UNL     1       4.388  18.212  20.509  1.00  0.00    -0.504 OA
ATOM     47  H   UNL     1       4.181  18.578  19.589  1.00  0.00     0.293 HD
ENDBRANCH  43  46
ENDBRANCH  28  38
BRANCH  34  48
ATOM     48  O   UNL     1       8.731  24.441  28.082  1.00  0.00    -0.507 OA
ATOM     49  H   UNL     1       9.088  24.974  27.293  1.00  0.00     0.293 HD
ENDBRANCH  34  48
BRANCH  37  50
ATOM     50  O   UNL     1       4.438  23.616  30.103  1.00  0.00    -0.508 OA
ATOM     51  H   UNL     1       4.741  23.561  31.072  1.00  0.00     0.293 HD
ENDBRANCH  37  50
ENDBRANCH  26  27
ENDBRANCH   5  26
BRANCH   4  52
ATOM     52  O   UNL     1      10.112  23.534  21.418  1.00  0.00    -0.384 OA
ATOM     53  H   UNL     1       9.128  23.594  21.235  1.00  0.00     0.211 HD
ENDBRANCH   4  52
TORSDOF 16
ENDMDL
MODEL 9
REMARK VINA RESULT:    -5.183      4.151      6.978
REMARK INTER + INTRA:         -12.110
REMARK INTER:                  -8.682
REMARK INTRA:                  -3.428
REMARK UNBOUND:                -3.594
REMARK SMILES C[C@@H]1O[C@H](OC[C@H]2O[C@@H](Oc3c(-c4ccc(O)c(O)c4)oc4cc(O)cc(O)c4c3=O)[C@H](O)[C@@H](O)[C@@H]2O)[C@@H](O)[C@@H](O)[C@@H]1O
REMARK SMILES IDX 7 1 36 2 34 3 32 4 9 5 8 6 6 7 5 8 4 9 1 10 2 11 42 12 3 13
REMARK SMILES IDX 40 14 38 15 43 16 41 18 39 20 37 22 35 24 10 26 11 27 12 28
REMARK SMILES IDX 30 29 21 30 29 31 31 32 22 33 27 34 23 35 26 36 24 37 13 38
REMARK SMILES IDX 20 39 14 40 18 41 15 42 16 43 19 44 17 46 28 48 25 50 33 52
REMARK H PARENT 43 17 41 19 39 21 37 23 35 25 19 45 17 47 28 49 25 51 33 53
REMARK Flexibility Score: inf
ROOT
ATOM      1  C   UNL     1      10.968  19.061  26.380  1.00  0.00     0.180 C 
ATOM      2  C   UNL     1      11.753  19.773  25.232  1.00  0.00     0.177 C 
ATOM      3  C   UNL     1      10.942  20.956  24.679  1.00  0.00     0.180 C 
ATOM      4  C   UNL     1       9.548  20.454  24.205  1.00  0.00     0.214 C 
ATOM      5  C   UNL     1       9.004  19.338  25.135  1.00  0.00     0.339 C 
ATOM      6  O   UNL     1       9.603  19.466  26.412  1.00  0.00    -0.332 OA
ENDROOT
BRANCH   1   7
ATOM      7  C   UNL     1      11.615  19.294  27.781  1.00  0.00     0.198 C 
BRANCH   7   8
ATOM      8  O   UNL     1      12.123  20.614  27.921  1.00  0.00    -0.347 OA
BRANCH   8   9
ATOM      9  C   UNL     1      11.673  21.227  29.123  1.00  0.00     0.281 C 
ATOM     10  C   UNL     1      12.544  20.382  32.597  1.00  0.00     0.041 C 
ATOM     11  C   UNL     1      11.903  21.149  31.444  1.00  0.00     0.150 C 
ATOM     12  C   UNL     1      12.175  22.683  31.572  1.00  0.00     0.174 C 
ATOM     13  O   UNL     1      12.398  20.655  30.201  1.00  0.00    -0.344 OA
ATOM     14  C   UNL     1      11.515  23.417  30.385  1.00  0.00     0.179 C 
ATOM     15  C   UNL     1      11.938  22.749  29.055  1.00  0.00     0.202 C 
BRANCH  12  16
ATOM     16  O   UNL     1      13.555  23.012  31.610  1.00  0.00    -0.388 OA
ATOM     17  H   UNL     1      13.706  23.658  30.867  1.00  0.00     0.211 HD
ENDBRANCH  12  16
BRANCH  14  18
ATOM     18  O   UNL     1      10.103  23.366  30.520  1.00  0.00    -0.387 OA
ATOM     19  H   UNL     1       9.898  23.654  31.445  1.00  0.00     0.211 HD
ENDBRANCH  14  18
BRANCH  15  20
ATOM     20  O   UNL     1      11.238  23.296  27.964  1.00  0.00    -0.385 OA
ATOM     21  H   UNL     1      10.776  24.088  28.297  1.00  0.00     0.211 HD
ENDBRANCH  15  20
ENDBRANCH   8   9
ENDBRANCH   7   8
ENDBRANCH   1   7
BRANCH   2  22
ATOM     22  O   UNL     1      11.962  18.869  24.176  1.00  0.00    -0.387 OA
ATOM     23  H   UNL     1      12.835  18.409  24.355  1.00  0.00     0.211 HD
ENDBRANCH   2  22
BRANCH   3  24
ATOM     24  O   UNL     1      10.744  21.921  25.690  1.00  0.00    -0.387 OA
ATOM     25  H   UNL     1      11.647  22.157  26.059  1.00  0.00     0.211 HD
ENDBRANCH   3  24
BRANCH   5  26
ATOM     26  O   UNL     1       7.569  19.514  25.171  1.00  0.00    -0.454 OA
BRANCH  26  27
ATOM     27  C   UNL     1       6.636  20.098  24.287  1.00  0.00     0.214 A 
ATOM     28  C   UNL     1       6.065  21.335  24.665  1.00  0.00     0.180 A 
ATOM     29  C   UNL     1       6.169  19.495  23.086  1.00  0.00     0.239 A 
ATOM     30  O   UNL     1       5.001  21.793  24.014  1.00  0.00    -0.452 OA
ATOM     31  C   UNL     1       4.977  19.973  22.501  1.00  0.00     0.111 A 
ATOM     32  O   UNL     1       6.819  18.594  22.508  1.00  0.00    -0.285 OA
ATOM     33  C   UNL     1       4.429  21.169  23.004  1.00  0.00     0.146 A 
ATOM     34  C   UNL     1       4.286  19.273  21.474  1.00  0.00     0.134 A 
ATOM     35  C   UNL     1       3.263  21.692  22.452  1.00  0.00     0.094 A 
ATOM     36  C   UNL     1       3.096  19.807  20.960  1.00  0.00     0.093 A 
ATOM     37  C   UNL     1       2.599  21.017  21.430  1.00  0.00     0.123 A 
BRANCH  28  38
ATOM     38  C   UNL     1       6.653  22.222  25.705  1.00  0.00     0.025 A 
ATOM     39  C   UNL     1       6.705  21.894  27.072  1.00  0.00     0.062 A 
ATOM     40  C   UNL     1       7.234  23.428  25.278  1.00  0.00     0.016 A 
ATOM     41  C   UNL     1       7.410  22.706  27.973  1.00  0.00     0.158 A 
ATOM     42  C   UNL     1       7.895  24.265  26.181  1.00  0.00     0.051 A 
ATOM     43  C   UNL     1       7.993  23.902  27.530  1.00  0.00     0.157 A 
BRANCH  41  44
ATOM     44  O   UNL     1       7.515  22.306  29.309  1.00  0.00    -0.504 OA
ATOM     45  H   UNL     1       7.323  22.948  30.066  1.00  0.00     0.293 HD
ENDBRANCH  41  44
BRANCH  43  46
ATOM     46  O   UNL     1       8.678  24.731  28.425  1.00  0.00    -0.504 OA
ATOM     47  H   UNL     1       9.688  24.726  28.480  1.00  0.00     0.293 HD
ENDBRANCH  43  46
ENDBRANCH  28  38
BRANCH  34  48
ATOM     48  O   UNL     1       4.765  18.062  20.989  1.00  0.00    -0.507 OA
ATOM     49  H   UNL     1       5.717  17.976  20.643  1.00  0.00     0.293 HD
ENDBRANCH  34  48
BRANCH  37  50
ATOM     50  O   UNL     1       1.413  21.520  20.898  1.00  0.00    -0.508 OA
ATOM     51  H   UNL     1       0.718  21.980  21.480  1.00  0.00     0.293 HD
ENDBRANCH  37  50
ENDBRANCH  26  27
ENDBRANCH   5  26
BRANCH   4  52
ATOM     52  O   UNL     1       9.607  19.971  22.881  1.00  0.00    -0.384 OA
ATOM     53  H   UNL     1       9.462  18.981  22.939  1.00  0.00     0.211 HD
ENDBRANCH   4  52
TORSDOF 16
ENDMDL
