MODEL 1
REMARK VINA RESULT:    -5.072      0.000      0.000
REMARK INTER + INTRA:         -11.691
REMARK INTER:                  -9.223
REMARK INTRA:                  -2.468
REMARK UNBOUND:                -2.468
REMARK SMILES CCCCCCCCCCCCCCCC(=O)[O-]
REMARK SMILES IDX 9 1 10 2 11 3 12 4 13 5 14 6 15 7 16 8 17 9 18 10 8 11 7 12
REMARK SMILES IDX 6 13 5 14 4 15 3 16 2 17 1 18
REMARK H PARENT
REMARK Flexibility Score: inf
ROOT
ATOM      1  C   UNL     1      49.928  10.679  -4.760  1.00  0.00     0.000 C 
ENDROOT
BRANCH   1   2
ATOM      2  C   UNL     1      50.258   9.441  -5.609  1.00  0.00     0.000 C 
BRANCH   2   3
ATOM      3  C   UNL     1      50.068   9.689  -7.115  1.00  0.00     0.000 C 
BRANCH   3   4
ATOM      4  C   UNL     1      49.257   8.578  -7.809  1.00  0.00     0.000 C 
BRANCH   4   5
ATOM      5  C   UNL     1      47.934   9.035  -8.447  1.00  0.00     0.000 C 
BRANCH   5   6
ATOM      6  C   UNL     1      46.710   8.296  -7.886  1.00  0.00     0.006 C 
BRANCH   6   7
ATOM      7  C   UNL     1      46.307   8.861  -6.519  1.00  0.00     0.053 C 
BRANCH   7   8
ATOM      8  C   UNL     1      46.574   7.860  -5.440  1.00  0.00     0.041 C 
ATOM      9  O   UNL     1      47.190   8.202  -4.396  1.00  0.00    -0.550 OA
ATOM     10  O   UNL     1      46.098   6.562  -5.563  1.00  0.00    -0.550 OA
ENDBRANCH   7   8
ENDBRANCH   6   7
ENDBRANCH   5   6
ENDBRANCH   4   5
ENDBRANCH   3   4
ENDBRANCH   2   3
ENDBRANCH   1   2
BRANCH   1  11
ATOM     11  C   UNL     1      49.161  11.753  -5.548  1.00  0.00     0.000 C 
BRANCH  11  12
ATOM     12  C   UNL     1      47.838  12.102  -4.849  1.00  0.00    -0.000 C 
BRANCH  12  13
ATOM     13  C   UNL     1      46.705  12.411  -5.841  1.00  0.00    -0.000 C 
BRANCH  13  14
ATOM     14  C   UNL     1      47.196  12.484  -7.296  1.00  0.00    -0.000 C 
BRANCH  14  15
ATOM     15  C   UNL     1      46.061  12.759  -8.299  1.00  0.00    -0.000 C 
BRANCH  15  16
ATOM     16  C   UNL     1      46.099  11.906  -9.580  1.00  0.00    -0.000 C 
BRANCH  16  17
ATOM     17  C   UNL     1      44.765  11.207  -9.875  1.00  0.00    -0.003 C 
ATOM     18  C   UNL     1      43.860  11.212  -8.646  1.00  0.00     0.004 C 
ENDBRANCH  16  17
ENDBRANCH  15  16
ENDBRANCH  14  15
ENDBRANCH  13  14
ENDBRANCH  12  13
ENDBRANCH  11  12
ENDBRANCH   1  11
TORSDOF 14
ENDMDL
MODEL 2
REMARK VINA RESULT:    -5.006     16.835     19.228
REMARK INTER + INTRA:         -11.570
REMARK INTER:                  -9.046
REMARK INTRA:                  -2.524
REMARK UNBOUND:                -2.468
REMARK SMILES CCCCCCCCCCCCCCCC(=O)[O-]
REMARK SMILES IDX 9 1 10 2 11 3 12 4 13 5 14 6 15 7 16 8 17 9 18 10 8 11 7 12
REMARK SMILES IDX 6 13 5 14 4 15 3 16 2 17 1 18
REMARK H PARENT
REMARK Flexibility Score: inf
ROOT
ATOM      1  C   UNL     1      36.736   0.369   3.307  1.00  0.00     0.000 C 
ENDROOT
BRANCH   1   2
ATOM      2  C   UNL     1      35.351  -0.108   2.843  1.00  0.00     0.000 C 
BRANCH   2   3
ATOM      3  C   UNL     1      34.250   0.935   3.103  1.00  0.00     0.000 C 
BRANCH   3   4
ATOM      4  C   UNL     1      34.786   2.223   3.756  1.00  0.00     0.000 C 
BRANCH   4   5
ATOM      5  C   UNL     1      33.810   3.413   3.754  1.00  0.00     0.000 C 
BRANCH   5   6
ATOM      6  C   UNL     1      33.199   3.690   5.137  1.00  0.00     0.006 C 
BRANCH   6   7
ATOM      7  C   UNL     1      33.913   2.879   6.224  1.00  0.00     0.053 C 
BRANCH   7   8
ATOM      8  C   UNL     1      34.275   3.757   7.380  1.00  0.00     0.041 C 
ATOM      9  O   UNL     1      34.647   3.249   8.470  1.00  0.00    -0.550 OA
ATOM     10  O   UNL     1      34.250   5.138   7.237  1.00  0.00    -0.550 OA
ENDBRANCH   7   8
ENDBRANCH   6   7
ENDBRANCH   5   6
ENDBRANCH   4   5
ENDBRANCH   3   4
ENDBRANCH   2   3
ENDBRANCH   1   2
BRANCH   1  11
ATOM     11  C   UNL     1      37.421  -0.627   4.258  1.00  0.00     0.000 C 
BRANCH  11  12
ATOM     12  C   UNL     1      36.448  -1.094   5.351  1.00  0.00    -0.000 C 
BRANCH  12  13
ATOM     13  C   UNL     1      36.255  -0.049   6.462  1.00  0.00    -0.000 C 
BRANCH  13  14
ATOM     14  C   UNL     1      37.576   0.615   6.884  1.00  0.00    -0.000 C 
BRANCH  14  15
ATOM     15  C   UNL     1      37.586   2.137   6.646  1.00  0.00    -0.000 C 
BRANCH  15  16
ATOM     16  C   UNL     1      38.657   2.637   5.659  1.00  0.00    -0.000 C 
BRANCH  16  17
ATOM     17  C   UNL     1      38.091   3.575   4.584  1.00  0.00    -0.003 C 
ATOM     18  C   UNL     1      37.186   4.636   5.203  1.00  0.00     0.004 C 
ENDBRANCH  16  17
ENDBRANCH  15  16
ENDBRANCH  14  15
ENDBRANCH  13  14
ENDBRANCH  12  13
ENDBRANCH  11  12
ENDBRANCH   1  11
TORSDOF 14
ENDMDL
MODEL 3
REMARK VINA RESULT:    -4.981      1.987      4.439
REMARK INTER + INTRA:         -11.526
REMARK INTER:                  -8.863
REMARK INTRA:                  -2.663
REMARK UNBOUND:                -2.468
REMARK SMILES CCCCCCCCCCCCCCCC(=O)[O-]
REMARK SMILES IDX 9 1 10 2 11 3 12 4 13 5 14 6 15 7 16 8 17 9 18 10 8 11 7 12
REMARK SMILES IDX 6 13 5 14 4 15 3 16 2 17 1 18
REMARK H PARENT
REMARK Flexibility Score: inf
ROOT
ATOM      1  C   UNL     1      44.135  11.202  -8.842  1.00  0.00     0.000 C 
ENDROOT
BRANCH   1   2
ATOM      2  C   UNL     1      44.222   9.682  -8.626  1.00  0.00     0.000 C 
BRANCH   2   3
ATOM      3  C   UNL     1      45.391   9.043  -9.395  1.00  0.00     0.000 C 
BRANCH   3   4
ATOM      4  C   UNL     1      46.520   8.552  -8.469  1.00  0.00     0.000 C 
BRANCH   4   5
ATOM      5  C   UNL     1      47.854   9.307  -8.607  1.00  0.00     0.000 C 
BRANCH   5   6
ATOM      6  C   UNL     1      48.822   9.033  -7.445  1.00  0.00     0.006 C 
BRANCH   6   7
ATOM      7  C   UNL     1      49.971  10.046  -7.438  1.00  0.00     0.053 C 
BRANCH   7   8
ATOM      8  C   UNL     1      50.342  10.409  -6.035  1.00  0.00     0.041 C 
ATOM      9  O   UNL     1      50.690  11.586  -5.755  1.00  0.00    -0.550 OA
ATOM     10  O   UNL     1      50.256   9.459  -5.026  1.00  0.00    -0.550 OA
ENDBRANCH   7   8
ENDBRANCH   6   7
ENDBRANCH   5   6
ENDBRANCH   4   5
ENDBRANCH   3   4
ENDBRANCH   2   3
ENDBRANCH   1   2
BRANCH   1  11
ATOM     11  C   UNL     1      45.124  11.709  -9.904  1.00  0.00     0.000 C 
BRANCH  11  12
ATOM     12  C   UNL     1      46.199  12.602  -9.266  1.00  0.00    -0.000 C 
BRANCH  12  13
ATOM     13  C   UNL     1      45.988  12.802  -7.756  1.00  0.00    -0.000 C 
BRANCH  13  14
ATOM     14  C   UNL     1      47.270  12.562  -6.943  1.00  0.00    -0.000 C 
BRANCH  14  15
ATOM     15  C   UNL     1      46.995  11.962  -5.551  1.00  0.00    -0.000 C 
BRANCH  15  16
ATOM     16  C   UNL     1      45.893  10.888  -5.509  1.00  0.00    -0.000 C 
BRANCH  16  17
ATOM     17  C   UNL     1      44.672  11.313  -4.681  1.00  0.00    -0.003 C 
ATOM     18  C   UNL     1      43.450  10.470  -5.032  1.00  0.00     0.004 C 
ENDBRANCH  16  17
ENDBRANCH  15  16
ENDBRANCH  14  15
ENDBRANCH  13  14
ENDBRANCH  12  13
ENDBRANCH  11  12
ENDBRANCH   1  11
TORSDOF 14
ENDMDL
MODEL 4
REMARK VINA RESULT:    -4.959     17.150     19.412
REMARK INTER + INTRA:         -11.485
REMARK INTER:                  -9.072
REMARK INTRA:                  -2.413
REMARK UNBOUND:                -2.468
REMARK SMILES CCCCCCCCCCCCCCCC(=O)[O-]
REMARK SMILES IDX 9 1 10 2 11 3 12 4 13 5 14 6 15 7 16 8 17 9 18 10 8 11 7 12
REMARK SMILES IDX 6 13 5 14 4 15 3 16 2 17 1 18
REMARK H PARENT
REMARK Flexibility Score: inf
ROOT
ATOM      1  C   UNL     1      37.480   1.705   7.063  1.00  0.00     0.000 C 
ENDROOT
BRANCH   1   2
ATOM      2  C   UNL     1      37.606   0.414   6.237  1.00  0.00     0.000 C 
BRANCH   2   3
ATOM      3  C   UNL     1      36.366  -0.488   6.359  1.00  0.00     0.000 C 
BRANCH   3   4
ATOM      4  C   UNL     1      35.834  -0.963   4.994  1.00  0.00     0.000 C 
BRANCH   4   5
ATOM      5  C   UNL     1      34.445  -0.421   4.609  1.00  0.00     0.000 C 
BRANCH   5   6
ATOM      6  C   UNL     1      34.490   0.555   3.423  1.00  0.00     0.006 C 
BRANCH   6   7
ATOM      7  C   UNL     1      34.857   1.968   3.889  1.00  0.00     0.053 C 
BRANCH   7   8
ATOM      8  C   UNL     1      36.091   2.446   3.191  1.00  0.00     0.041 C 
ATOM      9  O   UNL     1      36.988   1.627   2.857  1.00  0.00    -0.550 OA
ATOM     10  O   UNL     1      36.229   3.788   2.864  1.00  0.00    -0.550 OA
ENDBRANCH   7   8
ENDBRANCH   6   7
ENDBRANCH   5   6
ENDBRANCH   4   5
ENDBRANCH   3   4
ENDBRANCH   2   3
ENDBRANCH   1   2
BRANCH   1  11
ATOM     11  C   UNL     1      37.996   2.944   6.313  1.00  0.00     0.000 C 
BRANCH  11  12
ATOM     12  C   UNL     1      37.027   4.125   6.479  1.00  0.00    -0.000 C 
BRANCH  12  13
ATOM     13  C   UNL     1      36.895   4.584   7.941  1.00  0.00    -0.000 C 
BRANCH  13  14
ATOM     14  C   UNL     1      35.452   4.491   8.462  1.00  0.00    -0.000 C 
BRANCH  14  15
ATOM     15  C   UNL     1      34.416   4.332   7.334  1.00  0.00    -0.000 C 
BRANCH  15  16
ATOM     16  C   UNL     1      33.642   3.001   7.339  1.00  0.00    -0.000 C 
BRANCH  16  17
ATOM     17  C   UNL     1      34.097   2.047   8.451  1.00  0.00    -0.003 C 
ATOM     18  C   UNL     1      33.426   0.683   8.314  1.00  0.00     0.004 C 
ENDBRANCH  16  17
ENDBRANCH  15  16
ENDBRANCH  14  15
ENDBRANCH  13  14
ENDBRANCH  12  13
ENDBRANCH  11  12
ENDBRANCH   1  11
TORSDOF 14
ENDMDL
MODEL 5
REMARK VINA RESULT:    -4.926     16.168     18.875
REMARK INTER + INTRA:         -11.425
REMARK INTER:                  -8.809
REMARK INTRA:                  -2.616
REMARK UNBOUND:                -2.468
REMARK SMILES CCCCCCCCCCCCCCCC(=O)[O-]
REMARK SMILES IDX 9 1 10 2 11 3 12 4 13 5 14 6 15 7 16 8 17 9 18 10 8 11 7 12
REMARK SMILES IDX 6 13 5 14 4 15 3 16 2 17 1 18
REMARK H PARENT
REMARK Flexibility Score: inf
ROOT
ATOM      1  C   UNL     1      35.019   3.103   8.359  1.00  0.00     0.000 C 
ENDROOT
BRANCH   1   2
ATOM      2  C   UNL     1      33.884   2.843   7.357  1.00  0.00     0.000 C 
BRANCH   2   3
ATOM      3  C   UNL     1      33.578   4.069   6.479  1.00  0.00     0.000 C 
BRANCH   3   4
ATOM      4  C   UNL     1      33.363   3.707   4.997  1.00  0.00     0.000 C 
BRANCH   4   5
ATOM      5  C   UNL     1      33.912   2.333   4.573  1.00  0.00     0.000 C 
BRANCH   5   6
ATOM      6  C   UNL     1      34.973   2.427   3.466  1.00  0.00     0.006 C 
BRANCH   6   7
ATOM      7  C   UNL     1      35.066   3.854   2.915  1.00  0.00     0.053 C 
BRANCH   7   8
ATOM      8  C   UNL     1      36.404   4.086   2.287  1.00  0.00     0.041 C 
ATOM      9  O   UNL     1      36.717   5.232   1.868  1.00  0.00    -0.550 OA
ATOM     10  O   UNL     1      37.323   3.050   2.207  1.00  0.00    -0.550 OA
ENDBRANCH   7   8
ENDBRANCH   6   7
ENDBRANCH   5   6
ENDBRANCH   4   5
ENDBRANCH   3   4
ENDBRANCH   2   3
ENDBRANCH   1   2
BRANCH   1  11
ATOM     11  C   UNL     1      35.780   4.408   8.071  1.00  0.00     0.000 C 
BRANCH  11  12
ATOM     12  C   UNL     1      37.200   4.112   7.565  1.00  0.00    -0.000 C 
BRANCH  12  13
ATOM     13  C   UNL     1      37.255   3.889   6.045  1.00  0.00    -0.000 C 
BRANCH  13  14
ATOM     14  C   UNL     1      38.005   2.602   5.663  1.00  0.00    -0.000 C 
BRANCH  14  15
ATOM     15  C   UNL     1      38.452   1.783   6.887  1.00  0.00    -0.000 C 
BRANCH  15  16
ATOM     16  C   UNL     1      37.767   0.412   7.042  1.00  0.00    -0.000 C 
BRANCH  16  17
ATOM     17  C   UNL     1      36.532   0.254   6.144  1.00  0.00    -0.003 C 
ATOM     18  C   UNL     1      36.780  -0.775   5.046  1.00  0.00     0.004 C 
ENDBRANCH  16  17
ENDBRANCH  15  16
ENDBRANCH  14  15
ENDBRANCH  13  14
ENDBRANCH  12  13
ENDBRANCH  11  12
ENDBRANCH   1  11
TORSDOF 14
ENDMDL
MODEL 6
REMARK VINA RESULT:    -4.918     16.130     18.884
REMARK INTER + INTRA:         -11.411
REMARK INTER:                  -9.489
REMARK INTRA:                  -1.922
REMARK UNBOUND:                -2.468
REMARK SMILES CCCCCCCCCCCCCCCC(=O)[O-]
REMARK SMILES IDX 9 1 10 2 11 3 12 4 13 5 14 6 15 7 16 8 17 9 18 10 8 11 7 12
REMARK SMILES IDX 6 13 5 14 4 15 3 16 2 17 1 18
REMARK H PARENT
REMARK Flexibility Score: inf
ROOT
ATOM      1  C   UNL     1      34.622   5.058   7.166  1.00  0.00     0.000 C 
ENDROOT
BRANCH   1   2
ATOM      2  C   UNL     1      35.506   4.658   8.358  1.00  0.00     0.000 C 
BRANCH   2   3
ATOM      3  C   UNL     1      36.988   4.511   7.971  1.00  0.00     0.000 C 
BRANCH   3   4
ATOM      4  C   UNL     1      37.304   3.156   7.310  1.00  0.00     0.000 C 
BRANCH   4   5
ATOM      5  C   UNL     1      37.482   3.200   5.782  1.00  0.00     0.000 C 
BRANCH   5   6
ATOM      6  C   UNL     1      38.830   2.626   5.318  1.00  0.00     0.006 C 
BRANCH   6   7
ATOM      7  C   UNL     1      39.504   3.559   4.307  1.00  0.00     0.053 C 
BRANCH   7   8
ATOM      8  C   UNL     1      40.799   2.975   3.838  1.00  0.00     0.041 C 
ATOM      9  O   UNL     1      40.909   2.543   2.660  1.00  0.00    -0.550 OA
ATOM     10  O   UNL     1      41.899   2.953   4.685  1.00  0.00    -0.550 OA
ENDBRANCH   7   8
ENDBRANCH   6   7
ENDBRANCH   5   6
ENDBRANCH   4   5
ENDBRANCH   3   4
ENDBRANCH   2   3
ENDBRANCH   1   2
BRANCH   1  11
ATOM     11  C   UNL     1      33.532   4.019   6.858  1.00  0.00     0.000 C 
BRANCH  11  12
ATOM     12  C   UNL     1      33.651   3.515   5.412  1.00  0.00    -0.000 C 
BRANCH  12  13
ATOM     13  C   UNL     1      33.949   2.009   5.329  1.00  0.00    -0.000 C 
BRANCH  13  14
ATOM     14  C   UNL     1      34.152   1.370   6.713  1.00  0.00    -0.000 C 
BRANCH  14  15
ATOM     15  C   UNL     1      34.538  -0.119   6.635  1.00  0.00    -0.000 C 
BRANCH  15  16
ATOM     16  C   UNL     1      36.014  -0.395   6.296  1.00  0.00    -0.000 C 
BRANCH  16  17
ATOM     17  C   UNL     1      36.195  -1.127   4.958  1.00  0.00    -0.003 C 
ATOM     18  C   UNL     1      37.424  -0.615   4.214  1.00  0.00     0.004 C 
ENDBRANCH  16  17
ENDBRANCH  15  16
ENDBRANCH  14  15
ENDBRANCH  13  14
ENDBRANCH  12  13
ENDBRANCH  11  12
ENDBRANCH   1  11
TORSDOF 14
ENDMDL
MODEL 7
REMARK VINA RESULT:    -4.891      1.982      5.102
REMARK INTER + INTRA:         -11.362
REMARK INTER:                  -9.071
REMARK INTRA:                  -2.291
REMARK UNBOUND:                -2.468
REMARK SMILES CCCCCCCCCCCCCCCC(=O)[O-]
REMARK SMILES IDX 9 1 10 2 11 3 12 4 13 5 14 6 15 7 16 8 17 9 18 10 8 11 7 12
REMARK SMILES IDX 6 13 5 14 4 15 3 16 2 17 1 18
REMARK H PARENT
REMARK Flexibility Score: inf
ROOT
ATOM      1  C   UNL     1      45.480  10.019  -9.784  1.00  0.00     0.000 C 
ENDROOT
BRANCH   1   2
ATOM      2  C   UNL     1      46.691  10.946  -9.975  1.00  0.00     0.000 C 
BRANCH   2   3
ATOM      3  C   UNL     1      46.423  12.378  -9.481  1.00  0.00     0.000 C 
BRANCH   3   4
ATOM      4  C   UNL     1      45.469  12.427  -8.272  1.00  0.00     0.000 C 
BRANCH   4   5
ATOM      5  C   UNL     1      45.849  13.443  -7.180  1.00  0.00     0.000 C 
BRANCH   5   6
ATOM      6  C   UNL     1      46.024  12.799  -5.796  1.00  0.00     0.006 C 
BRANCH   6   7
ATOM      7  C   UNL     1      45.580  11.332  -5.814  1.00  0.00     0.053 C 
BRANCH   7   8
ATOM      8  C   UNL     1      44.601  11.068  -4.714  1.00  0.00     0.041 C 
ATOM      9  O   UNL     1      43.977  12.021  -4.178  1.00  0.00    -0.550 OA
ATOM     10  O   UNL     1      44.341   9.764  -4.314  1.00  0.00    -0.550 OA
ENDBRANCH   7   8
ENDBRANCH   6   7
ENDBRANCH   5   6
ENDBRANCH   4   5
ENDBRANCH   3   4
ENDBRANCH   2   3
ENDBRANCH   1   2
BRANCH   1  11
ATOM     11  C   UNL     1      45.874   8.619  -9.288  1.00  0.00     0.000 C 
BRANCH  11  12
ATOM     12  C   UNL     1      46.715   8.710  -8.005  1.00  0.00    -0.000 C 
BRANCH  12  13
ATOM     13  C   UNL     1      47.973   7.828  -8.055  1.00  0.00    -0.000 C 
BRANCH  13  14
ATOM     14  C   UNL     1      49.258   8.613  -7.746  1.00  0.00    -0.000 C 
BRANCH  14  15
ATOM     15  C   UNL     1      49.149   9.466  -6.468  1.00  0.00    -0.000 C 
BRANCH  15  16
ATOM     16  C   UNL     1      49.976  10.764  -6.475  1.00  0.00    -0.000 C 
BRANCH  16  17
ATOM     17  C   UNL     1      49.310  11.895  -7.271  1.00  0.00    -0.003 C 
ATOM     18  C   UNL     1      50.069  12.177  -8.565  1.00  0.00     0.004 C 
ENDBRANCH  16  17
ENDBRANCH  15  16
ENDBRANCH  14  15
ENDBRANCH  13  14
ENDBRANCH  12  13
ENDBRANCH  11  12
ENDBRANCH   1  11
TORSDOF 14
ENDMDL
MODEL 8
REMARK VINA RESULT:    -4.873     16.424     19.135
REMARK INTER + INTRA:         -11.329
REMARK INTER:                  -8.608
REMARK INTRA:                  -2.721
REMARK UNBOUND:                -2.468
REMARK SMILES CCCCCCCCCCCCCCCC(=O)[O-]
REMARK SMILES IDX 9 1 10 2 11 3 12 4 13 5 14 6 15 7 16 8 17 9 18 10 8 11 7 12
REMARK SMILES IDX 6 13 5 14 4 15 3 16 2 17 1 18
REMARK H PARENT
REMARK Flexibility Score: inf
ROOT
ATOM      1  C   UNL     1      36.219   4.047   7.338  1.00  0.00     0.000 C 
ENDROOT
BRANCH   1   2
ATOM      2  C   UNL     1      35.130   3.195   8.010  1.00  0.00     0.000 C 
BRANCH   2   3
ATOM      3  C   UNL     1      33.786   3.260   7.266  1.00  0.00     0.000 C 
BRANCH   3   4
ATOM      4  C   UNL     1      33.923   3.787   5.825  1.00  0.00     0.000 C 
BRANCH   4   5
ATOM      5  C   UNL     1      33.519   2.790   4.724  1.00  0.00     0.000 C 
BRANCH   5   6
ATOM      6  C   UNL     1      34.485   2.793   3.529  1.00  0.00     0.006 C 
BRANCH   6   7
ATOM      7  C   UNL     1      35.377   4.038   3.548  1.00  0.00     0.053 C 
BRANCH   7   8
ATOM      8  C   UNL     1      36.281   4.055   2.355  1.00  0.00     0.041 C 
ATOM      9  O   UNL     1      37.184   3.186   2.233  1.00  0.00    -0.550 OA
ATOM     10  O   UNL     1      36.093   4.998   1.355  1.00  0.00    -0.550 OA
ENDBRANCH   7   8
ENDBRANCH   6   7
ENDBRANCH   5   6
ENDBRANCH   4   5
ENDBRANCH   3   4
ENDBRANCH   2   3
ENDBRANCH   1   2
BRANCH   1  11
ATOM     11  C   UNL     1      37.587   3.348   7.306  1.00  0.00     0.000 C 
BRANCH  11  12
ATOM     12  C   UNL     1      38.011   3.043   5.862  1.00  0.00    -0.000 C 
BRANCH  12  13
ATOM     13  C   UNL     1      37.638   1.618   5.421  1.00  0.00    -0.000 C 
BRANCH  13  14
ATOM     14  C   UNL     1      37.605   0.625   6.594  1.00  0.00    -0.000 C 
BRANCH  14  15
ATOM     15  C   UNL     1      36.391  -0.321   6.546  1.00  0.00    -0.000 C 
BRANCH  15  16
ATOM     16  C   UNL     1      35.787  -0.539   5.147  1.00  0.00    -0.000 C 
BRANCH  16  17
ATOM     17  C   UNL     1      34.267  -0.751   5.176  1.00  0.00    -0.003 C 
ATOM     18  C   UNL     1      33.692  -0.408   6.548  1.00  0.00     0.004 C 
ENDBRANCH  16  17
ENDBRANCH  15  16
ENDBRANCH  14  15
ENDBRANCH  13  14
ENDBRANCH  12  13
ENDBRANCH  11  12
ENDBRANCH   1  11
TORSDOF 14
ENDMDL
MODEL 9
REMARK VINA RESULT:    -4.871      1.815      4.923
REMARK INTER + INTRA:         -11.326
REMARK INTER:                  -8.710
REMARK INTRA:                  -2.616
REMARK UNBOUND:                -2.468
REMARK SMILES CCCCCCCCCCCCCCCC(=O)[O-]
REMARK SMILES IDX 9 1 10 2 11 3 12 4 13 5 14 6 15 7 16 8 17 9 18 10 8 11 7 12
REMARK SMILES IDX 6 13 5 14 4 15 3 16 2 17 1 18
REMARK H PARENT
REMARK Flexibility Score: inf
ROOT
ATOM      1  C   UNL     1      44.836  11.384  -9.612  1.00  0.00     0.000 C 
ENDROOT
BRANCH   1   2
ATOM      2  C   UNL     1      45.862  12.469  -9.248  1.00  0.00     0.000 C 
BRANCH   2   3
ATOM      3  C   UNL     1      45.895  12.768  -7.739  1.00  0.00     0.000 C 
BRANCH   3   4
ATOM      4  C   UNL     1      47.170  12.245  -7.052  1.00  0.00     0.000 C 
BRANCH   4   5
ATOM      5  C   UNL     1      47.194  12.391  -5.519  1.00  0.00     0.000 C 
BRANCH   5   6
ATOM      6  C   UNL     1      48.296  11.552  -4.854  1.00  0.00     0.006 C 
BRANCH   6   7
ATOM      7  C   UNL     1      49.574  11.557  -5.699  1.00  0.00     0.053 C 
BRANCH   7   8
ATOM      8  C   UNL     1      50.001  10.158  -6.012  1.00  0.00     0.041 C 
ATOM      9  O   UNL     1      49.937   9.263  -5.129  1.00  0.00    -0.550 OA
ATOM     10  O   UNL     1      50.423   9.831  -7.294  1.00  0.00    -0.550 OA
ENDBRANCH   7   8
ENDBRANCH   6   7
ENDBRANCH   5   6
ENDBRANCH   4   5
ENDBRANCH   3   4
ENDBRANCH   2   3
ENDBRANCH   1   2
BRANCH   1  11
ATOM     11  C   UNL     1      45.483  10.142 -10.246  1.00  0.00     0.000 C 
BRANCH  11  12
ATOM     12  C   UNL     1      45.606   9.006  -9.219  1.00  0.00    -0.000 C 
BRANCH  12  13
ATOM     13  C   UNL     1      46.969   8.994  -8.507  1.00  0.00    -0.000 C 
BRANCH  13  14
ATOM     14  C   UNL     1      46.895   8.376  -7.101  1.00  0.00    -0.000 C 
BRANCH  14  15
ATOM     15  C   UNL     1      45.461   8.327  -6.542  1.00  0.00    -0.000 C 
BRANCH  15  16
ATOM     16  C   UNL     1      45.130   9.407  -5.496  1.00  0.00    -0.000 C 
BRANCH  16  17
ATOM     17  C   UNL     1      44.014  10.358  -5.949  1.00  0.00    -0.003 C 
ATOM     18  C   UNL     1      42.917   9.603  -6.694  1.00  0.00     0.004 C 
ENDBRANCH  16  17
ENDBRANCH  15  16
ENDBRANCH  14  15
ENDBRANCH  13  14
ENDBRANCH  12  13
ENDBRANCH  11  12
ENDBRANCH   1  11
TORSDOF 14
ENDMDL
