MODEL 1
REMARK VINA RESULT:    -6.257      0.000      0.000
REMARK INTER + INTRA:          -7.801
REMARK INTER:                  -7.537
REMARK INTRA:                  -0.264
REMARK UNBOUND:                -0.264
REMARK SMILES O=c1c(O)c(-c2ccc(O)c(O)c2)oc2cc(O)cc(O)c12
REMARK SMILES IDX 5 1 3 2 2 3 1 4 22 5 20 6 19 7 17 8 16 9 15 10 14 11 6 12
REMARK SMILES IDX 7 13 8 14 9 15 13 16 11 17 10 18 12 20 4 22 21 24 18 26
REMARK H PARENT 10 19 12 21 4 23 21 25 18 27
REMARK Flexibility Score: inf
ROOT
ATOM      1  C   UNL     1     -18.822  17.396  -2.266  1.00  0.00     0.180 A 
ATOM      2  C   UNL     1     -18.150  18.619  -2.077  1.00  0.00     0.208 A 
ATOM      3  C   UNL     1     -18.877  19.728  -1.615  1.00  0.00     0.238 A 
ATOM      4  O   UNL     1     -18.283  20.826  -1.432  1.00  0.00    -0.285 OA
ATOM      5  C   UNL     1     -20.259  19.602  -1.369  1.00  0.00     0.111 A 
ATOM      6  C   UNL     1     -21.064  20.671  -0.907  1.00  0.00     0.134 A 
ATOM      7  C   UNL     1     -22.436  20.469  -0.695  1.00  0.00     0.093 A 
ATOM      8  C   UNL     1     -23.017  19.222  -0.937  1.00  0.00     0.123 A 
ATOM      9  C   UNL     1     -22.227  18.162  -1.394  1.00  0.00     0.094 A 
ATOM     10  C   UNL     1     -20.858  18.343  -1.609  1.00  0.00     0.146 A 
ATOM     11  O   UNL     1     -20.130  17.318  -2.038  1.00  0.00    -0.452 OA
ENDROOT
BRANCH   1  12
ATOM     12  C   UNL     1     -18.122  16.177  -2.732  1.00  0.00     0.025 A 
ATOM     13  C   UNL     1     -17.783  16.053  -4.088  1.00  0.00     0.016 A 
ATOM     14  C   UNL     1     -17.140  14.902  -4.554  1.00  0.00     0.051 A 
ATOM     15  C   UNL     1     -16.842  13.853  -3.673  1.00  0.00     0.157 A 
ATOM     16  C   UNL     1     -17.840  15.114  -1.856  1.00  0.00     0.062 A 
ATOM     17  C   UNL     1     -17.199  13.959  -2.319  1.00  0.00     0.158 A 
BRANCH  15  18
ATOM     18  O   UNL     1     -16.200  12.708  -4.141  1.00  0.00    -0.504 OA
ATOM     19  H   UNL     1     -15.221  12.531  -3.946  1.00  0.00     0.293 HD
ENDBRANCH  15  18
BRANCH  17  20
ATOM     20  O   UNL     1     -16.930  12.927  -1.420  1.00  0.00    -0.504 OA
ATOM     21  H   UNL     1     -16.326  12.150  -1.659  1.00  0.00     0.293 HD
ENDBRANCH  17  20
ENDBRANCH   1  12
BRANCH   2  22
ATOM     22  O   UNL     1     -16.789  18.731  -2.375  1.00  0.00    -0.502 OA
ATOM     23  H   UNL     1     -16.098  18.961  -1.672  1.00  0.00     0.293 HD
ENDBRANCH   2  22
BRANCH   6  24
ATOM     24  O   UNL     1     -20.513  21.929  -0.658  1.00  0.00    -0.507 OA
ATOM     25  H   UNL     1     -21.070  22.691  -0.287  1.00  0.00     0.293 HD
ENDBRANCH   6  24
BRANCH   8  26
ATOM     26  O   UNL     1     -24.382  19.048  -0.720  1.00  0.00    -0.508 OA
ATOM     27  H   UNL     1     -25.032  18.940  -1.490  1.00  0.00     0.293 HD
ENDBRANCH   8  26
TORSDOF 6
ENDMDL
MODEL 2
REMARK VINA RESULT:    -6.182      1.683      7.239
REMARK INTER + INTRA:          -7.711
REMARK INTER:                  -7.379
REMARK INTRA:                  -0.331
REMARK UNBOUND:                -0.264
REMARK SMILES O=c1c(O)c(-c2ccc(O)c(O)c2)oc2cc(O)cc(O)c12
REMARK SMILES IDX 5 1 3 2 2 3 1 4 22 5 20 6 19 7 17 8 16 9 15 10 14 11 6 12
REMARK SMILES IDX 7 13 8 14 9 15 13 16 11 17 10 18 12 20 4 22 21 24 18 26
REMARK H PARENT 10 19 12 21 4 23 21 25 18 27
REMARK Flexibility Score: inf
ROOT
ATOM      1  C   UNL     1     -18.653  16.373  -1.821  1.00  0.00     0.180 A 
ATOM      2  C   UNL     1     -18.618  15.549  -0.679  1.00  0.00     0.208 A 
ATOM      3  C   UNL     1     -17.905  14.341  -0.737  1.00  0.00     0.238 A 
ATOM      4  O   UNL     1     -17.858  13.600   0.283  1.00  0.00    -0.285 OA
ATOM      5  C   UNL     1     -17.259  13.969  -1.933  1.00  0.00     0.111 A 
ATOM      6  C   UNL     1     -16.524  12.767  -2.075  1.00  0.00     0.134 A 
ATOM      7  C   UNL     1     -15.917  12.463  -3.303  1.00  0.00     0.093 A 
ATOM      8  C   UNL     1     -16.031  13.334  -4.388  1.00  0.00     0.123 A 
ATOM      9  C   UNL     1     -16.756  14.523  -4.255  1.00  0.00     0.094 A 
ATOM     10  C   UNL     1     -17.367  14.844  -3.038  1.00  0.00     0.146 A 
ATOM     11  O   UNL     1     -18.044  15.982  -2.937  1.00  0.00    -0.452 OA
ENDROOT
BRANCH   1  12
ATOM     12  C   UNL     1     -19.367  17.670  -1.833  1.00  0.00     0.025 A 
ATOM     13  C   UNL     1     -20.707  17.716  -2.247  1.00  0.00     0.016 A 
ATOM     14  C   UNL     1     -21.394  18.932  -2.287  1.00  0.00     0.051 A 
ATOM     15  C   UNL     1     -20.746  20.122  -1.928  1.00  0.00     0.157 A 
ATOM     16  C   UNL     1     -18.714  18.869  -1.494  1.00  0.00     0.062 A 
ATOM     17  C   UNL     1     -19.399  20.089  -1.534  1.00  0.00     0.158 A 
BRANCH  15  18
ATOM     18  O   UNL     1     -21.436  21.333  -1.966  1.00  0.00    -0.504 OA
ATOM     19  H   UNL     1     -22.022  21.635  -1.197  1.00  0.00     0.293 HD
ENDBRANCH  15  18
BRANCH  17  20
ATOM     20  O   UNL     1     -18.721  21.258  -1.185  1.00  0.00    -0.504 OA
ATOM     21  H   UNL     1     -17.758  21.248  -0.873  1.00  0.00     0.293 HD
ENDBRANCH  17  20
ENDBRANCH   1  12
BRANCH   2  22
ATOM     22  O   UNL     1     -19.307  15.917   0.479  1.00  0.00    -0.502 OA
ATOM     23  H   UNL     1     -19.382  15.306   1.283  1.00  0.00     0.293 HD
ENDBRANCH   2  22
BRANCH   6  24
ATOM     24  O   UNL     1     -16.393  11.875  -1.010  1.00  0.00    -0.507 OA
ATOM     25  H   UNL     1     -16.772  10.936  -1.051  1.00  0.00     0.293 HD
ENDBRANCH   6  24
BRANCH   8  26
ATOM     26  O   UNL     1     -15.420  13.008  -5.597  1.00  0.00    -0.508 OA
ATOM     27  H   UNL     1     -15.766  12.254  -6.180  1.00  0.00     0.293 HD
ENDBRANCH   8  26
TORSDOF 6
ENDMDL
MODEL 3
REMARK VINA RESULT:    -6.170      2.492      6.819
REMARK INTER + INTRA:          -7.696
REMARK INTER:                  -7.602
REMARK INTRA:                  -0.094
REMARK UNBOUND:                -0.264
REMARK SMILES O=c1c(O)c(-c2ccc(O)c(O)c2)oc2cc(O)cc(O)c12
REMARK SMILES IDX 5 1 3 2 2 3 1 4 22 5 20 6 19 7 17 8 16 9 15 10 14 11 6 12
REMARK SMILES IDX 7 13 8 14 9 15 13 16 11 17 10 18 12 20 4 22 21 24 18 26
REMARK H PARENT 10 19 12 21 4 23 21 25 18 27
REMARK Flexibility Score: inf
ROOT
ATOM      1  C   UNL     1     -20.417  17.133  -2.119  1.00  0.00     0.180 A 
ATOM      2  C   UNL     1     -19.025  17.008  -2.296  1.00  0.00     0.208 A 
ATOM      3  C   UNL     1     -18.522  15.850  -2.912  1.00  0.00     0.238 A 
ATOM      4  O   UNL     1     -17.278  15.732  -3.085  1.00  0.00    -0.285 OA
ATOM      5  C   UNL     1     -19.411  14.835  -3.321  1.00  0.00     0.111 A 
ATOM      6  C   UNL     1     -18.984  13.638  -3.945  1.00  0.00     0.134 A 
ATOM      7  C   UNL     1     -19.930  12.670  -4.314  1.00  0.00     0.093 A 
ATOM      8  C   UNL     1     -21.290  12.876  -4.072  1.00  0.00     0.123 A 
ATOM      9  C   UNL     1     -21.718  14.056  -3.456  1.00  0.00     0.094 A 
ATOM     10  C   UNL     1     -20.790  15.034  -3.082  1.00  0.00     0.146 A 
ATOM     11  O   UNL     1     -21.224  16.148  -2.505  1.00  0.00    -0.452 OA
ENDROOT
BRANCH   1  12
ATOM     12  C   UNL     1     -21.026  18.330  -1.496  1.00  0.00     0.025 A 
ATOM     13  C   UNL     1     -21.903  18.173  -0.412  1.00  0.00     0.016 A 
ATOM     14  C   UNL     1     -22.505  19.287   0.178  1.00  0.00     0.051 A 
ATOM     15  C   UNL     1     -22.251  20.573  -0.317  1.00  0.00     0.157 A 
ATOM     16  C   UNL     1     -20.790  19.620  -2.004  1.00  0.00     0.062 A 
ATOM     17  C   UNL     1     -21.393  20.739  -1.417  1.00  0.00     0.158 A 
BRANCH  15  18
ATOM     18  O   UNL     1     -22.852  21.683   0.275  1.00  0.00    -0.504 OA
ATOM     19  H   UNL     1     -22.332  22.531   0.463  1.00  0.00     0.293 HD
ENDBRANCH  15  18
BRANCH  17  20
ATOM     20  O   UNL     1     -21.132  22.004  -1.943  1.00  0.00    -0.504 OA
ATOM     21  H   UNL     1     -21.221  22.204  -2.932  1.00  0.00     0.293 HD
ENDBRANCH  17  20
ENDBRANCH   1  12
BRANCH   2  22
ATOM     22  O   UNL     1     -18.162  18.006  -1.838  1.00  0.00    -0.502 OA
ATOM     23  H   UNL     1     -17.726  18.674  -2.461  1.00  0.00     0.293 HD
ENDBRANCH   2  22
BRANCH   6  24
ATOM     24  O   UNL     1     -17.632  13.402  -4.198  1.00  0.00    -0.507 OA
ATOM     25  H   UNL     1     -17.303  12.508  -4.544  1.00  0.00     0.293 HD
ENDBRANCH   6  24
BRANCH   8  26
ATOM     26  O   UNL     1     -22.209  11.898  -4.448  1.00  0.00    -0.508 OA
ATOM     27  H   UNL     1     -21.998  10.911  -4.362  1.00  0.00     0.293 HD
ENDBRANCH   8  26
TORSDOF 6
ENDMDL
MODEL 4
REMARK VINA RESULT:    -6.046      1.312      2.962
REMARK INTER + INTRA:          -7.546
REMARK INTER:                  -7.279
REMARK INTRA:                  -0.267
REMARK UNBOUND:                -0.264
REMARK SMILES O=c1c(O)c(-c2ccc(O)c(O)c2)oc2cc(O)cc(O)c12
REMARK SMILES IDX 5 1 3 2 2 3 1 4 22 5 20 6 19 7 17 8 16 9 15 10 14 11 6 12
REMARK SMILES IDX 7 13 8 14 9 15 13 16 11 17 10 18 12 20 4 22 21 24 18 26
REMARK H PARENT 10 19 12 21 4 23 21 25 18 27
REMARK Flexibility Score: inf
ROOT
ATOM      1  C   UNL     1     -19.549  16.251  -2.457  1.00  0.00     0.180 A 
ATOM      2  C   UNL     1     -20.897  15.852  -2.379  1.00  0.00     0.208 A 
ATOM      3  C   UNL     1     -21.861  16.795  -1.987  1.00  0.00     0.238 A 
ATOM      4  O   UNL     1     -23.074  16.452  -1.923  1.00  0.00    -0.285 OA
ATOM      5  C   UNL     1     -21.461  18.108  -1.663  1.00  0.00     0.111 A 
ATOM      6  C   UNL     1     -22.369  19.115  -1.256  1.00  0.00     0.134 A 
ATOM      7  C   UNL     1     -21.892  20.396  -0.941  1.00  0.00     0.093 A 
ATOM      8  C   UNL     1     -20.529  20.688  -1.024  1.00  0.00     0.123 A 
ATOM      9  C   UNL     1     -19.627  19.697  -1.426  1.00  0.00     0.094 A 
ATOM     10  C   UNL     1     -20.084  18.415  -1.746  1.00  0.00     0.146 A 
ATOM     11  O   UNL     1     -19.207  17.494  -2.130  1.00  0.00    -0.452 OA
ENDROOT
BRANCH   1  12
ATOM     12  C   UNL     1     -18.477  15.321  -2.880  1.00  0.00     0.025 A 
ATOM     13  C   UNL     1     -17.975  15.397  -4.189  1.00  0.00     0.016 A 
ATOM     14  C   UNL     1     -16.978  14.515  -4.616  1.00  0.00     0.051 A 
ATOM     15  C   UNL     1     -16.481  13.536  -3.746  1.00  0.00     0.157 A 
ATOM     16  C   UNL     1     -17.991  14.323  -2.017  1.00  0.00     0.062 A 
ATOM     17  C   UNL     1     -16.993  13.437  -2.442  1.00  0.00     0.158 A 
BRANCH  15  18
ATOM     18  O   UNL     1     -15.485  12.660  -4.175  1.00  0.00    -0.504 OA
ATOM     19  H   UNL     1     -14.658  12.991  -4.658  1.00  0.00     0.293 HD
ENDBRANCH  15  18
BRANCH  17  20
ATOM     20  O   UNL     1     -16.530  12.463  -1.557  1.00  0.00    -0.504 OA
ATOM     21  H   UNL     1     -16.932  12.340  -0.636  1.00  0.00     0.293 HD
ENDBRANCH  17  20
ENDBRANCH   1  12
BRANCH   2  22
ATOM     22  O   UNL     1     -21.261  14.533  -2.658  1.00  0.00    -0.502 OA
ATOM     23  H   UNL     1     -21.105  13.777  -2.003  1.00  0.00     0.293 HD
ENDBRANCH   2  22
BRANCH   6  24
ATOM     24  O   UNL     1     -23.737  18.854  -1.161  1.00  0.00    -0.507 OA
ATOM     25  H   UNL     1     -24.429  19.581  -1.300  1.00  0.00     0.293 HD
ENDBRANCH   6  24
BRANCH   8  26
ATOM     26  O   UNL     1     -20.080  21.968  -0.705  1.00  0.00    -0.508 OA
ATOM     27  H   UNL     1     -19.782  22.206   0.234  1.00  0.00     0.293 HD
ENDBRANCH   8  26
TORSDOF 6
ENDMDL
MODEL 5
REMARK VINA RESULT:    -5.920      2.390      7.456
REMARK INTER + INTRA:          -7.395
REMARK INTER:                  -7.351
REMARK INTRA:                  -0.044
REMARK UNBOUND:                -0.264
REMARK SMILES O=c1c(O)c(-c2ccc(O)c(O)c2)oc2cc(O)cc(O)c12
REMARK SMILES IDX 5 1 3 2 2 3 1 4 22 5 20 6 19 7 17 8 16 9 15 10 14 11 6 12
REMARK SMILES IDX 7 13 8 14 9 15 13 16 11 17 10 18 12 20 4 22 21 24 18 26
REMARK H PARENT 10 19 12 21 4 23 21 25 18 27
REMARK Flexibility Score: inf
ROOT
ATOM      1  C   UNL     1     -21.111  16.650  -2.286  1.00  0.00     0.180 A 
ATOM      2  C   UNL     1     -22.110  15.790  -2.782  1.00  0.00     0.208 A 
ATOM      3  C   UNL     1     -21.739  14.521  -3.256  1.00  0.00     0.238 A 
ATOM      4  O   UNL     1     -22.627  13.739  -3.692  1.00  0.00    -0.285 OA
ATOM      5  C   UNL     1     -20.381  14.142  -3.245  1.00  0.00     0.111 A 
ATOM      6  C   UNL     1     -19.925  12.885  -3.708  1.00  0.00     0.134 A 
ATOM      7  C   UNL     1     -18.554  12.586  -3.673  1.00  0.00     0.093 A 
ATOM      8  C   UNL     1     -17.635  13.517  -3.186  1.00  0.00     0.123 A 
ATOM      9  C   UNL     1     -18.080  14.761  -2.727  1.00  0.00     0.094 A 
ATOM     10  C   UNL     1     -19.442  15.078  -2.752  1.00  0.00     0.146 A 
ATOM     11  O   UNL     1     -19.838  16.263  -2.305  1.00  0.00    -0.452 OA
ENDROOT
BRANCH   1  12
ATOM     12  C   UNL     1     -21.424  17.995  -1.752  1.00  0.00     0.025 A 
ATOM     13  C   UNL     1     -22.380  18.127  -0.733  1.00  0.00     0.016 A 
ATOM     14  C   UNL     1     -22.707  19.389  -0.229  1.00  0.00     0.051 A 
ATOM     15  C   UNL     1     -22.093  20.537  -0.747  1.00  0.00     0.157 A 
ATOM     16  C   UNL     1     -20.826  19.151  -2.284  1.00  0.00     0.062 A 
ATOM     17  C   UNL     1     -21.152  20.417  -1.782  1.00  0.00     0.158 A 
BRANCH  15  18
ATOM     18  O   UNL     1     -22.420  21.794  -0.240  1.00  0.00    -0.504 OA
ATOM     19  H   UNL     1     -21.710  22.424   0.115  1.00  0.00     0.293 HD
ENDBRANCH  15  18
BRANCH  17  20
ATOM     20  O   UNL     1     -20.535  21.542  -2.330  1.00  0.00    -0.504 OA
ATOM     21  H   UNL     1     -20.846  22.482  -2.117  1.00  0.00     0.293 HD
ENDBRANCH  17  20
ENDBRANCH   1  12
BRANCH   2  22
ATOM     22  O   UNL     1     -23.443  16.208  -2.828  1.00  0.00    -0.502 OA
ATOM     23  H   UNL     1     -23.854  16.619  -3.656  1.00  0.00     0.293 HD
ENDBRANCH   2  22
BRANCH   6  24
ATOM     24  O   UNL     1     -20.819  11.934  -4.202  1.00  0.00    -0.507 OA
ATOM     25  H   UNL     1     -21.820  12.025  -4.072  1.00  0.00     0.293 HD
ENDBRANCH   6  24
BRANCH   8  26
ATOM     26  O   UNL     1     -16.280  13.196  -3.163  1.00  0.00    -0.508 OA
ATOM     27  H   UNL     1     -15.597  13.742  -3.675  1.00  0.00     0.293 HD
ENDBRANCH   8  26
TORSDOF 6
ENDMDL
MODEL 6
REMARK VINA RESULT:    -5.703      1.520      3.371
REMARK INTER + INTRA:          -7.133
REMARK INTER:                  -6.818
REMARK INTRA:                  -0.315
REMARK UNBOUND:                -0.264
REMARK SMILES O=c1c(O)c(-c2ccc(O)c(O)c2)oc2cc(O)cc(O)c12
REMARK SMILES IDX 5 1 3 2 2 3 1 4 22 5 20 6 19 7 17 8 16 9 15 10 14 11 6 12
REMARK SMILES IDX 7 13 8 14 9 15 13 16 11 17 10 18 12 20 4 22 21 24 18 26
REMARK H PARENT 10 19 12 21 4 23 21 25 18 27
REMARK Flexibility Score: inf
ROOT
ATOM      1  C   UNL     1     -19.414  15.846  -2.241  1.00  0.00     0.180 A 
ATOM      2  C   UNL     1     -20.781  15.523  -2.340  1.00  0.00     0.208 A 
ATOM      3  C   UNL     1     -21.734  16.524  -2.092  1.00  0.00     0.238 A 
ATOM      4  O   UNL     1     -22.961  16.249  -2.187  1.00  0.00    -0.285 OA
ATOM      5  C   UNL     1     -21.307  17.819  -1.732  1.00  0.00     0.111 A 
ATOM      6  C   UNL     1     -22.203  18.882  -1.462  1.00  0.00     0.134 A 
ATOM      7  C   UNL     1     -21.700  20.141  -1.100  1.00  0.00     0.093 A 
ATOM      8  C   UNL     1     -20.324  20.357  -1.004  1.00  0.00     0.123 A 
ATOM      9  C   UNL     1     -19.434  19.311  -1.270  1.00  0.00     0.094 A 
ATOM     10  C   UNL     1     -19.916  18.049  -1.633  1.00  0.00     0.146 A 
ATOM     11  O   UNL     1     -19.049  17.075  -1.886  1.00  0.00    -0.452 OA
ENDROOT
BRANCH   1  12
ATOM     12  C   UNL     1     -18.349  14.852  -2.506  1.00  0.00     0.025 A 
ATOM     13  C   UNL     1     -17.927  14.001  -1.473  1.00  0.00     0.016 A 
ATOM     14  C   UNL     1     -16.910  13.070  -1.694  1.00  0.00     0.051 A 
ATOM     15  C   UNL     1     -16.289  12.986  -2.948  1.00  0.00     0.157 A 
ATOM     16  C   UNL     1     -17.709  14.780  -3.756  1.00  0.00     0.062 A 
ATOM     17  C   UNL     1     -16.688  13.849  -3.982  1.00  0.00     0.158 A 
BRANCH  15  18
ATOM     18  O   UNL     1     -15.276  12.054  -3.166  1.00  0.00    -0.504 OA
ATOM     19  H   UNL     1     -14.297  12.305  -3.090  1.00  0.00     0.293 HD
ENDBRANCH  15  18
BRANCH  17  20
ATOM     20  O   UNL     1     -16.080  13.801  -5.236  1.00  0.00    -0.504 OA
ATOM     21  H   UNL     1     -16.488  14.245  -6.049  1.00  0.00     0.293 HD
ENDBRANCH  17  20
ENDBRANCH   1  12
BRANCH   2  22
ATOM     22  O   UNL     1     -21.178  14.220  -2.650  1.00  0.00    -0.502 OA
ATOM     23  H   UNL     1     -22.137  13.984  -2.873  1.00  0.00     0.293 HD
ENDBRANCH   2  22
BRANCH   6  24
ATOM     24  O   UNL     1     -23.584  18.697  -1.549  1.00  0.00    -0.507 OA
ATOM     25  H   UNL     1     -24.176  18.713  -0.726  1.00  0.00     0.293 HD
ENDBRANCH   6  24
BRANCH   8  26
ATOM     26  O   UNL     1     -19.851  21.616  -0.642  1.00  0.00    -0.508 OA
ATOM     27  H   UNL     1     -20.444  22.291  -0.173  1.00  0.00     0.293 HD
ENDBRANCH   8  26
TORSDOF 6
ENDMDL
MODEL 7
REMARK VINA RESULT:    -5.689      3.380      7.092
REMARK INTER + INTRA:          -7.117
REMARK INTER:                  -6.797
REMARK INTRA:                  -0.320
REMARK UNBOUND:                -0.264
REMARK SMILES O=c1c(O)c(-c2ccc(O)c(O)c2)oc2cc(O)cc(O)c12
REMARK SMILES IDX 5 1 3 2 2 3 1 4 22 5 20 6 19 7 17 8 16 9 15 10 14 11 6 12
REMARK SMILES IDX 7 13 8 14 9 15 13 16 11 17 10 18 12 20 4 22 21 24 18 26
REMARK H PARENT 10 19 12 21 4 23 21 25 18 27
REMARK Flexibility Score: inf
ROOT
ATOM      1  C   UNL     1     -21.970  16.931  -1.679  1.00  0.00     0.180 A 
ATOM      2  C   UNL     1     -23.267  16.650  -1.208  1.00  0.00     0.208 A 
ATOM      3  C   UNL     1     -23.890  15.457  -1.607  1.00  0.00     0.238 A 
ATOM      4  O   UNL     1     -25.048  15.189  -1.183  1.00  0.00    -0.285 OA
ATOM      5  C   UNL     1     -23.218  14.579  -2.482  1.00  0.00     0.111 A 
ATOM      6  C   UNL     1     -23.777  13.359  -2.935  1.00  0.00     0.134 A 
ATOM      7  C   UNL     1     -23.049  12.543  -3.814  1.00  0.00     0.093 A 
ATOM      8  C   UNL     1     -21.776  12.922  -4.247  1.00  0.00     0.123 A 
ATOM      9  C   UNL     1     -21.219  14.125  -3.803  1.00  0.00     0.094 A 
ATOM     10  C   UNL     1     -21.928  14.952  -2.926  1.00  0.00     0.146 A 
ATOM     11  O   UNL     1     -21.373  16.086  -2.515  1.00  0.00    -0.452 OA
ENDROOT
BRANCH   1  12
ATOM     12  C   UNL     1     -21.240  18.158  -1.288  1.00  0.00     0.025 A 
ATOM     13  C   UNL     1     -20.516  18.177  -0.086  1.00  0.00     0.016 A 
ATOM     14  C   UNL     1     -19.837  19.331   0.313  1.00  0.00     0.051 A 
ATOM     15  C   UNL     1     -19.884  20.488  -0.476  1.00  0.00     0.157 A 
ATOM     16  C   UNL     1     -21.303  19.328  -2.067  1.00  0.00     0.062 A 
ATOM     17  C   UNL     1     -20.625  20.486  -1.670  1.00  0.00     0.158 A 
BRANCH  15  18
ATOM     18  O   UNL     1     -19.203  21.637  -0.077  1.00  0.00    -0.504 OA
ATOM     19  H   UNL     1     -19.573  22.251   0.639  1.00  0.00     0.293 HD
ENDBRANCH  15  18
BRANCH  17  20
ATOM     20  O   UNL     1     -20.704  21.626  -2.470  1.00  0.00    -0.504 OA
ATOM     21  H   UNL     1     -20.107  21.759  -3.277  1.00  0.00     0.293 HD
ENDBRANCH  17  20
ENDBRANCH   1  12
BRANCH   2  22
ATOM     22  O   UNL     1     -23.931  17.560  -0.381  1.00  0.00    -0.502 OA
ATOM     23  H   UNL     1     -24.917  17.478  -0.166  1.00  0.00     0.293 HD
ENDBRANCH   2  22
BRANCH   6  24
ATOM     24  O   UNL     1     -25.047  12.954  -2.522  1.00  0.00    -0.507 OA
ATOM     25  H   UNL     1     -25.633  13.545  -1.944  1.00  0.00     0.293 HD
ENDBRANCH   6  24
BRANCH   8  26
ATOM     26  O   UNL     1     -21.074  12.095  -5.120  1.00  0.00    -0.508 OA
ATOM     27  H   UNL     1     -20.431  11.389  -4.780  1.00  0.00     0.293 HD
ENDBRANCH   8  26
TORSDOF 6
ENDMDL
MODEL 8
REMARK VINA RESULT:    -5.652      1.777      6.738
REMARK INTER + INTRA:          -7.072
REMARK INTER:                  -7.132
REMARK INTRA:                   0.060
REMARK UNBOUND:                -0.264
REMARK SMILES O=c1c(O)c(-c2ccc(O)c(O)c2)oc2cc(O)cc(O)c12
REMARK SMILES IDX 5 1 3 2 2 3 1 4 22 5 20 6 19 7 17 8 16 9 15 10 14 11 6 12
REMARK SMILES IDX 7 13 8 14 9 15 13 16 11 17 10 18 12 20 4 22 21 24 18 26
REMARK H PARENT 10 19 12 21 4 23 21 25 18 27
REMARK Flexibility Score: inf
ROOT
ATOM      1  C   UNL     1     -20.171  17.731  -1.812  1.00  0.00     0.180 A 
ATOM      2  C   UNL     1     -18.879  18.153  -2.183  1.00  0.00     0.208 A 
ATOM      3  C   UNL     1     -18.057  17.268  -2.900  1.00  0.00     0.238 A 
ATOM      4  O   UNL     1     -16.902  17.639  -3.247  1.00  0.00    -0.285 OA
ATOM      5  C   UNL     1     -18.530  15.978  -3.216  1.00  0.00     0.111 A 
ATOM      6  C   UNL     1     -17.764  15.026  -3.932  1.00  0.00     0.134 A 
ATOM      7  C   UNL     1     -18.302  13.759  -4.199  1.00  0.00     0.093 A 
ATOM      8  C   UNL     1     -19.586  13.425  -3.766  1.00  0.00     0.123 A 
ATOM      9  C   UNL     1     -20.348  14.361  -3.059  1.00  0.00     0.094 A 
ATOM     10  C   UNL     1     -19.830  15.630  -2.783  1.00  0.00     0.146 A 
ATOM     11  O   UNL     1     -20.577  16.502  -2.115  1.00  0.00    -0.452 OA
ENDROOT
BRANCH   1  12
ATOM     12  C   UNL     1     -21.103  18.612  -1.072  1.00  0.00     0.025 A 
ATOM     13  C   UNL     1     -20.653  19.283   0.076  1.00  0.00     0.016 A 
ATOM     14  C   UNL     1     -21.522  20.102   0.802  1.00  0.00     0.051 A 
ATOM     15  C   UNL     1     -22.856  20.250   0.399  1.00  0.00     0.157 A 
ATOM     16  C   UNL     1     -22.448  18.745  -1.460  1.00  0.00     0.062 A 
ATOM     17  C   UNL     1     -23.321  19.564  -0.735  1.00  0.00     0.158 A 
BRANCH  15  18
ATOM     18  O   UNL     1     -23.719  21.070   1.125  1.00  0.00    -0.504 OA
ATOM     19  H   UNL     1     -23.920  20.897   2.102  1.00  0.00     0.293 HD
ENDBRANCH  15  18
BRANCH  17  20
ATOM     20  O   UNL     1     -24.648  19.678  -1.152  1.00  0.00    -0.504 OA
ATOM     21  H   UNL     1     -24.938  20.364  -1.838  1.00  0.00     0.293 HD
ENDBRANCH  17  20
ENDBRANCH   1  12
BRANCH   2  22
ATOM     22  O   UNL     1     -18.416  19.419  -1.815  1.00  0.00    -0.502 OA
ATOM     23  H   UNL     1     -18.240  20.150  -2.493  1.00  0.00     0.293 HD
ENDBRANCH   2  22
BRANCH   6  24
ATOM     24  O   UNL     1     -16.476  15.329  -4.377  1.00  0.00    -0.507 OA
ATOM     25  H   UNL     1     -16.264  16.207  -4.837  1.00  0.00     0.293 HD
ENDBRANCH   6  24
BRANCH   8  26
ATOM     26  O   UNL     1     -20.097  12.159  -4.043  1.00  0.00    -0.508 OA
ATOM     27  H   UNL     1     -21.083  12.013  -4.225  1.00  0.00     0.293 HD
ENDBRANCH   8  26
TORSDOF 6
ENDMDL
