MODEL 1
REMARK VINA RESULT:    -5.040      0.000      0.000
REMARK INTER + INTRA:          -6.229
REMARK INTER:                  -5.924
REMARK INTRA:                  -0.305
REMARK UNBOUND:                -0.305
REMARK SMILES O=c1cc(-c2ccc(O)c(O)c2)oc2cc(O)cc(O)c12
REMARK SMILES IDX 4 1 3 2 2 3 1 4 21 5 19 6 18 7 16 8 15 9 14 10 13 11 5 12
REMARK SMILES IDX 6 13 7 14 8 15 12 16 10 17 9 18 11 20 20 22 17 24
REMARK H PARENT 9 19 11 21 20 23 17 25
REMARK Flexibility Score: inf
ROOT
ATOM      1  C   UNL     1      -9.289  16.108  31.225  1.00  0.00     0.138 A 
ATOM      2  C   UNL     1     -10.349  15.689  32.046  1.00  0.00     0.100 A 
ATOM      3  C   UNL     1     -10.168  15.639  33.429  1.00  0.00     0.197 A 
ATOM      4  O   UNL     1     -11.124  15.261  34.158  1.00  0.00    -0.289 OA
ATOM      5  C   UNL     1      -8.925  16.007  33.982  1.00  0.00     0.107 A 
ATOM      6  C   UNL     1      -8.658  15.986  35.372  1.00  0.00     0.134 A 
ATOM      7  C   UNL     1      -7.392  16.363  35.842  1.00  0.00     0.093 A 
ATOM      8  C   UNL     1      -6.389  16.756  34.952  1.00  0.00     0.123 A 
ATOM      9  C   UNL     1      -6.647  16.778  33.577  1.00  0.00     0.094 A 
ATOM     10  C   UNL     1      -7.903  16.409  33.088  1.00  0.00     0.146 A 
ATOM     11  O   UNL     1      -8.124  16.439  31.778  1.00  0.00    -0.456 OA
ENDROOT
BRANCH   1  12
ATOM     12  C   UNL     1      -9.424  16.179  29.749  1.00  0.00     0.021 A 
ATOM     13  C   UNL     1     -10.643  16.517  29.132  1.00  0.00     0.016 A 
ATOM     14  C   UNL     1     -10.738  16.586  27.740  1.00  0.00     0.051 A 
ATOM     15  C   UNL     1      -9.618  16.326  26.940  1.00  0.00     0.157 A 
ATOM     16  C   UNL     1      -8.300  15.932  28.939  1.00  0.00     0.062 A 
ATOM     17  C   UNL     1      -8.393  16.000  27.544  1.00  0.00     0.158 A 
BRANCH  15  18
ATOM     18  O   UNL     1      -9.717  16.395  25.550  1.00  0.00    -0.504 OA
ATOM     19  H   UNL     1     -10.509  16.001  25.055  1.00  0.00     0.293 HD
ENDBRANCH  15  18
BRANCH  17  20
ATOM     20  O   UNL     1      -7.258  15.739  26.776  1.00  0.00    -0.504 OA
ATOM     21  H   UNL     1      -6.834  16.445  26.186  1.00  0.00     0.293 HD
ENDBRANCH  17  20
ENDBRANCH   1  12
BRANCH   6  22
ATOM     22  O   UNL     1      -9.639  15.597  36.285  1.00  0.00    -0.507 OA
ATOM     23  H   UNL     1      -9.440  15.509  37.275  1.00  0.00     0.293 HD
ENDBRANCH   6  22
BRANCH   8  24
ATOM     24  O   UNL     1      -5.139  17.125  35.444  1.00  0.00    -0.508 OA
ATOM     25  H   UNL     1      -4.295  16.998  34.898  1.00  0.00     0.293 HD
ENDBRANCH   8  24
TORSDOF 5
ENDMDL
MODEL 2
REMARK VINA RESULT:    -4.264      1.138      1.774
REMARK INTER + INTRA:          -5.316
REMARK INTER:                  -5.026
REMARK INTRA:                  -0.290
REMARK UNBOUND:                -0.305
REMARK SMILES O=c1cc(-c2ccc(O)c(O)c2)oc2cc(O)cc(O)c12
REMARK SMILES IDX 4 1 3 2 2 3 1 4 21 5 19 6 18 7 16 8 15 9 14 10 13 11 5 12
REMARK SMILES IDX 6 13 7 14 8 15 12 16 10 17 9 18 11 20 20 22 17 24
REMARK H PARENT 9 19 11 21 20 23 17 25
REMARK Flexibility Score: inf
ROOT
ATOM      1  C   UNL     1      -8.973  16.023  30.298  1.00  0.00     0.138 A 
ATOM      2  C   UNL     1     -10.075  15.332  30.829  1.00  0.00     0.100 A 
ATOM      3  C   UNL     1     -10.133  15.083  32.201  1.00  0.00     0.197 A 
ATOM      4  O   UNL     1     -11.125  14.461  32.669  1.00  0.00    -0.289 OA
ATOM      5  C   UNL     1      -9.085  15.524  33.033  1.00  0.00     0.107 A 
ATOM      6  C   UNL     1      -9.064  15.314  34.433  1.00  0.00     0.134 A 
ATOM      7  C   UNL     1      -7.981  15.781  35.190  1.00  0.00     0.093 A 
ATOM      8  C   UNL     1      -6.917  16.449  34.577  1.00  0.00     0.123 A 
ATOM      9  C   UNL     1      -6.932  16.659  33.194  1.00  0.00     0.094 A 
ATOM     10  C   UNL     1      -8.004  16.204  32.421  1.00  0.00     0.146 A 
ATOM     11  O   UNL     1      -7.995  16.417  31.110  1.00  0.00    -0.456 OA
ENDROOT
BRANCH   1  12
ATOM     12  C   UNL     1      -8.859  16.314  28.847  1.00  0.00     0.021 A 
ATOM     13  C   UNL     1      -7.614  16.560  28.237  1.00  0.00     0.016 A 
ATOM     14  C   UNL     1      -7.536  16.820  26.866  1.00  0.00     0.051 A 
ATOM     15  C   UNL     1      -8.695  16.833  26.080  1.00  0.00     0.157 A 
ATOM     16  C   UNL     1     -10.017  16.316  28.048  1.00  0.00     0.062 A 
ATOM     17  C   UNL     1      -9.941  16.577  26.675  1.00  0.00     0.158 A 
BRANCH  15  18
ATOM     18  O   UNL     1      -8.613  17.095  24.713  1.00  0.00    -0.504 OA
ATOM     19  H   UNL     1      -8.967  16.440  24.026  1.00  0.00     0.293 HD
ENDBRANCH  15  18
BRANCH  17  20
ATOM     20  O   UNL     1     -11.114  16.580  25.920  1.00  0.00    -0.504 OA
ATOM     21  H   UNL     1     -11.105  16.474  24.913  1.00  0.00     0.293 HD
ENDBRANCH  17  20
ENDBRANCH   1  12
BRANCH   6  22
ATOM     22  O   UNL     1     -10.111  14.649  35.073  1.00  0.00    -0.507 OA
ATOM     23  H   UNL     1     -10.507  14.990  35.941  1.00  0.00     0.293 HD
ENDBRANCH   6  22
BRANCH   8  24
ATOM     24  O   UNL     1      -5.852  16.902  35.352  1.00  0.00    -0.508 OA
ATOM     25  H   UNL     1      -5.899  17.779  35.857  1.00  0.00     0.293 HD
ENDBRANCH   8  24
TORSDOF 5
ENDMDL
MODEL 3
REMARK VINA RESULT:    -2.872      1.592      6.936
REMARK INTER + INTRA:          -3.681
REMARK INTER:                  -3.389
REMARK INTRA:                  -0.292
REMARK UNBOUND:                -0.305
REMARK SMILES O=c1cc(-c2ccc(O)c(O)c2)oc2cc(O)cc(O)c12
REMARK SMILES IDX 4 1 3 2 2 3 1 4 21 5 19 6 18 7 16 8 15 9 14 10 13 11 5 12
REMARK SMILES IDX 6 13 7 14 8 15 12 16 10 17 9 18 11 20 20 22 17 24
REMARK H PARENT 9 19 11 21 20 23 17 25
REMARK Flexibility Score: inf
ROOT
ATOM      1  C   UNL     1      -8.646  15.740  32.398  1.00  0.00     0.138 A 
ATOM      2  C   UNL     1      -9.720  14.854  32.210  1.00  0.00     0.100 A 
ATOM      3  C   UNL     1     -10.160  14.574  30.915  1.00  0.00     0.197 A 
ATOM      4  O   UNL     1     -11.125  13.779  30.756  1.00  0.00    -0.289 OA
ATOM      5  C   UNL     1      -9.525  15.187  29.817  1.00  0.00     0.107 A 
ATOM      6  C   UNL     1      -9.907  14.958  28.473  1.00  0.00     0.134 A 
ATOM      7  C   UNL     1      -9.227  15.611  27.436  1.00  0.00     0.093 A 
ATOM      8  C   UNL     1      -8.175  16.488  27.714  1.00  0.00     0.123 A 
ATOM      9  C   UNL     1      -7.793  16.718  29.040  1.00  0.00     0.094 A 
ATOM     10  C   UNL     1      -8.457  16.076  30.089  1.00  0.00     0.146 A 
ATOM     11  O   UNL     1      -8.074  16.310  31.339  1.00  0.00    -0.456 OA
ENDROOT
BRANCH   1  12
ATOM     12  C   UNL     1      -8.137  16.076  33.751  1.00  0.00     0.021 A 
ATOM     13  C   UNL     1      -6.881  16.682  33.941  1.00  0.00     0.016 A 
ATOM     14  C   UNL     1      -6.433  16.996  35.227  1.00  0.00     0.051 A 
ATOM     15  C   UNL     1      -7.231  16.718  36.343  1.00  0.00     0.157 A 
ATOM     16  C   UNL     1      -8.939  15.811  34.877  1.00  0.00     0.062 A 
ATOM     17  C   UNL     1      -8.491  16.124  36.166  1.00  0.00     0.158 A 
BRANCH  15  18
ATOM     18  O   UNL     1      -6.779  17.031  37.625  1.00  0.00    -0.504 OA
ATOM     19  H   UNL     1      -6.705  17.991  37.940  1.00  0.00     0.293 HD
ENDBRANCH  15  18
BRANCH  17  20
ATOM     20  O   UNL     1      -9.312  15.837  37.256  1.00  0.00    -0.504 OA
ATOM     21  H   UNL     1      -9.310  16.403  38.095  1.00  0.00     0.293 HD
ENDBRANCH  17  20
ENDBRANCH   1  12
BRANCH   6  22
ATOM     22  O   UNL     1     -10.954  14.088  28.164  1.00  0.00    -0.507 OA
ATOM     23  H   UNL     1     -11.859  14.163  28.614  1.00  0.00     0.293 HD
ENDBRANCH   6  22
BRANCH   8  24
ATOM     24  O   UNL     1      -7.516  17.125  26.665  1.00  0.00    -0.508 OA
ATOM     25  H   UNL     1      -7.114  18.048  26.774  1.00  0.00     0.293 HD
ENDBRANCH   8  24
TORSDOF 5
ENDMDL
