MODEL 1
REMARK VINA RESULT:    -4.528      0.000      0.000
REMARK INTER + INTRA:          -7.628
REMARK INTER:                  -7.176
REMARK INTRA:                  -0.452
REMARK UNBOUND:                -0.452
REMARK SMILES CCCCCCCCCCCC(=O)[O-]
REMARK SMILES IDX 7 1 8 2 9 3 10 4 11 5 12 6 13 7 14 8 6 9 5 10 4 11 3 12 2 13
REMARK SMILES IDX 1 14
REMARK H PARENT
REMARK Flexibility Score: inf
ROOT
ATOM      1  C   UNL     1     -17.045  -1.896  -2.157  1.00  0.00     0.000 C 
ENDROOT
BRANCH   1   2
ATOM      2  C   UNL     1     -16.795  -0.390  -2.359  1.00  0.00     0.000 C 
BRANCH   2   3
ATOM      3  C   UNL     1     -16.924   0.419  -1.060  1.00  0.00     0.000 C 
BRANCH   3   4
ATOM      4  C   UNL     1     -16.252  -0.312   0.112  1.00  0.00     0.006 C 
BRANCH   4   5
ATOM      5  C   UNL     1     -16.854   0.084   1.466  1.00  0.00     0.053 C 
BRANCH   5   6
ATOM      6  C   UNL     1     -16.061  -0.471   2.611  1.00  0.00     0.041 C 
ATOM      7  O   UNL     1     -14.802  -0.429   2.588  1.00  0.00    -0.550 OA
ATOM      8  O   UNL     1     -16.712  -1.064   3.685  1.00  0.00    -0.550 OA
ENDBRANCH   5   6
ENDBRANCH   4   5
ENDBRANCH   3   4
ENDBRANCH   2   3
ENDBRANCH   1   2
BRANCH   1   9
ATOM      9  C   UNL     1     -16.411  -2.809  -3.221  1.00  0.00     0.000 C 
BRANCH   9  10
ATOM     10  C   UNL     1     -15.968  -4.168  -2.659  1.00  0.00    -0.000 C 
BRANCH  10  11
ATOM     11  C   UNL     1     -14.476  -4.156  -2.305  1.00  0.00    -0.000 C 
BRANCH  11  12
ATOM     12  C   UNL     1     -13.667  -4.993  -3.307  1.00  0.00    -0.000 C 
BRANCH  12  13
ATOM     13  C   UNL     1     -13.437  -4.260  -4.637  1.00  0.00    -0.003 C 
ATOM     14  C   UNL     1     -12.250  -4.818  -5.423  1.00  0.00     0.004 C 
ENDBRANCH  12  13
ENDBRANCH  11  12
ENDBRANCH  10  11
ENDBRANCH   9  10
ENDBRANCH   1   9
TORSDOF 10
ENDMDL
MODEL 2
REMARK VINA RESULT:    -4.150      1.511      2.723
REMARK INTER + INTRA:          -7.029
REMARK INTER:                  -6.278
REMARK INTRA:                  -0.751
REMARK UNBOUND:                -0.452
REMARK SMILES CCCCCCCCCCCC(=O)[O-]
REMARK SMILES IDX 7 1 8 2 9 3 10 4 11 5 12 6 13 7 14 8 6 9 5 10 4 11 3 12 2 13
REMARK SMILES IDX 1 14
REMARK H PARENT
REMARK Flexibility Score: inf
ROOT
ATOM      1  C   UNL     1     -16.993  -3.729  -4.239  1.00  0.00     0.000 C 
ENDROOT
BRANCH   1   2
ATOM      2  C   UNL     1     -17.053  -2.291  -3.690  1.00  0.00     0.000 C 
BRANCH   2   3
ATOM      3  C   UNL     1     -16.709  -2.205  -2.196  1.00  0.00     0.000 C 
BRANCH   3   4
ATOM      4  C   UNL     1     -16.834  -0.762  -1.686  1.00  0.00     0.006 C 
BRANCH   4   5
ATOM      5  C   UNL     1     -16.923  -0.692  -0.156  1.00  0.00     0.053 C 
BRANCH   5   6
ATOM      6  C   UNL     1     -15.821   0.141   0.427  1.00  0.00     0.041 C 
ATOM      7  O   UNL     1     -15.044  -0.350   1.288  1.00  0.00    -0.550 OA
ATOM      8  O   UNL     1     -15.676   1.468   0.045  1.00  0.00    -0.550 OA
ENDBRANCH   5   6
ENDBRANCH   4   5
ENDBRANCH   3   4
ENDBRANCH   2   3
ENDBRANCH   1   2
BRANCH   1   9
ATOM      9  C   UNL     1     -16.076  -3.920  -5.460  1.00  0.00     0.000 C 
BRANCH   9  10
ATOM     10  C   UNL     1     -14.637  -3.444  -5.210  1.00  0.00    -0.000 C 
BRANCH  10  11
ATOM     11  C   UNL     1     -13.667  -4.630  -5.154  1.00  0.00    -0.000 C 
BRANCH  11  12
ATOM     12  C   UNL     1     -12.936  -4.679  -3.803  1.00  0.00    -0.000 C 
BRANCH  12  13
ATOM     13  C   UNL     1     -13.869  -5.054  -2.641  1.00  0.00    -0.003 C 
ATOM     14  C   UNL     1     -13.148  -5.096  -1.294  1.00  0.00     0.004 C 
ENDBRANCH  12  13
ENDBRANCH  11  12
ENDBRANCH  10  11
ENDBRANCH   9  10
ENDBRANCH   1   9
TORSDOF 10
ENDMDL
MODEL 3
REMARK VINA RESULT:    -3.816      3.775      7.023
REMARK INTER + INTRA:          -6.499
REMARK INTER:                  -5.686
REMARK INTRA:                  -0.813
REMARK UNBOUND:                -0.452
REMARK SMILES CCCCCCCCCCCC(=O)[O-]
REMARK SMILES IDX 7 1 8 2 9 3 10 4 11 5 12 6 13 7 14 8 6 9 5 10 4 11 3 12 2 13
REMARK SMILES IDX 1 14
REMARK H PARENT
REMARK Flexibility Score: inf
ROOT
ATOM      1  C   UNL     1     -16.432  -4.066  -2.842  1.00  0.00     0.000 C 
ENDROOT
BRANCH   1   2
ATOM      2  C   UNL     1     -15.027  -4.047  -2.212  1.00  0.00     0.000 C 
BRANCH   2   3
ATOM      3  C   UNL     1     -13.909  -4.295  -3.234  1.00  0.00     0.000 C 
BRANCH   3   4
ATOM      4  C   UNL     1     -14.425  -5.115  -4.426  1.00  0.00     0.006 C 
BRANCH   4   5
ATOM      5  C   UNL     1     -14.040  -4.488  -5.773  1.00  0.00     0.053 C 
BRANCH   5   6
ATOM      6  C   UNL     1     -15.126  -3.603  -6.305  1.00  0.00     0.041 C 
ATOM      7  O   UNL     1     -15.134  -2.374  -6.026  1.00  0.00    -0.550 OA
ATOM      8  O   UNL     1     -16.145  -4.141  -7.080  1.00  0.00    -0.550 OA
ENDBRANCH   5   6
ENDBRANCH   4   5
ENDBRANCH   3   4
ENDBRANCH   2   3
ENDBRANCH   1   2
BRANCH   1   9
ATOM      9  C   UNL     1     -17.116  -2.692  -2.948  1.00  0.00     0.000 C 
BRANCH   9  10
ATOM     10  C   UNL     1     -16.989  -1.858  -1.664  1.00  0.00    -0.000 C 
BRANCH  10  11
ATOM     11  C   UNL     1     -16.907  -0.361  -1.987  1.00  0.00    -0.000 C 
BRANCH  11  12
ATOM     12  C   UNL     1     -16.657   0.463  -0.714  1.00  0.00    -0.000 C 
BRANCH  12  13
ATOM     13  C   UNL     1     -15.876  -0.322   0.352  1.00  0.00    -0.003 C 
ATOM     14  C   UNL     1     -16.558  -0.299   1.720  1.00  0.00     0.004 C 
ENDBRANCH  12  13
ENDBRANCH  11  12
ENDBRANCH  10  11
ENDBRANCH   9  10
ENDBRANCH   1   9
TORSDOF 10
ENDMDL
MODEL 4
REMARK VINA RESULT:    -3.711      3.819      7.145
REMARK INTER + INTRA:          -6.332
REMARK INTER:                  -5.648
REMARK INTRA:                  -0.684
REMARK UNBOUND:                -0.452
REMARK SMILES CCCCCCCCCCCC(=O)[O-]
REMARK SMILES IDX 7 1 8 2 9 3 10 4 11 5 12 6 13 7 14 8 6 9 5 10 4 11 3 12 2 13
REMARK SMILES IDX 1 14
REMARK H PARENT
REMARK Flexibility Score: inf
ROOT
ATOM      1  C   UNL     1     -16.380  -1.893  -2.967  1.00  0.00     0.000 C 
ENDROOT
BRANCH   1   2
ATOM      2  C   UNL     1     -16.532  -3.295  -2.348  1.00  0.00     0.000 C 
BRANCH   2   3
ATOM      3  C   UNL     1     -15.499  -4.299  -2.878  1.00  0.00     0.000 C 
BRANCH   3   4
ATOM      4  C   UNL     1     -14.350  -3.578  -3.598  1.00  0.00     0.006 C 
BRANCH   4   5
ATOM      5  C   UNL     1     -14.039  -4.200  -4.965  1.00  0.00     0.053 C 
BRANCH   5   6
ATOM      6  C   UNL     1     -15.054  -3.812  -5.997  1.00  0.00     0.041 C 
ATOM      7  O   UNL     1     -15.748  -4.696  -6.566  1.00  0.00    -0.550 OA
ATOM      8  O   UNL     1     -15.210  -2.479  -6.353  1.00  0.00    -0.550 OA
ENDBRANCH   5   6
ENDBRANCH   4   5
ENDBRANCH   3   4
ENDBRANCH   2   3
ENDBRANCH   1   2
BRANCH   1   9
ATOM      9  C   UNL     1     -17.112  -0.767  -2.214  1.00  0.00     0.000 C 
BRANCH   9  10
ATOM     10  C   UNL     1     -17.125  -0.974  -0.692  1.00  0.00    -0.000 C 
BRANCH  10  11
ATOM     11  C   UNL     1     -16.163  -0.002   0.003  1.00  0.00    -0.000 C 
BRANCH  11  12
ATOM     12  C   UNL     1     -15.614  -0.608   1.303  1.00  0.00    -0.000 C 
BRANCH  12  13
ATOM     13  C   UNL     1     -16.695  -0.757   2.386  1.00  0.00    -0.003 C 
ATOM     14  C   UNL     1     -16.776   0.457   3.311  1.00  0.00     0.004 C 
ENDBRANCH  12  13
ENDBRANCH  11  12
ENDBRANCH  10  11
ENDBRANCH   9  10
ENDBRANCH   1   9
TORSDOF 10
ENDMDL
MODEL 5
REMARK VINA RESULT:    -3.530      1.357      1.848
REMARK INTER + INTRA:          -6.045
REMARK INTER:                  -5.665
REMARK INTRA:                  -0.380
REMARK UNBOUND:                -0.452
REMARK SMILES CCCCCCCCCCCC(=O)[O-]
REMARK SMILES IDX 7 1 8 2 9 3 10 4 11 5 12 6 13 7 14 8 6 9 5 10 4 11 3 12 2 13
REMARK SMILES IDX 1 14
REMARK H PARENT
REMARK Flexibility Score: inf
ROOT
ATOM      1  C   UNL     1     -15.731  -2.655  -2.823  1.00  0.00     0.000 C 
ENDROOT
BRANCH   1   2
ATOM      2  C   UNL     1     -17.093  -2.324  -2.186  1.00  0.00     0.000 C 
BRANCH   2   3
ATOM      3  C   UNL     1     -17.087  -0.998  -1.411  1.00  0.00     0.000 C 
BRANCH   3   4
ATOM      4  C   UNL     1     -16.986  -1.246   0.101  1.00  0.00     0.006 C 
BRANCH   4   5
ATOM      5  C   UNL     1     -16.446  -0.024   0.856  1.00  0.00     0.053 C 
BRANCH   5   6
ATOM      6  C   UNL     1     -15.697  -0.419   2.092  1.00  0.00     0.041 C 
ATOM      7  O   UNL     1     -14.437  -0.413   2.097  1.00  0.00    -0.550 OA
ATOM      8  O   UNL     1     -16.388  -0.827   3.225  1.00  0.00    -0.550 OA
ENDBRANCH   5   6
ENDBRANCH   4   5
ENDBRANCH   3   4
ENDBRANCH   2   3
ENDBRANCH   1   2
BRANCH   1   9
ATOM      9  C   UNL     1     -15.364  -4.149  -2.833  1.00  0.00     0.000 C 
BRANCH   9  10
ATOM     10  C   UNL     1     -13.848  -4.394  -2.846  1.00  0.00    -0.000 C 
BRANCH  10  11
ATOM     11  C   UNL     1     -13.375  -4.844  -4.234  1.00  0.00    -0.000 C 
BRANCH  11  12
ATOM     12  C   UNL     1     -14.568  -5.049  -5.180  1.00  0.00    -0.000 C 
BRANCH  12  13
ATOM     13  C   UNL     1     -14.154  -5.049  -6.660  1.00  0.00    -0.003 C 
ATOM     14  C   UNL     1     -15.174  -4.351  -7.559  1.00  0.00     0.004 C 
ENDBRANCH  12  13
ENDBRANCH  11  12
ENDBRANCH  10  11
ENDBRANCH   9  10
ENDBRANCH   1   9
TORSDOF 10
ENDMDL
MODEL 6
REMARK VINA RESULT:    -3.068      3.155      6.621
REMARK INTER + INTRA:          -5.314
REMARK INTER:                  -4.720
REMARK INTRA:                  -0.593
REMARK UNBOUND:                -0.452
REMARK SMILES CCCCCCCCCCCC(=O)[O-]
REMARK SMILES IDX 7 1 8 2 9 3 10 4 11 5 12 6 13 7 14 8 6 9 5 10 4 11 3 12 2 13
REMARK SMILES IDX 1 14
REMARK H PARENT
REMARK Flexibility Score: inf
ROOT
ATOM      1  C   UNL     1     -16.385  -0.729  -2.515  1.00  0.00     0.000 C 
ENDROOT
BRANCH   1   2
ATOM      2  C   UNL     1     -16.774  -2.142  -2.046  1.00  0.00     0.000 C 
BRANCH   2   3
ATOM      3  C   UNL     1     -17.091  -3.095  -3.208  1.00  0.00     0.000 C 
BRANCH   3   4
ATOM      4  C   UNL     1     -16.526  -4.498  -2.937  1.00  0.00     0.006 C 
BRANCH   4   5
ATOM      5  C   UNL     1     -15.195  -4.451  -2.176  1.00  0.00     0.053 C 
BRANCH   5   6
ATOM      6  C   UNL     1     -14.023  -4.638  -3.093  1.00  0.00     0.041 C 
ATOM      7  O   UNL     1     -12.915  -5.022  -2.634  1.00  0.00    -0.550 OA
ATOM      8  O   UNL     1     -14.147  -4.354  -4.447  1.00  0.00    -0.550 OA
ENDBRANCH   5   6
ENDBRANCH   4   5
ENDBRANCH   3   4
ENDBRANCH   2   3
ENDBRANCH   1   2
BRANCH   1   9
ATOM      9  C   UNL     1     -17.125   0.419  -1.806  1.00  0.00     0.000 C 
BRANCH   9  10
ATOM     10  C   UNL     1     -16.289   1.077  -0.698  1.00  0.00    -0.000 C 
BRANCH  10  11
ATOM     11  C   UNL     1     -16.850   0.739   0.689  1.00  0.00    -0.000 C 
BRANCH  11  12
ATOM     12  C   UNL     1     -16.034  -0.380   1.354  1.00  0.00    -0.000 C 
BRANCH  12  13
ATOM     13  C   UNL     1     -16.599  -0.787   2.723  1.00  0.00    -0.003 C 
ATOM     14  C   UNL     1     -16.940   0.416   3.603  1.00  0.00     0.004 C 
ENDBRANCH  12  13
ENDBRANCH  11  12
ENDBRANCH  10  11
ENDBRANCH   9  10
ENDBRANCH   1   9
TORSDOF 10
ENDMDL
MODEL 7
REMARK VINA RESULT:    -2.818      2.121      2.768
REMARK INTER + INTRA:          -4.917
REMARK INTER:                  -4.711
REMARK INTRA:                  -0.206
REMARK UNBOUND:                -0.452
REMARK SMILES CCCCCCCCCCCC(=O)[O-]
REMARK SMILES IDX 7 1 8 2 9 3 10 4 11 5 12 6 13 7 14 8 6 9 5 10 4 11 3 12 2 13
REMARK SMILES IDX 1 14
REMARK H PARENT
REMARK Flexibility Score: inf
ROOT
ATOM      1  C   UNL     1     -15.750  -3.110  -1.873  1.00  0.00     0.000 C 
ENDROOT
BRANCH   1   2
ATOM      2  C   UNL     1     -16.769  -2.344  -2.736  1.00  0.00     0.000 C 
BRANCH   2   3
ATOM      3  C   UNL     1     -16.448  -0.848  -2.858  1.00  0.00     0.000 C 
BRANCH   3   4
ATOM      4  C   UNL     1     -17.125  -0.048  -1.734  1.00  0.00     0.006 C 
BRANCH   4   5
ATOM      5  C   UNL     1     -16.882  -0.668  -0.352  1.00  0.00     0.053 C 
BRANCH   5   6
ATOM      6  C   UNL     1     -16.092   0.245   0.536  1.00  0.00     0.041 C 
ATOM      7  O   UNL     1     -15.938  -0.035   1.754  1.00  0.00    -0.550 OA
ATOM      8  O   UNL     1     -15.557   1.421   0.026  1.00  0.00    -0.550 OA
ENDBRANCH   5   6
ENDBRANCH   4   5
ENDBRANCH   3   4
ENDBRANCH   2   3
ENDBRANCH   1   2
BRANCH   1   9
ATOM      9  C   UNL     1     -15.116  -4.338  -2.552  1.00  0.00     0.000 C 
BRANCH   9  10
ATOM     10  C   UNL     1     -14.926  -4.155  -4.065  1.00  0.00    -0.000 C 
BRANCH  10  11
ATOM     11  C   UNL     1     -15.859  -5.084  -4.852  1.00  0.00    -0.000 C 
BRANCH  11  12
ATOM     12  C   UNL     1     -16.436  -4.369  -6.083  1.00  0.00    -0.000 C 
BRANCH  12  13
ATOM     13  C   UNL     1     -15.343  -3.804  -7.003  1.00  0.00    -0.003 C 
ATOM     14  C   UNL     1     -15.204  -4.589  -8.307  1.00  0.00     0.004 C 
ENDBRANCH  12  13
ENDBRANCH  11  12
ENDBRANCH  10  11
ENDBRANCH   9  10
ENDBRANCH   1   9
TORSDOF 10
ENDMDL
MODEL 8
REMARK VINA RESULT:    -1.855      5.215      8.244
REMARK INTER + INTRA:          -3.392
REMARK INTER:                  -2.942
REMARK INTRA:                  -0.449
REMARK UNBOUND:                -0.452
REMARK SMILES CCCCCCCCCCCC(=O)[O-]
REMARK SMILES IDX 7 1 8 2 9 3 10 4 11 5 12 6 13 7 14 8 6 9 5 10 4 11 3 12 2 13
REMARK SMILES IDX 1 14
REMARK H PARENT
REMARK Flexibility Score: inf
ROOT
ATOM      1  C   UNL     1     -14.686  -2.560  -4.087  1.00  0.00     0.000 C 
ENDROOT
BRANCH   1   2
ATOM      2  C   UNL     1     -15.457  -2.634  -5.418  1.00  0.00     0.000 C 
BRANCH   2   3
ATOM      3  C   UNL     1     -16.182  -3.972  -5.618  1.00  0.00     0.000 C 
BRANCH   3   4
ATOM      4  C   UNL     1     -15.867  -4.567  -6.998  1.00  0.00     0.006 C 
BRANCH   4   5
ATOM      5  C   UNL     1     -14.388  -4.947  -7.143  1.00  0.00     0.053 C 
BRANCH   5   6
ATOM      6  C   UNL     1     -13.954  -4.958  -8.578  1.00  0.00     0.041 C 
ATOM      7  O   UNL     1     -14.814  -4.985  -9.498  1.00  0.00    -0.550 OA
ATOM      8  O   UNL     1     -12.603  -4.973  -8.896  1.00  0.00    -0.550 OA
ENDBRANCH   5   6
ENDBRANCH   4   5
ENDBRANCH   3   4
ENDBRANCH   2   3
ENDBRANCH   1   2
BRANCH   1   9
ATOM      9  C   UNL     1     -15.567  -2.525  -2.826  1.00  0.00     0.000 C 
BRANCH   9  10
ATOM     10  C   UNL     1     -16.431  -1.258  -2.733  1.00  0.00    -0.000 C 
BRANCH  10  11
ATOM     11  C   UNL     1     -17.086  -1.140  -1.352  1.00  0.00    -0.000 C 
BRANCH  11  12
ATOM     12  C   UNL     1     -16.458   0.004  -0.541  1.00  0.00    -0.000 C 
BRANCH  12  13
ATOM     13  C   UNL     1     -15.680  -0.499   0.684  1.00  0.00    -0.003 C 
ATOM     14  C   UNL     1     -16.573  -0.704   1.908  1.00  0.00     0.004 C 
ENDBRANCH  12  13
ENDBRANCH  11  12
ENDBRANCH  10  11
ENDBRANCH   9  10
ENDBRANCH   1   9
TORSDOF 10
ENDMDL
