MODEL 1
REMARK VINA RESULT:    -7.759      0.000      0.000
REMARK INTER + INTRA:          -9.438
REMARK INTER:                  -9.120
REMARK INTRA:                  -0.318
REMARK UNBOUND:                -0.318
REMARK SMILES O=c1cc(-c2ccc(O)c(O)c2)oc2cc(O)cc(O)c12
REMARK SMILES IDX 4 1 3 2 2 3 1 4 21 5 19 6 18 7 16 8 15 9 14 10 13 11 5 12
REMARK SMILES IDX 6 13 7 14 8 15 12 16 10 17 9 18 11 20 20 22 17 24
REMARK H PARENT 9 19 11 21 20 23 17 25
REMARK Flexibility Score: inf
ROOT
ATOM      1  C   UNL     1      68.228 -14.671 -20.649  1.00  0.00     0.138 A 
ATOM      2  C   UNL     1      67.259 -14.372 -21.615  1.00  0.00     0.100 A 
ATOM      3  C   UNL     1      67.529 -13.411 -22.591  1.00  0.00     0.197 A 
ATOM      4  O   UNL     1      66.660 -13.205 -23.477  1.00  0.00    -0.289 OA
ATOM      5  C   UNL     1      68.765 -12.722 -22.576  1.00  0.00     0.107 A 
ATOM      6  C   UNL     1      69.139 -11.698 -23.500  1.00  0.00     0.134 A 
ATOM      7  C   UNL     1      70.429 -11.157 -23.445  1.00  0.00     0.093 A 
ATOM      8  C   UNL     1      71.340 -11.560 -22.465  1.00  0.00     0.123 A 
ATOM      9  C   UNL     1      70.968 -12.522 -21.529  1.00  0.00     0.094 A 
ATOM     10  C   UNL     1      69.700 -13.106 -21.577  1.00  0.00     0.146 A 
ATOM     11  O   UNL     1      69.393 -14.032 -20.676  1.00  0.00    -0.456 OA
ENDROOT
BRANCH   1  12
ATOM     12  C   UNL     1      67.993 -15.680 -19.586  1.00  0.00     0.021 A 
ATOM     13  C   UNL     1      66.791 -16.408 -19.579  1.00  0.00     0.016 A 
ATOM     14  C   UNL     1      66.540 -17.358 -18.586  1.00  0.00     0.051 A 
ATOM     15  C   UNL     1      67.479 -17.591 -17.577  1.00  0.00     0.157 A 
ATOM     16  C   UNL     1      68.930 -15.908 -18.559  1.00  0.00     0.062 A 
ATOM     17  C   UNL     1      68.678 -16.861 -17.560  1.00  0.00     0.158 A 
BRANCH  15  18
ATOM     18  O   UNL     1      67.202 -18.546 -16.600  1.00  0.00    -0.504 OA
ATOM     19  H   UNL     1      66.965 -19.503 -16.835  1.00  0.00     0.293 HD
ENDBRANCH  15  18
BRANCH  17  20
ATOM     20  O   UNL     1      69.614 -17.079 -16.549  1.00  0.00    -0.504 OA
ATOM     21  H   UNL     1      69.496 -16.689 -15.622  1.00  0.00     0.293 HD
ENDBRANCH  17  20
ENDBRANCH   1  12
BRANCH   6  22
ATOM     22  O   UNL     1      68.281 -11.166 -24.467  1.00  0.00    -0.507 OA
ATOM     23  H   UNL     1      67.714 -11.708 -25.100  1.00  0.00     0.293 HD
ENDBRANCH   6  22
BRANCH   8  24
ATOM     24  O   UNL     1      72.616 -11.005 -22.410  1.00  0.00    -0.508 OA
ATOM     25  H   UNL     1      72.842 -10.146 -22.899  1.00  0.00     0.293 HD
ENDBRANCH   8  24
TORSDOF 5
ENDMDL
MODEL 2
REMARK VINA RESULT:    -7.669      3.768      6.042
REMARK INTER + INTRA:          -9.331
REMARK INTER:                  -9.065
REMARK INTRA:                  -0.266
REMARK UNBOUND:                -0.318
REMARK SMILES O=c1cc(-c2ccc(O)c(O)c2)oc2cc(O)cc(O)c12
REMARK SMILES IDX 4 1 3 2 2 3 1 4 21 5 19 6 18 7 16 8 15 9 14 10 13 11 5 12
REMARK SMILES IDX 6 13 7 14 8 15 12 16 10 17 9 18 11 20 20 22 17 24
REMARK H PARENT 9 19 11 21 20 23 17 25
REMARK Flexibility Score: inf
ROOT
ATOM      1  C   UNL     1      64.756 -16.409 -17.342  1.00  0.00     0.138 A 
ATOM      2  C   UNL     1      64.444 -15.897 -18.608  1.00  0.00     0.100 A 
ATOM      3  C   UNL     1      65.472 -15.589 -19.501  1.00  0.00     0.197 A 
ATOM      4  O   UNL     1      65.157 -15.184 -20.649  1.00  0.00    -0.289 OA
ATOM      5  C   UNL     1      66.820 -15.762 -19.108  1.00  0.00     0.107 A 
ATOM      6  C   UNL     1      67.952 -15.450 -19.921  1.00  0.00     0.134 A 
ATOM      7  C   UNL     1      69.239 -15.757 -19.460  1.00  0.00     0.093 A 
ATOM      8  C   UNL     1      69.437 -16.311 -18.193  1.00  0.00     0.123 A 
ATOM      9  C   UNL     1      68.343 -16.573 -17.373  1.00  0.00     0.094 A 
ATOM     10  C   UNL     1      67.045 -16.310 -17.816  1.00  0.00     0.146 A 
ATOM     11  O   UNL     1      66.029 -16.592 -17.009  1.00  0.00    -0.456 OA
ENDROOT
BRANCH   1  12
ATOM     12  C   UNL     1      63.703 -16.749 -16.351  1.00  0.00     0.021 A 
ATOM     13  C   UNL     1      63.612 -16.012 -15.159  1.00  0.00     0.016 A 
ATOM     14  C   UNL     1      62.636 -16.316 -14.207  1.00  0.00     0.051 A 
ATOM     15  C   UNL     1      61.741 -17.368 -14.423  1.00  0.00     0.157 A 
ATOM     16  C   UNL     1      62.808 -17.817 -16.558  1.00  0.00     0.062 A 
ATOM     17  C   UNL     1      61.829 -18.125 -15.602  1.00  0.00     0.158 A 
BRANCH  15  18
ATOM     18  O   UNL     1      60.777 -17.647 -13.456  1.00  0.00    -0.504 OA
ATOM     19  H   UNL     1      61.010 -17.740 -12.474  1.00  0.00     0.293 HD
ENDBRANCH  15  18
BRANCH  17  20
ATOM     20  O   UNL     1      60.946 -19.183 -15.818  1.00  0.00    -0.504 OA
ATOM     21  H   UNL     1      61.260 -20.067 -16.202  1.00  0.00     0.293 HD
ENDBRANCH  17  20
ENDBRANCH   1  12
BRANCH   6  22
ATOM     22  O   UNL     1      67.872 -14.824 -21.168  1.00  0.00    -0.507 OA
ATOM     23  H   UNL     1      67.380 -15.188 -21.969  1.00  0.00     0.293 HD
ENDBRANCH   6  22
BRANCH   8  24
ATOM     24  O   UNL     1      70.722 -16.599 -17.737  1.00  0.00    -0.508 OA
ATOM     25  H   UNL     1      71.243 -17.395 -18.087  1.00  0.00     0.293 HD
ENDBRANCH   8  24
TORSDOF 5
ENDMDL
MODEL 3
REMARK VINA RESULT:    -7.627      2.201      6.922
REMARK INTER + INTRA:          -9.282
REMARK INTER:                  -8.998
REMARK INTRA:                  -0.285
REMARK UNBOUND:                -0.318
REMARK SMILES O=c1cc(-c2ccc(O)c(O)c2)oc2cc(O)cc(O)c12
REMARK SMILES IDX 4 1 3 2 2 3 1 4 21 5 19 6 18 7 16 8 15 9 14 10 13 11 5 12
REMARK SMILES IDX 6 13 7 14 8 15 12 16 10 17 9 18 11 20 20 22 17 24
REMARK H PARENT 9 19 11 21 20 23 17 25
REMARK Flexibility Score: inf
ROOT
ATOM      1  C   UNL     1      67.841 -14.446 -19.898  1.00  0.00     0.138 A 
ATOM      2  C   UNL     1      66.543 -13.923 -19.957  1.00  0.00     0.100 A 
ATOM      3  C   UNL     1      65.508 -14.566 -19.275  1.00  0.00     0.197 A 
ATOM      4  O   UNL     1      64.365 -14.041 -19.302  1.00  0.00    -0.289 OA
ATOM      5  C   UNL     1      65.771 -15.758 -18.559  1.00  0.00     0.107 A 
ATOM      6  C   UNL     1      64.789 -16.518 -17.854  1.00  0.00     0.134 A 
ATOM      7  C   UNL     1      65.187 -17.629 -17.099  1.00  0.00     0.093 A 
ATOM      8  C   UNL     1      66.522 -18.041 -17.071  1.00  0.00     0.123 A 
ATOM      9  C   UNL     1      67.478 -17.336 -17.796  1.00  0.00     0.094 A 
ATOM     10  C   UNL     1      67.120 -16.203 -18.531  1.00  0.00     0.146 A 
ATOM     11  O   UNL     1      68.068 -15.549 -19.193  1.00  0.00    -0.456 OA
ENDROOT
BRANCH   1  12
ATOM     12  C   UNL     1      68.978 -13.806 -20.607  1.00  0.00     0.021 A 
ATOM     13  C   UNL     1      69.227 -12.436 -20.421  1.00  0.00     0.016 A 
ATOM     14  C   UNL     1      70.285 -11.808 -21.082  1.00  0.00     0.051 A 
ATOM     15  C   UNL     1      71.107 -12.534 -21.948  1.00  0.00     0.157 A 
ATOM     16  C   UNL     1      69.801 -14.530 -21.492  1.00  0.00     0.062 A 
ATOM     17  C   UNL     1      70.863 -13.900 -22.158  1.00  0.00     0.158 A 
BRANCH  15  18
ATOM     18  O   UNL     1      72.157 -11.880 -22.593  1.00  0.00    -0.504 OA
ATOM     19  H   UNL     1      73.092 -11.851 -22.205  1.00  0.00     0.293 HD
ENDBRANCH  15  18
BRANCH  17  20
ATOM     20  O   UNL     1      71.673 -14.627 -23.031  1.00  0.00    -0.504 OA
ATOM     21  H   UNL     1      71.436 -15.571 -23.313  1.00  0.00     0.293 HD
ENDBRANCH  17  20
ENDBRANCH   1  12
BRANCH   6  22
ATOM     22  O   UNL     1      63.419 -16.241 -17.878  1.00  0.00    -0.507 OA
ATOM     23  H   UNL     1      62.688 -16.916 -17.715  1.00  0.00     0.293 HD
ENDBRANCH   6  22
BRANCH   8  24
ATOM     24  O   UNL     1      66.905 -19.156 -16.330  1.00  0.00    -0.508 OA
ATOM     25  H   UNL     1      67.132 -20.037 -16.776  1.00  0.00     0.293 HD
ENDBRANCH   8  24
TORSDOF 5
ENDMDL
MODEL 4
REMARK VINA RESULT:    -7.434      1.968      3.462
REMARK INTER + INTRA:          -9.055
REMARK INTER:                  -8.764
REMARK INTRA:                  -0.291
REMARK UNBOUND:                -0.318
REMARK SMILES O=c1cc(-c2ccc(O)c(O)c2)oc2cc(O)cc(O)c12
REMARK SMILES IDX 4 1 3 2 2 3 1 4 21 5 19 6 18 7 16 8 15 9 14 10 13 11 5 12
REMARK SMILES IDX 6 13 7 14 8 15 12 16 10 17 9 18 11 20 20 22 17 24
REMARK H PARENT 9 19 11 21 20 23 17 25
REMARK Flexibility Score: inf
ROOT
ATOM      1  C   UNL     1      66.994 -15.622 -19.982  1.00  0.00     0.138 A 
ATOM      2  C   UNL     1      68.378 -15.403 -19.974  1.00  0.00     0.100 A 
ATOM      3  C   UNL     1      68.965 -14.651 -20.993  1.00  0.00     0.197 A 
ATOM      4  O   UNL     1      70.200 -14.426 -20.926  1.00  0.00    -0.289 OA
ATOM      5  C   UNL     1      68.165 -14.147 -22.045  1.00  0.00     0.107 A 
ATOM      6  C   UNL     1      68.657 -13.396 -23.155  1.00  0.00     0.134 A 
ATOM      7  C   UNL     1      67.754 -12.864 -24.085  1.00  0.00     0.093 A 
ATOM      8  C   UNL     1      66.382 -13.106 -23.976  1.00  0.00     0.123 A 
ATOM      9  C   UNL     1      65.897 -13.878 -22.924  1.00  0.00     0.094 A 
ATOM     10  C   UNL     1      66.767 -14.394 -21.962  1.00  0.00     0.146 A 
ATOM     11  O   UNL     1      66.260 -15.111 -20.965  1.00  0.00    -0.456 OA
ENDROOT
BRANCH   1  12
ATOM     12  C   UNL     1      66.318 -16.417 -18.927  1.00  0.00     0.021 A 
ATOM     13  C   UNL     1      64.950 -16.213 -18.677  1.00  0.00     0.016 A 
ATOM     14  C   UNL     1      64.292 -16.943 -17.684  1.00  0.00     0.051 A 
ATOM     15  C   UNL     1      64.988 -17.881 -16.916  1.00  0.00     0.157 A 
ATOM     16  C   UNL     1      67.018 -17.353 -18.141  1.00  0.00     0.062 A 
ATOM     17  C   UNL     1      66.358 -18.085 -17.142  1.00  0.00     0.158 A 
BRANCH  15  18
ATOM     18  O   UNL     1      64.303 -18.595 -15.934  1.00  0.00    -0.504 OA
ATOM     19  H   UNL     1      63.454 -18.244 -15.507  1.00  0.00     0.293 HD
ENDBRANCH  15  18
BRANCH  17  20
ATOM     20  O   UNL     1      67.062 -19.011 -16.371  1.00  0.00    -0.504 OA
ATOM     21  H   UNL     1      67.668 -19.703 -16.794  1.00  0.00     0.293 HD
ENDBRANCH  17  20
ENDBRANCH   1  12
BRANCH   6  22
ATOM     22  O   UNL     1      70.013 -13.163 -23.403  1.00  0.00    -0.507 OA
ATOM     23  H   UNL     1      70.497 -13.405 -24.253  1.00  0.00     0.293 HD
ENDBRANCH   6  22
BRANCH   8  24
ATOM     24  O   UNL     1      65.493 -12.585 -24.914  1.00  0.00    -0.508 OA
ATOM     25  H   UNL     1      65.627 -12.730 -25.908  1.00  0.00     0.293 HD
ENDBRANCH   8  24
TORSDOF 5
ENDMDL
MODEL 5
REMARK VINA RESULT:    -7.397      2.369      7.300
REMARK INTER + INTRA:          -9.012
REMARK INTER:                  -8.732
REMARK INTRA:                  -0.280
REMARK UNBOUND:                -0.318
REMARK SMILES O=c1cc(-c2ccc(O)c(O)c2)oc2cc(O)cc(O)c12
REMARK SMILES IDX 4 1 3 2 2 3 1 4 21 5 19 6 18 7 16 8 15 9 14 10 13 11 5 12
REMARK SMILES IDX 6 13 7 14 8 15 12 16 10 17 9 18 11 20 20 22 17 24
REMARK H PARENT 9 19 11 21 20 23 17 25
REMARK Flexibility Score: inf
ROOT
ATOM      1  C   UNL     1      67.854 -15.113 -19.691  1.00  0.00     0.138 A 
ATOM      2  C   UNL     1      68.303 -16.257 -19.017  1.00  0.00     0.100 A 
ATOM      3  C   UNL     1      67.407 -17.000 -18.247  1.00  0.00     0.197 A 
ATOM      4  O   UNL     1      67.827 -18.052 -17.700  1.00  0.00    -0.289 OA
ATOM      5  C   UNL     1      66.063 -16.575 -18.124  1.00  0.00     0.107 A 
ATOM      6  C   UNL     1      65.068 -17.234 -17.340  1.00  0.00     0.134 A 
ATOM      7  C   UNL     1      63.746 -16.774 -17.374  1.00  0.00     0.093 A 
ATOM      8  C   UNL     1      63.394 -15.645 -18.119  1.00  0.00     0.123 A 
ATOM      9  C   UNL     1      64.366 -14.967 -18.847  1.00  0.00     0.094 A 
ATOM     10  C   UNL     1      65.688 -15.419 -18.862  1.00  0.00     0.146 A 
ATOM     11  O   UNL     1      66.580 -14.752 -19.585  1.00  0.00    -0.456 OA
ENDROOT
BRANCH   1  12
ATOM     12  C   UNL     1      68.764 -14.283 -20.520  1.00  0.00     0.021 A 
ATOM     13  C   UNL     1      68.667 -12.882 -20.462  1.00  0.00     0.016 A 
ATOM     14  C   UNL     1      69.505 -12.077 -21.237  1.00  0.00     0.051 A 
ATOM     15  C   UNL     1      70.448 -12.655 -22.091  1.00  0.00     0.157 A 
ATOM     16  C   UNL     1      69.707 -14.861 -21.393  1.00  0.00     0.062 A 
ATOM     17  C   UNL     1      70.548 -14.054 -22.173  1.00  0.00     0.158 A 
BRANCH  15  18
ATOM     18  O   UNL     1      71.273 -11.827 -22.851  1.00  0.00    -0.504 OA
ATOM     19  H   UNL     1      71.988 -12.197 -23.465  1.00  0.00     0.293 HD
ENDBRANCH  15  18
BRANCH  17  20
ATOM     20  O   UNL     1      71.479 -14.637 -23.033  1.00  0.00    -0.504 OA
ATOM     21  H   UNL     1      71.313 -14.704 -24.029  1.00  0.00     0.293 HD
ENDBRANCH  17  20
ENDBRANCH   1  12
BRANCH   6  22
ATOM     22  O   UNL     1      65.327 -18.321 -16.500  1.00  0.00    -0.507 OA
ATOM     23  H   UNL     1      64.925 -19.239 -16.599  1.00  0.00     0.293 HD
ENDBRANCH   6  22
BRANCH   8  24
ATOM     24  O   UNL     1      62.078 -15.187 -18.135  1.00  0.00    -0.508 OA
ATOM     25  H   UNL     1      61.742 -14.567 -18.861  1.00  0.00     0.293 HD
ENDBRANCH   8  24
TORSDOF 5
ENDMDL
MODEL 6
REMARK VINA RESULT:    -7.380      1.986      2.564
REMARK INTER + INTRA:          -8.991
REMARK INTER:                  -8.682
REMARK INTRA:                  -0.309
REMARK UNBOUND:                -0.318
REMARK SMILES O=c1cc(-c2ccc(O)c(O)c2)oc2cc(O)cc(O)c12
REMARK SMILES IDX 4 1 3 2 2 3 1 4 21 5 19 6 18 7 16 8 15 9 14 10 13 11 5 12
REMARK SMILES IDX 6 13 7 14 8 15 12 16 10 17 9 18 11 20 20 22 17 24
REMARK H PARENT 9 19 11 21 20 23 17 25
REMARK Flexibility Score: inf
ROOT
ATOM      1  C   UNL     1      66.291 -15.671 -20.270  1.00  0.00     0.138 A 
ATOM      2  C   UNL     1      65.420 -15.161 -21.243  1.00  0.00     0.100 A 
ATOM      3  C   UNL     1      65.939 -14.502 -22.358  1.00  0.00     0.197 A 
ATOM      4  O   UNL     1      65.135 -14.106 -23.240  1.00  0.00    -0.289 OA
ATOM      5  C   UNL     1      67.337 -14.323 -22.482  1.00  0.00     0.107 A 
ATOM      6  C   UNL     1      67.979 -13.638 -23.558  1.00  0.00     0.134 A 
ATOM      7  C   UNL     1      69.378 -13.610 -23.621  1.00  0.00     0.093 A 
ATOM      8  C   UNL     1      70.158 -14.192 -22.618  1.00  0.00     0.123 A 
ATOM      9  C   UNL     1      69.541 -14.818 -21.539  1.00  0.00     0.094 A 
ATOM     10  C   UNL     1      68.148 -14.894 -21.463  1.00  0.00     0.146 A 
ATOM     11  O   UNL     1      67.602 -15.517 -20.425  1.00  0.00    -0.456 OA
ENDROOT
BRANCH   1  12
ATOM     12  C   UNL     1      65.793 -16.376 -19.062  1.00  0.00     0.021 A 
ATOM     13  C   UNL     1      64.503 -16.097 -18.582  1.00  0.00     0.016 A 
ATOM     14  C   UNL     1      64.013 -16.740 -17.443  1.00  0.00     0.051 A 
ATOM     15  C   UNL     1      64.805 -17.665 -16.757  1.00  0.00     0.157 A 
ATOM     16  C   UNL     1      66.594 -17.298 -18.359  1.00  0.00     0.062 A 
ATOM     17  C   UNL     1      66.104 -17.943 -17.214  1.00  0.00     0.158 A 
BRANCH  15  18
ATOM     18  O   UNL     1      64.289 -18.293 -15.624  1.00  0.00    -0.504 OA
ATOM     19  H   UNL     1      64.352 -19.295 -15.488  1.00  0.00     0.293 HD
ENDBRANCH  15  18
BRANCH  17  20
ATOM     20  O   UNL     1      66.904 -18.856 -16.528  1.00  0.00    -0.504 OA
ATOM     21  H   UNL     1      66.522 -19.470 -15.819  1.00  0.00     0.293 HD
ENDBRANCH  17  20
ENDBRANCH   1  12
BRANCH   6  22
ATOM     22  O   UNL     1      67.297 -12.956 -24.569  1.00  0.00    -0.507 OA
ATOM     23  H   UNL     1      67.727 -12.542 -25.381  1.00  0.00     0.293 HD
ENDBRANCH   6  22
BRANCH   8  24
ATOM     24  O   UNL     1      71.549 -14.145 -22.683  1.00  0.00    -0.508 OA
ATOM     25  H   UNL     1      72.053 -14.479 -23.496  1.00  0.00     0.293 HD
ENDBRANCH   8  24
TORSDOF 5
ENDMDL
MODEL 7
REMARK VINA RESULT:    -7.319      2.162      2.758
REMARK INTER + INTRA:          -8.921
REMARK INTER:                  -8.620
REMARK INTRA:                  -0.301
REMARK UNBOUND:                -0.318
REMARK SMILES O=c1cc(-c2ccc(O)c(O)c2)oc2cc(O)cc(O)c12
REMARK SMILES IDX 4 1 3 2 2 3 1 4 21 5 19 6 18 7 16 8 15 9 14 10 13 11 5 12
REMARK SMILES IDX 6 13 7 14 8 15 12 16 10 17 9 18 11 20 20 22 17 24
REMARK H PARENT 9 19 11 21 20 23 17 25
REMARK Flexibility Score: inf
ROOT
ATOM      1  C   UNL     1      67.030 -14.824 -19.043  1.00  0.00     0.138 A 
ATOM      2  C   UNL     1      66.699 -13.466 -18.952  1.00  0.00     0.100 A 
ATOM      3  C   UNL     1      67.417 -12.528 -19.696  1.00  0.00     0.197 A 
ATOM      4  O   UNL     1      67.059 -11.324 -19.635  1.00  0.00    -0.289 OA
ATOM      5  C   UNL     1      68.496 -12.951 -20.508  1.00  0.00     0.107 A 
ATOM      6  C   UNL     1      69.321 -12.082 -21.284  1.00  0.00     0.134 A 
ATOM      7  C   UNL     1      70.297 -12.628 -22.127  1.00  0.00     0.093 A 
ATOM      8  C   UNL     1      70.518 -14.007 -22.177  1.00  0.00     0.123 A 
ATOM      9  C   UNL     1      69.752 -14.859 -21.386  1.00  0.00     0.094 A 
ATOM     10  C   UNL     1      68.747 -14.349 -20.561  1.00  0.00     0.146 A 
ATOM     11  O   UNL     1      68.028 -15.199 -19.837  1.00  0.00    -0.456 OA
ENDROOT
BRANCH   1  12
ATOM     12  C   UNL     1      66.304 -15.863 -18.271  1.00  0.00     0.021 A 
ATOM     13  C   UNL     1      64.924 -15.720 -18.046  1.00  0.00     0.016 A 
ATOM     14  C   UNL     1      64.218 -16.679 -17.317  1.00  0.00     0.051 A 
ATOM     15  C   UNL     1      64.877 -17.793 -16.789  1.00  0.00     0.157 A 
ATOM     16  C   UNL     1      66.966 -16.980 -17.725  1.00  0.00     0.062 A 
ATOM     17  C   UNL     1      66.258 -17.943 -16.990  1.00  0.00     0.158 A 
BRANCH  15  18
ATOM     18  O   UNL     1      64.145 -18.734 -16.067  1.00  0.00    -0.504 OA
ATOM     19  H   UNL     1      63.806 -18.549 -15.130  1.00  0.00     0.293 HD
ENDBRANCH  15  18
BRANCH  17  20
ATOM     20  O   UNL     1      66.925 -19.047 -16.456  1.00  0.00    -0.504 OA
ATOM     21  H   UNL     1      66.511 -19.971 -16.462  1.00  0.00     0.293 HD
ENDBRANCH  17  20
ENDBRANCH   1  12
BRANCH   6  22
ATOM     22  O   UNL     1      69.239 -10.687 -21.250  1.00  0.00    -0.507 OA
ATOM     23  H   UNL     1      69.279 -10.124 -20.415  1.00  0.00     0.293 HD
ENDBRANCH   6  22
BRANCH   8  24
ATOM     24  O   UNL     1      71.502 -14.539 -23.007  1.00  0.00    -0.508 OA
ATOM     25  H   UNL     1      71.347 -15.389 -23.536  1.00  0.00     0.293 HD
ENDBRANCH   8  24
TORSDOF 5
ENDMDL
MODEL 8
REMARK VINA RESULT:    -7.261      3.261      5.341
REMARK INTER + INTRA:          -8.852
REMARK INTER:                  -8.564
REMARK INTRA:                  -0.288
REMARK UNBOUND:                -0.318
REMARK SMILES O=c1cc(-c2ccc(O)c(O)c2)oc2cc(O)cc(O)c12
REMARK SMILES IDX 4 1 3 2 2 3 1 4 21 5 19 6 18 7 16 8 15 9 14 10 13 11 5 12
REMARK SMILES IDX 6 13 7 14 8 15 12 16 10 17 9 18 11 20 20 22 17 24
REMARK H PARENT 9 19 11 21 20 23 17 25
REMARK Flexibility Score: inf
ROOT
ATOM      1  C   UNL     1      65.295 -15.984 -18.145  1.00  0.00     0.138 A 
ATOM      2  C   UNL     1      66.595 -15.956 -17.622  1.00  0.00     0.100 A 
ATOM      3  C   UNL     1      67.661 -15.577 -18.441  1.00  0.00     0.197 A 
ATOM      4  O   UNL     1      68.807 -15.508 -17.927  1.00  0.00    -0.289 OA
ATOM      5  C   UNL     1      67.426 -15.260 -19.799  1.00  0.00     0.107 A 
ATOM      6  C   UNL     1      68.438 -14.894 -20.737  1.00  0.00     0.134 A 
ATOM      7  C   UNL     1      68.072 -14.506 -22.032  1.00  0.00     0.093 A 
ATOM      8  C   UNL     1      66.736 -14.526 -22.440  1.00  0.00     0.123 A 
ATOM      9  C   UNL     1      65.746 -14.930 -21.548  1.00  0.00     0.094 A 
ATOM     10  C   UNL     1      66.075 -15.290 -20.239  1.00  0.00     0.146 A 
ATOM     11  O   UNL     1      65.097 -15.652 -19.416  1.00  0.00    -0.456 OA
ENDROOT
BRANCH   1  12
ATOM     12  C   UNL     1      64.127 -16.383 -17.321  1.00  0.00     0.021 A 
ATOM     13  C   UNL     1      62.859 -15.853 -17.617  1.00  0.00     0.016 A 
ATOM     14  C   UNL     1      61.744 -16.206 -16.853  1.00  0.00     0.051 A 
ATOM     15  C   UNL     1      61.875 -17.086 -15.775  1.00  0.00     0.157 A 
ATOM     16  C   UNL     1      64.256 -17.258 -16.225  1.00  0.00     0.062 A 
ATOM     17  C   UNL     1      63.137 -17.612 -15.456  1.00  0.00     0.158 A 
BRANCH  15  18
ATOM     18  O   UNL     1      60.744 -17.421 -15.032  1.00  0.00    -0.504 OA
ATOM     19  H   UNL     1      60.246 -16.738 -14.472  1.00  0.00     0.293 HD
ENDBRANCH  15  18
BRANCH  17  20
ATOM     20  O   UNL     1      63.277 -18.481 -14.374  1.00  0.00    -0.504 OA
ATOM     21  H   UNL     1      64.178 -18.861 -14.110  1.00  0.00     0.293 HD
ENDBRANCH  17  20
ENDBRANCH   1  12
BRANCH   6  22
ATOM     22  O   UNL     1      69.808 -14.914 -20.459  1.00  0.00    -0.507 OA
ATOM     23  H   UNL     1      70.494 -14.307 -20.878  1.00  0.00     0.293 HD
ENDBRANCH   6  22
BRANCH   8  24
ATOM     24  O   UNL     1      66.383 -14.153 -23.735  1.00  0.00    -0.508 OA
ATOM     25  H   UNL     1      65.576 -13.567 -23.917  1.00  0.00     0.293 HD
ENDBRANCH   8  24
TORSDOF 5
ENDMDL
MODEL 9
REMARK VINA RESULT:    -7.233      3.025      4.130
REMARK INTER + INTRA:          -8.819
REMARK INTER:                  -8.502
REMARK INTRA:                  -0.317
REMARK UNBOUND:                -0.318
REMARK SMILES O=c1cc(-c2ccc(O)c(O)c2)oc2cc(O)cc(O)c12
REMARK SMILES IDX 4 1 3 2 2 3 1 4 21 5 19 6 18 7 16 8 15 9 14 10 13 11 5 12
REMARK SMILES IDX 6 13 7 14 8 15 12 16 10 17 9 18 11 20 20 22 17 24
REMARK H PARENT 9 19 11 21 20 23 17 25
REMARK Flexibility Score: inf
ROOT
ATOM      1  C   UNL     1      66.468 -15.297 -18.378  1.00  0.00     0.138 A 
ATOM      2  C   UNL     1      67.455 -15.794 -19.239  1.00  0.00     0.100 A 
ATOM      3  C   UNL     1      68.220 -14.907 -19.998  1.00  0.00     0.197 A 
ATOM      4  O   UNL     1      69.135 -15.380 -20.719  1.00  0.00    -0.289 OA
ATOM      5  C   UNL     1      67.969 -13.516 -19.919  1.00  0.00     0.107 A 
ATOM      6  C   UNL     1      68.662 -12.519 -20.671  1.00  0.00     0.134 A 
ATOM      7  C   UNL     1      68.392 -11.165 -20.435  1.00  0.00     0.093 A 
ATOM      8  C   UNL     1      67.414 -10.774 -19.517  1.00  0.00     0.123 A 
ATOM      9  C   UNL     1      66.698 -11.740 -18.815  1.00  0.00     0.094 A 
ATOM     10  C   UNL     1      66.967 -13.098 -19.002  1.00  0.00     0.146 A 
ATOM     11  O   UNL     1      66.273 -13.985 -18.299  1.00  0.00    -0.456 OA
ENDROOT
BRANCH   1  12
ATOM     12  C   UNL     1      65.623 -16.195 -17.551  1.00  0.00     0.021 A 
ATOM     13  C   UNL     1      65.695 -17.585 -17.745  1.00  0.00     0.016 A 
ATOM     14  C   UNL     1      64.905 -18.452 -16.986  1.00  0.00     0.051 A 
ATOM     15  C   UNL     1      64.022 -17.947 -16.027  1.00  0.00     0.157 A 
ATOM     16  C   UNL     1      64.720 -15.691 -16.594  1.00  0.00     0.062 A 
ATOM     17  C   UNL     1      63.925 -16.560 -15.832  1.00  0.00     0.158 A 
BRANCH  15  18
ATOM     18  O   UNL     1      63.248 -18.837 -15.284  1.00  0.00    -0.504 OA
ATOM     19  H   UNL     1      63.296 -18.877 -14.273  1.00  0.00     0.293 HD
ENDBRANCH  15  18
BRANCH  17  20
ATOM     20  O   UNL     1      63.036 -16.049 -14.886  1.00  0.00    -0.504 OA
ATOM     21  H   UNL     1      62.270 -16.603 -14.524  1.00  0.00     0.293 HD
ENDBRANCH  17  20
ENDBRANCH   1  12
BRANCH   6  22
ATOM     22  O   UNL     1      69.600 -12.802 -21.668  1.00  0.00    -0.507 OA
ATOM     23  H   UNL     1      70.337 -12.182 -21.964  1.00  0.00     0.293 HD
ENDBRANCH   6  22
BRANCH   8  24
ATOM     24  O   UNL     1      67.143  -9.425 -19.300  1.00  0.00    -0.508 OA
ATOM     25  H   UNL     1      66.207  -9.100 -19.087  1.00  0.00     0.293 HD
ENDBRANCH   8  24
TORSDOF 5
ENDMDL
