MODEL 1
REMARK VINA RESULT:    -1.438      0.000      0.000
REMARK INTER + INTRA:          -1.480
REMARK INTER:                  -1.480
REMARK INTRA:                   0.000
REMARK UNBOUND:                 0.000
REMARK SMILES O=c1ccc2ccc(O)cc2o1
REMARK SMILES IDX 6 1 7 2 8 3 10 4 11 5 5 6 4 7 3 8 2 9 1 10 12 11 9 12
REMARK H PARENT 9 13
REMARK Flexibility Score: inf
ROOT
ATOM      1  C   UNL     1      27.424  29.708   3.677  1.00  0.00     0.016 A 
ATOM      2  C   UNL     1      27.727  30.877   2.973  1.00  0.00     0.047 A 
ATOM      3  C   UNL     1      27.912  30.837   1.582  1.00  0.00     0.119 A 
ATOM      4  C   UNL     1      27.793  29.623   0.897  1.00  0.00     0.094 A 
ATOM      5  C   UNL     1      27.490  28.448   1.594  1.00  0.00     0.142 A 
ATOM      6  C   UNL     1      27.304  28.491   2.993  1.00  0.00     0.018 A 
ATOM      7  C   UNL     1      27.002  27.300   3.662  1.00  0.00     0.019 A 
ATOM      8  C   UNL     1      26.893  26.115   2.935  1.00  0.00     0.094 A 
ATOM      9  C   UNL     1      27.090  26.149   1.550  1.00  0.00     0.336 A 
ATOM     10  O   UNL     1      26.997  25.089   0.876  1.00  0.00    -0.246 OA
ATOM     11  O   UNL     1      27.377  27.295   0.937  1.00  0.00    -0.423 OA
ENDROOT
BRANCH   3  12
ATOM     12  O   UNL     1      28.215  31.998   0.875  1.00  0.00    -0.508 OA
ATOM     13  H   UNL     1      28.409  31.977  -0.119  1.00  0.00     0.293 HD
ENDBRANCH   3  12
TORSDOF 1
ENDMDL
MODEL 2
REMARK VINA RESULT:    -1.369      0.781      4.222
REMARK INTER + INTRA:          -1.409
REMARK INTER:                  -1.409
REMARK INTRA:                   0.000
REMARK UNBOUND:                 0.000
REMARK SMILES O=c1ccc2ccc(O)cc2o1
REMARK SMILES IDX 6 1 7 2 8 3 10 4 11 5 5 6 4 7 3 8 2 9 1 10 12 11 9 12
REMARK H PARENT 9 13
REMARK Flexibility Score: inf
ROOT
ATOM      1  C   UNL     1      26.992  27.486   3.657  1.00  0.00     0.016 A 
ATOM      2  C   UNL     1      26.860  26.282   2.959  1.00  0.00     0.047 A 
ATOM      3  C   UNL     1      27.116  26.231   1.580  1.00  0.00     0.119 A 
ATOM      4  C   UNL     1      27.504  27.391   0.900  1.00  0.00     0.094 A 
ATOM      5  C   UNL     1      27.637  28.601   1.590  1.00  0.00     0.142 A 
ATOM      6  C   UNL     1      27.380  28.649   2.978  1.00  0.00     0.018 A 
ATOM      7  C   UNL     1      27.522  29.872   3.640  1.00  0.00     0.019 A 
ATOM      8  C   UNL     1      27.910  31.001   2.918  1.00  0.00     0.094 A 
ATOM      9  C   UNL     1      28.149  30.878   1.545  1.00  0.00     0.336 A 
ATOM     10  O   UNL     1      28.500  31.885   0.876  1.00  0.00    -0.246 OA
ATOM     11  O   UNL     1      28.007  29.701   0.938  1.00  0.00    -0.423 OA
ENDROOT
BRANCH   3  12
ATOM     12  O   UNL     1      26.987  25.035   0.879  1.00  0.00    -0.508 OA
ATOM     13  H   UNL     1      26.392  24.287   1.213  1.00  0.00     0.293 HD
ENDBRANCH   3  12
TORSDOF 1
ENDMDL
MODEL 3
REMARK VINA RESULT:     0.045      1.336      1.431
REMARK INTER + INTRA:           0.046
REMARK INTER:                   0.046
REMARK INTRA:                   0.000
REMARK UNBOUND:                 0.000
REMARK SMILES O=c1ccc2ccc(O)cc2o1
REMARK SMILES IDX 6 1 7 2 8 3 10 4 11 5 5 6 4 7 3 8 2 9 1 10 12 11 9 12
REMARK H PARENT 9 13
REMARK Flexibility Score: inf
ROOT
ATOM      1  C   UNL     1      29.636  29.376   2.345  1.00  0.00     0.016 A 
ATOM      2  C   UNL     1      29.443  30.696   1.927  1.00  0.00     0.047 A 
ATOM      3  C   UNL     1      28.248  31.070   1.293  1.00  0.00     0.119 A 
ATOM      4  C   UNL     1      27.245  30.118   1.077  1.00  0.00     0.094 A 
ATOM      5  C   UNL     1      27.430  28.794   1.492  1.00  0.00     0.142 A 
ATOM      6  C   UNL     1      28.633  28.421   2.130  1.00  0.00     0.018 A 
ATOM      7  C   UNL     1      28.789  27.091   2.532  1.00  0.00     0.019 A 
ATOM      8  C   UNL     1      27.761  26.178   2.295  1.00  0.00     0.094 A 
ATOM      9  C   UNL     1      26.596  26.621   1.658  1.00  0.00     0.336 A 
ATOM     10  O   UNL     1      25.658  25.812   1.434  1.00  0.00    -0.246 OA
ATOM     11  O   UNL     1      26.473  27.893   1.284  1.00  0.00    -0.423 OA
ENDROOT
BRANCH   3  12
ATOM     12  O   UNL     1      28.049  32.383   0.875  1.00  0.00    -0.508 OA
ATOM     13  H   UNL     1      27.124  32.739   0.667  1.00  0.00     0.293 HD
ENDBRANCH   3  12
TORSDOF 1
ENDMDL
MODEL 4
REMARK VINA RESULT:     0.961      2.940      4.223
REMARK INTER + INTRA:           0.989
REMARK INTER:                   0.989
REMARK INTRA:                   0.000
REMARK UNBOUND:                 0.000
REMARK SMILES O=c1ccc2ccc(O)cc2o1
REMARK SMILES IDX 6 1 7 2 8 3 10 4 11 5 5 6 4 7 3 8 2 9 1 10 12 11 9 12
REMARK H PARENT 9 13
REMARK Flexibility Score: inf
ROOT
ATOM      1  C   UNL     1      30.626  28.217   2.202  1.00  0.00     0.016 A 
ATOM      2  C   UNL     1      31.567  28.648   3.142  1.00  0.00     0.047 A 
ATOM      3  C   UNL     1      31.348  29.825   3.874  1.00  0.00     0.119 A 
ATOM      4  C   UNL     1      30.185  30.573   3.661  1.00  0.00     0.094 A 
ATOM      5  C   UNL     1      29.238  30.150   2.722  1.00  0.00     0.142 A 
ATOM      6  C   UNL     1      29.460  28.964   1.988  1.00  0.00     0.018 A 
ATOM      7  C   UNL     1      28.495  28.567   1.056  1.00  0.00     0.019 A 
ATOM      8  C   UNL     1      27.351  29.346   0.880  1.00  0.00     0.094 A 
ATOM      9  C   UNL     1      27.199  30.508   1.644  1.00  0.00     0.336 A 
ATOM     10  O   UNL     1      26.174  31.225   1.499  1.00  0.00    -0.246 OA
ATOM     11  O   UNL     1      28.132  30.864   2.524  1.00  0.00    -0.423 OA
ENDROOT
BRANCH   3  12
ATOM     12  O   UNL     1      32.281  30.259   4.812  1.00  0.00    -0.508 OA
ATOM     13  H   UNL     1      32.562  29.675   5.590  1.00  0.00     0.293 HD
ENDBRANCH   3  12
TORSDOF 1
ENDMDL
