MODEL 1
REMARK VINA RESULT:    -3.437      0.000      0.000
REMARK INTER + INTRA:         -13.798
REMARK INTER:                  -9.064
REMARK INTRA:                  -4.734
REMARK UNBOUND:                -4.734
REMARK SMILES CCCCCCCCCCCCCCCCCCCCCCCCCCCCCC(=O)[O-]
REMARK SMILES IDX 16 1 17 2 18 3 19 4 20 5 21 6 22 7 23 8 24 9 25 10 26 11
REMARK SMILES IDX 27 12 28 13 29 14 30 15 31 16 32 17 15 18 14 19 13 20 12 21
REMARK SMILES IDX 11 22 10 23 9 24 8 25 7 26 6 27 5 28 4 29 3 30 2 31 1 32
REMARK H PARENT
REMARK Flexibility Score: inf
ROOT
ATOM      1  C   UNL     1      67.245  27.107  59.100  1.00  0.00     0.000 C 
ENDROOT
BRANCH   1   2
ATOM      2  C   UNL     1      66.629  28.506  58.924  1.00  0.00     0.000 C 
BRANCH   2   3
ATOM      3  C   UNL     1      65.168  28.570  59.402  1.00  0.00     0.000 C 
BRANCH   3   4
ATOM      4  C   UNL     1      64.873  29.831  60.232  1.00  0.00     0.000 C 
BRANCH   4   5
ATOM      5  C   UNL     1      63.524  29.757  60.965  1.00  0.00     0.000 C 
BRANCH   5   6
ATOM      6  C   UNL     1      62.680  28.551  60.528  1.00  0.00     0.000 C 
BRANCH   6   7
ATOM      7  C   UNL     1      61.193  28.928  60.414  1.00  0.00     0.000 C 
BRANCH   7   8
ATOM      8  C   UNL     1      60.760  29.186  58.955  1.00  0.00     0.000 C 
BRANCH   8   9
ATOM      9  C   UNL     1      60.151  30.582  58.732  1.00  0.00     0.000 C 
BRANCH   9  10
ATOM     10  C   UNL     1      61.052  31.495  57.887  1.00  0.00     0.000 C 
BRANCH  10  11
ATOM     11  C   UNL     1      62.094  32.253  58.725  1.00  0.00     0.000 C 
BRANCH  11  12
ATOM     12  C   UNL     1      63.465  32.432  58.044  1.00  0.00     0.000 C 
BRANCH  12  13
ATOM     13  C   UNL     1      64.477  33.307  58.811  1.00  0.00     0.006 C 
BRANCH  13  14
ATOM     14  C   UNL     1      64.214  33.389  60.326  1.00  0.00     0.053 C 
BRANCH  14  15
ATOM     15  C   UNL     1      63.871  34.780  60.771  1.00  0.00     0.041 C 
ATOM     16  O   UNL     1      64.725  35.483  61.373  1.00  0.00    -0.550 OA
ATOM     17  O   UNL     1      62.600  35.292  60.543  1.00  0.00    -0.550 OA
ENDBRANCH  14  15
ENDBRANCH  13  14
ENDBRANCH  12  13
ENDBRANCH  11  12
ENDBRANCH  10  11
ENDBRANCH   9  10
ENDBRANCH   8   9
ENDBRANCH   7   8
ENDBRANCH   6   7
ENDBRANCH   5   6
ENDBRANCH   4   5
ENDBRANCH   3   4
ENDBRANCH   2   3
ENDBRANCH   1   2
BRANCH   1  18
ATOM     18  C   UNL     1      68.524  27.129  59.950  1.00  0.00     0.000 C 
BRANCH  18  19
ATOM     19  C   UNL     1      68.530  28.268  60.984  1.00  0.00     0.000 C 
BRANCH  19  20
ATOM     20  C   UNL     1      69.952  28.689  61.388  1.00  0.00     0.000 C 
BRANCH  20  21
ATOM     21  C   UNL     1      71.037  27.917  60.617  1.00  0.00     0.000 C 
BRANCH  21  22
ATOM     22  C   UNL     1      72.456  28.417  60.924  1.00  0.00     0.000 C 
BRANCH  22  23
ATOM     23  C   UNL     1      72.512  29.934  61.179  1.00  0.00     0.000 C 
BRANCH  23  24
ATOM     24  C   UNL     1      72.489  30.747  59.873  1.00  0.00    -0.000 C 
BRANCH  24  25
ATOM     25  C   UNL     1      71.342  31.768  59.837  1.00  0.00    -0.000 C 
BRANCH  25  26
ATOM     26  C   UNL     1      70.645  31.765  58.468  1.00  0.00    -0.000 C 
BRANCH  26  27
ATOM     27  C   UNL     1      69.781  30.513  58.240  1.00  0.00    -0.000 C 
BRANCH  27  28
ATOM     28  C   UNL     1      70.069  29.832  56.891  1.00  0.00    -0.000 C 
BRANCH  28  29
ATOM     29  C   UNL     1      71.153  28.742  56.993  1.00  0.00    -0.000 C 
BRANCH  29  30
ATOM     30  C   UNL     1      70.624  27.295  57.053  1.00  0.00    -0.000 C 
BRANCH  30  31
ATOM     31  C   UNL     1      71.706  26.216  57.235  1.00  0.00    -0.003 C 
ATOM     32  C   UNL     1      73.060  26.793  57.647  1.00  0.00     0.004 C 
ENDBRANCH  30  31
ENDBRANCH  29  30
ENDBRANCH  28  29
ENDBRANCH  27  28
ENDBRANCH  26  27
ENDBRANCH  25  26
ENDBRANCH  24  25
ENDBRANCH  23  24
ENDBRANCH  22  23
ENDBRANCH  21  22
ENDBRANCH  20  21
ENDBRANCH  19  20
ENDBRANCH  18  19
ENDBRANCH   1  18
TORSDOF 28
ENDMDL
MODEL 2
REMARK VINA RESULT:    -3.340     11.951     15.199
REMARK INTER + INTRA:         -13.541
REMARK INTER:                  -8.678
REMARK INTRA:                  -4.863
REMARK UNBOUND:                -4.734
REMARK SMILES CCCCCCCCCCCCCCCCCCCCCCCCCCCCCC(=O)[O-]
REMARK SMILES IDX 16 1 17 2 18 3 19 4 20 5 21 6 22 7 23 8 24 9 25 10 26 11
REMARK SMILES IDX 27 12 28 13 29 14 30 15 31 16 32 17 15 18 14 19 13 20 12 21
REMARK SMILES IDX 11 22 10 23 9 24 8 25 7 26 6 27 5 28 4 29 3 30 2 31 1 32
REMARK H PARENT
REMARK Flexibility Score: inf
ROOT
ATOM      1  C   UNL     1      58.990  25.154  51.780  1.00  0.00     0.000 C 
ENDROOT
BRANCH   1   2
ATOM      2  C   UNL     1      60.299  24.941  52.560  1.00  0.00     0.000 C 
BRANCH   2   3
ATOM      3  C   UNL     1      60.189  23.808  53.595  1.00  0.00     0.000 C 
BRANCH   3   4
ATOM      4  C   UNL     1      60.438  22.420  52.980  1.00  0.00     0.000 C 
BRANCH   4   5
ATOM      5  C   UNL     1      59.148  21.600  52.822  1.00  0.00     0.000 C 
BRANCH   5   6
ATOM      6  C   UNL     1      59.376  20.280  52.069  1.00  0.00     0.000 C 
BRANCH   6   7
ATOM      7  C   UNL     1      60.702  19.625  52.489  1.00  0.00     0.000 C 
BRANCH   7   8
ATOM      8  C   UNL     1      61.031  18.370  51.654  1.00  0.00     0.000 C 
BRANCH   8   9
ATOM      9  C   UNL     1      59.940  18.010  50.629  1.00  0.00     0.000 C 
BRANCH   9  10
ATOM     10  C   UNL     1      59.348  16.611  50.859  1.00  0.00     0.000 C 
BRANCH  10  11
ATOM     11  C   UNL     1      57.936  16.453  50.270  1.00  0.00     0.000 C 
BRANCH  11  12
ATOM     12  C   UNL     1      57.321  17.748  49.705  1.00  0.00     0.000 C 
BRANCH  12  13
ATOM     13  C   UNL     1      56.021  18.217  50.386  1.00  0.00     0.006 C 
BRANCH  13  14
ATOM     14  C   UNL     1      56.188  18.588  51.872  1.00  0.00     0.053 C 
BRANCH  14  15
ATOM     15  C   UNL     1      55.150  19.565  52.337  1.00  0.00     0.041 C 
ATOM     16  O   UNL     1      55.310  20.197  53.414  1.00  0.00    -0.550 OA
ATOM     17  O   UNL     1      53.993  19.759  51.594  1.00  0.00    -0.550 OA
ENDBRANCH  14  15
ENDBRANCH  13  14
ENDBRANCH  12  13
ENDBRANCH  11  12
ENDBRANCH  10  11
ENDBRANCH   9  10
ENDBRANCH   8   9
ENDBRANCH   7   8
ENDBRANCH   6   7
ENDBRANCH   5   6
ENDBRANCH   4   5
ENDBRANCH   3   4
ENDBRANCH   2   3
ENDBRANCH   1   2
BRANCH   1  18
ATOM     18  C   UNL     1      59.054  24.585  50.355  1.00  0.00     0.000 C 
BRANCH  18  19
ATOM     19  C   UNL     1      58.112  25.313  49.381  1.00  0.00     0.000 C 
BRANCH  19  20
ATOM     20  C   UNL     1      57.017  26.110  50.107  1.00  0.00     0.000 C 
BRANCH  20  21
ATOM     21  C   UNL     1      56.986  27.590  49.685  1.00  0.00     0.000 C 
BRANCH  21  22
ATOM     22  C   UNL     1      58.365  28.117  49.262  1.00  0.00     0.000 C 
BRANCH  22  23
ATOM     23  C   UNL     1      59.176  28.680  50.442  1.00  0.00     0.000 C 
BRANCH  23  24
ATOM     24  C   UNL     1      60.670  28.833  50.105  1.00  0.00    -0.000 C 
BRANCH  24  25
ATOM     25  C   UNL     1      61.239  27.597  49.393  1.00  0.00    -0.000 C 
BRANCH  25  26
ATOM     26  C   UNL     1      62.774  27.578  49.466  1.00  0.00    -0.000 C 
BRANCH  26  27
ATOM     27  C   UNL     1      63.336  26.208  49.883  1.00  0.00    -0.000 C 
BRANCH  27  28
ATOM     28  C   UNL     1      62.377  25.051  49.555  1.00  0.00    -0.000 C 
BRANCH  28  29
ATOM     29  C   UNL     1      63.099  23.697  49.428  1.00  0.00    -0.000 C 
BRANCH  29  30
ATOM     30  C   UNL     1      62.510  22.556  50.282  1.00  0.00    -0.000 C 
BRANCH  30  31
ATOM     31  C   UNL     1      62.054  21.320  49.488  1.00  0.00    -0.003 C 
ATOM     32  C   UNL     1      60.769  21.560  48.696  1.00  0.00     0.004 C 
ENDBRANCH  30  31
ENDBRANCH  29  30
ENDBRANCH  28  29
ENDBRANCH  27  28
ENDBRANCH  26  27
ENDBRANCH  25  26
ENDBRANCH  24  25
ENDBRANCH  23  24
ENDBRANCH  22  23
ENDBRANCH  21  22
ENDBRANCH  20  21
ENDBRANCH  19  20
ENDBRANCH  18  19
ENDBRANCH   1  18
TORSDOF 28
ENDMDL
MODEL 3
REMARK VINA RESULT:    -3.320     11.452     15.027
REMARK INTER + INTRA:         -13.489
REMARK INTER:                  -8.619
REMARK INTRA:                  -4.870
REMARK UNBOUND:                -4.734
REMARK SMILES CCCCCCCCCCCCCCCCCCCCCCCCCCCCCC(=O)[O-]
REMARK SMILES IDX 16 1 17 2 18 3 19 4 20 5 21 6 22 7 23 8 24 9 25 10 26 11
REMARK SMILES IDX 27 12 28 13 29 14 30 15 31 16 32 17 15 18 14 19 13 20 12 21
REMARK SMILES IDX 11 22 10 23 9 24 8 25 7 26 6 27 5 28 4 29 3 30 2 31 1 32
REMARK H PARENT
REMARK Flexibility Score: inf
ROOT
ATOM      1  C   UNL     1      60.768  24.393  50.519  1.00  0.00     0.000 C 
ENDROOT
BRANCH   1   2
ATOM      2  C   UNL     1      61.422  25.207  49.388  1.00  0.00     0.000 C 
BRANCH   2   3
ATOM      3  C   UNL     1      62.956  25.093  49.392  1.00  0.00     0.000 C 
BRANCH   3   4
ATOM      4  C   UNL     1      63.458  23.910  50.238  1.00  0.00     0.000 C 
BRANCH   4   5
ATOM      5  C   UNL     1      63.996  22.753  49.383  1.00  0.00     0.000 C 
BRANCH   5   6
ATOM      6  C   UNL     1      63.084  21.517  49.422  1.00  0.00     0.000 C 
BRANCH   6   7
ATOM      7  C   UNL     1      62.095  21.522  48.244  1.00  0.00     0.000 C 
BRANCH   7   8
ATOM      8  C   UNL     1      60.668  21.119  48.670  1.00  0.00     0.000 C 
BRANCH   8   9
ATOM      9  C   UNL     1      60.564  20.690  50.145  1.00  0.00     0.000 C 
BRANCH   9  10
ATOM     10  C   UNL     1      59.704  19.433  50.340  1.00  0.00     0.000 C 
BRANCH  10  11
ATOM     11  C   UNL     1      59.289  18.778  49.012  1.00  0.00     0.000 C 
BRANCH  11  12
ATOM     12  C   UNL     1      58.241  17.655  49.145  1.00  0.00     0.000 C 
BRANCH  12  13
ATOM     13  C   UNL     1      57.650  17.463  50.556  1.00  0.00     0.006 C 
BRANCH  13  14
ATOM     14  C   UNL     1      56.257  18.094  50.745  1.00  0.00     0.053 C 
BRANCH  14  15
ATOM     15  C   UNL     1      56.039  18.587  52.144  1.00  0.00     0.041 C 
ATOM     16  O   UNL     1      56.993  19.083  52.799  1.00  0.00    -0.550 OA
ATOM     17  O   UNL     1      54.787  18.475  52.735  1.00  0.00    -0.550 OA
ENDBRANCH  14  15
ENDBRANCH  13  14
ENDBRANCH  12  13
ENDBRANCH  11  12
ENDBRANCH  10  11
ENDBRANCH   9  10
ENDBRANCH   8   9
ENDBRANCH   7   8
ENDBRANCH   6   7
ENDBRANCH   5   6
ENDBRANCH   4   5
ENDBRANCH   3   4
ENDBRANCH   2   3
ENDBRANCH   1   2
BRANCH   1  18
ATOM     18  C   UNL     1      59.254  24.228  50.326  1.00  0.00     0.000 C 
BRANCH  18  19
ATOM     19  C   UNL     1      58.667  25.246  49.331  1.00  0.00     0.000 C 
BRANCH  19  20
ATOM     20  C   UNL     1      57.334  25.840  49.815  1.00  0.00     0.000 C 
BRANCH  20  21
ATOM     21  C   UNL     1      57.317  27.377  49.754  1.00  0.00     0.000 C 
BRANCH  21  22
ATOM     22  C   UNL     1      58.696  27.999  50.022  1.00  0.00     0.000 C 
BRANCH  22  23
ATOM     23  C   UNL     1      58.684  28.989  51.201  1.00  0.00     0.000 C 
BRANCH  23  24
ATOM     24  C   UNL     1      58.686  28.275  52.564  1.00  0.00    -0.000 C 
BRANCH  24  25
ATOM     25  C   UNL     1      59.675  27.101  52.610  1.00  0.00    -0.000 C 
BRANCH  25  26
ATOM     26  C   UNL     1      60.989  27.515  53.292  1.00  0.00    -0.000 C 
BRANCH  26  27
ATOM     27  C   UNL     1      62.225  27.256  52.414  1.00  0.00    -0.000 C 
BRANCH  27  28
ATOM     28  C   UNL     1      62.385  28.299  51.295  1.00  0.00    -0.000 C 
BRANCH  28  29
ATOM     29  C   UNL     1      62.525  29.735  51.834  1.00  0.00    -0.000 C 
BRANCH  29  30
ATOM     30  C   UNL     1      61.911  30.834  50.943  1.00  0.00    -0.000 C 
BRANCH  30  31
ATOM     31  C   UNL     1      62.185  30.678  49.438  1.00  0.00    -0.003 C 
ATOM     32  C   UNL     1      62.604  31.987  48.769  1.00  0.00     0.004 C 
ENDBRANCH  30  31
ENDBRANCH  29  30
ENDBRANCH  28  29
ENDBRANCH  27  28
ENDBRANCH  26  27
ENDBRANCH  25  26
ENDBRANCH  24  25
ENDBRANCH  23  24
ENDBRANCH  22  23
ENDBRANCH  21  22
ENDBRANCH  20  21
ENDBRANCH  19  20
ENDBRANCH  18  19
ENDBRANCH   1  18
TORSDOF 28
ENDMDL
MODEL 4
REMARK VINA RESULT:    -3.308     10.155     12.128
REMARK INTER + INTRA:         -13.457
REMARK INTER:                  -7.581
REMARK INTRA:                  -5.876
REMARK UNBOUND:                -4.734
REMARK SMILES CCCCCCCCCCCCCCCCCCCCCCCCCCCCCC(=O)[O-]
REMARK SMILES IDX 16 1 17 2 18 3 19 4 20 5 21 6 22 7 23 8 24 9 25 10 26 11
REMARK SMILES IDX 27 12 28 13 29 14 30 15 31 16 32 17 15 18 14 19 13 20 12 21
REMARK SMILES IDX 11 22 10 23 9 24 8 25 7 26 6 27 5 28 4 29 3 30 2 31 1 32
REMARK H PARENT
REMARK Flexibility Score: inf
ROOT
ATOM      1  C   UNL     1      59.985  27.297  48.630  1.00  0.00     0.000 C 
ENDROOT
BRANCH   1   2
ATOM      2  C   UNL     1      58.944  28.428  48.555  1.00  0.00     0.000 C 
BRANCH   2   3
ATOM      3  C   UNL     1      58.236  28.667  49.899  1.00  0.00     0.000 C 
BRANCH   3   4
ATOM      4  C   UNL     1      56.726  28.908  49.737  1.00  0.00     0.000 C 
BRANCH   4   5
ATOM      5  C   UNL     1      55.891  28.190  50.809  1.00  0.00     0.000 C 
BRANCH   5   6
ATOM      6  C   UNL     1      56.495  26.838  51.220  1.00  0.00     0.000 C 
BRANCH   6   7
ATOM      7  C   UNL     1      56.235  26.546  52.707  1.00  0.00     0.000 C 
BRANCH   7   8
ATOM      8  C   UNL     1      57.521  26.158  53.467  1.00  0.00     0.000 C 
BRANCH   8   9
ATOM      9  C   UNL     1      58.767  26.082  52.566  1.00  0.00     0.000 C 
BRANCH   9  10
ATOM     10  C   UNL     1      59.816  27.150  52.910  1.00  0.00     0.000 C 
BRANCH  10  11
ATOM     11  C   UNL     1      59.323  28.159  53.960  1.00  0.00     0.000 C 
BRANCH  11  12
ATOM     12  C   UNL     1      59.092  29.587  53.428  1.00  0.00     0.000 C 
BRANCH  12  13
ATOM     13  C   UNL     1      57.627  30.066  53.431  1.00  0.00     0.006 C 
BRANCH  13  14
ATOM     14  C   UNL     1      57.363  31.286  52.528  1.00  0.00     0.053 C 
BRANCH  14  15
ATOM     15  C   UNL     1      55.907  31.641  52.459  1.00  0.00     0.041 C 
ATOM     16  O   UNL     1      55.243  31.806  53.515  1.00  0.00    -0.550 OA
ATOM     17  O   UNL     1      55.278  31.765  51.227  1.00  0.00    -0.550 OA
ENDBRANCH  14  15
ENDBRANCH  13  14
ENDBRANCH  12  13
ENDBRANCH  11  12
ENDBRANCH  10  11
ENDBRANCH   9  10
ENDBRANCH   8   9
ENDBRANCH   7   8
ENDBRANCH   6   7
ENDBRANCH   5   6
ENDBRANCH   4   5
ENDBRANCH   3   4
ENDBRANCH   2   3
ENDBRANCH   1   2
BRANCH   1  18
ATOM     18  C   UNL     1      59.359  25.943  48.997  1.00  0.00     0.000 C 
BRANCH  18  19
ATOM     19  C   UNL     1      60.407  24.897  49.414  1.00  0.00     0.000 C 
BRANCH  19  20
ATOM     20  C   UNL     1      61.639  25.532  50.079  1.00  0.00     0.000 C 
BRANCH  20  21
ATOM     21  C   UNL     1      62.960  25.058  49.447  1.00  0.00     0.000 C 
BRANCH  21  22
ATOM     22  C   UNL     1      63.731  26.194  48.758  1.00  0.00     0.000 C 
BRANCH  22  23
ATOM     23  C   UNL     1      63.757  27.488  49.590  1.00  0.00     0.000 C 
BRANCH  23  24
ATOM     24  C   UNL     1      63.225  28.699  48.805  1.00  0.00    -0.000 C 
BRANCH  24  25
ATOM     25  C   UNL     1      63.207  29.984  49.647  1.00  0.00    -0.000 C 
BRANCH  25  26
ATOM     26  C   UNL     1      61.794  30.275  50.176  1.00  0.00    -0.000 C 
BRANCH  26  27
ATOM     27  C   UNL     1      61.793  30.775  51.631  1.00  0.00    -0.000 C 
BRANCH  27  28
ATOM     28  C   UNL     1      61.206  32.189  51.770  1.00  0.00    -0.000 C 
BRANCH  28  29
ATOM     29  C   UNL     1      62.275  33.292  51.661  1.00  0.00    -0.000 C 
BRANCH  29  30
ATOM     30  C   UNL     1      62.167  34.190  50.412  1.00  0.00    -0.000 C 
BRANCH  30  31
ATOM     31  C   UNL     1      62.917  33.670  49.173  1.00  0.00    -0.003 C 
ATOM     32  C   UNL     1      62.015  33.527  47.947  1.00  0.00     0.004 C 
ENDBRANCH  30  31
ENDBRANCH  29  30
ENDBRANCH  28  29
ENDBRANCH  27  28
ENDBRANCH  26  27
ENDBRANCH  25  26
ENDBRANCH  24  25
ENDBRANCH  23  24
ENDBRANCH  22  23
ENDBRANCH  21  22
ENDBRANCH  20  21
ENDBRANCH  19  20
ENDBRANCH  18  19
ENDBRANCH   1  18
TORSDOF 28
ENDMDL
MODEL 5
REMARK VINA RESULT:    -3.283     10.043     13.645
REMARK INTER + INTRA:         -13.390
REMARK INTER:                  -7.510
REMARK INTRA:                  -5.880
REMARK UNBOUND:                -4.734
REMARK SMILES CCCCCCCCCCCCCCCCCCCCCCCCCCCCCC(=O)[O-]
REMARK SMILES IDX 16 1 17 2 18 3 19 4 20 5 21 6 22 7 23 8 24 9 25 10 26 11
REMARK SMILES IDX 27 12 28 13 29 14 30 15 31 16 32 17 15 18 14 19 13 20 12 21
REMARK SMILES IDX 11 22 10 23 9 24 8 25 7 26 6 27 5 28 4 29 3 30 2 31 1 32
REMARK H PARENT
REMARK Flexibility Score: inf
ROOT
ATOM      1  C   UNL     1      57.575  28.520  49.375  1.00  0.00     0.000 C 
ENDROOT
BRANCH   1   2
ATOM      2  C   UNL     1      58.949  28.545  48.682  1.00  0.00     0.000 C 
BRANCH   2   3
ATOM      3  C   UNL     1      59.612  27.158  48.640  1.00  0.00     0.000 C 
BRANCH   3   4
ATOM      4  C   UNL     1      61.138  27.226  48.821  1.00  0.00     0.000 C 
BRANCH   4   5
ATOM      5  C   UNL     1      61.727  25.928  49.392  1.00  0.00     0.000 C 
BRANCH   5   6
ATOM      6  C   UNL     1      63.174  26.101  49.880  1.00  0.00     0.000 C 
BRANCH   6   7
ATOM      7  C   UNL     1      64.150  25.279  49.021  1.00  0.00     0.000 C 
BRANCH   7   8
ATOM      8  C   UNL     1      65.534  25.949  48.895  1.00  0.00     0.000 C 
BRANCH   8   9
ATOM      9  C   UNL     1      66.075  25.976  47.454  1.00  0.00     0.000 C 
BRANCH   9  10
ATOM     10  C   UNL     1      65.457  27.098  46.608  1.00  0.00     0.000 C 
BRANCH  10  11
ATOM     11  C   UNL     1      65.500  28.469  47.303  1.00  0.00     0.000 C 
BRANCH  11  12
ATOM     12  C   UNL     1      64.120  29.092  47.590  1.00  0.00     0.000 C 
BRANCH  12  13
ATOM     13  C   UNL     1      63.943  29.691  48.999  1.00  0.00     0.006 C 
BRANCH  13  14
ATOM     14  C   UNL     1      62.738  30.642  49.132  1.00  0.00     0.053 C 
BRANCH  14  15
ATOM     15  C   UNL     1      63.087  32.058  48.782  1.00  0.00     0.041 C 
ATOM     16  O   UNL     1      62.251  32.789  48.188  1.00  0.00    -0.550 OA
ATOM     17  O   UNL     1      64.343  32.563  49.089  1.00  0.00    -0.550 OA
ENDBRANCH  14  15
ENDBRANCH  13  14
ENDBRANCH  12  13
ENDBRANCH  11  12
ENDBRANCH  10  11
ENDBRANCH   9  10
ENDBRANCH   8   9
ENDBRANCH   7   8
ENDBRANCH   6   7
ENDBRANCH   5   6
ENDBRANCH   4   5
ENDBRANCH   3   4
ENDBRANCH   2   3
ENDBRANCH   1   2
BRANCH   1  18
ATOM     18  C   UNL     1      57.139  27.101  49.768  1.00  0.00     0.000 C 
BRANCH  18  19
ATOM     19  C   UNL     1      56.335  27.068  51.079  1.00  0.00     0.000 C 
BRANCH  19  20
ATOM     20  C   UNL     1      57.111  26.406  52.230  1.00  0.00     0.000 C 
BRANCH  20  21
ATOM     21  C   UNL     1      58.330  25.607  51.736  1.00  0.00     0.000 C 
BRANCH  21  22
ATOM     22  C   UNL     1      59.648  26.079  52.369  1.00  0.00     0.000 C 
BRANCH  22  23
ATOM     23  C   UNL     1      59.830  27.606  52.298  1.00  0.00     0.000 C 
BRANCH  23  24
ATOM     24  C   UNL     1      61.300  28.027  52.469  1.00  0.00    -0.000 C 
BRANCH  24  25
ATOM     25  C   UNL     1      61.477  29.552  52.478  1.00  0.00    -0.000 C 
BRANCH  25  26
ATOM     26  C   UNL     1      60.263  30.250  51.844  1.00  0.00    -0.000 C 
BRANCH  26  27
ATOM     27  C   UNL     1      59.847  31.525  52.598  1.00  0.00    -0.000 C 
BRANCH  27  28
ATOM     28  C   UNL     1      58.676  31.284  53.566  1.00  0.00    -0.000 C 
BRANCH  28  29
ATOM     29  C   UNL     1      57.653  30.270  53.023  1.00  0.00    -0.000 C 
BRANCH  29  30
ATOM     30  C   UNL     1      56.716  30.808  51.922  1.00  0.00    -0.000 C 
BRANCH  30  31
ATOM     31  C   UNL     1      55.227  30.477  52.118  1.00  0.00    -0.003 C 
ATOM     32  C   UNL     1      54.473  30.316  50.799  1.00  0.00     0.004 C 
ENDBRANCH  30  31
ENDBRANCH  29  30
ENDBRANCH  28  29
ENDBRANCH  27  28
ENDBRANCH  26  27
ENDBRANCH  25  26
ENDBRANCH  24  25
ENDBRANCH  23  24
ENDBRANCH  22  23
ENDBRANCH  21  22
ENDBRANCH  20  21
ENDBRANCH  19  20
ENDBRANCH  18  19
ENDBRANCH   1  18
TORSDOF 28
ENDMDL
MODEL 6
REMARK VINA RESULT:    -3.273      2.087      5.436
REMARK INTER + INTRA:         -13.365
REMARK INTER:                  -8.294
REMARK INTRA:                  -5.071
REMARK UNBOUND:                -4.734
REMARK SMILES CCCCCCCCCCCCCCCCCCCCCCCCCCCCCC(=O)[O-]
REMARK SMILES IDX 16 1 17 2 18 3 19 4 20 5 21 6 22 7 23 8 24 9 25 10 26 11
REMARK SMILES IDX 27 12 28 13 29 14 30 15 31 16 32 17 15 18 14 19 13 20 12 21
REMARK SMILES IDX 11 22 10 23 9 24 8 25 7 26 6 27 5 28 4 29 3 30 2 31 1 32
REMARK H PARENT
REMARK Flexibility Score: inf
ROOT
ATOM      1  C   UNL     1      63.920  30.773  60.245  1.00  0.00     0.000 C 
ENDROOT
BRANCH   1   2
ATOM      2  C   UNL     1      64.798  30.493  59.013  1.00  0.00     0.000 C 
BRANCH   2   3
ATOM      3  C   UNL     1      64.060  30.760  57.691  1.00  0.00     0.000 C 
BRANCH   3   4
ATOM      4  C   UNL     1      62.554  31.000  57.893  1.00  0.00     0.000 C 
BRANCH   4   5
ATOM      5  C   UNL     1      61.686  30.180  56.925  1.00  0.00     0.000 C 
BRANCH   5   6
ATOM      6  C   UNL     1      60.194  30.226  57.288  1.00  0.00     0.000 C 
BRANCH   6   7
ATOM      7  C   UNL     1      59.946  31.140  58.499  1.00  0.00     0.000 C 
BRANCH   7   8
ATOM      8  C   UNL     1      58.988  32.305  58.173  1.00  0.00     0.000 C 
BRANCH   8   9
ATOM      9  C   UNL     1      59.036  32.746  56.698  1.00  0.00     0.000 C 
BRANCH   9  10
ATOM     10  C   UNL     1      59.666  34.134  56.513  1.00  0.00     0.000 C 
BRANCH  10  11
ATOM     11  C   UNL     1      61.203  34.100  56.508  1.00  0.00     0.000 C 
BRANCH  11  12
ATOM     12  C   UNL     1      61.874  35.011  57.555  1.00  0.00     0.000 C 
BRANCH  12  13
ATOM     13  C   UNL     1      61.917  34.451  58.990  1.00  0.00     0.006 C 
BRANCH  13  14
ATOM     14  C   UNL     1      63.338  34.315  59.569  1.00  0.00     0.053 C 
BRANCH  14  15
ATOM     15  C   UNL     1      63.484  35.005  60.893  1.00  0.00     0.041 C 
ATOM     16  O   UNL     1      62.569  35.756  61.322  1.00  0.00    -0.550 OA
ATOM     17  O   UNL     1      64.641  34.839  61.642  1.00  0.00    -0.550 OA
ENDBRANCH  14  15
ENDBRANCH  13  14
ENDBRANCH  12  13
ENDBRANCH  11  12
ENDBRANCH  10  11
ENDBRANCH   9  10
ENDBRANCH   8   9
ENDBRANCH   7   8
ENDBRANCH   6   7
ENDBRANCH   5   6
ENDBRANCH   4   5
ENDBRANCH   3   4
ENDBRANCH   2   3
ENDBRANCH   1   2
BRANCH   1  18
ATOM     18  C   UNL     1      63.594  29.498  61.038  1.00  0.00     0.000 C 
BRANCH  18  19
ATOM     19  C   UNL     1      62.095  29.153  61.018  1.00  0.00     0.000 C 
BRANCH  19  20
ATOM     20  C   UNL     1      61.837  27.668  60.715  1.00  0.00     0.000 C 
BRANCH  20  21
ATOM     21  C   UNL     1      61.049  27.460  59.411  1.00  0.00     0.000 C 
BRANCH  21  22
ATOM     22  C   UNL     1      61.836  26.663  58.359  1.00  0.00     0.000 C 
BRANCH  22  23
ATOM     23  C   UNL     1      63.314  27.087  58.274  1.00  0.00     0.000 C 
BRANCH  23  24
ATOM     24  C   UNL     1      64.271  25.957  58.691  1.00  0.00    -0.000 C 
BRANCH  24  25
ATOM     25  C   UNL     1      65.149  26.344  59.890  1.00  0.00    -0.000 C 
BRANCH  25  26
ATOM     26  C   UNL     1      66.504  26.899  59.423  1.00  0.00    -0.000 C 
BRANCH  26  27
ATOM     27  C   UNL     1      66.955  28.128  60.230  1.00  0.00    -0.000 C 
BRANCH  27  28
ATOM     28  C   UNL     1      68.426  28.498  59.972  1.00  0.00    -0.000 C 
BRANCH  28  29
ATOM     29  C   UNL     1      69.339  28.185  61.172  1.00  0.00    -0.000 C 
BRANCH  29  30
ATOM     30  C   UNL     1      70.608  29.054  61.276  1.00  0.00    -0.000 C 
BRANCH  30  31
ATOM     31  C   UNL     1      71.721  28.700  60.275  1.00  0.00    -0.003 C 
ATOM     32  C   UNL     1      72.905  27.987  60.927  1.00  0.00     0.004 C 
ENDBRANCH  30  31
ENDBRANCH  29  30
ENDBRANCH  28  29
ENDBRANCH  27  28
ENDBRANCH  26  27
ENDBRANCH  25  26
ENDBRANCH  24  25
ENDBRANCH  23  24
ENDBRANCH  22  23
ENDBRANCH  21  22
ENDBRANCH  20  21
ENDBRANCH  19  20
ENDBRANCH  18  19
ENDBRANCH   1  18
TORSDOF 28
ENDMDL
MODEL 7
REMARK VINA RESULT:    -3.246      9.700     13.370
REMARK INTER + INTRA:         -13.294
REMARK INTER:                  -7.363
REMARK INTRA:                  -5.931
REMARK UNBOUND:                -4.734
REMARK SMILES CCCCCCCCCCCCCCCCCCCCCCCCCCCCCC(=O)[O-]
REMARK SMILES IDX 16 1 17 2 18 3 19 4 20 5 21 6 22 7 23 8 24 9 25 10 26 11
REMARK SMILES IDX 27 12 28 13 29 14 30 15 31 16 32 17 15 18 14 19 13 20 12 21
REMARK SMILES IDX 11 22 10 23 9 24 8 25 7 26 6 27 5 28 4 29 3 30 2 31 1 32
REMARK H PARENT
REMARK Flexibility Score: inf
ROOT
ATOM      1  C   UNL     1      57.355  27.429  49.755  1.00  0.00     0.000 C 
ENDROOT
BRANCH   1   2
ATOM      2  C   UNL     1      58.432  28.257  49.032  1.00  0.00     0.000 C 
BRANCH   2   3
ATOM      3  C   UNL     1      59.661  27.415  48.647  1.00  0.00     0.000 C 
BRANCH   3   4
ATOM      4  C   UNL     1      59.567  25.966  49.154  1.00  0.00     0.000 C 
BRANCH   4   5
ATOM      5  C   UNL     1      60.930  25.257  49.185  1.00  0.00     0.000 C 
BRANCH   5   6
ATOM      6  C   UNL     1      62.096  26.231  49.414  1.00  0.00     0.000 C 
BRANCH   6   7
ATOM      7  C   UNL     1      63.102  25.662  50.429  1.00  0.00     0.000 C 
BRANCH   7   8
ATOM      8  C   UNL     1      64.260  26.638  50.723  1.00  0.00     0.000 C 
BRANCH   8   9
ATOM      9  C   UNL     1      64.587  27.576  49.547  1.00  0.00     0.000 C 
BRANCH   9  10
ATOM     10  C   UNL     1      65.092  28.952  50.006  1.00  0.00     0.000 C 
BRANCH  10  11
ATOM     11  C   UNL     1      63.955  29.909  50.398  1.00  0.00     0.000 C 
BRANCH  11  12
ATOM     12  C   UNL     1      62.748  29.907  49.440  1.00  0.00     0.000 C 
BRANCH  12  13
ATOM     13  C   UNL     1      62.236  31.297  49.015  1.00  0.00     0.006 C 
BRANCH  13  14
ATOM     14  C   UNL     1      62.610  32.429  49.991  1.00  0.00     0.053 C 
BRANCH  14  15
ATOM     15  C   UNL     1      62.759  33.752  49.300  1.00  0.00     0.041 C 
ATOM     16  O   UNL     1      63.857  34.368  49.337  1.00  0.00    -0.550 OA
ATOM     17  O   UNL     1      61.678  34.318  48.637  1.00  0.00    -0.550 OA
ENDBRANCH  14  15
ENDBRANCH  13  14
ENDBRANCH  12  13
ENDBRANCH  11  12
ENDBRANCH  10  11
ENDBRANCH   9  10
ENDBRANCH   8   9
ENDBRANCH   7   8
ENDBRANCH   6   7
ENDBRANCH   5   6
ENDBRANCH   4   5
ENDBRANCH   3   4
ENDBRANCH   2   3
ENDBRANCH   1   2
BRANCH   1  18
ATOM     18  C   UNL     1      56.255  28.305  50.373  1.00  0.00     0.000 C 
BRANCH  18  19
ATOM     19  C   UNL     1      56.035  29.617  49.599  1.00  0.00     0.000 C 
BRANCH  19  20
ATOM     20  C   UNL     1      54.969  30.512  50.250  1.00  0.00     0.000 C 
BRANCH  20  21
ATOM     21  C   UNL     1      54.500  29.976  51.614  1.00  0.00     0.000 C 
BRANCH  21  22
ATOM     22  C   UNL     1      54.971  30.846  52.789  1.00  0.00     0.000 C 
BRANCH  22  23
ATOM     23  C   UNL     1      55.739  32.100  52.334  1.00  0.00     0.000 C 
BRANCH  23  24
ATOM     24  C   UNL     1      57.198  32.101  52.823  1.00  0.00    -0.000 C 
BRANCH  24  25
ATOM     25  C   UNL     1      57.700  30.694  53.176  1.00  0.00    -0.000 C 
BRANCH  25  26
ATOM     26  C   UNL     1      58.757  30.218  52.167  1.00  0.00    -0.000 C 
BRANCH  26  27
ATOM     27  C   UNL     1      60.168  30.738  52.489  1.00  0.00    -0.000 C 
BRANCH  27  28
ATOM     28  C   UNL     1      61.161  29.605  52.796  1.00  0.00    -0.000 C 
BRANCH  28  29
ATOM     29  C   UNL     1      60.855  28.316  52.012  1.00  0.00    -0.000 C 
BRANCH  29  30
ATOM     30  C   UNL     1      60.605  27.064  52.877  1.00  0.00    -0.000 C 
BRANCH  30  31
ATOM     31  C   UNL     1      59.183  26.484  52.783  1.00  0.00    -0.003 C 
ATOM     32  C   UNL     1      58.260  26.982  53.894  1.00  0.00     0.004 C 
ENDBRANCH  30  31
ENDBRANCH  29  30
ENDBRANCH  28  29
ENDBRANCH  27  28
ENDBRANCH  26  27
ENDBRANCH  25  26
ENDBRANCH  24  25
ENDBRANCH  23  24
ENDBRANCH  22  23
ENDBRANCH  21  22
ENDBRANCH  20  21
ENDBRANCH  19  20
ENDBRANCH  18  19
ENDBRANCH   1  18
TORSDOF 28
ENDMDL
MODEL 8
REMARK VINA RESULT:    -3.225     11.897     15.905
REMARK INTER + INTRA:         -13.237
REMARK INTER:                  -8.664
REMARK INTRA:                  -4.573
REMARK UNBOUND:                -4.734
REMARK SMILES CCCCCCCCCCCCCCCCCCCCCCCCCCCCCC(=O)[O-]
REMARK SMILES IDX 16 1 17 2 18 3 19 4 20 5 21 6 22 7 23 8 24 9 25 10 26 11
REMARK SMILES IDX 27 12 28 13 29 14 30 15 31 16 32 17 15 18 14 19 13 20 12 21
REMARK SMILES IDX 11 22 10 23 9 24 8 25 7 26 6 27 5 28 4 29 3 30 2 31 1 32
REMARK H PARENT
REMARK Flexibility Score: inf
ROOT
ATOM      1  C   UNL     1      60.690  24.950  49.324  1.00  0.00     0.000 C 
ENDROOT
BRANCH   1   2
ATOM      2  C   UNL     1      61.988  24.628  50.087  1.00  0.00     0.000 C 
BRANCH   2   3
ATOM      3  C   UNL     1      61.958  23.235  50.738  1.00  0.00     0.000 C 
BRANCH   3   4
ATOM      4  C   UNL     1      60.998  22.269  50.023  1.00  0.00     0.000 C 
BRANCH   4   5
ATOM      5  C   UNL     1      60.013  21.588  50.986  1.00  0.00     0.000 C 
BRANCH   5   6
ATOM      6  C   UNL     1      60.031  20.057  50.863  1.00  0.00     0.000 C 
BRANCH   6   7
ATOM      7  C   UNL     1      61.422  19.491  51.193  1.00  0.00     0.000 C 
BRANCH   7   8
ATOM      8  C   UNL     1      61.391  17.974  51.476  1.00  0.00     0.000 C 
BRANCH   8   9
ATOM      9  C   UNL     1      60.001  17.454  51.884  1.00  0.00     0.000 C 
BRANCH   9  10
ATOM     10  C   UNL     1      59.608  16.167  51.143  1.00  0.00     0.000 C 
BRANCH  10  11
ATOM     11  C   UNL     1      58.159  16.188  50.630  1.00  0.00     0.000 C 
BRANCH  11  12
ATOM     12  C   UNL     1      57.828  17.352  49.675  1.00  0.00     0.000 C 
BRANCH  12  13
ATOM     13  C   UNL     1      56.567  18.163  50.032  1.00  0.00     0.006 C 
BRANCH  13  14
ATOM     14  C   UNL     1      56.441  18.502  51.529  1.00  0.00     0.053 C 
BRANCH  14  15
ATOM     15  C   UNL     1      55.044  18.896  51.910  1.00  0.00     0.041 C 
ATOM     16  O   UNL     1      54.624  18.696  53.079  1.00  0.00    -0.550 OA
ATOM     17  O   UNL     1      54.198  19.463  50.965  1.00  0.00    -0.550 OA
ENDBRANCH  14  15
ENDBRANCH  13  14
ENDBRANCH  12  13
ENDBRANCH  11  12
ENDBRANCH  10  11
ENDBRANCH   9  10
ENDBRANCH   8   9
ENDBRANCH   7   8
ENDBRANCH   6   7
ENDBRANCH   5   6
ENDBRANCH   4   5
ENDBRANCH   3   4
ENDBRANCH   2   3
ENDBRANCH   1   2
BRANCH   1  18
ATOM     18  C   UNL     1      60.521  26.453  49.056  1.00  0.00     0.000 C 
BRANCH  18  19
ATOM     19  C   UNL     1      59.047  26.891  49.039  1.00  0.00     0.000 C 
BRANCH  19  20
ATOM     20  C   UNL     1      58.874  28.361  48.624  1.00  0.00     0.000 C 
BRANCH  20  21
ATOM     21  C   UNL     1      57.577  28.981  49.172  1.00  0.00     0.000 C 
BRANCH  21  22
ATOM     22  C   UNL     1      56.615  27.933  49.753  1.00  0.00     0.000 C 
BRANCH  22  23
ATOM     23  C   UNL     1      55.805  28.466  50.948  1.00  0.00     0.000 C 
BRANCH  23  24
ATOM     24  C   UNL     1      55.777  30.003  50.996  1.00  0.00    -0.000 C 
BRANCH  24  25
ATOM     25  C   UNL     1      56.197  30.555  52.367  1.00  0.00    -0.000 C 
BRANCH  25  26
ATOM     26  C   UNL     1      57.705  30.852  52.401  1.00  0.00    -0.000 C 
BRANCH  26  27
ATOM     27  C   UNL     1      58.486  29.873  53.294  1.00  0.00    -0.000 C 
BRANCH  27  28
ATOM     28  C   UNL     1      59.292  28.845  52.482  1.00  0.00    -0.000 C 
BRANCH  28  29
ATOM     29  C   UNL     1      58.751  27.411  52.630  1.00  0.00    -0.000 C 
BRANCH  29  30
ATOM     30  C   UNL     1      59.826  26.309  52.717  1.00  0.00    -0.000 C 
BRANCH  30  31
ATOM     31  C   UNL     1      59.278  24.876  52.831  1.00  0.00    -0.003 C 
ATOM     32  C   UNL     1      58.077  24.623  51.922  1.00  0.00     0.004 C 
ENDBRANCH  30  31
ENDBRANCH  29  30
ENDBRANCH  28  29
ENDBRANCH  27  28
ENDBRANCH  26  27
ENDBRANCH  25  26
ENDBRANCH  24  25
ENDBRANCH  23  24
ENDBRANCH  22  23
ENDBRANCH  21  22
ENDBRANCH  20  21
ENDBRANCH  19  20
ENDBRANCH  18  19
ENDBRANCH   1  18
TORSDOF 28
ENDMDL
MODEL 9
REMARK VINA RESULT:    -3.218     11.397     15.072
REMARK INTER + INTRA:         -13.220
REMARK INTER:                  -8.691
REMARK INTRA:                  -4.528
REMARK UNBOUND:                -4.734
REMARK SMILES CCCCCCCCCCCCCCCCCCCCCCCCCCCCCC(=O)[O-]
REMARK SMILES IDX 16 1 17 2 18 3 19 4 20 5 21 6 22 7 23 8 24 9 25 10 26 11
REMARK SMILES IDX 27 12 28 13 29 14 30 15 31 16 32 17 15 18 14 19 13 20 12 21
REMARK SMILES IDX 11 22 10 23 9 24 8 25 7 26 6 27 5 28 4 29 3 30 2 31 1 32
REMARK H PARENT
REMARK Flexibility Score: inf
ROOT
ATOM      1  C   UNL     1      58.979  29.186  52.823  1.00  0.00     0.000 C 
ENDROOT
BRANCH   1   2
ATOM      2  C   UNL     1      58.394  27.784  53.066  1.00  0.00     0.000 C 
BRANCH   2   3
ATOM      3  C   UNL     1      59.439  26.670  52.880  1.00  0.00     0.000 C 
BRANCH   3   4
ATOM      4  C   UNL     1      58.847  25.407  52.231  1.00  0.00     0.000 C 
BRANCH   4   5
ATOM      5  C   UNL     1      59.924  24.471  51.662  1.00  0.00     0.000 C 
BRANCH   5   6
ATOM      6  C   UNL     1      59.600  23.994  50.238  1.00  0.00     0.000 C 
BRANCH   6   7
ATOM      7  C   UNL     1      60.875  23.563  49.495  1.00  0.00     0.000 C 
BRANCH   7   8
ATOM      8  C   UNL     1      60.776  22.127  48.939  1.00  0.00     0.000 C 
BRANCH   8   9
ATOM      9  C   UNL     1      61.114  21.041  49.976  1.00  0.00     0.000 C 
BRANCH   9  10
ATOM     10  C   UNL     1      59.867  20.318  50.507  1.00  0.00     0.000 C 
BRANCH  10  11
ATOM     11  C   UNL     1      59.890  18.804  50.237  1.00  0.00     0.000 C 
BRANCH  11  12
ATOM     12  C   UNL     1      59.022  18.346  49.049  1.00  0.00     0.000 C 
BRANCH  12  13
ATOM     13  C   UNL     1      57.950  17.289  49.379  1.00  0.00     0.006 C 
BRANCH  13  14
ATOM     14  C   UNL     1      57.405  17.377  50.817  1.00  0.00     0.053 C 
BRANCH  14  15
ATOM     15  C   UNL     1      56.143  18.184  50.901  1.00  0.00     0.041 C 
ATOM     16  O   UNL     1      55.719  18.586  52.017  1.00  0.00    -0.550 OA
ATOM     17  O   UNL     1      55.422  18.472  49.750  1.00  0.00    -0.550 OA
ENDBRANCH  14  15
ENDBRANCH  13  14
ENDBRANCH  12  13
ENDBRANCH  11  12
ENDBRANCH  10  11
ENDBRANCH   9  10
ENDBRANCH   8   9
ENDBRANCH   7   8
ENDBRANCH   6   7
ENDBRANCH   5   6
ENDBRANCH   4   5
ENDBRANCH   3   4
ENDBRANCH   2   3
ENDBRANCH   1   2
BRANCH   1  18
ATOM     18  C   UNL     1      57.933  30.178  52.293  1.00  0.00     0.000 C 
BRANCH  18  19
ATOM     19  C   UNL     1      56.507  29.600  52.304  1.00  0.00     0.000 C 
BRANCH  19  20
ATOM     20  C   UNL     1      55.735  29.913  51.012  1.00  0.00     0.000 C 
BRANCH  20  21
ATOM     21  C   UNL     1      56.295  29.160  49.793  1.00  0.00     0.000 C 
BRANCH  21  22
ATOM     22  C   UNL     1      56.380  27.643  50.017  1.00  0.00     0.000 C 
BRANCH  22  23
ATOM     23  C   UNL     1      57.670  27.027  49.446  1.00  0.00     0.000 C 
BRANCH  23  24
ATOM     24  C   UNL     1      58.707  28.097  49.061  1.00  0.00    -0.000 C 
BRANCH  24  25
ATOM     25  C   UNL     1      60.058  27.487  48.661  1.00  0.00    -0.000 C 
BRANCH  25  26
ATOM     26  C   UNL     1      61.064  27.570  49.820  1.00  0.00    -0.000 C 
BRANCH  26  27
ATOM     27  C   UNL     1      62.174  28.607  49.574  1.00  0.00    -0.000 C 
BRANCH  27  28
ATOM     28  C   UNL     1      63.577  27.977  49.553  1.00  0.00    -0.000 C 
BRANCH  28  29
ATOM     29  C   UNL     1      63.713  26.861  48.500  1.00  0.00    -0.000 C 
BRANCH  29  30
ATOM     30  C   UNL     1      63.913  25.442  49.070  1.00  0.00    -0.000 C 
BRANCH  30  31
ATOM     31  C   UNL     1      64.578  25.387  50.456  1.00  0.00    -0.003 C 
ATOM     32  C   UNL     1      63.613  24.972  51.566  1.00  0.00     0.004 C 
ENDBRANCH  30  31
ENDBRANCH  29  30
ENDBRANCH  28  29
ENDBRANCH  27  28
ENDBRANCH  26  27
ENDBRANCH  25  26
ENDBRANCH  24  25
ENDBRANCH  23  24
ENDBRANCH  22  23
ENDBRANCH  21  22
ENDBRANCH  20  21
ENDBRANCH  19  20
ENDBRANCH  18  19
ENDBRANCH   1  18
TORSDOF 28
ENDMDL
