MODEL 1
REMARK VINA RESULT:    -6.389      0.000      0.000
REMARK INTER + INTRA:          -7.784
REMARK INTER:                  -7.510
REMARK INTRA:                  -0.275
REMARK UNBOUND:                -0.275
REMARK SMILES O=c1cc(-c2ccc(O)c(O)c2)oc2cc(O)cc(O)c12
REMARK SMILES IDX 4 1 3 2 2 3 1 4 21 5 19 6 18 7 16 8 15 9 14 10 13 11 5 12
REMARK SMILES IDX 6 13 7 14 8 15 12 16 10 17 9 18 11 20 20 22 17 24
REMARK H PARENT 9 19 11 21 20 23 17 25
REMARK Flexibility Score: inf
ROOT
ATOM      1  C   UNL     1      19.061  12.060 -14.669  1.00  0.00     0.138 A 
ATOM      2  C   UNL     1      19.350  10.743 -15.054  1.00  0.00     0.100 A 
ATOM      3  C   UNL     1      18.315   9.815 -15.169  1.00  0.00     0.197 A 
ATOM      4  O   UNL     1      18.614   8.626 -15.457  1.00  0.00    -0.289 OA
ATOM      5  C   UNL     1      16.980  10.216 -14.927  1.00  0.00     0.107 A 
ATOM      6  C   UNL     1      15.841   9.366 -15.053  1.00  0.00     0.134 A 
ATOM      7  C   UNL     1      14.579   9.842 -14.675  1.00  0.00     0.093 A 
ATOM      8  C   UNL     1      14.408  11.156 -14.233  1.00  0.00     0.123 A 
ATOM      9  C   UNL     1      15.506  12.010 -14.156  1.00  0.00     0.094 A 
ATOM     10  C   UNL     1      16.783  11.554 -14.494  1.00  0.00     0.146 A 
ATOM     11  O   UNL     1      17.805  12.396 -14.394  1.00  0.00    -0.456 OA
ENDROOT
BRANCH   1  12
ATOM     12  C   UNL     1      20.124  13.088 -14.532  1.00  0.00     0.021 A 
ATOM     13  C   UNL     1      21.169  12.952 -13.598  1.00  0.00     0.016 A 
ATOM     14  C   UNL     1      22.161  13.930 -13.499  1.00  0.00     0.051 A 
ATOM     15  C   UNL     1      22.134  15.055 -14.332  1.00  0.00     0.157 A 
ATOM     16  C   UNL     1      20.111  14.213 -15.376  1.00  0.00     0.062 A 
ATOM     17  C   UNL     1      21.104  15.195 -15.277  1.00  0.00     0.158 A 
BRANCH  15  18
ATOM     18  O   UNL     1      23.125  16.029 -14.230  1.00  0.00    -0.504 OA
ATOM     19  H   UNL     1      23.922  16.043 -14.856  1.00  0.00     0.293 HD
ENDBRANCH  15  18
BRANCH  17  20
ATOM     20  O   UNL     1      21.049  16.300 -16.125  1.00  0.00    -0.504 OA
ATOM     21  H   UNL     1      20.530  16.285 -16.996  1.00  0.00     0.293 HD
ENDBRANCH  17  20
ENDBRANCH   1  12
BRANCH   6  22
ATOM     22  O   UNL     1      15.889   8.065 -15.565  1.00  0.00    -0.507 OA
ATOM     23  H   UNL     1      15.333   7.293 -15.228  1.00  0.00     0.293 HD
ENDBRANCH   6  22
BRANCH   8  24
ATOM     24  O   UNL     1      13.147  11.626 -13.873  1.00  0.00    -0.508 OA
ATOM     25  H   UNL     1      12.733  11.401 -12.975  1.00  0.00     0.293 HD
ENDBRANCH   8  24
TORSDOF 5
ENDMDL
MODEL 2
REMARK VINA RESULT:    -4.622      1.782      6.656
REMARK INTER + INTRA:          -5.707
REMARK INTER:                  -5.416
REMARK INTRA:                  -0.291
REMARK UNBOUND:                -0.275
REMARK SMILES O=c1cc(-c2ccc(O)c(O)c2)oc2cc(O)cc(O)c12
REMARK SMILES IDX 4 1 3 2 2 3 1 4 21 5 19 6 18 7 16 8 15 9 14 10 13 11 5 12
REMARK SMILES IDX 6 13 7 14 8 15 12 16 10 17 9 18 11 20 20 22 17 24
REMARK H PARENT 9 19 11 21 20 23 17 25
REMARK Flexibility Score: inf
ROOT
ATOM      1  C   UNL     1      18.157  11.095 -14.413  1.00  0.00     0.138 A 
ATOM      2  C   UNL     1      18.721   9.992 -15.069  1.00  0.00     0.100 A 
ATOM      3  C   UNL     1      20.108   9.892 -15.183  1.00  0.00     0.197 A 
ATOM      4  O   UNL     1      20.581   8.922 -15.831  1.00  0.00    -0.289 OA
ATOM      5  C   UNL     1      20.935  10.887 -14.609  1.00  0.00     0.107 A 
ATOM      6  C   UNL     1      22.361  10.869 -14.629  1.00  0.00     0.134 A 
ATOM      7  C   UNL     1      23.072  11.967 -14.131  1.00  0.00     0.093 A 
ATOM      8  C   UNL     1      22.408  13.056 -13.559  1.00  0.00     0.123 A 
ATOM      9  C   UNL     1      21.018  13.060 -13.488  1.00  0.00     0.094 A 
ATOM     10  C   UNL     1      20.279  11.994 -14.007  1.00  0.00     0.146 A 
ATOM     11  O   UNL     1      18.953  12.043 -13.931  1.00  0.00    -0.456 OA
ENDROOT
BRANCH   1  12
ATOM     12  C   UNL     1      16.688  11.250 -14.262  1.00  0.00     0.021 A 
ATOM     13  C   UNL     1      16.129  12.150 -13.335  1.00  0.00     0.016 A 
ATOM     14  C   UNL     1      14.743  12.283 -13.223  1.00  0.00     0.051 A 
ATOM     15  C   UNL     1      13.891  11.527 -14.037  1.00  0.00     0.157 A 
ATOM     16  C   UNL     1      15.825  10.505 -15.087  1.00  0.00     0.062 A 
ATOM     17  C   UNL     1      14.436  10.636 -14.975  1.00  0.00     0.158 A 
BRANCH  15  18
ATOM     18  O   UNL     1      12.509  11.662 -13.921  1.00  0.00    -0.504 OA
ATOM     19  H   UNL     1      12.053  12.563 -14.017  1.00  0.00     0.293 HD
ENDBRANCH  15  18
BRANCH  17  20
ATOM     20  O   UNL     1      13.616   9.872 -15.804  1.00  0.00    -0.504 OA
ATOM     21  H   UNL     1      12.709   9.534 -15.501  1.00  0.00     0.293 HD
ENDBRANCH  17  20
ENDBRANCH   1  12
BRANCH   6  22
ATOM     22  O   UNL     1      23.122   9.794 -15.099  1.00  0.00    -0.507 OA
ATOM     23  H   UNL     1      23.260   8.926 -14.604  1.00  0.00     0.293 HD
ENDBRANCH   6  22
BRANCH   8  24
ATOM     24  O   UNL     1      23.125  14.138 -13.052  1.00  0.00    -0.508 OA
ATOM     25  H   UNL     1      24.136  14.180 -13.111  1.00  0.00     0.293 HD
ENDBRANCH   8  24
TORSDOF 5
ENDMDL
MODEL 3
REMARK VINA RESULT:    -4.607      1.565      6.877
REMARK INTER + INTRA:          -5.689
REMARK INTER:                  -5.390
REMARK INTRA:                  -0.299
REMARK UNBOUND:                -0.275
REMARK SMILES O=c1cc(-c2ccc(O)c(O)c2)oc2cc(O)cc(O)c12
REMARK SMILES IDX 4 1 3 2 2 3 1 4 21 5 19 6 18 7 16 8 15 9 14 10 13 11 5 12
REMARK SMILES IDX 6 13 7 14 8 15 12 16 10 17 9 18 11 20 20 22 17 24
REMARK H PARENT 9 19 11 21 20 23 17 25
REMARK Flexibility Score: inf
ROOT
ATOM      1  C   UNL     1      18.555  11.220 -15.266  1.00  0.00     0.138 A 
ATOM      2  C   UNL     1      19.737  10.639 -14.785  1.00  0.00     0.100 A 
ATOM      3  C   UNL     1      20.876  11.428 -14.621  1.00  0.00     0.197 A 
ATOM      4  O   UNL     1      21.938  10.866 -14.246  1.00  0.00    -0.289 OA
ATOM      5  C   UNL     1      20.822  12.812 -14.912  1.00  0.00     0.107 A 
ATOM      6  C   UNL     1      21.909  13.721 -14.745  1.00  0.00     0.134 A 
ATOM      7  C   UNL     1      21.774  15.046 -15.176  1.00  0.00     0.093 A 
ATOM      8  C   UNL     1      20.569  15.509 -15.712  1.00  0.00     0.123 A 
ATOM      9  C   UNL     1      19.485  14.644 -15.831  1.00  0.00     0.094 A 
ATOM     10  C   UNL     1      19.600  13.306 -15.441  1.00  0.00     0.146 A 
ATOM     11  O   UNL     1      18.546  12.510 -15.583  1.00  0.00    -0.456 OA
ENDROOT
BRANCH   1  12
ATOM     12  C   UNL     1      17.314  10.427 -15.457  1.00  0.00     0.021 A 
ATOM     13  C   UNL     1      17.349   9.095 -15.913  1.00  0.00     0.016 A 
ATOM     14  C   UNL     1      16.166   8.370 -16.073  1.00  0.00     0.051 A 
ATOM     15  C   UNL     1      14.930   8.956 -15.776  1.00  0.00     0.157 A 
ATOM     16  C   UNL     1      16.069  11.005 -15.147  1.00  0.00     0.062 A 
ATOM     17  C   UNL     1      14.883  10.280 -15.308  1.00  0.00     0.158 A 
BRANCH  15  18
ATOM     18  O   UNL     1      13.752   8.230 -15.938  1.00  0.00    -0.504 OA
ATOM     19  H   UNL     1      12.897   8.491 -15.460  1.00  0.00     0.293 HD
ENDBRANCH  15  18
BRANCH  17  20
ATOM     20  O   UNL     1      13.669  10.892 -15.000  1.00  0.00    -0.504 OA
ATOM     21  H   UNL     1      12.904  10.385 -14.569  1.00  0.00     0.293 HD
ENDBRANCH  17  20
ENDBRANCH   1  12
BRANCH   6  22
ATOM     22  O   UNL     1      23.125  13.382 -14.143  1.00  0.00    -0.507 OA
ATOM     23  H   UNL     1      23.491  13.808 -13.305  1.00  0.00     0.293 HD
ENDBRANCH   6  22
BRANCH   8  24
ATOM     24  O   UNL     1      20.438  16.834 -16.125  1.00  0.00    -0.508 OA
ATOM     25  H   UNL     1      20.858  17.165 -16.986  1.00  0.00     0.293 HD
ENDBRANCH   8  24
TORSDOF 5
ENDMDL
MODEL 4
REMARK VINA RESULT:    -4.370      1.846      2.523
REMARK INTER + INTRA:          -5.411
REMARK INTER:                  -5.098
REMARK INTRA:                  -0.313
REMARK UNBOUND:                -0.275
REMARK SMILES O=c1cc(-c2ccc(O)c(O)c2)oc2cc(O)cc(O)c12
REMARK SMILES IDX 4 1 3 2 2 3 1 4 21 5 19 6 18 7 16 8 15 9 14 10 13 11 5 12
REMARK SMILES IDX 6 13 7 14 8 15 12 16 10 17 9 18 11 20 20 22 17 24
REMARK H PARENT 9 19 11 21 20 23 17 25
REMARK Flexibility Score: inf
ROOT
ATOM      1  C   UNL     1      20.136  13.859 -15.276  1.00  0.00     0.138 A 
ATOM      2  C   UNL     1      20.689  12.712 -14.689  1.00  0.00     0.100 A 
ATOM      3  C   UNL     1      19.898  11.576 -14.515  1.00  0.00     0.197 A 
ATOM      4  O   UNL     1      20.405  10.584 -13.930  1.00  0.00    -0.289 OA
ATOM      5  C   UNL     1      18.554  11.579 -14.960  1.00  0.00     0.107 A 
ATOM      6  C   UNL     1      17.666  10.465 -14.871  1.00  0.00     0.134 A 
ATOM      7  C   UNL     1      16.324  10.622 -15.239  1.00  0.00     0.093 A 
ATOM      8  C   UNL     1      15.853  11.836 -15.748  1.00  0.00     0.123 A 
ATOM      9  C   UNL     1      16.725  12.913 -15.887  1.00  0.00     0.094 A 
ATOM     10  C   UNL     1      18.062  12.798 -15.498  1.00  0.00     0.146 A 
ATOM     11  O   UNL     1      18.857  13.854 -15.635  1.00  0.00    -0.456 OA
ENDROOT
BRANCH   1  12
ATOM     12  C   UNL     1      20.933  15.094 -15.485  1.00  0.00     0.021 A 
ATOM     13  C   UNL     1      22.341  15.073 -15.499  1.00  0.00     0.016 A 
ATOM     14  C   UNL     1      23.065  16.249 -15.709  1.00  0.00     0.051 A 
ATOM     15  C   UNL     1      22.399  17.464 -15.916  1.00  0.00     0.157 A 
ATOM     16  C   UNL     1      20.271  16.315 -15.708  1.00  0.00     0.062 A 
ATOM     17  C   UNL     1      20.995  17.495 -15.918  1.00  0.00     0.158 A 
BRANCH  15  18
ATOM     18  O   UNL     1      23.125  18.635 -16.124  1.00  0.00    -0.504 OA
ATOM     19  H   UNL     1      22.688  19.548 -16.065  1.00  0.00     0.293 HD
ENDBRANCH  15  18
BRANCH  17  20
ATOM     20  O   UNL     1      20.301  18.686 -16.125  1.00  0.00    -0.504 OA
ATOM     21  H   UNL     1      19.852  18.902 -17.008  1.00  0.00     0.293 HD
ENDBRANCH  17  20
ENDBRANCH   1  12
BRANCH   6  22
ATOM     22  O   UNL     1      18.054   9.188 -14.458  1.00  0.00    -0.507 OA
ATOM     23  H   UNL     1      17.781   8.328 -14.909  1.00  0.00     0.293 HD
ENDBRANCH   6  22
BRANCH   8  24
ATOM     24  O   UNL     1      14.520  11.978 -16.124  1.00  0.00    -0.508 OA
ATOM     25  H   UNL     1      14.051  12.876 -16.087  1.00  0.00     0.293 HD
ENDBRANCH   8  24
TORSDOF 5
ENDMDL
