MODEL 1
REMARK VINA RESULT:    -5.507      0.000      0.000
REMARK INTER + INTRA:          -6.448
REMARK INTER:                  -6.312
REMARK INTRA:                  -0.136
REMARK UNBOUND:                -0.136
REMARK SMILES O=C([O-])C=Cc1ccc(O)cc1
REMARK SMILES IDX 6 1 7 2 12 3 8 4 11 5 9 6 5 7 4 8 2 9 1 10 3 11 10 12
REMARK H PARENT 10 13
REMARK Flexibility Score: inf
ROOT
ATOM      1  C   UNL     1      20.033  23.788  39.760  1.00  0.00    -0.025 A 
ATOM      2  C   UNL     1      19.593  23.749  38.421  1.00  0.00     0.012 A 
ATOM      3  C   UNL     1      20.595  22.629  40.322  1.00  0.00     0.012 A 
ATOM      4  C   UNL     1      19.694  22.569  37.678  1.00  0.00     0.047 A 
ATOM      5  C   UNL     1      20.694  21.452  39.575  1.00  0.00     0.047 A 
ATOM      6  C   UNL     1      20.243  21.416  38.253  1.00  0.00     0.115 A 
ENDROOT
BRANCH   1   7
ATOM      7  C   UNL     1      19.959  25.016  40.590  1.00  0.00     0.010 C 
ATOM      8  C   UNL     1      20.965  25.892  40.716  1.00  0.00     0.025 C 
BRANCH   8   9
ATOM      9  C   UNL     1      20.843  27.103  41.543  1.00  0.00     0.064 C 
ATOM     10  O   UNL     1      21.343  28.184  41.138  1.00  0.00    -0.545 OA
ATOM     11  O   UNL     1      20.185  27.072  42.767  1.00  0.00    -0.545 OA
ENDBRANCH   8   9
ENDBRANCH   1   7
BRANCH   6  12
ATOM     12  O   UNL     1      20.347  20.236  37.521  1.00  0.00    -0.508 OA
ATOM     13  H   UNL     1      21.175  20.020  36.979  1.00  0.00     0.293 HD
ENDBRANCH   6  12
TORSDOF 3
ENDMDL
MODEL 2
REMARK VINA RESULT:    -5.309      1.304      1.660
REMARK INTER + INTRA:          -6.220
REMARK INTER:                  -6.084
REMARK INTRA:                  -0.136
REMARK UNBOUND:                -0.136
REMARK SMILES O=C([O-])C=Cc1ccc(O)cc1
REMARK SMILES IDX 6 1 7 2 12 3 8 4 11 5 9 6 5 7 4 8 2 9 1 10 3 11 10 12
REMARK H PARENT 10 13
REMARK Flexibility Score: inf
ROOT
ATOM      1  C   UNL     1      19.834  23.772  39.917  1.00  0.00    -0.025 A 
ATOM      2  C   UNL     1      19.416  23.749  38.571  1.00  0.00     0.012 A 
ATOM      3  C   UNL     1      20.497  22.648  40.439  1.00  0.00     0.012 A 
ATOM      4  C   UNL     1      19.637  22.617  37.780  1.00  0.00     0.047 A 
ATOM      5  C   UNL     1      20.716  21.519  39.646  1.00  0.00     0.047 A 
ATOM      6  C   UNL     1      20.286  21.497  38.316  1.00  0.00     0.115 A 
ENDROOT
BRANCH   1   7
ATOM      7  C   UNL     1      19.635  24.951  40.796  1.00  0.00     0.010 C 
ATOM      8  C   UNL     1      18.587  25.097  41.619  1.00  0.00     0.025 C 
BRANCH   8   9
ATOM      9  C   UNL     1      18.435  26.280  42.481  1.00  0.00     0.064 C 
ATOM     10  O   UNL     1      19.447  26.771  43.046  1.00  0.00    -0.545 OA
ATOM     11  O   UNL     1      17.190  26.865  42.683  1.00  0.00    -0.545 OA
ENDBRANCH   8   9
ENDBRANCH   1   7
BRANCH   6  12
ATOM     12  O   UNL     1      20.510  20.365  37.537  1.00  0.00    -0.508 OA
ATOM     13  H   UNL     1      20.496  19.435  37.938  1.00  0.00     0.293 HD
ENDBRANCH   6  12
TORSDOF 3
ENDMDL
MODEL 3
REMARK VINA RESULT:    -4.991      1.320      5.847
REMARK INTER + INTRA:          -5.856
REMARK INTER:                  -5.717
REMARK INTRA:                  -0.139
REMARK UNBOUND:                -0.136
REMARK SMILES O=C([O-])C=Cc1ccc(O)cc1
REMARK SMILES IDX 6 1 7 2 12 3 8 4 11 5 9 6 5 7 4 8 2 9 1 10 3 11 10 12
REMARK H PARENT 10 13
REMARK Flexibility Score: inf
ROOT
ATOM      1  C   UNL     1      19.993  25.355  40.571  1.00  0.00    -0.025 A 
ATOM      2  C   UNL     1      21.078  26.248  40.677  1.00  0.00     0.012 A 
ATOM      3  C   UNL     1      18.989  25.389  41.554  1.00  0.00     0.012 A 
ATOM      4  C   UNL     1      21.162  27.135  41.754  1.00  0.00     0.047 A 
ATOM      5  C   UNL     1      19.077  26.277  42.629  1.00  0.00     0.047 A 
ATOM      6  C   UNL     1      20.162  27.151  42.735  1.00  0.00     0.115 A 
ENDROOT
BRANCH   1   7
ATOM      7  C   UNL     1      19.850  24.401  39.443  1.00  0.00     0.010 C 
ATOM      8  C   UNL     1      20.062  23.082  39.551  1.00  0.00     0.025 C 
BRANCH   8   9
ATOM      9  C   UNL     1      19.898  22.172  38.407  1.00  0.00     0.064 C 
ATOM     10  O   UNL     1      19.326  22.582  37.364  1.00  0.00    -0.545 OA
ATOM     11  O   UNL     1      20.365  20.863  38.458  1.00  0.00    -0.545 OA
ENDBRANCH   8   9
ENDBRANCH   1   7
BRANCH   6  12
ATOM     12  O   UNL     1      20.238  28.030  43.813  1.00  0.00    -0.508 OA
ATOM     13  H   UNL     1      21.096  28.517  44.041  1.00  0.00     0.293 HD
ENDBRANCH   6  12
TORSDOF 3
ENDMDL
MODEL 4
REMARK VINA RESULT:    -4.880      1.286      5.835
REMARK INTER + INTRA:          -5.729
REMARK INTER:                  -5.590
REMARK INTRA:                  -0.139
REMARK UNBOUND:                -0.136
REMARK SMILES O=C([O-])C=Cc1ccc(O)cc1
REMARK SMILES IDX 6 1 7 2 12 3 8 4 11 5 9 6 5 7 4 8 2 9 1 10 3 11 10 12
REMARK H PARENT 10 13
REMARK Flexibility Score: inf
ROOT
ATOM      1  C   UNL     1      19.738  25.240  40.458  1.00  0.00    -0.025 A 
ATOM      2  C   UNL     1      18.804  25.391  41.504  1.00  0.00     0.012 A 
ATOM      3  C   UNL     1      20.917  26.004  40.486  1.00  0.00     0.012 A 
ATOM      4  C   UNL     1      19.041  26.304  42.536  1.00  0.00     0.047 A 
ATOM      5  C   UNL     1      21.149  26.915  41.521  1.00  0.00     0.047 A 
ATOM      6  C   UNL     1      20.213  27.070  42.547  1.00  0.00     0.115 A 
ENDROOT
BRANCH   1   7
ATOM      7  C   UNL     1      19.541  24.279  39.344  1.00  0.00     0.010 C 
ATOM      8  C   UNL     1      20.057  23.042  39.328  1.00  0.00     0.025 C 
BRANCH   8   9
ATOM      9  C   UNL     1      19.828  22.119  38.205  1.00  0.00     0.064 C 
ATOM     10  O   UNL     1      19.065  22.461  37.265  1.00  0.00    -0.545 OA
ATOM     11  O   UNL     1      20.442  20.872  38.166  1.00  0.00    -0.545 OA
ENDBRANCH   8   9
ENDBRANCH   1   7
BRANCH   6  12
ATOM     12  O   UNL     1      20.458  27.983  43.570  1.00  0.00    -0.508 OA
ATOM     13  H   UNL     1      21.400  28.214  43.860  1.00  0.00     0.293 HD
ENDBRANCH   6  12
TORSDOF 3
ENDMDL
MODEL 5
REMARK VINA RESULT:    -4.486      5.983      8.586
REMARK INTER + INTRA:          -5.277
REMARK INTER:                  -5.136
REMARK INTRA:                  -0.141
REMARK UNBOUND:                -0.136
REMARK SMILES O=C([O-])C=Cc1ccc(O)cc1
REMARK SMILES IDX 6 1 7 2 12 3 8 4 11 5 9 6 5 7 4 8 2 9 1 10 3 11 10 12
REMARK H PARENT 10 13
REMARK Flexibility Score: inf
ROOT
ATOM      1  C   UNL     1      17.152  25.351  45.682  1.00  0.00    -0.025 A 
ATOM      2  C   UNL     1      18.024  25.944  44.747  1.00  0.00     0.012 A 
ATOM      3  C   UNL     1      16.575  26.159  46.677  1.00  0.00     0.012 A 
ATOM      4  C   UNL     1      18.326  27.307  44.826  1.00  0.00     0.047 A 
ATOM      5  C   UNL     1      16.879  27.521  46.752  1.00  0.00     0.047 A 
ATOM      6  C   UNL     1      17.756  28.099  45.831  1.00  0.00     0.115 A 
ENDROOT
BRANCH   1   7
ATOM      7  C   UNL     1      16.789  23.913  45.637  1.00  0.00     0.010 C 
ATOM      8  C   UNL     1      17.297  23.044  44.753  1.00  0.00     0.025 C 
BRANCH   8   9
ATOM      9  C   UNL     1      16.916  21.623  44.751  1.00  0.00     0.064 C 
ATOM     10  O   UNL     1      16.803  21.009  45.844  1.00  0.00    -0.545 OA
ATOM     11  O   UNL     1      16.678  20.945  43.561  1.00  0.00    -0.545 OA
ENDBRANCH   8   9
ENDBRANCH   1   7
BRANCH   6  12
ATOM     12  O   UNL     1      18.051  29.458  45.918  1.00  0.00    -0.508 OA
ATOM     13  H   UNL     1      19.001  29.786  46.045  1.00  0.00     0.293 HD
ENDBRANCH   6  12
TORSDOF 3
ENDMDL
MODEL 6
REMARK VINA RESULT:    -4.400      5.934      8.489
REMARK INTER + INTRA:          -5.179
REMARK INTER:                  -5.042
REMARK INTRA:                  -0.138
REMARK UNBOUND:                -0.136
REMARK SMILES O=C([O-])C=Cc1ccc(O)cc1
REMARK SMILES IDX 6 1 7 2 12 3 8 4 11 5 9 6 5 7 4 8 2 9 1 10 3 11 10 12
REMARK H PARENT 10 13
REMARK Flexibility Score: inf
ROOT
ATOM      1  C   UNL     1      17.296  25.333  45.045  1.00  0.00    -0.025 A 
ATOM      2  C   UNL     1      16.612  25.891  46.144  1.00  0.00     0.012 A 
ATOM      3  C   UNL     1      18.256  26.112  44.377  1.00  0.00     0.012 A 
ATOM      4  C   UNL     1      16.870  27.206  46.544  1.00  0.00     0.047 A 
ATOM      5  C   UNL     1      18.510  27.426  44.781  1.00  0.00     0.047 A 
ATOM      6  C   UNL     1      17.818  27.978  45.862  1.00  0.00     0.115 A 
ENDROOT
BRANCH   1   7
ATOM      7  C   UNL     1      17.069  23.940  44.586  1.00  0.00     0.010 C 
ATOM      8  C   UNL     1      17.174  22.867  45.381  1.00  0.00     0.025 C 
BRANCH   8   9
ATOM      9  C   UNL     1      16.930  21.503  44.884  1.00  0.00     0.064 C 
ATOM     10  O   UNL     1      16.780  20.561  45.705  1.00  0.00    -0.545 OA
ATOM     11  O   UNL     1      16.862  21.238  43.521  1.00  0.00    -0.545 OA
ENDBRANCH   8   9
ENDBRANCH   1   7
BRANCH   6  12
ATOM     12  O   UNL     1      18.081  29.289  46.252  1.00  0.00    -0.508 OA
ATOM     13  H   UNL     1      18.790  29.504  46.943  1.00  0.00     0.293 HD
ENDBRANCH   6  12
TORSDOF 3
ENDMDL
MODEL 7
REMARK VINA RESULT:    -4.375      6.257      7.929
REMARK INTER + INTRA:          -5.150
REMARK INTER:                  -5.001
REMARK INTRA:                  -0.148
REMARK UNBOUND:                -0.136
REMARK SMILES O=C([O-])C=Cc1ccc(O)cc1
REMARK SMILES IDX 6 1 7 2 12 3 8 4 11 5 9 6 5 7 4 8 2 9 1 10 3 11 10 12
REMARK H PARENT 10 13
REMARK Flexibility Score: inf
ROOT
ATOM      1  C   UNL     1      16.874  21.616  43.600  1.00  0.00    -0.025 A 
ATOM      2  C   UNL     1      18.086  22.234  43.230  1.00  0.00     0.012 A 
ATOM      3  C   UNL     1      15.663  22.194  43.181  1.00  0.00     0.012 A 
ATOM      4  C   UNL     1      18.078  23.412  42.479  1.00  0.00     0.047 A 
ATOM      5  C   UNL     1      15.661  23.373  42.430  1.00  0.00     0.047 A 
ATOM      6  C   UNL     1      16.865  23.987  42.078  1.00  0.00     0.115 A 
ENDROOT
BRANCH   1   7
ATOM      7  C   UNL     1      16.824  20.358  44.387  1.00  0.00     0.010 C 
ATOM      8  C   UNL     1      15.834  19.461  44.295  1.00  0.00     0.025 C 
BRANCH   8   9
ATOM      9  C   UNL     1      15.832  18.221  45.088  1.00  0.00     0.064 C 
ATOM     10  O   UNL     1      16.677  17.323  44.839  1.00  0.00    -0.545 OA
ATOM     11  O   UNL     1      14.910  18.025  46.110  1.00  0.00    -0.545 OA
ENDBRANCH   8   9
ENDBRANCH   1   7
BRANCH   6  12
ATOM     12  O   UNL     1      16.848  25.163  41.331  1.00  0.00    -0.508 OA
ATOM     13  H   UNL     1      15.979  25.627  41.095  1.00  0.00     0.293 HD
ENDBRANCH   6  12
TORSDOF 3
ENDMDL
MODEL 8
REMARK VINA RESULT:    -4.305      5.231      7.144
REMARK INTER + INTRA:          -5.070
REMARK INTER:                  -4.932
REMARK INTRA:                  -0.138
REMARK UNBOUND:                -0.136
REMARK SMILES O=C([O-])C=Cc1ccc(O)cc1
REMARK SMILES IDX 6 1 7 2 12 3 8 4 11 5 9 6 5 7 4 8 2 9 1 10 3 11 10 12
REMARK H PARENT 10 13
REMARK Flexibility Score: inf
ROOT
ATOM      1  C   UNL     1      17.870  26.969  44.708  1.00  0.00    -0.025 A 
ATOM      2  C   UNL     1      17.122  26.758  43.532  1.00  0.00     0.012 A 
ATOM      3  C   UNL     1      19.269  27.058  44.614  1.00  0.00     0.012 A 
ATOM      4  C   UNL     1      17.767  26.617  42.300  1.00  0.00     0.047 A 
ATOM      5  C   UNL     1      19.910  26.916  43.380  1.00  0.00     0.047 A 
ATOM      6  C   UNL     1      19.163  26.694  42.220  1.00  0.00     0.115 A 
ENDROOT
BRANCH   1   7
ATOM      7  C   UNL     1      17.236  27.136  46.040  1.00  0.00     0.010 C 
ATOM      8  C   UNL     1      16.450  26.215  46.612  1.00  0.00     0.025 C 
BRANCH   8   9
ATOM      9  C   UNL     1      15.850  26.419  47.939  1.00  0.00     0.064 C 
ATOM     10  O   UNL     1      15.769  27.583  48.412  1.00  0.00    -0.545 OA
ATOM     11  O   UNL     1      15.371  25.347  48.683  1.00  0.00    -0.545 OA
ENDBRANCH   8   9
ENDBRANCH   1   7
BRANCH   6  12
ATOM     12  O   UNL     1      19.814  26.553  40.997  1.00  0.00    -0.508 OA
ATOM     13  H   UNL     1      19.300  26.402  40.137  1.00  0.00     0.293 HD
ENDBRANCH   6  12
TORSDOF 3
ENDMDL
MODEL 9
REMARK VINA RESULT:    -4.296      3.384      4.519
REMARK INTER + INTRA:          -5.059
REMARK INTER:                  -4.925
REMARK INTRA:                  -0.135
REMARK UNBOUND:                -0.136
REMARK SMILES O=C([O-])C=Cc1ccc(O)cc1
REMARK SMILES IDX 6 1 7 2 12 3 8 4 11 5 9 6 5 7 4 8 2 9 1 10 3 11 10 12
REMARK H PARENT 10 13
REMARK Flexibility Score: inf
ROOT
ATOM      1  C   UNL     1      18.591  25.760  42.497  1.00  0.00    -0.025 A 
ATOM      2  C   UNL     1      18.140  24.428  42.397  1.00  0.00     0.012 A 
ATOM      3  C   UNL     1      19.557  26.219  41.585  1.00  0.00     0.012 A 
ATOM      4  C   UNL     1      18.664  23.576  41.421  1.00  0.00     0.047 A 
ATOM      5  C   UNL     1      20.078  25.362  40.611  1.00  0.00     0.047 A 
ATOM      6  C   UNL     1      19.636  24.039  40.526  1.00  0.00     0.115 A 
ENDROOT
BRANCH   1   7
ATOM      7  C   UNL     1      18.061  26.710  43.506  1.00  0.00     0.010 C 
ATOM      8  C   UNL     1      18.077  26.481  44.826  1.00  0.00     0.025 C 
BRANCH   8   9
ATOM      9  C   UNL     1      17.548  27.457  45.792  1.00  0.00     0.064 C 
ATOM     10  O   UNL     1      16.681  27.096  46.629  1.00  0.00    -0.545 OA
ATOM     11  O   UNL     1      17.991  28.776  45.795  1.00  0.00    -0.545 OA
ENDBRANCH   8   9
ENDBRANCH   1   7
BRANCH   6  12
ATOM     12  O   UNL     1      20.165  23.197  39.551  1.00  0.00    -0.508 OA
ATOM     13  H   UNL     1      19.612  22.459  39.132  1.00  0.00     0.293 HD
ENDBRANCH   6  12
TORSDOF 3
ENDMDL
