MODEL 1
REMARK VINA RESULT:    -3.743      0.000      0.000
REMARK INTER + INTRA:         -13.049
REMARK INTER:                  -8.558
REMARK INTRA:                  -4.491
REMARK UNBOUND:                -4.491
REMARK SMILES CCCCCCCCCCCCCCCCCCCCCCCC(=O)[O-]
REMARK SMILES IDX 13 1 14 2 15 3 16 4 17 5 18 6 19 7 20 8 21 9 22 10 23 11
REMARK SMILES IDX 24 12 25 13 26 14 12 15 11 16 10 17 9 18 8 19 7 20 6 21 5 22
REMARK SMILES IDX 4 23 3 24 2 25 1 26
REMARK H PARENT
REMARK Flexibility Score: inf
ROOT
ATOM      1  C   UNL     1     -36.541   5.021  -2.711  1.00  0.00     0.000 C 
ENDROOT
BRANCH   1   2
ATOM      2  C   UNL     1     -35.491   3.896  -2.845  1.00  0.00     0.000 C 
BRANCH   2   3
ATOM      3  C   UNL     1     -36.008   2.641  -3.575  1.00  0.00     0.000 C 
BRANCH   3   4
ATOM      4  C   UNL     1     -34.917   1.687  -4.096  1.00  0.00     0.000 C 
BRANCH   4   5
ATOM      5  C   UNL     1     -35.194   1.063  -5.478  1.00  0.00     0.000 C 
BRANCH   5   6
ATOM      6  C   UNL     1     -36.343   1.757  -6.227  1.00  0.00     0.000 C 
BRANCH   6   7
ATOM      7  C   UNL     1     -35.873   2.512  -7.484  1.00  0.00     0.000 C 
BRANCH   7   8
ATOM      8  C   UNL     1     -34.737   3.527  -7.259  1.00  0.00     0.000 C 
BRANCH   8   9
ATOM      9  C   UNL     1     -35.198   4.786  -6.503  1.00  0.00     0.000 C 
BRANCH   9  10
ATOM     10  C   UNL     1     -34.027   5.571  -5.890  1.00  0.00     0.006 C 
BRANCH  10  11
ATOM     11  C   UNL     1     -32.944   4.653  -5.306  1.00  0.00     0.053 C 
BRANCH  11  12
ATOM     12  C   UNL     1     -31.605   4.997  -5.881  1.00  0.00     0.041 C 
ATOM     13  O   UNL     1     -30.971   5.998  -5.456  1.00  0.00    -0.550 OA
ATOM     14  O   UNL     1     -31.080   4.240  -6.920  1.00  0.00    -0.550 OA
ENDBRANCH  11  12
ENDBRANCH  10  11
ENDBRANCH   9  10
ENDBRANCH   8   9
ENDBRANCH   7   8
ENDBRANCH   6   7
ENDBRANCH   5   6
ENDBRANCH   4   5
ENDBRANCH   3   4
ENDBRANCH   2   3
ENDBRANCH   1   2
BRANCH   1  15
ATOM     15  C   UNL     1     -36.308   5.905  -1.473  1.00  0.00     0.000 C 
BRANCH  15  16
ATOM     16  C   UNL     1     -36.045   7.375  -1.834  1.00  0.00     0.000 C 
BRANCH  16  17
ATOM     17  C   UNL     1     -35.934   7.603  -3.352  1.00  0.00     0.000 C 
BRANCH  17  18
ATOM     18  C   UNL     1     -35.560   9.055  -3.697  1.00  0.00    -0.000 C 
BRANCH  18  19
ATOM     19  C   UNL     1     -34.129   9.409  -3.258  1.00  0.00    -0.000 C 
BRANCH  19  20
ATOM     20  C   UNL     1     -33.094   8.353  -3.690  1.00  0.00    -0.000 C 
BRANCH  20  21
ATOM     21  C   UNL     1     -32.181   7.843  -2.559  1.00  0.00    -0.000 C 
BRANCH  21  22
ATOM     22  C   UNL     1     -32.415   6.378  -2.143  1.00  0.00    -0.000 C 
BRANCH  22  23
ATOM     23  C   UNL     1     -32.716   6.197  -0.639  1.00  0.00    -0.000 C 
BRANCH  23  24
ATOM     24  C   UNL     1     -32.039   4.947  -0.052  1.00  0.00    -0.000 C 
BRANCH  24  25
ATOM     25  C   UNL     1     -32.849   3.666  -0.303  1.00  0.00    -0.003 C 
ATOM     26  C   UNL     1     -32.267   2.811  -1.429  1.00  0.00     0.004 C 
ENDBRANCH  24  25
ENDBRANCH  23  24
ENDBRANCH  22  23
ENDBRANCH  21  22
ENDBRANCH  20  21
ENDBRANCH  19  20
ENDBRANCH  18  19
ENDBRANCH  17  18
ENDBRANCH  16  17
ENDBRANCH  15  16
ENDBRANCH   1  15
TORSDOF 22
ENDMDL
MODEL 2
REMARK VINA RESULT:    -3.629      2.868      5.479
REMARK INTER + INTRA:         -12.788
REMARK INTER:                  -8.019
REMARK INTRA:                  -4.769
REMARK UNBOUND:                -4.491
REMARK SMILES CCCCCCCCCCCCCCCCCCCCCCCC(=O)[O-]
REMARK SMILES IDX 13 1 14 2 15 3 16 4 17 5 18 6 19 7 20 8 21 9 22 10 23 11
REMARK SMILES IDX 24 12 25 13 26 14 12 15 11 16 10 17 9 18 8 19 7 20 6 21 5 22
REMARK SMILES IDX 4 23 3 24 2 25 1 26
REMARK H PARENT
REMARK Flexibility Score: inf
ROOT
ATOM      1  C   UNL     1     -35.278   3.641  -4.417  1.00  0.00     0.000 C 
ENDROOT
BRANCH   1   2
ATOM      2  C   UNL     1     -36.347   3.918  -3.337  1.00  0.00     0.000 C 
BRANCH   2   3
ATOM      3  C   UNL     1     -36.666   5.412  -3.140  1.00  0.00     0.000 C 
BRANCH   3   4
ATOM      4  C   UNL     1     -36.727   5.885  -1.675  1.00  0.00     0.000 C 
BRANCH   4   5
ATOM      5  C   UNL     1     -36.040   7.235  -1.391  1.00  0.00     0.000 C 
BRANCH   5   6
ATOM      6  C   UNL     1     -35.149   7.707  -2.551  1.00  0.00     0.000 C 
BRANCH   6   7
ATOM      7  C   UNL     1     -33.653   7.432  -2.311  1.00  0.00     0.000 C 
BRANCH   7   8
ATOM      8  C   UNL     1     -33.292   6.928  -0.900  1.00  0.00     0.000 C 
BRANCH   8   9
ATOM      9  C   UNL     1     -32.510   5.602  -0.919  1.00  0.00     0.000 C 
BRANCH   9  10
ATOM     10  C   UNL     1     -33.420   4.381  -1.127  1.00  0.00     0.006 C 
BRANCH  10  11
ATOM     11  C   UNL     1     -32.677   3.189  -1.745  1.00  0.00     0.053 C 
BRANCH  11  12
ATOM     12  C   UNL     1     -32.295   2.206  -0.682  1.00  0.00     0.041 C 
ATOM     13  O   UNL     1     -31.112   2.164  -0.254  1.00  0.00    -0.550 OA
ATOM     14  O   UNL     1     -33.233   1.302  -0.201  1.00  0.00    -0.550 OA
ENDBRANCH  11  12
ENDBRANCH  10  11
ENDBRANCH   9  10
ENDBRANCH   8   9
ENDBRANCH   7   8
ENDBRANCH   6   7
ENDBRANCH   5   6
ENDBRANCH   4   5
ENDBRANCH   3   4
ENDBRANCH   2   3
ENDBRANCH   1   2
BRANCH   1  15
ATOM     15  C   UNL     1     -34.636   4.930  -4.960  1.00  0.00     0.000 C 
BRANCH  15  16
ATOM     16  C   UNL     1     -33.125   4.788  -5.196  1.00  0.00     0.000 C 
BRANCH  16  17
ATOM     17  C   UNL     1     -32.445   6.131  -5.518  1.00  0.00     0.000 C 
BRANCH  17  18
ATOM     18  C   UNL     1     -31.110   6.302  -4.772  1.00  0.00    -0.000 C 
BRANCH  18  19
ATOM     19  C   UNL     1     -30.628   4.990  -4.130  1.00  0.00    -0.000 C 
BRANCH  19  20
ATOM     20  C   UNL     1     -29.460   4.344  -4.898  1.00  0.00    -0.000 C 
BRANCH  20  21
ATOM     21  C   UNL     1     -28.408   3.650  -4.010  1.00  0.00    -0.000 C 
BRANCH  21  22
ATOM     22  C   UNL     1     -28.762   3.584  -2.511  1.00  0.00    -0.000 C 
BRANCH  22  23
ATOM     23  C   UNL     1     -27.992   4.603  -1.643  1.00  0.00    -0.000 C 
BRANCH  23  24
ATOM     24  C   UNL     1     -28.931   5.466  -0.782  1.00  0.00    -0.000 C 
BRANCH  24  25
ATOM     25  C   UNL     1     -29.043   6.909  -1.299  1.00  0.00    -0.003 C 
ATOM     26  C   UNL     1     -28.117   7.184  -2.484  1.00  0.00     0.004 C 
ENDBRANCH  24  25
ENDBRANCH  23  24
ENDBRANCH  22  23
ENDBRANCH  21  22
ENDBRANCH  20  21
ENDBRANCH  19  20
ENDBRANCH  18  19
ENDBRANCH  17  18
ENDBRANCH  16  17
ENDBRANCH  15  16
ENDBRANCH   1  15
TORSDOF 22
ENDMDL
MODEL 3
REMARK VINA RESULT:    -3.595      2.952      5.960
REMARK INTER + INTRA:         -12.711
REMARK INTER:                  -8.632
REMARK INTRA:                  -4.079
REMARK UNBOUND:                -4.491
REMARK SMILES CCCCCCCCCCCCCCCCCCCCCCCC(=O)[O-]
REMARK SMILES IDX 13 1 14 2 15 3 16 4 17 5 18 6 19 7 20 8 21 9 22 10 23 11
REMARK SMILES IDX 24 12 25 13 26 14 12 15 11 16 10 17 9 18 8 19 7 20 6 21 5 22
REMARK SMILES IDX 4 23 3 24 2 25 1 26
REMARK H PARENT
REMARK Flexibility Score: inf
ROOT
ATOM      1  C   UNL     1     -31.848   5.522   0.000  1.00  0.00     0.000 C 
ENDROOT
BRANCH   1   2
ATOM      2  C   UNL     1     -32.694   4.252  -0.237  1.00  0.00     0.000 C 
BRANCH   2   3
ATOM      3  C   UNL     1     -32.255   3.426  -1.462  1.00  0.00     0.000 C 
BRANCH   3   4
ATOM      4  C   UNL     1     -30.803   3.654  -1.923  1.00  0.00     0.000 C 
BRANCH   4   5
ATOM      5  C   UNL     1     -29.723   2.979  -1.055  1.00  0.00     0.000 C 
BRANCH   5   6
ATOM      6  C   UNL     1     -28.380   3.725  -1.084  1.00  0.00     0.000 C 
BRANCH   6   7
ATOM      7  C   UNL     1     -28.518   5.195  -1.523  1.00  0.00     0.000 C 
BRANCH   7   8
ATOM      8  C   UNL     1     -27.984   5.516  -2.932  1.00  0.00     0.000 C 
BRANCH   8   9
ATOM      9  C   UNL     1     -27.925   7.026  -3.222  1.00  0.00     0.000 C 
BRANCH   9  10
ATOM     10  C   UNL     1     -28.358   7.877  -2.017  1.00  0.00     0.006 C 
BRANCH  10  11
ATOM     11  C   UNL     1     -28.741   9.309  -2.413  1.00  0.00     0.053 C 
BRANCH  11  12
ATOM     12  C   UNL     1     -29.249  10.061  -1.223  1.00  0.00     0.041 C 
ATOM     13  O   UNL     1     -30.228  10.844  -1.338  1.00  0.00    -0.550 OA
ATOM     14  O   UNL     1     -28.610   9.935   0.004  1.00  0.00    -0.550 OA
ENDBRANCH  11  12
ENDBRANCH  10  11
ENDBRANCH   9  10
ENDBRANCH   8   9
ENDBRANCH   7   8
ENDBRANCH   6   7
ENDBRANCH   5   6
ENDBRANCH   4   5
ENDBRANCH   3   4
ENDBRANCH   2   3
ENDBRANCH   1   2
BRANCH   1  15
ATOM     15  C   UNL     1     -32.571   6.807  -0.441  1.00  0.00     0.000 C 
BRANCH  15  16
ATOM     16  C   UNL     1     -32.003   7.391  -1.744  1.00  0.00     0.000 C 
BRANCH  16  17
ATOM     17  C   UNL     1     -32.626   6.756  -3.000  1.00  0.00     0.000 C 
BRANCH  17  18
ATOM     18  C   UNL     1     -33.373   7.786  -3.864  1.00  0.00    -0.000 C 
BRANCH  18  19
ATOM     19  C   UNL     1     -34.401   8.594  -3.052  1.00  0.00    -0.000 C 
BRANCH  19  20
ATOM     20  C   UNL     1     -35.756   7.874  -2.921  1.00  0.00    -0.000 C 
BRANCH  20  21
ATOM     21  C   UNL     1     -36.080   7.359  -1.505  1.00  0.00    -0.000 C 
BRANCH  21  22
ATOM     22  C   UNL     1     -35.987   5.831  -1.329  1.00  0.00    -0.000 C 
BRANCH  22  23
ATOM     23  C   UNL     1     -36.535   5.031  -2.532  1.00  0.00    -0.000 C 
BRANCH  23  24
ATOM     24  C   UNL     1     -35.468   4.121  -3.165  1.00  0.00    -0.000 C 
BRANCH  24  25
ATOM     25  C   UNL     1     -35.197   4.469  -4.637  1.00  0.00    -0.003 C 
ATOM     26  C   UNL     1     -33.786   4.085  -5.083  1.00  0.00     0.004 C 
ENDBRANCH  24  25
ENDBRANCH  23  24
ENDBRANCH  22  23
ENDBRANCH  21  22
ENDBRANCH  20  21
ENDBRANCH  19  20
ENDBRANCH  18  19
ENDBRANCH  17  18
ENDBRANCH  16  17
ENDBRANCH  15  16
ENDBRANCH   1  15
TORSDOF 22
ENDMDL
MODEL 4
REMARK VINA RESULT:    -3.587      2.257      5.271
REMARK INTER + INTRA:         -12.691
REMARK INTER:                  -8.081
REMARK INTRA:                  -4.610
REMARK UNBOUND:                -4.491
REMARK SMILES CCCCCCCCCCCCCCCCCCCCCCCC(=O)[O-]
REMARK SMILES IDX 13 1 14 2 15 3 16 4 17 5 18 6 19 7 20 8 21 9 22 10 23 11
REMARK SMILES IDX 24 12 25 13 26 14 12 15 11 16 10 17 9 18 8 19 7 20 6 21 5 22
REMARK SMILES IDX 4 23 3 24 2 25 1 26
REMARK H PARENT
REMARK Flexibility Score: inf
ROOT
ATOM      1  C   UNL     1     -35.999   5.468  -1.404  1.00  0.00     0.000 C 
ENDROOT
BRANCH   1   2
ATOM      2  C   UNL     1     -36.120   7.007  -1.371  1.00  0.00     0.000 C 
BRANCH   2   3
ATOM      3  C   UNL     1     -35.374   7.719  -2.516  1.00  0.00     0.000 C 
BRANCH   3   4
ATOM      4  C   UNL     1     -33.866   7.934  -2.287  1.00  0.00     0.000 C 
BRANCH   4   5
ATOM      5  C   UNL     1     -33.143   8.742  -3.381  1.00  0.00     0.000 C 
BRANCH   5   6
ATOM      6  C   UNL     1     -31.827   9.368  -2.891  1.00  0.00     0.000 C 
BRANCH   6   7
ATOM      7  C   UNL     1     -30.902   8.353  -2.193  1.00  0.00     0.000 C 
BRANCH   7   8
ATOM      8  C   UNL     1     -29.685   7.893  -3.018  1.00  0.00     0.000 C 
BRANCH   8   9
ATOM      9  C   UNL     1     -28.627   7.165  -2.170  1.00  0.00     0.000 C 
BRANCH   9  10
ATOM     10  C   UNL     1     -27.886   6.073  -2.959  1.00  0.00     0.006 C 
BRANCH  10  11
ATOM     11  C   UNL     1     -28.674   5.594  -4.186  1.00  0.00     0.053 C 
BRANCH  11  12
ATOM     12  C   UNL     1     -28.279   4.196  -4.547  1.00  0.00     0.041 C 
ATOM     13  O   UNL     1     -27.763   3.953  -5.669  1.00  0.00    -0.550 OA
ATOM     14  O   UNL     1     -28.526   3.154  -3.663  1.00  0.00    -0.550 OA
ENDBRANCH  11  12
ENDBRANCH  10  11
ENDBRANCH   9  10
ENDBRANCH   8   9
ENDBRANCH   7   8
ENDBRANCH   6   7
ENDBRANCH   5   6
ENDBRANCH   4   5
ENDBRANCH   3   4
ENDBRANCH   2   3
ENDBRANCH   1   2
BRANCH   1  15
ATOM     15  C   UNL     1     -36.106   4.895  -2.828  1.00  0.00     0.000 C 
BRANCH  15  16
ATOM     16  C   UNL     1     -35.635   3.435  -2.918  1.00  0.00     0.000 C 
BRANCH  16  17
ATOM     17  C   UNL     1     -34.130   3.314  -3.217  1.00  0.00     0.000 C 
BRANCH  17  18
ATOM     18  C   UNL     1     -33.615   4.465  -4.097  1.00  0.00    -0.000 C 
BRANCH  18  19
ATOM     19  C   UNL     1     -32.302   5.065  -3.564  1.00  0.00    -0.000 C 
BRANCH  19  20
ATOM     20  C   UNL     1     -31.644   4.191  -2.481  1.00  0.00    -0.000 C 
BRANCH  20  21
ATOM     21  C   UNL     1     -31.339   4.922  -1.158  1.00  0.00    -0.000 C 
BRANCH  21  22
ATOM     22  C   UNL     1     -32.553   5.124  -0.231  1.00  0.00    -0.000 C 
BRANCH  22  23
ATOM     23  C   UNL     1     -32.728   4.006   0.820  1.00  0.00    -0.000 C 
BRANCH  23  24
ATOM     24  C   UNL     1     -33.916   3.082   0.499  1.00  0.00    -0.000 C 
BRANCH  24  25
ATOM     25  C   UNL     1     -33.468   1.697   0.008  1.00  0.00    -0.003 C 
ATOM     26  C   UNL     1     -32.015   1.385   0.368  1.00  0.00     0.004 C 
ENDBRANCH  24  25
ENDBRANCH  23  24
ENDBRANCH  22  23
ENDBRANCH  21  22
ENDBRANCH  20  21
ENDBRANCH  19  20
ENDBRANCH  18  19
ENDBRANCH  17  18
ENDBRANCH  16  17
ENDBRANCH  15  16
ENDBRANCH   1  15
TORSDOF 22
ENDMDL
MODEL 5
REMARK VINA RESULT:    -3.558      3.581      6.379
REMARK INTER + INTRA:         -12.625
REMARK INTER:                  -8.289
REMARK INTRA:                  -4.335
REMARK UNBOUND:                -4.491
REMARK SMILES CCCCCCCCCCCCCCCCCCCCCCCC(=O)[O-]
REMARK SMILES IDX 13 1 14 2 15 3 16 4 17 5 18 6 19 7 20 8 21 9 22 10 23 11
REMARK SMILES IDX 24 12 25 13 26 14 12 15 11 16 10 17 9 18 8 19 7 20 6 21 5 22
REMARK SMILES IDX 4 23 3 24 2 25 1 26
REMARK H PARENT
REMARK Flexibility Score: inf
ROOT
ATOM      1  C   UNL     1     -32.260   8.215  -3.580  1.00  0.00     0.000 C 
ENDROOT
BRANCH   1   2
ATOM      2  C   UNL     1     -33.395   9.004  -2.891  1.00  0.00     0.000 C 
BRANCH   2   3
ATOM      3  C   UNL     1     -34.723   9.001  -3.671  1.00  0.00     0.000 C 
BRANCH   3   4
ATOM      4  C   UNL     1     -35.687   7.850  -3.326  1.00  0.00     0.000 C 
BRANCH   4   5
ATOM      5  C   UNL     1     -36.061   7.729  -1.836  1.00  0.00     0.000 C 
BRANCH   5   6
ATOM      6  C   UNL     1     -36.188   6.270  -1.368  1.00  0.00     0.000 C 
BRANCH   6   7
ATOM      7  C   UNL     1     -34.833   5.542  -1.295  1.00  0.00     0.000 C 
BRANCH   7   8
ATOM      8  C   UNL     1     -34.783   4.168  -1.990  1.00  0.00     0.000 C 
BRANCH   8   9
ATOM      9  C   UNL     1     -33.353   3.731  -2.353  1.00  0.00     0.000 C 
BRANCH   9  10
ATOM     10  C   UNL     1     -32.884   2.510  -1.545  1.00  0.00     0.006 C 
BRANCH  10  11
ATOM     11  C   UNL     1     -32.988   2.730  -0.029  1.00  0.00     0.053 C 
BRANCH  11  12
ATOM     12  C   UNL     1     -33.849   1.675   0.593  1.00  0.00     0.041 C 
ATOM     13  O   UNL     1     -34.206   1.776   1.795  1.00  0.00    -0.550 OA
ATOM     14  O   UNL     1     -34.214   0.553  -0.141  1.00  0.00    -0.550 OA
ENDBRANCH  11  12
ENDBRANCH  10  11
ENDBRANCH   9  10
ENDBRANCH   8   9
ENDBRANCH   7   8
ENDBRANCH   6   7
ENDBRANCH   5   6
ENDBRANCH   4   5
ENDBRANCH   3   4
ENDBRANCH   2   3
ENDBRANCH   1   2
BRANCH   1  15
ATOM     15  C   UNL     1     -31.774   7.020  -2.741  1.00  0.00     0.000 C 
BRANCH  15  16
ATOM     16  C   UNL     1     -31.516   7.392  -1.272  1.00  0.00     0.000 C 
BRANCH  16  17
ATOM     17  C   UNL     1     -31.294   6.159  -0.378  1.00  0.00     0.000 C 
BRANCH  17  18
ATOM     18  C   UNL     1     -30.267   5.182  -0.977  1.00  0.00    -0.000 C 
BRANCH  18  19
ATOM     19  C   UNL     1     -28.827   5.515  -0.550  1.00  0.00    -0.000 C 
BRANCH  19  20
ATOM     20  C   UNL     1     -27.830   5.461  -1.722  1.00  0.00    -0.000 C 
BRANCH  20  21
ATOM     21  C   UNL     1     -28.467   5.196  -3.100  1.00  0.00    -0.000 C 
BRANCH  21  22
ATOM     22  C   UNL     1     -28.494   6.410  -4.050  1.00  0.00    -0.000 C 
BRANCH  22  23
ATOM     23  C   UNL     1     -27.757   7.649  -3.499  1.00  0.00    -0.000 C 
BRANCH  23  24
ATOM     24  C   UNL     1     -28.541   8.951  -3.735  1.00  0.00    -0.000 C 
BRANCH  24  25
ATOM     25  C   UNL     1     -28.967   9.628  -2.423  1.00  0.00    -0.003 C 
ATOM     26  C   UNL     1     -28.159   9.142  -1.219  1.00  0.00     0.004 C 
ENDBRANCH  24  25
ENDBRANCH  23  24
ENDBRANCH  22  23
ENDBRANCH  21  22
ENDBRANCH  20  21
ENDBRANCH  19  20
ENDBRANCH  18  19
ENDBRANCH  17  18
ENDBRANCH  16  17
ENDBRANCH  15  16
ENDBRANCH   1  15
TORSDOF 22
ENDMDL
MODEL 6
REMARK VINA RESULT:    -3.551      3.522      6.676
REMARK INTER + INTRA:         -12.609
REMARK INTER:                  -8.607
REMARK INTRA:                  -4.002
REMARK UNBOUND:                -4.491
REMARK SMILES CCCCCCCCCCCCCCCCCCCCCCCC(=O)[O-]
REMARK SMILES IDX 13 1 14 2 15 3 16 4 17 5 18 6 19 7 20 8 21 9 22 10 23 11
REMARK SMILES IDX 24 12 25 13 26 14 12 15 11 16 10 17 9 18 8 19 7 20 6 21 5 22
REMARK SMILES IDX 4 23 3 24 2 25 1 26
REMARK H PARENT
REMARK Flexibility Score: inf
ROOT
ATOM      1  C   UNL     1     -31.479   7.253  -1.202  1.00  0.00     0.000 C 
ENDROOT
BRANCH   1   2
ATOM      2  C   UNL     1     -30.074   7.856  -0.983  1.00  0.00     0.000 C 
BRANCH   2   3
ATOM      3  C   UNL     1     -29.779   9.089  -1.859  1.00  0.00     0.000 C 
BRANCH   3   4
ATOM      4  C   UNL     1     -28.286   9.395  -2.083  1.00  0.00     0.000 C 
BRANCH   4   5
ATOM      5  C   UNL     1     -27.721   8.950  -3.446  1.00  0.00     0.000 C 
BRANCH   5   6
ATOM      6  C   UNL     1     -28.767   8.242  -4.323  1.00  0.00     0.000 C 
BRANCH   6   7
ATOM      7  C   UNL     1     -28.421   6.767  -4.601  1.00  0.00     0.000 C 
BRANCH   7   8
ATOM      8  C   UNL     1     -27.911   5.968  -3.387  1.00  0.00     0.000 C 
BRANCH   8   9
ATOM      9  C   UNL     1     -28.552   4.573  -3.276  1.00  0.00     0.000 C 
BRANCH   9  10
ATOM     10  C   UNL     1     -28.449   3.987  -1.858  1.00  0.00     0.006 C 
BRANCH  10  11
ATOM     11  C   UNL     1     -27.676   4.899  -0.897  1.00  0.00     0.053 C 
BRANCH  11  12
ATOM     12  C   UNL     1     -27.029   4.090   0.184  1.00  0.00     0.041 C 
ATOM     13  O   UNL     1     -25.858   4.356   0.560  1.00  0.00    -0.550 OA
ATOM     14  O   UNL     1     -27.702   3.010   0.740  1.00  0.00    -0.550 OA
ENDBRANCH  11  12
ENDBRANCH  10  11
ENDBRANCH   9  10
ENDBRANCH   8   9
ENDBRANCH   7   8
ENDBRANCH   6   7
ENDBRANCH   5   6
ENDBRANCH   4   5
ENDBRANCH   3   4
ENDBRANCH   2   3
ENDBRANCH   1   2
BRANCH   1  15
ATOM     15  C   UNL     1     -31.637   6.603  -2.588  1.00  0.00     0.000 C 
BRANCH  15  16
ATOM     16  C   UNL     1     -32.662   7.331  -3.472  1.00  0.00     0.000 C 
BRANCH  16  17
ATOM     17  C   UNL     1     -33.424   8.432  -2.714  1.00  0.00     0.000 C 
BRANCH  17  18
ATOM     18  C   UNL     1     -34.755   8.794  -3.394  1.00  0.00    -0.000 C 
BRANCH  18  19
ATOM     19  C   UNL     1     -35.855   7.756  -3.113  1.00  0.00    -0.000 C 
BRANCH  19  20
ATOM     20  C   UNL     1     -35.947   7.372  -1.624  1.00  0.00    -0.000 C 
BRANCH  20  21
ATOM     21  C   UNL     1     -36.032   5.857  -1.352  1.00  0.00    -0.000 C 
BRANCH  21  22
ATOM     22  C   UNL     1     -34.676   5.157  -1.132  1.00  0.00    -0.000 C 
BRANCH  22  23
ATOM     23  C   UNL     1     -34.409   3.994  -2.112  1.00  0.00    -0.000 C 
BRANCH  23  24
ATOM     24  C   UNL     1     -35.116   4.193  -3.464  1.00  0.00    -0.000 C 
BRANCH  24  25
ATOM     25  C   UNL     1     -34.427   3.430  -4.606  1.00  0.00    -0.003 C 
ATOM     26  C   UNL     1     -33.482   4.315  -5.420  1.00  0.00     0.004 C 
ENDBRANCH  24  25
ENDBRANCH  23  24
ENDBRANCH  22  23
ENDBRANCH  21  22
ENDBRANCH  20  21
ENDBRANCH  19  20
ENDBRANCH  18  19
ENDBRANCH  17  18
ENDBRANCH  16  17
ENDBRANCH  15  16
ENDBRANCH   1  15
TORSDOF 22
ENDMDL
MODEL 7
REMARK VINA RESULT:    -3.535      2.612      6.359
REMARK INTER + INTRA:         -12.573
REMARK INTER:                  -8.501
REMARK INTRA:                  -4.072
REMARK UNBOUND:                -4.491
REMARK SMILES CCCCCCCCCCCCCCCCCCCCCCCC(=O)[O-]
REMARK SMILES IDX 13 1 14 2 15 3 16 4 17 5 18 6 19 7 20 8 21 9 22 10 23 11
REMARK SMILES IDX 24 12 25 13 26 14 12 15 11 16 10 17 9 18 8 19 7 20 6 21 5 22
REMARK SMILES IDX 4 23 3 24 2 25 1 26
REMARK H PARENT
REMARK Flexibility Score: inf
ROOT
ATOM      1  C   UNL     1     -35.419   6.002  -1.672  1.00  0.00     0.000 C 
ENDROOT
BRANCH   1   2
ATOM      2  C   UNL     1     -34.898   7.454  -1.599  1.00  0.00     0.000 C 
BRANCH   2   3
ATOM      3  C   UNL     1     -34.615   8.088  -2.975  1.00  0.00     0.000 C 
BRANCH   3   4
ATOM      4  C   UNL     1     -33.463   9.111  -3.004  1.00  0.00     0.000 C 
BRANCH   4   5
ATOM      5  C   UNL     1     -32.097   8.550  -3.445  1.00  0.00     0.000 C 
BRANCH   5   6
ATOM      6  C   UNL     1     -30.934   9.065  -2.582  1.00  0.00     0.000 C 
BRANCH   6   7
ATOM      7  C   UNL     1     -30.665   8.184  -1.347  1.00  0.00     0.000 C 
BRANCH   7   8
ATOM      8  C   UNL     1     -29.265   7.544  -1.285  1.00  0.00     0.000 C 
BRANCH   8   9
ATOM      9  C   UNL     1     -28.701   7.198  -2.675  1.00  0.00     0.000 C 
BRANCH   9  10
ATOM     10  C   UNL     1     -28.021   5.820  -2.710  1.00  0.00     0.006 C 
BRANCH  10  11
ATOM     11  C   UNL     1     -27.938   5.167  -1.324  1.00  0.00     0.053 C 
BRANCH  11  12
ATOM     12  C   UNL     1     -28.355   3.731  -1.398  1.00  0.00     0.041 C 
ATOM     13  O   UNL     1     -28.789   3.252  -2.478  1.00  0.00    -0.550 OA
ATOM     14  O   UNL     1     -28.312   2.935  -0.261  1.00  0.00    -0.550 OA
ENDBRANCH  11  12
ENDBRANCH  10  11
ENDBRANCH   9  10
ENDBRANCH   8   9
ENDBRANCH   7   8
ENDBRANCH   6   7
ENDBRANCH   5   6
ENDBRANCH   4   5
ENDBRANCH   3   4
ENDBRANCH   2   3
ENDBRANCH   1   2
BRANCH   1  15
ATOM     15  C   UNL     1     -34.526   5.012  -0.904  1.00  0.00     0.000 C 
BRANCH  15  16
ATOM     16  C   UNL     1     -33.053   5.447  -0.866  1.00  0.00     0.000 C 
BRANCH  16  17
ATOM     17  C   UNL     1     -32.143   4.537  -1.710  1.00  0.00     0.000 C 
BRANCH  17  18
ATOM     18  C   UNL     1     -31.998   5.038  -3.157  1.00  0.00    -0.000 C 
BRANCH  18  19
ATOM     19  C   UNL     1     -33.076   4.456  -4.087  1.00  0.00    -0.000 C 
BRANCH  19  20
ATOM     20  C   UNL     1     -33.465   5.418  -5.224  1.00  0.00    -0.000 C 
BRANCH  20  21
ATOM     21  C   UNL     1     -34.944   5.346  -5.654  1.00  0.00    -0.000 C 
BRANCH  21  22
ATOM     22  C   UNL     1     -35.820   4.392  -4.819  1.00  0.00    -0.000 C 
BRANCH  22  23
ATOM     23  C   UNL     1     -36.601   3.362  -5.665  1.00  0.00    -0.000 C 
BRANCH  23  24
ATOM     24  C   UNL     1     -35.703   2.640  -6.684  1.00  0.00    -0.000 C 
BRANCH  24  25
ATOM     25  C   UNL     1     -34.932   1.465  -6.062  1.00  0.00    -0.003 C 
ATOM     26  C   UNL     1     -35.798   0.623  -5.124  1.00  0.00     0.004 C 
ENDBRANCH  24  25
ENDBRANCH  23  24
ENDBRANCH  22  23
ENDBRANCH  21  22
ENDBRANCH  20  21
ENDBRANCH  19  20
ENDBRANCH  18  19
ENDBRANCH  17  18
ENDBRANCH  16  17
ENDBRANCH  15  16
ENDBRANCH   1  15
TORSDOF 22
ENDMDL
MODEL 8
REMARK VINA RESULT:    -3.519      3.225      6.003
REMARK INTER + INTRA:         -12.536
REMARK INTER:                  -7.773
REMARK INTRA:                  -4.763
REMARK UNBOUND:                -4.491
REMARK SMILES CCCCCCCCCCCCCCCCCCCCCCCC(=O)[O-]
REMARK SMILES IDX 13 1 14 2 15 3 16 4 17 5 18 6 19 7 20 8 21 9 22 10 23 11
REMARK SMILES IDX 24 12 25 13 26 14 12 15 11 16 10 17 9 18 8 19 7 20 6 21 5 22
REMARK SMILES IDX 4 23 3 24 2 25 1 26
REMARK H PARENT
REMARK Flexibility Score: inf
ROOT
ATOM      1  C   UNL     1     -32.164   7.602  -2.087  1.00  0.00     0.000 C 
ENDROOT
BRANCH   1   2
ATOM      2  C   UNL     1     -31.334   6.942  -0.964  1.00  0.00     0.000 C 
BRANCH   2   3
ATOM      3  C   UNL     1     -32.093   5.852  -0.183  1.00  0.00     0.000 C 
BRANCH   3   4
ATOM      4  C   UNL     1     -32.225   4.497  -0.903  1.00  0.00     0.000 C 
BRANCH   4   5
ATOM      5  C   UNL     1     -33.604   4.218  -1.532  1.00  0.00     0.000 C 
BRANCH   5   6
ATOM      6  C   UNL     1     -34.769   4.716  -0.661  1.00  0.00     0.000 C 
BRANCH   6   7
ATOM      7  C   UNL     1     -35.621   5.795  -1.356  1.00  0.00     0.000 C 
BRANCH   7   8
ATOM      8  C   UNL     1     -35.933   5.534  -2.842  1.00  0.00     0.000 C 
BRANCH   8   9
ATOM      9  C   UNL     1     -35.946   6.821  -3.687  1.00  0.00     0.000 C 
BRANCH   9  10
ATOM     10  C   UNL     1     -35.726   8.085  -2.841  1.00  0.00     0.006 C 
BRANCH  10  11
ATOM     11  C   UNL     1     -35.056   9.216  -3.634  1.00  0.00     0.053 C 
BRANCH  11  12
ATOM     12  C   UNL     1     -36.059   9.909  -4.503  1.00  0.00     0.041 C 
ATOM     13  O   UNL     1     -36.853  10.750  -4.007  1.00  0.00    -0.550 OA
ATOM     14  O   UNL     1     -36.149   9.589  -5.852  1.00  0.00    -0.550 OA
ENDBRANCH  11  12
ENDBRANCH  10  11
ENDBRANCH   9  10
ENDBRANCH   8   9
ENDBRANCH   7   8
ENDBRANCH   6   7
ENDBRANCH   5   6
ENDBRANCH   4   5
ENDBRANCH   3   4
ENDBRANCH   2   3
ENDBRANCH   1   2
BRANCH   1  15
ATOM     15  C   UNL     1     -31.578   7.346  -3.486  1.00  0.00     0.000 C 
BRANCH  15  16
ATOM     16  C   UNL     1     -32.381   6.308  -4.286  1.00  0.00     0.000 C 
BRANCH  16  17
ATOM     17  C   UNL     1     -31.599   5.003  -4.520  1.00  0.00     0.000 C 
BRANCH  17  18
ATOM     18  C   UNL     1     -30.302   5.235  -5.314  1.00  0.00    -0.000 C 
BRANCH  18  19
ATOM     19  C   UNL     1     -29.108   4.470  -4.717  1.00  0.00    -0.000 C 
BRANCH  19  20
ATOM     20  C   UNL     1     -29.352   4.022  -3.264  1.00  0.00    -0.000 C 
BRANCH  20  21
ATOM     21  C   UNL     1     -28.758   4.955  -2.191  1.00  0.00    -0.000 C 
BRANCH  21  22
ATOM     22  C   UNL     1     -27.694   5.945  -2.706  1.00  0.00    -0.000 C 
BRANCH  22  23
ATOM     23  C   UNL     1     -28.099   7.428  -2.557  1.00  0.00    -0.000 C 
BRANCH  23  24
ATOM     24  C   UNL     1     -28.103   8.172  -3.904  1.00  0.00    -0.000 C 
BRANCH  24  25
ATOM     25  C   UNL     1     -27.044   7.633  -4.877  1.00  0.00    -0.003 C 
ATOM     26  C   UNL     1     -27.556   7.541  -6.315  1.00  0.00     0.004 C 
ENDBRANCH  24  25
ENDBRANCH  23  24
ENDBRANCH  22  23
ENDBRANCH  21  22
ENDBRANCH  20  21
ENDBRANCH  19  20
ENDBRANCH  18  19
ENDBRANCH  17  18
ENDBRANCH  16  17
ENDBRANCH  15  16
ENDBRANCH   1  15
TORSDOF 22
ENDMDL
MODEL 9
REMARK VINA RESULT:    -3.512      2.656      5.624
REMARK INTER + INTRA:         -12.521
REMARK INTER:                  -7.896
REMARK INTRA:                  -4.625
REMARK UNBOUND:                -4.491
REMARK SMILES CCCCCCCCCCCCCCCCCCCCCCCC(=O)[O-]
REMARK SMILES IDX 13 1 14 2 15 3 16 4 17 5 18 6 19 7 20 8 21 9 22 10 23 11
REMARK SMILES IDX 24 12 25 13 26 14 12 15 11 16 10 17 9 18 8 19 7 20 6 21 5 22
REMARK SMILES IDX 4 23 3 24 2 25 1 26
REMARK H PARENT
REMARK Flexibility Score: inf
ROOT
ATOM      1  C   UNL     1     -35.104   1.836  -3.739  1.00  0.00     0.000 C 
ENDROOT
BRANCH   1   2
ATOM      2  C   UNL     1     -35.912   2.798  -2.840  1.00  0.00     0.000 C 
BRANCH   2   3
ATOM      3  C   UNL     1     -36.316   4.112  -3.534  1.00  0.00     0.000 C 
BRANCH   3   4
ATOM      4  C   UNL     1     -36.435   5.337  -2.607  1.00  0.00     0.000 C 
BRANCH   4   5
ATOM      5  C   UNL     1     -35.856   6.648  -3.172  1.00  0.00     0.000 C 
BRANCH   5   6
ATOM      6  C   UNL     1     -34.695   7.200  -2.328  1.00  0.00     0.000 C 
BRANCH   6   7
ATOM      7  C   UNL     1     -34.332   6.293  -1.137  1.00  0.00     0.000 C 
BRANCH   7   8
ATOM      8  C   UNL     1     -32.866   6.370  -0.672  1.00  0.00     0.000 C 
BRANCH   8   9
ATOM      9  C   UNL     1     -32.285   4.996  -0.291  1.00  0.00     0.000 C 
BRANCH   9  10
ATOM     10  C   UNL     1     -33.256   3.841  -0.584  1.00  0.00     0.006 C 
BRANCH  10  11
ATOM     11  C   UNL     1     -32.531   2.526  -0.900  1.00  0.00     0.053 C 
BRANCH  11  12
ATOM     12  C   UNL     1     -31.737   2.071   0.284  1.00  0.00     0.041 C 
ATOM     13  O   UNL     1     -30.553   1.671   0.137  1.00  0.00    -0.550 OA
ATOM     14  O   UNL     1     -32.322   2.041   1.544  1.00  0.00    -0.550 OA
ENDBRANCH  11  12
ENDBRANCH  10  11
ENDBRANCH   9  10
ENDBRANCH   8   9
ENDBRANCH   7   8
ENDBRANCH   6   7
ENDBRANCH   5   6
ENDBRANCH   4   5
ENDBRANCH   3   4
ENDBRANCH   2   3
ENDBRANCH   1   2
BRANCH   1  15
ATOM     15  C   UNL     1     -35.843   1.479  -5.040  1.00  0.00     0.000 C 
BRANCH  15  16
ATOM     16  C   UNL     1     -35.024   1.808  -6.298  1.00  0.00     0.000 C 
BRANCH  16  17
ATOM     17  C   UNL     1     -35.656   2.930  -7.141  1.00  0.00     0.000 C 
BRANCH  17  18
ATOM     18  C   UNL     1     -34.787   4.199  -7.169  1.00  0.00    -0.000 C 
BRANCH  18  19
ATOM     19  C   UNL     1     -33.475   4.024  -6.385  1.00  0.00    -0.000 C 
BRANCH  19  20
ATOM     20  C   UNL     1     -33.252   5.134  -5.341  1.00  0.00    -0.000 C 
BRANCH  20  21
ATOM     21  C   UNL     1     -32.558   4.672  -4.044  1.00  0.00    -0.000 C 
BRANCH  21  22
ATOM     22  C   UNL     1     -31.174   5.297  -3.787  1.00  0.00    -0.000 C 
BRANCH  22  23
ATOM     23  C   UNL     1     -30.067   4.768  -4.725  1.00  0.00    -0.000 C 
BRANCH  23  24
ATOM     24  C   UNL     1     -28.874   4.182  -3.950  1.00  0.00    -0.000 C 
BRANCH  24  25
ATOM     25  C   UNL     1     -29.287   3.587  -2.595  1.00  0.00    -0.003 C 
ATOM     26  C   UNL     1     -28.366   4.023  -1.455  1.00  0.00     0.004 C 
ENDBRANCH  24  25
ENDBRANCH  23  24
ENDBRANCH  22  23
ENDBRANCH  21  22
ENDBRANCH  20  21
ENDBRANCH  19  20
ENDBRANCH  18  19
ENDBRANCH  17  18
ENDBRANCH  16  17
ENDBRANCH  15  16
ENDBRANCH   1  15
TORSDOF 22
ENDMDL
