MODEL 1
REMARK VINA RESULT:    -4.419      0.000      0.000
REMARK INTER + INTRA:          -5.591
REMARK INTER:                  -5.323
REMARK INTRA:                  -0.268
REMARK UNBOUND:                -0.268
REMARK SMILES O=c1c(O)c(-c2ccc(O)c(O)c2)oc2cc(O)cc(O)c12
REMARK SMILES IDX 5 1 3 2 2 3 1 4 22 5 20 6 19 7 17 8 16 9 15 10 14 11 6 12
REMARK SMILES IDX 7 13 8 14 9 15 13 16 11 17 10 18 12 20 4 22 21 24 18 26
REMARK H PARENT 10 19 12 21 4 23 21 25 18 27
REMARK Flexibility Score: inf
ROOT
ATOM      1  C   UNL     1     -33.926  10.346 -36.132  1.00  0.00     0.180 A 
ATOM      2  C   UNL     1     -32.870   9.780 -36.869  1.00  0.00     0.208 A 
ATOM      3  C   UNL     1     -33.088   9.432 -38.212  1.00  0.00     0.238 A 
ATOM      4  O   UNL     1     -32.156   8.876 -38.850  1.00  0.00    -0.285 OA
ATOM      5  C   UNL     1     -34.351   9.668 -38.805  1.00  0.00     0.111 A 
ATOM      6  C   UNL     1     -34.670   9.389 -40.168  1.00  0.00     0.134 A 
ATOM      7  C   UNL     1     -35.990   9.541 -40.613  1.00  0.00     0.093 A 
ATOM      8  C   UNL     1     -36.987  10.022 -39.760  1.00  0.00     0.123 A 
ATOM      9  C   UNL     1     -36.671  10.351 -38.445  1.00  0.00     0.094 A 
ATOM     10  C   UNL     1     -35.373  10.177 -37.961  1.00  0.00     0.146 A 
ATOM     11  O   UNL     1     -35.118  10.493 -36.697  1.00  0.00    -0.452 OA
ENDROOT
BRANCH   1  12
ATOM     12  C   UNL     1     -33.765  10.763 -34.720  1.00  0.00     0.025 A 
ATOM     13  C   UNL     1     -33.659  12.118 -34.364  1.00  0.00     0.016 A 
ATOM     14  C   UNL     1     -33.533  12.489 -33.023  1.00  0.00     0.051 A 
ATOM     15  C   UNL     1     -33.525  11.513 -32.017  1.00  0.00     0.157 A 
ATOM     16  C   UNL     1     -33.778   9.789 -33.707  1.00  0.00     0.062 A 
ATOM     17  C   UNL     1     -33.652  10.157 -32.362  1.00  0.00     0.158 A 
BRANCH  15  18
ATOM     18  O   UNL     1     -33.397  11.886 -30.680  1.00  0.00    -0.504 OA
ATOM     19  H   UNL     1     -34.184  12.238 -30.150  1.00  0.00     0.293 HD
ENDBRANCH  15  18
BRANCH  17  20
ATOM     20  O   UNL     1     -33.655   9.163 -31.384  1.00  0.00    -0.504 OA
ATOM     21  H   UNL     1     -32.880   8.523 -31.265  1.00  0.00     0.293 HD
ENDBRANCH  17  20
ENDBRANCH   1  12
BRANCH   2  22
ATOM     22  O   UNL     1     -31.637   9.537 -36.257  1.00  0.00    -0.502 OA
ATOM     23  H   UNL     1     -31.402   9.907 -35.344  1.00  0.00     0.293 HD
ENDBRANCH   2  22
BRANCH   6  24
ATOM     24  O   UNL     1     -33.731   8.994 -41.124  1.00  0.00    -0.507 OA
ATOM     25  H   UNL     1     -33.858   8.233 -41.774  1.00  0.00     0.293 HD
ENDBRANCH   6  24
BRANCH   8  26
ATOM     26  O   UNL     1     -38.294  10.184 -40.215  1.00  0.00    -0.508 OA
ATOM     27  H   UNL     1     -39.077   9.743 -39.746  1.00  0.00     0.293 HD
ENDBRANCH   8  26
TORSDOF 6
ENDMDL
MODEL 2
REMARK VINA RESULT:    -4.074      1.533      6.743
REMARK INTER + INTRA:          -5.175
REMARK INTER:                  -4.847
REMARK INTRA:                  -0.328
REMARK UNBOUND:                -0.268
REMARK SMILES O=c1c(O)c(-c2ccc(O)c(O)c2)oc2cc(O)cc(O)c12
REMARK SMILES IDX 5 1 3 2 2 3 1 4 22 5 20 6 19 7 17 8 16 9 15 10 14 11 6 12
REMARK SMILES IDX 7 13 8 14 9 15 13 16 11 17 10 18 12 20 4 22 21 24 18 26
REMARK H PARENT 10 19 12 21 4 23 21 25 18 27
REMARK Flexibility Score: inf
ROOT
ATOM      1  C   UNL     1     -34.064  10.036 -36.567  1.00  0.00     0.180 A 
ATOM      2  C   UNL     1     -32.779   9.463 -36.562  1.00  0.00     0.208 A 
ATOM      3  C   UNL     1     -32.015   9.518 -35.386  1.00  0.00     0.238 A 
ATOM      4  O   UNL     1     -30.845   9.052 -35.404  1.00  0.00    -0.285 OA
ATOM      5  C   UNL     1     -32.548  10.130 -34.226  1.00  0.00     0.111 A 
ATOM      6  C   UNL     1     -31.876  10.207 -32.969  1.00  0.00     0.134 A 
ATOM      7  C   UNL     1     -32.445  10.950 -31.927  1.00  0.00     0.093 A 
ATOM      8  C   UNL     1     -33.691  11.564 -32.077  1.00  0.00     0.123 A 
ATOM      9  C   UNL     1     -34.381  11.444 -33.280  1.00  0.00     0.094 A 
ATOM     10  C   UNL     1     -33.824  10.740 -34.350  1.00  0.00     0.146 A 
ATOM     11  O   UNL     1     -34.510  10.660 -35.484  1.00  0.00    -0.452 OA
ENDROOT
BRANCH   1  12
ATOM     12  C   UNL     1     -34.939   9.995 -37.761  1.00  0.00     0.025 A 
ATOM     13  C   UNL     1     -35.752   8.881 -38.036  1.00  0.00     0.016 A 
ATOM     14  C   UNL     1     -36.588   8.876 -39.154  1.00  0.00     0.051 A 
ATOM     15  C   UNL     1     -36.635   9.986 -40.008  1.00  0.00     0.157 A 
ATOM     16  C   UNL     1     -35.005  11.114 -38.608  1.00  0.00     0.062 A 
ATOM     17  C   UNL     1     -35.842  11.111 -39.730  1.00  0.00     0.158 A 
BRANCH  15  18
ATOM     18  O   UNL     1     -37.469   9.976 -41.125  1.00  0.00    -0.504 OA
ATOM     19  H   UNL     1     -38.149   9.240 -41.273  1.00  0.00     0.293 HD
ENDBRANCH  15  18
BRANCH  17  20
ATOM     20  O   UNL     1     -35.872  12.235 -40.556  1.00  0.00    -0.504 OA
ATOM     21  H   UNL     1     -35.628  12.189 -41.537  1.00  0.00     0.293 HD
ENDBRANCH  17  20
ENDBRANCH   1  12
BRANCH   2  22
ATOM     22  O   UNL     1     -32.264   8.883 -37.725  1.00  0.00    -0.502 OA
ATOM     23  H   UNL     1     -31.971   9.433 -38.523  1.00  0.00     0.293 HD
ENDBRANCH   2  22
BRANCH   6  24
ATOM     24  O   UNL     1     -30.674   9.554 -32.685  1.00  0.00    -0.507 OA
ATOM     25  H   UNL     1     -29.768   9.850 -33.015  1.00  0.00     0.293 HD
ENDBRANCH   6  24
BRANCH   8  26
ATOM     26  O   UNL     1     -34.257  12.288 -31.030  1.00  0.00    -0.508 OA
ATOM     27  H   UNL     1     -33.967  12.145 -30.069  1.00  0.00     0.293 HD
ENDBRANCH   8  26
TORSDOF 6
ENDMDL
MODEL 3
REMARK VINA RESULT:    -3.052      1.790      2.880
REMARK INTER + INTRA:          -3.944
REMARK INTER:                  -4.249
REMARK INTRA:                   0.305
REMARK UNBOUND:                -0.268
REMARK SMILES O=c1c(O)c(-c2ccc(O)c(O)c2)oc2cc(O)cc(O)c12
REMARK SMILES IDX 5 1 3 2 2 3 1 4 22 5 20 6 19 7 17 8 16 9 15 10 14 11 6 12
REMARK SMILES IDX 7 13 8 14 9 15 13 16 11 17 10 18 12 20 4 22 21 24 18 26
REMARK H PARENT 10 19 12 21 4 23 21 25 18 27
REMARK Flexibility Score: inf
ROOT
ATOM      1  C   UNL     1     -33.019  10.946 -33.866  1.00  0.00     0.180 A 
ATOM      2  C   UNL     1     -31.929  10.142 -34.246  1.00  0.00     0.208 A 
ATOM      3  C   UNL     1     -31.881   9.638 -35.557  1.00  0.00     0.238 A 
ATOM      4  O   UNL     1     -30.931   8.875 -35.875  1.00  0.00    -0.285 OA
ATOM      5  C   UNL     1     -32.911   9.957 -36.473  1.00  0.00     0.111 A 
ATOM      6  C   UNL     1     -32.943   9.532 -37.836  1.00  0.00     0.134 A 
ATOM      7  C   UNL     1     -34.076   9.797 -38.615  1.00  0.00     0.093 A 
ATOM      8  C   UNL     1     -35.151  10.526 -38.098  1.00  0.00     0.123 A 
ATOM      9  C   UNL     1     -35.103  10.994 -36.788  1.00  0.00     0.094 A 
ATOM     10  C   UNL     1     -34.002  10.715 -35.975  1.00  0.00     0.146 A 
ATOM     11  O   UNL     1     -34.002  11.171 -34.728  1.00  0.00    -0.452 OA
ENDROOT
BRANCH   1  12
ATOM     12  C   UNL     1     -33.127  11.534 -32.511  1.00  0.00     0.025 A 
ATOM     13  C   UNL     1     -34.375  11.721 -31.892  1.00  0.00     0.016 A 
ATOM     14  C   UNL     1     -34.451  12.254 -30.603  1.00  0.00     0.051 A 
ATOM     15  C   UNL     1     -33.283  12.597 -29.909  1.00  0.00     0.157 A 
ATOM     16  C   UNL     1     -31.958  11.859 -31.804  1.00  0.00     0.062 A 
ATOM     17  C   UNL     1     -32.031  12.395 -30.512  1.00  0.00     0.158 A 
BRANCH  15  18
ATOM     18  O   UNL     1     -33.363  13.132 -28.625  1.00  0.00    -0.504 OA
ATOM     19  H   UNL     1     -32.534  13.406 -28.111  1.00  0.00     0.293 HD
ENDBRANCH  15  18
BRANCH  17  20
ATOM     20  O   UNL     1     -30.849  12.719 -29.846  1.00  0.00    -0.504 OA
ATOM     21  H   UNL     1     -30.472  13.658 -29.844  1.00  0.00     0.293 HD
ENDBRANCH  17  20
ENDBRANCH   1  12
BRANCH   2  22
ATOM     22  O   UNL     1     -30.933   9.823 -33.320  1.00  0.00    -0.502 OA
ATOM     23  H   UNL     1     -31.054   9.961 -32.323  1.00  0.00     0.293 HD
ENDBRANCH   2  22
BRANCH   6  24
ATOM     24  O   UNL     1     -31.885   8.881 -38.475  1.00  0.00    -0.507 OA
ATOM     25  H   UNL     1     -31.560   9.089 -39.406  1.00  0.00     0.293 HD
ENDBRANCH   6  24
BRANCH   8  26
ATOM     26  O   UNL     1     -36.269  10.798 -38.885  1.00  0.00    -0.508 OA
ATOM     27  H   UNL     1     -36.251  10.675 -39.891  1.00  0.00     0.293 HD
ENDBRANCH   8  26
TORSDOF 6
ENDMDL
MODEL 4
REMARK VINA RESULT:    -2.923      1.742      2.709
REMARK INTER + INTRA:          -3.789
REMARK INTER:                  -4.222
REMARK INTRA:                   0.434
REMARK UNBOUND:                -0.268
REMARK SMILES O=c1c(O)c(-c2ccc(O)c(O)c2)oc2cc(O)cc(O)c12
REMARK SMILES IDX 5 1 3 2 2 3 1 4 22 5 20 6 19 7 17 8 16 9 15 10 14 11 6 12
REMARK SMILES IDX 7 13 8 14 9 15 13 16 11 17 10 18 12 20 4 22 21 24 18 26
REMARK H PARENT 10 19 12 21 4 23 21 25 18 27
REMARK Flexibility Score: inf
ROOT
ATOM      1  C   UNL     1     -32.839  10.734 -34.002  1.00  0.00     0.180 A 
ATOM      2  C   UNL     1     -31.758  10.001 -34.522  1.00  0.00     0.208 A 
ATOM      3  C   UNL     1     -31.802   9.580 -35.861  1.00  0.00     0.238 A 
ATOM      4  O   UNL     1     -30.856   8.878 -36.305  1.00  0.00    -0.285 OA
ATOM      5  C   UNL     1     -32.919   9.910 -36.666  1.00  0.00     0.111 A 
ATOM      6  C   UNL     1     -33.051   9.568 -38.046  1.00  0.00     0.134 A 
ATOM      7  C   UNL     1     -34.255   9.832 -38.710  1.00  0.00     0.093 A 
ATOM      8  C   UNL     1     -35.308  10.482 -38.062  1.00  0.00     0.123 A 
ATOM      9  C   UNL     1     -35.166  10.872 -36.732  1.00  0.00     0.094 A 
ATOM     10  C   UNL     1     -33.990  10.591 -36.032  1.00  0.00     0.146 A 
ATOM     11  O   UNL     1     -33.901  10.970 -34.763  1.00  0.00    -0.452 OA
ENDROOT
BRANCH   1  12
ATOM     12  C   UNL     1     -32.854  11.234 -32.608  1.00  0.00     0.025 A 
ATOM     13  C   UNL     1     -31.705  11.185 -31.800  1.00  0.00     0.016 A 
ATOM     14  C   UNL     1     -31.735  11.686 -30.496  1.00  0.00     0.051 A 
ATOM     15  C   UNL     1     -32.909  12.254 -29.985  1.00  0.00     0.157 A 
ATOM     16  C   UNL     1     -34.022  11.825 -32.098  1.00  0.00     0.062 A 
ATOM     17  C   UNL     1     -34.056  12.327 -30.792  1.00  0.00     0.158 A 
BRANCH  15  18
ATOM     18  O   UNL     1     -32.937  12.751 -28.683  1.00  0.00    -0.504 OA
ATOM     19  H   UNL     1     -32.225  12.505 -28.005  1.00  0.00     0.293 HD
ENDBRANCH  15  18
BRANCH  17  20
ATOM     20  O   UNL     1     -35.238  12.894 -30.315  1.00  0.00    -0.504 OA
ATOM     21  H   UNL     1     -36.148  12.603 -30.648  1.00  0.00     0.293 HD
ENDBRANCH  17  20
ENDBRANCH   1  12
BRANCH   2  22
ATOM     22  O   UNL     1     -30.675   9.669 -33.703  1.00  0.00    -0.502 OA
ATOM     23  H   UNL     1     -29.719   9.895 -33.949  1.00  0.00     0.293 HD
ENDBRANCH   2  22
BRANCH   6  24
ATOM     24  O   UNL     1     -32.028   9.001 -38.811  1.00  0.00    -0.507 OA
ATOM     25  H   UNL     1     -32.067   8.860 -39.809  1.00  0.00     0.293 HD
ENDBRANCH   6  24
BRANCH   8  26
ATOM     26  O   UNL     1     -36.498  10.754 -38.734  1.00  0.00    -0.508 OA
ATOM     27  H   UNL     1     -36.523  10.869 -39.741  1.00  0.00     0.293 HD
ENDBRANCH   8  26
TORSDOF 6
ENDMDL
