MODEL 1
REMARK VINA RESULT:    -4.320      0.000      0.000
REMARK INTER + INTRA:         -11.323
REMARK INTER:                  -8.361
REMARK INTRA:                  -2.962
REMARK UNBOUND:                -2.962
REMARK SMILES CCCCCCCCCCCCCCCCCC(=O)[O-]
REMARK SMILES IDX 10 1 11 2 12 3 13 4 14 5 15 6 16 7 17 8 18 9 19 10 20 11
REMARK SMILES IDX 9 12 8 13 7 14 6 15 5 16 4 17 3 18 2 19 1 20
REMARK H PARENT
REMARK Flexibility Score: inf
ROOT
ATOM      1  C   UNL     1       2.814   4.366  30.379  1.00  0.00     0.000 C 
ENDROOT
BRANCH   1   2
ATOM      2  C   UNL     1       2.484   5.573  31.272  1.00  0.00     0.000 C 
BRANCH   2   3
ATOM      3  C   UNL     1       0.976   5.852  31.359  1.00  0.00     0.000 C 
BRANCH   3   4
ATOM      4  C   UNL     1       0.549   6.888  30.312  1.00  0.00     0.000 C 
BRANCH   4   5
ATOM      5  C   UNL     1      -0.713   6.429  29.566  1.00  0.00     0.000 C 
BRANCH   5   6
ATOM      6  C   UNL     1      -0.489   5.144  28.754  1.00  0.00     0.000 C 
BRANCH   6   7
ATOM      7  C   UNL     1      -1.807   4.474  28.333  1.00  0.00     0.006 C 
BRANCH   7   8
ATOM      8  C   UNL     1      -2.315   4.995  26.981  1.00  0.00     0.053 C 
BRANCH   8   9
ATOM      9  C   UNL     1      -1.409   4.598  25.856  1.00  0.00     0.041 C 
ATOM     10  O   UNL     1      -1.101   3.389  25.687  1.00  0.00    -0.550 OA
ATOM     11  O   UNL     1      -0.927   5.561  24.979  1.00  0.00    -0.550 OA
ENDBRANCH   8   9
ENDBRANCH   7   8
ENDBRANCH   6   7
ENDBRANCH   5   6
ENDBRANCH   4   5
ENDBRANCH   3   4
ENDBRANCH   2   3
ENDBRANCH   1   2
BRANCH   1  12
ATOM     12  C   UNL     1       4.155   4.527  29.642  1.00  0.00     0.000 C 
BRANCH  12  13
ATOM     13  C   UNL     1       4.122   3.971  28.206  1.00  0.00    -0.000 C 
BRANCH  13  14
ATOM     14  C   UNL     1       2.759   3.428  27.738  1.00  0.00    -0.000 C 
BRANCH  14  15
ATOM     15  C   UNL     1       2.260   4.090  26.442  1.00  0.00    -0.000 C 
BRANCH  15  16
ATOM     16  C   UNL     1       2.968   5.424  26.139  1.00  0.00    -0.000 C 
BRANCH  16  17
ATOM     17  C   UNL     1       2.132   6.688  26.405  1.00  0.00    -0.000 C 
BRANCH  17  18
ATOM     18  C   UNL     1       2.696   7.554  27.542  1.00  0.00    -0.000 C 
BRANCH  18  19
ATOM     19  C   UNL     1       4.228   7.543  27.532  1.00  0.00    -0.003 C 
ATOM     20  C   UNL     1       4.793   8.114  28.829  1.00  0.00     0.004 C 
ENDBRANCH  18  19
ENDBRANCH  17  18
ENDBRANCH  16  17
ENDBRANCH  15  16
ENDBRANCH  14  15
ENDBRANCH  13  14
ENDBRANCH  12  13
ENDBRANCH   1  12
TORSDOF 16
ENDMDL
MODEL 2
REMARK VINA RESULT:    -4.307      5.528      9.957
REMARK INTER + INTRA:         -11.298
REMARK INTER:                  -8.503
REMARK INTRA:                  -2.795
REMARK UNBOUND:                -2.962
REMARK SMILES CCCCCCCCCCCCCCCCCC(=O)[O-]
REMARK SMILES IDX 10 1 11 2 12 3 13 4 14 5 15 6 16 7 17 8 18 9 19 10 20 11
REMARK SMILES IDX 9 12 8 13 7 14 6 15 5 16 4 17 3 18 2 19 1 20
REMARK H PARENT
REMARK Flexibility Score: inf
ROOT
ATOM      1  C   UNL     1      -6.988   4.135  20.886  1.00  0.00     0.000 C 
ENDROOT
BRANCH   1   2
ATOM      2  C   UNL     1      -5.526   4.206  20.414  1.00  0.00     0.000 C 
BRANCH   2   3
ATOM      3  C   UNL     1      -5.163   5.573  19.812  1.00  0.00     0.000 C 
BRANCH   3   4
ATOM      4  C   UNL     1      -3.756   6.005  20.242  1.00  0.00     0.000 C 
BRANCH   4   5
ATOM      5  C   UNL     1      -3.105   4.945  21.143  1.00  0.00     0.000 C 
BRANCH   5   6
ATOM      6  C   UNL     1      -1.833   5.457  21.838  1.00  0.00     0.000 C 
BRANCH   6   7
ATOM      7  C   UNL     1      -1.322   4.490  22.920  1.00  0.00     0.006 C 
BRANCH   7   8
ATOM      8  C   UNL     1       0.208   4.523  23.048  1.00  0.00     0.053 C 
BRANCH   8   9
ATOM      9  C   UNL     1       0.642   4.759  24.462  1.00  0.00     0.041 C 
ATOM     10  O   UNL     1       1.365   5.751  24.746  1.00  0.00    -0.550 OA
ATOM     11  O   UNL     1       0.225   3.901  25.471  1.00  0.00    -0.550 OA
ENDBRANCH   8   9
ENDBRANCH   7   8
ENDBRANCH   6   7
ENDBRANCH   5   6
ENDBRANCH   4   5
ENDBRANCH   3   4
ENDBRANCH   2   3
ENDBRANCH   1   2
BRANCH   1  12
ATOM     12  C   UNL     1      -7.120   3.575  22.313  1.00  0.00     0.000 C 
BRANCH  12  13
ATOM     13  C   UNL     1      -5.767   3.172  22.928  1.00  0.00    -0.000 C 
BRANCH  13  14
ATOM     14  C   UNL     1      -5.558   3.585  24.397  1.00  0.00    -0.000 C 
BRANCH  14  15
ATOM     15  C   UNL     1      -6.087   4.997  24.705  1.00  0.00    -0.000 C 
BRANCH  15  16
ATOM     16  C   UNL     1      -5.110   6.109  24.281  1.00  0.00    -0.000 C 
BRANCH  16  17
ATOM     17  C   UNL     1      -5.627   7.056  23.184  1.00  0.00    -0.000 C 
BRANCH  17  18
ATOM     18  C   UNL     1      -7.156   7.203  23.188  1.00  0.00    -0.000 C 
BRANCH  18  19
ATOM     19  C   UNL     1      -7.605   8.288  22.202  1.00  0.00    -0.003 C 
ATOM     20  C   UNL     1      -8.178   7.673  20.929  1.00  0.00     0.004 C 
ENDBRANCH  18  19
ENDBRANCH  17  18
ENDBRANCH  16  17
ENDBRANCH  15  16
ENDBRANCH  14  15
ENDBRANCH  13  14
ENDBRANCH  12  13
ENDBRANCH   1  12
TORSDOF 16
ENDMDL
MODEL 3
REMARK VINA RESULT:    -4.290      2.058      4.318
REMARK INTER + INTRA:         -11.265
REMARK INTER:                  -8.239
REMARK INTRA:                  -3.026
REMARK UNBOUND:                -2.962
REMARK SMILES CCCCCCCCCCCCCCCCCC(=O)[O-]
REMARK SMILES IDX 10 1 11 2 12 3 13 4 14 5 15 6 16 7 17 8 18 9 19 10 20 11
REMARK SMILES IDX 9 12 8 13 7 14 6 15 5 16 4 17 3 18 2 19 1 20
REMARK H PARENT
REMARK Flexibility Score: inf
ROOT
ATOM      1  C   UNL     1       1.701   5.009  31.821  1.00  0.00     0.000 C 
ENDROOT
BRANCH   1   2
ATOM      2  C   UNL     1       1.980   4.168  30.564  1.00  0.00     0.000 C 
BRANCH   2   3
ATOM      3  C   UNL     1       1.293   4.731  29.310  1.00  0.00     0.000 C 
BRANCH   3   4
ATOM      4  C   UNL     1       1.565   3.842  28.090  1.00  0.00     0.000 C 
BRANCH   4   5
ATOM      5  C   UNL     1       3.024   3.363  28.072  1.00  0.00     0.000 C 
BRANCH   5   6
ATOM      6  C   UNL     1       3.968   4.359  27.380  1.00  0.00     0.000 C 
BRANCH   6   7
ATOM      7  C   UNL     1       3.670   4.510  25.879  1.00  0.00     0.006 C 
BRANCH   7   8
ATOM      8  C   UNL     1       3.202   5.928  25.521  1.00  0.00     0.053 C 
BRANCH   8   9
ATOM      9  C   UNL     1       1.773   5.945  25.072  1.00  0.00     0.041 C 
ATOM     10  O   UNL     1       1.058   6.962  25.274  1.00  0.00    -0.550 OA
ATOM     11  O   UNL     1       1.241   4.849  24.406  1.00  0.00    -0.550 OA
ENDBRANCH   8   9
ENDBRANCH   7   8
ENDBRANCH   6   7
ENDBRANCH   5   6
ENDBRANCH   4   5
ENDBRANCH   3   4
ENDBRANCH   2   3
ENDBRANCH   1   2
BRANCH   1  12
ATOM     12  C   UNL     1       0.960   6.319  31.500  1.00  0.00     0.000 C 
BRANCH  12  13
ATOM     13  C   UNL     1       1.519   7.530  32.271  1.00  0.00    -0.000 C 
BRANCH  13  14
ATOM     14  C   UNL     1       1.425   8.881  31.538  1.00  0.00    -0.000 C 
BRANCH  14  15
ATOM     15  C   UNL     1       1.296   8.730  30.012  1.00  0.00    -0.000 C 
BRANCH  15  16
ATOM     16  C   UNL     1       2.629   8.951  29.273  1.00  0.00    -0.000 C 
BRANCH  16  17
ATOM     17  C   UNL     1       3.316   7.673  28.760  1.00  0.00    -0.000 C 
BRANCH  17  18
ATOM     18  C   UNL     1       4.749   7.507  29.287  1.00  0.00    -0.000 C 
BRANCH  18  19
ATOM     19  C   UNL     1       4.762   6.726  30.606  1.00  0.00    -0.003 C 
ATOM     20  C   UNL     1       5.509   5.404  30.457  1.00  0.00     0.004 C 
ENDBRANCH  18  19
ENDBRANCH  17  18
ENDBRANCH  16  17
ENDBRANCH  15  16
ENDBRANCH  14  15
ENDBRANCH  13  14
ENDBRANCH  12  13
ENDBRANCH   1  12
TORSDOF 16
ENDMDL
MODEL 4
REMARK VINA RESULT:    -4.254      1.489      4.401
REMARK INTER + INTRA:         -11.195
REMARK INTER:                  -8.387
REMARK INTRA:                  -2.808
REMARK UNBOUND:                -2.962
REMARK SMILES CCCCCCCCCCCCCCCCCC(=O)[O-]
REMARK SMILES IDX 10 1 11 2 12 3 13 4 14 5 15 6 16 7 17 8 18 9 19 10 20 11
REMARK SMILES IDX 9 12 8 13 7 14 6 15 5 16 4 17 3 18 2 19 1 20
REMARK H PARENT
REMARK Flexibility Score: inf
ROOT
ATOM      1  C   UNL     1       3.473   8.457  28.629  1.00  0.00     0.000 C 
ENDROOT
BRANCH   1   2
ATOM      2  C   UNL     1       3.182   7.480  27.479  1.00  0.00     0.000 C 
BRANCH   2   3
ATOM      3  C   UNL     1       4.455   7.032  26.744  1.00  0.00     0.000 C 
BRANCH   3   4
ATOM      4  C   UNL     1       4.163   5.855  25.806  1.00  0.00     0.000 C 
BRANCH   4   5
ATOM      5  C   UNL     1       2.846   5.161  26.187  1.00  0.00     0.000 C 
BRANCH   5   6
ATOM      6  C   UNL     1       3.067   3.814  26.893  1.00  0.00     0.000 C 
BRANCH   6   7
ATOM      7  C   UNL     1       1.864   3.394  27.754  1.00  0.00     0.006 C 
BRANCH   7   8
ATOM      8  C   UNL     1       0.749   4.450  27.744  1.00  0.00     0.053 C 
BRANCH   8   9
ATOM      9  C   UNL     1      -0.462   3.972  27.004  1.00  0.00     0.041 C 
ATOM     10  O   UNL     1      -0.365   3.035  26.167  1.00  0.00    -0.550 OA
ATOM     11  O   UNL     1      -1.702   4.543  27.258  1.00  0.00    -0.550 OA
ENDBRANCH   8   9
ENDBRANCH   7   8
ENDBRANCH   6   7
ENDBRANCH   5   6
ENDBRANCH   4   5
ENDBRANCH   3   4
ENDBRANCH   2   3
ENDBRANCH   1   2
BRANCH   1  12
ATOM     12  C   UNL     1       4.930   8.374  29.119  1.00  0.00     0.000 C 
BRANCH  12  13
ATOM     13  C   UNL     1       5.061   7.715  30.504  1.00  0.00    -0.000 C 
BRANCH  13  14
ATOM     14  C   UNL     1       5.690   6.309  30.511  1.00  0.00    -0.000 C 
BRANCH  14  15
ATOM     15  C   UNL     1       4.754   5.228  29.945  1.00  0.00    -0.000 C 
BRANCH  15  16
ATOM     16  C   UNL     1       3.631   4.835  30.923  1.00  0.00    -0.000 C 
BRANCH  16  17
ATOM     17  C   UNL     1       2.296   5.574  30.723  1.00  0.00    -0.000 C 
BRANCH  17  18
ATOM     18  C   UNL     1       1.601   5.929  32.046  1.00  0.00    -0.000 C 
BRANCH  18  19
ATOM     19  C   UNL     1       1.599   7.445  32.275  1.00  0.00    -0.003 C 
ATOM     20  C   UNL     1       0.685   8.152  31.279  1.00  0.00     0.004 C 
ENDBRANCH  18  19
ENDBRANCH  17  18
ENDBRANCH  16  17
ENDBRANCH  15  16
ENDBRANCH  14  15
ENDBRANCH  13  14
ENDBRANCH  12  13
ENDBRANCH   1  12
TORSDOF 16
ENDMDL
MODEL 5
REMARK VINA RESULT:    -4.232      7.327      9.909
REMARK INTER + INTRA:         -11.153
REMARK INTER:                  -7.986
REMARK INTRA:                  -3.168
REMARK UNBOUND:                -2.962
REMARK SMILES CCCCCCCCCCCCCCCCCC(=O)[O-]
REMARK SMILES IDX 10 1 11 2 12 3 13 4 14 5 15 6 16 7 17 8 18 9 19 10 20 11
REMARK SMILES IDX 9 12 8 13 7 14 6 15 5 16 4 17 3 18 2 19 1 20
REMARK H PARENT
REMARK Flexibility Score: inf
ROOT
ATOM      1  C   UNL     1      -2.847   4.874  21.744  1.00  0.00     0.000 C 
ENDROOT
BRANCH   1   2
ATOM      2  C   UNL     1      -2.873   5.619  20.400  1.00  0.00     0.000 C 
BRANCH   2   3
ATOM      3  C   UNL     1      -3.963   5.094  19.453  1.00  0.00     0.000 C 
BRANCH   3   4
ATOM      4  C   UNL     1      -4.701   3.901  20.072  1.00  0.00     0.000 C 
BRANCH   4   5
ATOM      5  C   UNL     1      -6.166   4.253  20.371  1.00  0.00     0.000 C 
BRANCH   5   6
ATOM      6  C   UNL     1      -6.377   5.756  20.618  1.00  0.00     0.000 C 
BRANCH   6   7
ATOM      7  C   UNL     1      -7.638   6.046  21.448  1.00  0.00     0.006 C 
BRANCH   7   8
ATOM      8  C   UNL     1      -7.404   7.152  22.488  1.00  0.00     0.053 C 
BRANCH   8   9
ATOM      9  C   UNL     1      -7.483   8.516  21.875  1.00  0.00     0.041 C 
ATOM     10  O   UNL     1      -6.616   9.387  22.153  1.00  0.00    -0.550 OA
ATOM     11  O   UNL     1      -8.498   8.818  20.977  1.00  0.00    -0.550 OA
ENDBRANCH   8   9
ENDBRANCH   7   8
ENDBRANCH   6   7
ENDBRANCH   5   6
ENDBRANCH   4   5
ENDBRANCH   3   4
ENDBRANCH   2   3
ENDBRANCH   1   2
BRANCH   1  12
ATOM     12  C   UNL     1      -2.708   5.828  22.944  1.00  0.00     0.000 C 
BRANCH  12  13
ATOM     13  C   UNL     1      -3.621   7.064  22.837  1.00  0.00    -0.000 C 
BRANCH  13  14
ATOM     14  C   UNL     1      -4.237   7.548  24.163  1.00  0.00    -0.000 C 
BRANCH  14  15
ATOM     15  C   UNL     1      -4.216   6.473  25.264  1.00  0.00    -0.000 C 
BRANCH  15  16
ATOM     16  C   UNL     1      -5.600   5.849  25.519  1.00  0.00    -0.000 C 
BRANCH  16  17
ATOM     17  C   UNL     1      -5.660   4.315  25.415  1.00  0.00    -0.000 C 
BRANCH  17  18
ATOM     18  C   UNL     1      -6.044   3.822  24.012  1.00  0.00    -0.000 C 
BRANCH  18  19
ATOM     19  C   UNL     1      -5.119   2.687  23.557  1.00  0.00    -0.003 C 
ATOM     20  C   UNL     1      -3.907   2.561  24.476  1.00  0.00     0.004 C 
ENDBRANCH  18  19
ENDBRANCH  17  18
ENDBRANCH  16  17
ENDBRANCH  15  16
ENDBRANCH  14  15
ENDBRANCH  13  14
ENDBRANCH  12  13
ENDBRANCH   1  12
TORSDOF 16
ENDMDL
MODEL 6
REMARK VINA RESULT:    -4.221      1.991      3.499
REMARK INTER + INTRA:         -11.131
REMARK INTER:                  -8.646
REMARK INTRA:                  -2.485
REMARK UNBOUND:                -2.962
REMARK SMILES CCCCCCCCCCCCCCCCCC(=O)[O-]
REMARK SMILES IDX 10 1 11 2 12 3 13 4 14 5 15 6 16 7 17 8 18 9 19 10 20 11
REMARK SMILES IDX 9 12 8 13 7 14 6 15 5 16 4 17 3 18 2 19 1 20
REMARK H PARENT
REMARK Flexibility Score: inf
ROOT
ATOM      1  C   UNL     1       0.277   6.901  30.927  1.00  0.00     0.000 C 
ENDROOT
BRANCH   1   2
ATOM      2  C   UNL     1       0.845   7.128  29.517  1.00  0.00     0.000 C 
BRANCH   2   3
ATOM      3  C   UNL     1      -0.027   6.501  28.418  1.00  0.00     0.000 C 
BRANCH   3   4
ATOM      4  C   UNL     1      -1.365   6.017  28.989  1.00  0.00     0.000 C 
BRANCH   4   5
ATOM      5  C   UNL     1      -1.707   4.611  28.474  1.00  0.00     0.000 C 
BRANCH   5   6
ATOM      6  C   UNL     1      -3.003   4.580  27.647  1.00  0.00     0.000 C 
BRANCH   6   7
ATOM      7  C   UNL     1      -2.788   5.035  26.194  1.00  0.00     0.006 C 
BRANCH   7   8
ATOM      8  C   UNL     1      -2.525   3.853  25.251  1.00  0.00     0.053 C 
BRANCH   8   9
ATOM      9  C   UNL     1      -3.740   3.500  24.449  1.00  0.00     0.041 C 
ATOM     10  O   UNL     1      -4.193   2.325  24.468  1.00  0.00    -0.550 OA
ATOM     11  O   UNL     1      -4.390   4.476  23.705  1.00  0.00    -0.550 OA
ENDBRANCH   8   9
ENDBRANCH   7   8
ENDBRANCH   6   7
ENDBRANCH   5   6
ENDBRANCH   4   5
ENDBRANCH   3   4
ENDBRANCH   2   3
ENDBRANCH   1   2
BRANCH   1  12
ATOM     12  C   UNL     1       1.273   6.187  31.857  1.00  0.00     0.000 C 
BRANCH  12  13
ATOM     13  C   UNL     1       1.788   4.856  31.277  1.00  0.00    -0.000 C 
BRANCH  13  14
ATOM     14  C   UNL     1       3.282   4.833  30.900  1.00  0.00    -0.000 C 
BRANCH  14  15
ATOM     15  C   UNL     1       3.531   4.357  29.459  1.00  0.00    -0.000 C 
BRANCH  15  16
ATOM     16  C   UNL     1       2.297   3.687  28.826  1.00  0.00    -0.000 C 
BRANCH  16  17
ATOM     17  C   UNL     1       2.414   3.380  27.323  1.00  0.00    -0.000 C 
BRANCH  17  18
ATOM     18  C   UNL     1       1.056   3.361  26.606  1.00  0.00    -0.000 C 
BRANCH  18  19
ATOM     19  C   UNL     1       1.028   4.373  25.455  1.00  0.00    -0.003 C 
ATOM     20  C   UNL     1       2.204   5.340  25.543  1.00  0.00     0.004 C 
ENDBRANCH  18  19
ENDBRANCH  17  18
ENDBRANCH  16  17
ENDBRANCH  15  16
ENDBRANCH  14  15
ENDBRANCH  13  14
ENDBRANCH  12  13
ENDBRANCH   1  12
TORSDOF 16
ENDMDL
MODEL 7
REMARK VINA RESULT:    -4.214      1.507      3.269
REMARK INTER + INTRA:         -11.118
REMARK INTER:                  -8.302
REMARK INTRA:                  -2.816
REMARK UNBOUND:                -2.962
REMARK SMILES CCCCCCCCCCCCCCCCCC(=O)[O-]
REMARK SMILES IDX 10 1 11 2 12 3 13 4 14 5 15 6 16 7 17 8 18 9 19 10 20 11
REMARK SMILES IDX 9 12 8 13 7 14 6 15 5 16 4 17 3 18 2 19 1 20
REMARK H PARENT
REMARK Flexibility Score: inf
ROOT
ATOM      1  C   UNL     1       2.874   7.925  27.952  1.00  0.00     0.000 C 
ENDROOT
BRANCH   1   2
ATOM      2  C   UNL     1       1.413   7.773  27.500  1.00  0.00     0.000 C 
BRANCH   2   3
ATOM      3  C   UNL     1       0.465   7.440  28.663  1.00  0.00     0.000 C 
BRANCH   3   4
ATOM      4  C   UNL     1      -0.852   6.848  28.145  1.00  0.00     0.000 C 
BRANCH   4   5
ATOM      5  C   UNL     1      -1.276   5.633  28.983  1.00  0.00     0.000 C 
BRANCH   5   6
ATOM      6  C   UNL     1      -2.246   4.705  28.234  1.00  0.00     0.000 C 
BRANCH   6   7
ATOM      7  C   UNL     1      -2.634   5.250  26.849  1.00  0.00     0.006 C 
BRANCH   7   8
ATOM      8  C   UNL     1      -2.336   4.245  25.727  1.00  0.00     0.053 C 
BRANCH   8   9
ATOM      9  C   UNL     1      -3.586   3.606  25.207  1.00  0.00     0.041 C 
ATOM     10  O   UNL     1      -4.704   4.156  25.393  1.00  0.00    -0.550 OA
ATOM     11  O   UNL     1      -3.514   2.418  24.491  1.00  0.00    -0.550 OA
ENDBRANCH   8   9
ENDBRANCH   7   8
ENDBRANCH   6   7
ENDBRANCH   5   6
ENDBRANCH   4   5
ENDBRANCH   3   4
ENDBRANCH   2   3
ENDBRANCH   1   2
BRANCH   1  12
ATOM     12  C   UNL     1       3.839   7.053  27.129  1.00  0.00     0.000 C 
BRANCH  12  13
ATOM     13  C   UNL     1       3.154   6.363  25.935  1.00  0.00    -0.000 C 
BRANCH  13  14
ATOM     14  C   UNL     1       3.141   4.823  25.980  1.00  0.00    -0.000 C 
BRANCH  14  15
ATOM     15  C   UNL     1       1.838   4.249  26.562  1.00  0.00    -0.000 C 
BRANCH  15  16
ATOM     16  C   UNL     1       2.075   3.342  27.784  1.00  0.00    -0.000 C 
BRANCH  16  17
ATOM     17  C   UNL     1       1.893   4.021  29.153  1.00  0.00    -0.000 C 
BRANCH  17  18
ATOM     18  C   UNL     1       3.212   4.531  29.752  1.00  0.00    -0.000 C 
BRANCH  18  19
ATOM     19  C   UNL     1       2.951   5.451  30.950  1.00  0.00    -0.003 C 
ATOM     20  C   UNL     1       1.602   5.148  31.594  1.00  0.00     0.004 C 
ENDBRANCH  18  19
ENDBRANCH  17  18
ENDBRANCH  16  17
ENDBRANCH  15  16
ENDBRANCH  14  15
ENDBRANCH  13  14
ENDBRANCH  12  13
ENDBRANCH   1  12
TORSDOF 16
ENDMDL
MODEL 8
REMARK VINA RESULT:    -4.213      2.438      4.387
REMARK INTER + INTRA:         -11.115
REMARK INTER:                  -8.006
REMARK INTRA:                  -3.109
REMARK UNBOUND:                -2.962
REMARK SMILES CCCCCCCCCCCCCCCCCC(=O)[O-]
REMARK SMILES IDX 10 1 11 2 12 3 13 4 14 5 15 6 16 7 17 8 18 9 19 10 20 11
REMARK SMILES IDX 9 12 8 13 7 14 6 15 5 16 4 17 3 18 2 19 1 20
REMARK H PARENT
REMARK Flexibility Score: inf
ROOT
ATOM      1  C   UNL     1       2.917   5.314  31.049  1.00  0.00     0.000 C 
ENDROOT
BRANCH   1   2
ATOM      2  C   UNL     1       4.372   4.864  30.847  1.00  0.00     0.000 C 
BRANCH   2   3
ATOM      3  C   UNL     1       5.146   5.772  29.879  1.00  0.00     0.000 C 
BRANCH   3   4
ATOM      4  C   UNL     1       5.500   7.108  30.545  1.00  0.00     0.000 C 
BRANCH   4   5
ATOM      5  C   UNL     1       4.912   8.288  29.758  1.00  0.00     0.000 C 
BRANCH   5   6
ATOM      6  C   UNL     1       4.316   7.863  28.406  1.00  0.00     0.000 C 
BRANCH   6   7
ATOM      7  C   UNL     1       2.838   8.264  28.261  1.00  0.00     0.006 C 
BRANCH   7   8
ATOM      8  C   UNL     1       2.181   8.553  29.618  1.00  0.00     0.053 C 
BRANCH   8   9
ATOM      9  C   UNL     1       0.727   8.193  29.619  1.00  0.00     0.041 C 
ATOM     10  O   UNL     1       0.231   7.562  30.590  1.00  0.00    -0.550 OA
ATOM     11  O   UNL     1      -0.086   8.577  28.561  1.00  0.00    -0.550 OA
ENDBRANCH   8   9
ENDBRANCH   7   8
ENDBRANCH   6   7
ENDBRANCH   5   6
ENDBRANCH   4   5
ENDBRANCH   3   4
ENDBRANCH   2   3
ENDBRANCH   1   2
BRANCH   1  12
ATOM     12  C   UNL     1       1.908   4.369  30.373  1.00  0.00     0.000 C 
BRANCH  12  13
ATOM     13  C   UNL     1       1.776   4.615  28.858  1.00  0.00    -0.000 C 
BRANCH  13  14
ATOM     14  C   UNL     1       2.094   3.403  27.962  1.00  0.00    -0.000 C 
BRANCH  14  15
ATOM     15  C   UNL     1       3.525   3.432  27.399  1.00  0.00    -0.000 C 
BRANCH  15  16
ATOM     16  C   UNL     1       3.853   4.741  26.658  1.00  0.00    -0.000 C 
BRANCH  16  17
ATOM     17  C   UNL     1       3.069   4.974  25.355  1.00  0.00    -0.000 C 
BRANCH  17  18
ATOM     18  C   UNL     1       2.257   6.277  25.366  1.00  0.00    -0.000 C 
BRANCH  18  19
ATOM     19  C   UNL     1       0.768   5.998  25.130  1.00  0.00    -0.003 C 
ATOM     20  C   UNL     1       0.535   4.543  24.736  1.00  0.00     0.004 C 
ENDBRANCH  18  19
ENDBRANCH  17  18
ENDBRANCH  16  17
ENDBRANCH  15  16
ENDBRANCH  14  15
ENDBRANCH  13  14
ENDBRANCH  12  13
ENDBRANCH   1  12
TORSDOF 16
ENDMDL
MODEL 9
REMARK VINA RESULT:    -4.209      6.614      8.788
REMARK INTER + INTRA:         -11.108
REMARK INTER:                  -8.339
REMARK INTRA:                  -2.768
REMARK UNBOUND:                -2.962
REMARK SMILES CCCCCCCCCCCCCCCCCC(=O)[O-]
REMARK SMILES IDX 10 1 11 2 12 3 13 4 14 5 15 6 16 7 17 8 18 9 19 10 20 11
REMARK SMILES IDX 9 12 8 13 7 14 6 15 5 16 4 17 3 18 2 19 1 20
REMARK H PARENT
REMARK Flexibility Score: inf
ROOT
ATOM      1  C   UNL     1      -4.333   2.931  23.957  1.00  0.00     0.000 C 
ENDROOT
BRANCH   1   2
ATOM      2  C   UNL     1      -3.500   3.777  24.935  1.00  0.00     0.000 C 
BRANCH   2   3
ATOM      3  C   UNL     1      -4.370   4.642  25.860  1.00  0.00     0.000 C 
BRANCH   3   4
ATOM      4  C   UNL     1      -5.860   4.363  25.631  1.00  0.00     0.000 C 
BRANCH   4   5
ATOM      5  C   UNL     1      -6.615   5.653  25.278  1.00  0.00     0.000 C 
BRANCH   5   6
ATOM      6  C   UNL     1      -5.985   6.404  24.094  1.00  0.00     0.000 C 
BRANCH   6   7
ATOM      7  C   UNL     1      -7.033   7.117  23.222  1.00  0.00     0.006 C 
BRANCH   7   8
ATOM      8  C   UNL     1      -6.435   7.635  21.906  1.00  0.00     0.053 C 
BRANCH   8   9
ATOM      9  C   UNL     1      -7.220   7.171  20.718  1.00  0.00     0.041 C 
ATOM     10  O   UNL     1      -8.123   6.304  20.854  1.00  0.00    -0.550 OA
ATOM     11  O   UNL     1      -6.974   7.718  19.465  1.00  0.00    -0.550 OA
ENDBRANCH   8   9
ENDBRANCH   7   8
ENDBRANCH   6   7
ENDBRANCH   5   6
ENDBRANCH   4   5
ENDBRANCH   3   4
ENDBRANCH   2   3
ENDBRANCH   1   2
BRANCH   1  12
ATOM     12  C   UNL     1      -4.112   3.339  22.490  1.00  0.00     0.000 C 
BRANCH  12  13
ATOM     13  C   UNL     1      -5.391   3.872  21.816  1.00  0.00    -0.000 C 
BRANCH  13  14
ATOM     14  C   UNL     1      -5.344   3.951  20.279  1.00  0.00    -0.000 C 
BRANCH  14  15
ATOM     15  C   UNL     1      -3.983   4.425  19.742  1.00  0.00    -0.000 C 
BRANCH  15  16
ATOM     16  C   UNL     1      -3.859   5.958  19.690  1.00  0.00    -0.000 C 
BRANCH  16  17
ATOM     17  C   UNL     1      -3.015   6.588  20.813  1.00  0.00    -0.000 C 
BRANCH  17  18
ATOM     18  C   UNL     1      -1.691   5.849  21.057  1.00  0.00    -0.000 C 
BRANCH  18  19
ATOM     19  C   UNL     1      -1.410   5.707  22.557  1.00  0.00    -0.003 C 
ATOM     20  C   UNL     1      -0.458   4.547  22.832  1.00  0.00     0.004 C 
ENDBRANCH  18  19
ENDBRANCH  17  18
ENDBRANCH  16  17
ENDBRANCH  15  16
ENDBRANCH  14  15
ENDBRANCH  13  14
ENDBRANCH  12  13
ENDBRANCH   1  12
TORSDOF 16
ENDMDL
