MODEL 1
REMARK VINA RESULT:    -4.575      0.000      0.000
REMARK INTER + INTRA:         -16.762
REMARK INTER:                 -12.063
REMARK INTRA:                  -4.700
REMARK UNBOUND:                -4.700
REMARK SMILES CCCCCCCCCCCCCCCCCCCCCCCCCCCCCC(=O)[O-]
REMARK SMILES IDX 16 1 17 2 18 3 19 4 20 5 21 6 22 7 23 8 24 9 25 10 26 11
REMARK SMILES IDX 27 12 28 13 29 14 30 15 31 16 32 17 15 18 14 19 13 20 12 21
REMARK SMILES IDX 11 22 10 23 9 24 8 25 7 26 6 27 5 28 4 29 3 30 2 31 1 32
REMARK H PARENT
REMARK Flexibility Score: inf
ROOT
ATOM      1  C   UNL     1     -10.053   2.031 -38.023  1.00  0.00     0.000 C 
ENDROOT
BRANCH   1   2
ATOM      2  C   UNL     1     -10.308   2.687 -36.650  1.00  0.00     0.000 C 
BRANCH   2   3
ATOM      3  C   UNL     1     -10.597   1.705 -35.497  1.00  0.00     0.000 C 
BRANCH   3   4
ATOM      4  C   UNL     1     -10.785   0.239 -35.925  1.00  0.00     0.000 C 
BRANCH   4   5
ATOM      5  C   UNL     1      -9.869  -0.727 -35.158  1.00  0.00     0.000 C 
BRANCH   5   6
ATOM      6  C   UNL     1      -8.722  -1.220 -36.052  1.00  0.00     0.000 C 
BRANCH   6   7
ATOM      7  C   UNL     1      -9.171  -1.525 -37.493  1.00  0.00     0.000 C 
BRANCH   7   8
ATOM      8  C   UNL     1      -8.127  -1.212 -38.580  1.00  0.00     0.000 C 
BRANCH   8   9
ATOM      9  C   UNL     1      -8.352  -2.006 -39.875  1.00  0.00     0.000 C 
BRANCH   9  10
ATOM     10  C   UNL     1      -8.467  -1.066 -41.086  1.00  0.00     0.000 C 
BRANCH  10  11
ATOM     11  C   UNL     1      -9.874  -1.080 -41.708  1.00  0.00     0.000 C 
BRANCH  11  12
ATOM     12  C   UNL     1     -10.651   0.219 -41.429  1.00  0.00     0.000 C 
BRANCH  12  13
ATOM     13  C   UNL     1     -12.012  -0.036 -40.761  1.00  0.00     0.006 C 
BRANCH  13  14
ATOM     14  C   UNL     1     -12.003  -1.264 -39.841  1.00  0.00     0.053 C 
BRANCH  14  15
ATOM     15  C   UNL     1     -13.367  -1.874 -39.770  1.00  0.00     0.041 C 
ATOM     16  O   UNL     1     -14.361  -1.263 -40.246  1.00  0.00    -0.550 OA
ATOM     17  O   UNL     1     -13.537  -3.140 -39.220  1.00  0.00    -0.550 OA
ENDBRANCH  14  15
ENDBRANCH  13  14
ENDBRANCH  12  13
ENDBRANCH  11  12
ENDBRANCH  10  11
ENDBRANCH   9  10
ENDBRANCH   8   9
ENDBRANCH   7   8
ENDBRANCH   6   7
ENDBRANCH   5   6
ENDBRANCH   4   5
ENDBRANCH   3   4
ENDBRANCH   2   3
ENDBRANCH   1   2
BRANCH   1  18
ATOM     18  C   UNL     1      -8.633   2.221 -38.588  1.00  0.00     0.000 C 
BRANCH  18  19
ATOM     19  C   UNL     1      -8.629   2.783 -40.021  1.00  0.00     0.000 C 
BRANCH  19  20
ATOM     20  C   UNL     1      -8.186   4.258 -40.086  1.00  0.00     0.000 C 
BRANCH  20  21
ATOM     21  C   UNL     1      -8.203   5.005 -38.740  1.00  0.00     0.000 C 
BRANCH  21  22
ATOM     22  C   UNL     1      -9.398   5.962 -38.604  1.00  0.00     0.000 C 
BRANCH  22  23
ATOM     23  C   UNL     1     -10.453   5.763 -39.709  1.00  0.00     0.000 C 
BRANCH  23  24
ATOM     24  C   UNL     1     -11.786   5.161 -39.225  1.00  0.00    -0.000 C 
BRANCH  24  25
ATOM     25  C   UNL     1     -12.191   3.896 -40.002  1.00  0.00    -0.000 C 
BRANCH  25  26
ATOM     26  C   UNL     1     -12.862   4.222 -41.346  1.00  0.00    -0.000 C 
BRANCH  26  27
ATOM     27  C   UNL     1     -13.925   5.328 -41.216  1.00  0.00    -0.000 C 
BRANCH  27  28
ATOM     28  C   UNL     1     -14.952   5.308 -42.362  1.00  0.00    -0.000 C 
BRANCH  28  29
ATOM     29  C   UNL     1     -16.323   5.917 -42.016  1.00  0.00    -0.000 C 
BRANCH  29  30
ATOM     30  C   UNL     1     -16.888   5.403 -40.681  1.00  0.00    -0.000 C 
BRANCH  30  31
ATOM     31  C   UNL     1     -17.189   3.896 -40.712  1.00  0.00    -0.003 C 
ATOM     32  C   UNL     1     -18.482   3.567 -41.458  1.00  0.00     0.004 C 
ENDBRANCH  30  31
ENDBRANCH  29  30
ENDBRANCH  28  29
ENDBRANCH  27  28
ENDBRANCH  26  27
ENDBRANCH  25  26
ENDBRANCH  24  25
ENDBRANCH  23  24
ENDBRANCH  22  23
ENDBRANCH  21  22
ENDBRANCH  20  21
ENDBRANCH  19  20
ENDBRANCH  18  19
ENDBRANCH   1  18
TORSDOF 28
ENDMDL
MODEL 2
REMARK VINA RESULT:    -4.434      2.073      7.253
REMARK INTER + INTRA:         -16.391
REMARK INTER:                 -11.687
REMARK INTRA:                  -4.704
REMARK UNBOUND:                -4.700
REMARK SMILES CCCCCCCCCCCCCCCCCCCCCCCCCCCCCC(=O)[O-]
REMARK SMILES IDX 16 1 17 2 18 3 19 4 20 5 21 6 22 7 23 8 24 9 25 10 26 11
REMARK SMILES IDX 27 12 28 13 29 14 30 15 31 16 32 17 15 18 14 19 13 20 12 21
REMARK SMILES IDX 11 22 10 23 9 24 8 25 7 26 6 27 5 28 4 29 3 30 2 31 1 32
REMARK H PARENT
REMARK Flexibility Score: inf
ROOT
ATOM      1  C   UNL     1     -11.386   4.808 -38.473  1.00  0.00     0.000 C 
ENDROOT
BRANCH   1   2
ATOM      2  C   UNL     1     -11.945   4.863 -39.910  1.00  0.00     0.000 C 
BRANCH   2   3
ATOM      3  C   UNL     1     -12.774   3.636 -40.340  1.00  0.00     0.000 C 
BRANCH   3   4
ATOM      4  C   UNL     1     -12.141   2.785 -41.456  1.00  0.00     0.000 C 
BRANCH   4   5
ATOM      5  C   UNL     1     -10.813   3.364 -41.965  1.00  0.00     0.000 C 
BRANCH   5   6
ATOM      6  C   UNL     1     -10.948   3.854 -43.414  1.00  0.00     0.000 C 
BRANCH   6   7
ATOM      7  C   UNL     1     -12.382   4.289 -43.771  1.00  0.00     0.000 C 
BRANCH   7   8
ATOM      8  C   UNL     1     -12.557   5.795 -44.039  1.00  0.00     0.000 C 
BRANCH   8   9
ATOM      9  C   UNL     1     -13.754   6.106 -44.950  1.00  0.00     0.000 C 
BRANCH   9  10
ATOM     10  C   UNL     1     -15.045   6.265 -44.130  1.00  0.00     0.000 C 
BRANCH  10  11
ATOM     11  C   UNL     1     -14.819   7.050 -42.828  1.00  0.00     0.000 C 
BRANCH  11  12
ATOM     12  C   UNL     1     -15.044   6.185 -41.574  1.00  0.00     0.000 C 
BRANCH  12  13
ATOM     13  C   UNL     1     -16.110   5.099 -41.786  1.00  0.00     0.006 C 
BRANCH  13  14
ATOM     14  C   UNL     1     -16.661   4.538 -40.469  1.00  0.00     0.053 C 
BRANCH  14  15
ATOM     15  C   UNL     1     -17.566   3.377 -40.732  1.00  0.00     0.041 C 
ATOM     16  O   UNL     1     -17.408   2.296 -40.104  1.00  0.00    -0.550 OA
ATOM     17  O   UNL     1     -18.614   3.500 -41.638  1.00  0.00    -0.550 OA
ENDBRANCH  14  15
ENDBRANCH  13  14
ENDBRANCH  12  13
ENDBRANCH  11  12
ENDBRANCH  10  11
ENDBRANCH   9  10
ENDBRANCH   8   9
ENDBRANCH   7   8
ENDBRANCH   6   7
ENDBRANCH   5   6
ENDBRANCH   4   5
ENDBRANCH   3   4
ENDBRANCH   2   3
ENDBRANCH   1   2
BRANCH   1  18
ATOM     18  C   UNL     1      -9.869   4.562 -38.367  1.00  0.00     0.000 C 
BRANCH  18  19
ATOM     19  C   UNL     1      -9.493   3.625 -37.205  1.00  0.00     0.000 C 
BRANCH  19  20
ATOM     20  C   UNL     1     -10.678   2.770 -36.716  1.00  0.00     0.000 C 
BRANCH  20  21
ATOM     21  C   UNL     1     -10.391   1.910 -35.471  1.00  0.00     0.000 C 
BRANCH  21  22
ATOM     22  C   UNL     1     -10.942   0.481 -35.594  1.00  0.00     0.000 C 
BRANCH  22  23
ATOM     23  C   UNL     1      -9.833  -0.588 -35.623  1.00  0.00     0.000 C 
BRANCH  23  24
ATOM     24  C   UNL     1      -8.570  -0.183 -36.406  1.00  0.00    -0.000 C 
BRANCH  24  25
ATOM     25  C   UNL     1      -8.586  -0.673 -37.865  1.00  0.00    -0.000 C 
BRANCH  25  26
ATOM     26  C   UNL     1      -8.179   0.426 -38.858  1.00  0.00    -0.000 C 
BRANCH  26  27
ATOM     27  C   UNL     1      -9.354   0.881 -39.741  1.00  0.00    -0.000 C 
BRANCH  27  28
ATOM     28  C   UNL     1     -10.696   0.255 -39.322  1.00  0.00    -0.000 C 
BRANCH  28  29
ATOM     29  C   UNL     1     -11.264  -0.783 -40.307  1.00  0.00    -0.000 C 
BRANCH  29  30
ATOM     30  C   UNL     1     -11.757  -2.064 -39.611  1.00  0.00    -0.000 C 
BRANCH  30  31
ATOM     31  C   UNL     1     -13.265  -2.030 -39.318  1.00  0.00    -0.003 C 
ATOM     32  C   UNL     1     -14.042  -1.175 -40.319  1.00  0.00     0.004 C 
ENDBRANCH  30  31
ENDBRANCH  29  30
ENDBRANCH  28  29
ENDBRANCH  27  28
ENDBRANCH  26  27
ENDBRANCH  25  26
ENDBRANCH  24  25
ENDBRANCH  23  24
ENDBRANCH  22  23
ENDBRANCH  21  22
ENDBRANCH  20  21
ENDBRANCH  19  20
ENDBRANCH  18  19
ENDBRANCH   1  18
TORSDOF 28
ENDMDL
MODEL 3
REMARK VINA RESULT:    -4.417      2.127      8.078
REMARK INTER + INTRA:         -16.348
REMARK INTER:                 -11.573
REMARK INTRA:                  -4.774
REMARK UNBOUND:                -4.700
REMARK SMILES CCCCCCCCCCCCCCCCCCCCCCCCCCCCCC(=O)[O-]
REMARK SMILES IDX 16 1 17 2 18 3 19 4 20 5 21 6 22 7 23 8 24 9 25 10 26 11
REMARK SMILES IDX 27 12 28 13 29 14 30 15 31 16 32 17 15 18 14 19 13 20 12 21
REMARK SMILES IDX 11 22 10 23 9 24 8 25 7 26 6 27 5 28 4 29 3 30 2 31 1 32
REMARK H PARENT
REMARK Flexibility Score: inf
ROOT
ATOM      1  C   UNL     1     -12.073   3.711 -40.079  1.00  0.00     0.000 C 
ENDROOT
BRANCH   1   2
ATOM      2  C   UNL     1     -12.391   5.220 -40.094  1.00  0.00     0.000 C 
BRANCH   2   3
ATOM      3  C   UNL     1     -13.596   5.630 -40.966  1.00  0.00     0.000 C 
BRANCH   3   4
ATOM      4  C   UNL     1     -13.326   6.789 -41.941  1.00  0.00     0.000 C 
BRANCH   4   5
ATOM      5  C   UNL     1     -14.004   6.589 -43.305  1.00  0.00     0.000 C 
BRANCH   5   6
ATOM      6  C   UNL     1     -14.709   5.227 -43.372  1.00  0.00     0.000 C 
BRANCH   6   7
ATOM      7  C   UNL     1     -16.070   5.289 -44.090  1.00  0.00     0.000 C 
BRANCH   7   8
ATOM      8  C   UNL     1     -16.340   6.594 -44.861  1.00  0.00     0.000 C 
BRANCH   8   9
ATOM      9  C   UNL     1     -17.767   7.124 -44.661  1.00  0.00     0.000 C 
BRANCH   9  10
ATOM     10  C   UNL     1     -18.220   6.954 -43.202  1.00  0.00     0.000 C 
BRANCH  10  11
ATOM     11  C   UNL     1     -17.491   7.913 -42.247  1.00  0.00     0.000 C 
BRANCH  11  12
ATOM     12  C   UNL     1     -16.938   7.195 -41.002  1.00  0.00     0.000 C 
BRANCH  12  13
ATOM     13  C   UNL     1     -17.754   5.948 -40.626  1.00  0.00     0.006 C 
BRANCH  13  14
ATOM     14  C   UNL     1     -16.880   4.706 -40.411  1.00  0.00     0.053 C 
BRANCH  14  15
ATOM     15  C   UNL     1     -17.637   3.465 -40.763  1.00  0.00     0.041 C 
ATOM     16  O   UNL     1     -18.519   3.495 -41.663  1.00  0.00    -0.550 OA
ATOM     17  O   UNL     1     -17.339   2.263 -40.131  1.00  0.00    -0.550 OA
ENDBRANCH  14  15
ENDBRANCH  13  14
ENDBRANCH  12  13
ENDBRANCH  11  12
ENDBRANCH  10  11
ENDBRANCH   9  10
ENDBRANCH   8   9
ENDBRANCH   7   8
ENDBRANCH   6   7
ENDBRANCH   5   6
ENDBRANCH   4   5
ENDBRANCH   3   4
ENDBRANCH   2   3
ENDBRANCH   1   2
BRANCH   1  18
ATOM     18  C   UNL     1     -12.078   3.025 -41.458  1.00  0.00     0.000 C 
BRANCH  18  19
ATOM     19  C   UNL     1     -10.735   3.157 -42.199  1.00  0.00     0.000 C 
BRANCH  19  20
ATOM     20  C   UNL     1      -9.576   3.568 -41.271  1.00  0.00     0.000 C 
BRANCH  20  21
ATOM     21  C   UNL     1      -8.249   2.827 -41.516  1.00  0.00     0.000 C 
BRANCH  21  22
ATOM     22  C   UNL     1      -7.518   2.464 -40.213  1.00  0.00     0.000 C 
BRANCH  22  23
ATOM     23  C   UNL     1      -7.986   3.305 -39.011  1.00  0.00     0.000 C 
BRANCH  23  24
ATOM     24  C   UNL     1      -8.448   2.484 -37.792  1.00  0.00    -0.000 C 
BRANCH  24  25
ATOM     25  C   UNL     1      -9.867   1.910 -37.959  1.00  0.00    -0.000 C 
BRANCH  25  26
ATOM     26  C   UNL     1      -9.961   0.441 -37.517  1.00  0.00    -0.000 C 
BRANCH  26  27
ATOM     27  C   UNL     1      -9.659  -0.537 -38.666  1.00  0.00    -0.000 C 
BRANCH  27  28
ATOM     28  C   UNL     1     -10.243  -0.076 -40.013  1.00  0.00    -0.000 C 
BRANCH  28  29
ATOM     29  C   UNL     1     -11.750  -0.335 -40.191  1.00  0.00    -0.000 C 
BRANCH  29  30
ATOM     30  C   UNL     1     -12.126  -1.819 -40.036  1.00  0.00    -0.000 C 
BRANCH  30  31
ATOM     31  C   UNL     1     -13.571  -2.010 -39.549  1.00  0.00    -0.003 C 
ATOM     32  C   UNL     1     -14.594  -1.302 -40.439  1.00  0.00     0.004 C 
ENDBRANCH  30  31
ENDBRANCH  29  30
ENDBRANCH  28  29
ENDBRANCH  27  28
ENDBRANCH  26  27
ENDBRANCH  25  26
ENDBRANCH  24  25
ENDBRANCH  23  24
ENDBRANCH  22  23
ENDBRANCH  21  22
ENDBRANCH  20  21
ENDBRANCH  19  20
ENDBRANCH  18  19
ENDBRANCH   1  18
TORSDOF 28
ENDMDL
MODEL 4
REMARK VINA RESULT:    -4.394      2.256      7.427
REMARK INTER + INTRA:         -16.286
REMARK INTER:                 -10.747
REMARK INTRA:                  -5.539
REMARK UNBOUND:                -4.700
REMARK SMILES CCCCCCCCCCCCCCCCCCCCCCCCCCCCCC(=O)[O-]
REMARK SMILES IDX 16 1 17 2 18 3 19 4 20 5 21 6 22 7 23 8 24 9 25 10 26 11
REMARK SMILES IDX 27 12 28 13 29 14 30 15 31 16 32 17 15 18 14 19 13 20 12 21
REMARK SMILES IDX 11 22 10 23 9 24 8 25 7 26 6 27 5 28 4 29 3 30 2 31 1 32
REMARK H PARENT
REMARK Flexibility Score: inf
ROOT
ATOM      1  C   UNL     1      -9.364   3.304 -41.623  1.00  0.00     0.000 C 
ENDROOT
BRANCH   1   2
ATOM      2  C   UNL     1     -10.843   3.057 -41.985  1.00  0.00     0.000 C 
BRANCH   2   3
ATOM      3  C   UNL     1     -11.814   3.013 -40.788  1.00  0.00     0.000 C 
BRANCH   3   4
ATOM      4  C   UNL     1     -12.193   4.389 -40.210  1.00  0.00     0.000 C 
BRANCH   4   5
ATOM      5  C   UNL     1     -11.678   4.595 -38.778  1.00  0.00     0.000 C 
BRANCH   5   6
ATOM      6  C   UNL     1     -10.715   5.789 -38.708  1.00  0.00     0.000 C 
BRANCH   6   7
ATOM      7  C   UNL     1     -10.449   6.428 -40.084  1.00  0.00     0.000 C 
BRANCH   7   8
ATOM      8  C   UNL     1     -10.384   7.967 -40.085  1.00  0.00     0.000 C 
BRANCH   8   9
ATOM      9  C   UNL     1     -11.603   8.617 -40.755  1.00  0.00     0.000 C 
BRANCH   9  10
ATOM     10  C   UNL     1     -12.253   7.660 -41.768  1.00  0.00     0.000 C 
BRANCH  10  11
ATOM     11  C   UNL     1     -13.749   7.440 -41.490  1.00  0.00     0.000 C 
BRANCH  11  12
ATOM     12  C   UNL     1     -14.344   6.307 -42.347  1.00  0.00     0.000 C 
BRANCH  12  13
ATOM     13  C   UNL     1     -15.536   5.614 -41.668  1.00  0.00     0.006 C 
BRANCH  13  14
ATOM     14  C   UNL     1     -16.530   5.018 -42.673  1.00  0.00     0.053 C 
BRANCH  14  15
ATOM     15  C   UNL     1     -17.799   4.626 -41.985  1.00  0.00     0.041 C 
ATOM     16  O   UNL     1     -18.078   3.410 -41.814  1.00  0.00    -0.550 OA
ATOM     17  O   UNL     1     -18.654   5.605 -41.489  1.00  0.00    -0.550 OA
ENDBRANCH  14  15
ENDBRANCH  13  14
ENDBRANCH  12  13
ENDBRANCH  11  12
ENDBRANCH  10  11
ENDBRANCH   9  10
ENDBRANCH   8   9
ENDBRANCH   7   8
ENDBRANCH   6   7
ENDBRANCH   5   6
ENDBRANCH   4   5
ENDBRANCH   3   4
ENDBRANCH   2   3
ENDBRANCH   1   2
BRANCH   1  18
ATOM     18  C   UNL     1      -8.753   2.293 -40.634  1.00  0.00     0.000 C 
BRANCH  18  19
ATOM     19  C   UNL     1      -8.260   2.951 -39.333  1.00  0.00     0.000 C 
BRANCH  19  20
ATOM     20  C   UNL     1      -8.919   2.358 -38.073  1.00  0.00     0.000 C 
BRANCH  20  21
ATOM     21  C   UNL     1      -9.890   1.192 -38.331  1.00  0.00     0.000 C 
BRANCH  21  22
ATOM     22  C   UNL     1     -10.141   0.336 -37.080  1.00  0.00     0.000 C 
BRANCH  22  23
ATOM     23  C   UNL     1      -9.676  -1.123 -37.249  1.00  0.00     0.000 C 
BRANCH  23  24
ATOM     24  C   UNL     1      -8.220  -1.282 -37.726  1.00  0.00    -0.000 C 
BRANCH  24  25
ATOM     25  C   UNL     1      -8.103  -2.067 -39.045  1.00  0.00    -0.000 C 
BRANCH  25  26
ATOM     26  C   UNL     1      -7.357  -1.278 -40.133  1.00  0.00    -0.000 C 
BRANCH  26  27
ATOM     27  C   UNL     1      -8.174  -1.155 -41.431  1.00  0.00    -0.000 C 
BRANCH  27  28
ATOM     28  C   UNL     1      -9.630  -1.627 -41.269  1.00  0.00    -0.000 C 
BRANCH  28  29
ATOM     29  C   UNL     1     -10.697  -0.568 -41.597  1.00  0.00    -0.000 C 
BRANCH  29  30
ATOM     30  C   UNL     1     -11.885  -0.590 -40.620  1.00  0.00    -0.000 C 
BRANCH  30  31
ATOM     31  C   UNL     1     -11.979  -1.911 -39.840  1.00  0.00    -0.003 C 
ATOM     32  C   UNL     1     -13.341  -2.111 -39.176  1.00  0.00     0.004 C 
ENDBRANCH  30  31
ENDBRANCH  29  30
ENDBRANCH  28  29
ENDBRANCH  27  28
ENDBRANCH  26  27
ENDBRANCH  25  26
ENDBRANCH  24  25
ENDBRANCH  23  24
ENDBRANCH  22  23
ENDBRANCH  21  22
ENDBRANCH  20  21
ENDBRANCH  19  20
ENDBRANCH  18  19
ENDBRANCH   1  18
TORSDOF 28
ENDMDL
MODEL 5
REMARK VINA RESULT:    -4.391      3.051      7.248
REMARK INTER + INTRA:         -16.279
REMARK INTER:                 -11.717
REMARK INTRA:                  -4.562
REMARK UNBOUND:                -4.700
REMARK SMILES CCCCCCCCCCCCCCCCCCCCCCCCCCCCCC(=O)[O-]
REMARK SMILES IDX 16 1 17 2 18 3 19 4 20 5 21 6 22 7 23 8 24 9 25 10 26 11
REMARK SMILES IDX 27 12 28 13 29 14 30 15 31 16 32 17 15 18 14 19 13 20 12 21
REMARK SMILES IDX 11 22 10 23 9 24 8 25 7 26 6 27 5 28 4 29 3 30 2 31 1 32
REMARK H PARENT
REMARK Flexibility Score: inf
ROOT
ATOM      1  C   UNL     1     -10.524   2.688 -37.547  1.00  0.00     0.000 C 
ENDROOT
BRANCH   1   2
ATOM      2  C   UNL     1     -10.465   4.137 -38.071  1.00  0.00     0.000 C 
BRANCH   2   3
ATOM      3  C   UNL     1      -9.565   4.353 -39.304  1.00  0.00     0.000 C 
BRANCH   3   4
ATOM      4  C   UNL     1      -9.000   3.064 -39.928  1.00  0.00     0.000 C 
BRANCH   4   5
ATOM      5  C   UNL     1      -8.348   3.303 -41.298  1.00  0.00     0.000 C 
BRANCH   5   6
ATOM      6  C   UNL     1      -9.278   4.110 -42.215  1.00  0.00     0.000 C 
BRANCH   6   7
ATOM      7  C   UNL     1     -10.491   3.298 -42.705  1.00  0.00     0.000 C 
BRANCH   7   8
ATOM      8  C   UNL     1     -11.864   3.893 -42.341  1.00  0.00     0.000 C 
BRANCH   8   9
ATOM      9  C   UNL     1     -12.551   3.151 -41.185  1.00  0.00     0.000 C 
BRANCH   9  10
ATOM     10  C   UNL     1     -13.500   4.086 -40.416  1.00  0.00     0.000 C 
BRANCH  10  11
ATOM     11  C   UNL     1     -14.704   4.527 -41.264  1.00  0.00     0.000 C 
BRANCH  11  12
ATOM     12  C   UNL     1     -16.041   4.348 -40.523  1.00  0.00     0.000 C 
BRANCH  12  13
ATOM     13  C   UNL     1     -16.906   5.618 -40.546  1.00  0.00     0.006 C 
BRANCH  13  14
ATOM     14  C   UNL     1     -17.083   6.193 -41.957  1.00  0.00     0.053 C 
BRANCH  14  15
ATOM     15  C   UNL     1     -17.507   7.626 -41.889  1.00  0.00     0.041 C 
ATOM     16  O   UNL     1     -18.229   8.117 -42.797  1.00  0.00    -0.550 OA
ATOM     17  O   UNL     1     -17.144   8.410 -40.799  1.00  0.00    -0.550 OA
ENDBRANCH  14  15
ENDBRANCH  13  14
ENDBRANCH  12  13
ENDBRANCH  11  12
ENDBRANCH  10  11
ENDBRANCH   9  10
ENDBRANCH   8   9
ENDBRANCH   7   8
ENDBRANCH   6   7
ENDBRANCH   5   6
ENDBRANCH   4   5
ENDBRANCH   3   4
ENDBRANCH   2   3
ENDBRANCH   1   2
BRANCH   1  18
ATOM     18  C   UNL     1     -10.240   2.522 -36.042  1.00  0.00     0.000 C 
BRANCH  18  19
ATOM     19  C   UNL     1     -10.382   1.066 -35.562  1.00  0.00     0.000 C 
BRANCH  19  20
ATOM     20  C   UNL     1     -10.661   0.079 -36.711  1.00  0.00     0.000 C 
BRANCH  20  21
ATOM     21  C   UNL     1      -9.588  -1.005 -36.916  1.00  0.00     0.000 C 
BRANCH  21  22
ATOM     22  C   UNL     1      -8.180  -0.420 -37.119  1.00  0.00     0.000 C 
BRANCH  22  23
ATOM     23  C   UNL     1      -7.957   0.123 -38.543  1.00  0.00     0.000 C 
BRANCH  23  24
ATOM     24  C   UNL     1      -7.515  -0.934 -39.573  1.00  0.00    -0.000 C 
BRANCH  24  25
ATOM     25  C   UNL     1      -7.790  -0.507 -41.025  1.00  0.00    -0.000 C 
BRANCH  25  26
ATOM     26  C   UNL     1      -8.520  -1.595 -41.829  1.00  0.00    -0.000 C 
BRANCH  26  27
ATOM     27  C   UNL     1      -9.992  -1.745 -41.409  1.00  0.00    -0.000 C 
BRANCH  27  28
ATOM     28  C   UNL     1     -10.752  -0.407 -41.403  1.00  0.00    -0.000 C 
BRANCH  28  29
ATOM     29  C   UNL     1     -11.890  -0.310 -40.371  1.00  0.00    -0.000 C 
BRANCH  29  30
ATOM     30  C   UNL     1     -12.097  -1.614 -39.582  1.00  0.00    -0.000 C 
BRANCH  30  31
ATOM     31  C   UNL     1     -13.539  -2.136 -39.679  1.00  0.00    -0.003 C 
ATOM     32  C   UNL     1     -14.484  -1.141 -40.352  1.00  0.00     0.004 C 
ENDBRANCH  30  31
ENDBRANCH  29  30
ENDBRANCH  28  29
ENDBRANCH  27  28
ENDBRANCH  26  27
ENDBRANCH  25  26
ENDBRANCH  24  25
ENDBRANCH  23  24
ENDBRANCH  22  23
ENDBRANCH  21  22
ENDBRANCH  20  21
ENDBRANCH  19  20
ENDBRANCH  18  19
ENDBRANCH   1  18
TORSDOF 28
ENDMDL
MODEL 6
REMARK VINA RESULT:    -4.389      2.313      7.992
REMARK INTER + INTRA:         -16.273
REMARK INTER:                 -11.671
REMARK INTRA:                  -4.602
REMARK UNBOUND:                -4.700
REMARK SMILES CCCCCCCCCCCCCCCCCCCCCCCCCCCCCC(=O)[O-]
REMARK SMILES IDX 16 1 17 2 18 3 19 4 20 5 21 6 22 7 23 8 24 9 25 10 26 11
REMARK SMILES IDX 27 12 28 13 29 14 30 15 31 16 32 17 15 18 14 19 13 20 12 21
REMARK SMILES IDX 11 22 10 23 9 24 8 25 7 26 6 27 5 28 4 29 3 30 2 31 1 32
REMARK H PARENT
REMARK Flexibility Score: inf
ROOT
ATOM      1  C   UNL     1     -11.214   3.713 -38.898  1.00  0.00     0.000 C 
ENDROOT
BRANCH   1   2
ATOM      2  C   UNL     1     -12.299   4.133 -39.911  1.00  0.00     0.000 C 
BRANCH   2   3
ATOM      3  C   UNL     1     -12.027   3.722 -41.373  1.00  0.00     0.000 C 
BRANCH   3   4
ATOM      4  C   UNL     1     -11.981   4.889 -42.376  1.00  0.00     0.000 C 
BRANCH   4   5
ATOM      5  C   UNL     1     -11.692   6.239 -41.704  1.00  0.00     0.000 C 
BRANCH   5   6
ATOM      6  C   UNL     1     -11.801   7.390 -42.715  1.00  0.00     0.000 C 
BRANCH   6   7
ATOM      7  C   UNL     1     -12.172   8.733 -42.060  1.00  0.00     0.000 C 
BRANCH   7   8
ATOM      8  C   UNL     1     -13.501   9.346 -42.539  1.00  0.00     0.000 C 
BRANCH   8   9
ATOM      9  C   UNL     1     -14.661   9.097 -41.564  1.00  0.00     0.000 C 
BRANCH   9  10
ATOM     10  C   UNL     1     -15.963   8.788 -42.322  1.00  0.00     0.000 C 
BRANCH  10  11
ATOM     11  C   UNL     1     -16.416   7.331 -42.140  1.00  0.00     0.000 C 
BRANCH  11  12
ATOM     12  C   UNL     1     -15.368   6.478 -41.400  1.00  0.00     0.000 C 
BRANCH  12  13
ATOM     13  C   UNL     1     -15.661   4.972 -41.486  1.00  0.00     0.006 C 
BRANCH  13  14
ATOM     14  C   UNL     1     -16.990   4.663 -42.186  1.00  0.00     0.053 C 
BRANCH  14  15
ATOM     15  C   UNL     1     -17.836   3.770 -41.334  1.00  0.00     0.041 C 
ATOM     16  O   UNL     1     -19.082   3.717 -41.513  1.00  0.00    -0.550 OA
ATOM     17  O   UNL     1     -17.243   2.959 -40.372  1.00  0.00    -0.550 OA
ENDBRANCH  14  15
ENDBRANCH  13  14
ENDBRANCH  12  13
ENDBRANCH  11  12
ENDBRANCH  10  11
ENDBRANCH   9  10
ENDBRANCH   8   9
ENDBRANCH   7   8
ENDBRANCH   6   7
ENDBRANCH   5   6
ENDBRANCH   4   5
ENDBRANCH   3   4
ENDBRANCH   2   3
ENDBRANCH   1   2
BRANCH   1  18
ATOM     18  C   UNL     1      -9.938   3.111 -39.515  1.00  0.00     0.000 C 
BRANCH  18  19
ATOM     19  C   UNL     1      -9.268   2.065 -38.605  1.00  0.00     0.000 C 
BRANCH  19  20
ATOM     20  C   UNL     1     -10.280   1.120 -37.930  1.00  0.00     0.000 C 
BRANCH  20  21
ATOM     21  C   UNL     1      -9.673   0.124 -36.926  1.00  0.00     0.000 C 
BRANCH  21  22
ATOM     22  C   UNL     1      -8.586  -0.765 -37.550  1.00  0.00     0.000 C 
BRANCH  22  23
ATOM     23  C   UNL     1      -9.126  -2.127 -38.026  1.00  0.00     0.000 C 
BRANCH  23  24
ATOM     24  C   UNL     1      -8.728  -2.510 -39.464  1.00  0.00    -0.000 C 
BRANCH  24  25
ATOM     25  C   UNL     1      -7.773  -1.493 -40.113  1.00  0.00    -0.000 C 
BRANCH  25  26
ATOM     26  C   UNL     1      -8.377  -0.836 -41.365  1.00  0.00    -0.000 C 
BRANCH  26  27
ATOM     27  C   UNL     1      -9.869  -1.169 -41.538  1.00  0.00    -0.000 C 
BRANCH  27  28
ATOM     28  C   UNL     1     -10.778   0.066 -41.405  1.00  0.00    -0.000 C 
BRANCH  28  29
ATOM     29  C   UNL     1     -12.161  -0.209 -40.788  1.00  0.00    -0.000 C 
BRANCH  29  30
ATOM     30  C   UNL     1     -12.227  -1.548 -40.032  1.00  0.00    -0.000 C 
BRANCH  30  31
ATOM     31  C   UNL     1     -13.657  -1.911 -39.604  1.00  0.00    -0.003 C 
ATOM     32  C   UNL     1     -14.722  -1.186 -40.427  1.00  0.00     0.004 C 
ENDBRANCH  30  31
ENDBRANCH  29  30
ENDBRANCH  28  29
ENDBRANCH  27  28
ENDBRANCH  26  27
ENDBRANCH  25  26
ENDBRANCH  24  25
ENDBRANCH  23  24
ENDBRANCH  22  23
ENDBRANCH  21  22
ENDBRANCH  20  21
ENDBRANCH  19  20
ENDBRANCH  18  19
ENDBRANCH   1  18
TORSDOF 28
ENDMDL
MODEL 7
REMARK VINA RESULT:    -4.389      2.687      7.401
REMARK INTER + INTRA:         -16.272
REMARK INTER:                 -11.609
REMARK INTRA:                  -4.662
REMARK UNBOUND:                -4.700
REMARK SMILES CCCCCCCCCCCCCCCCCCCCCCCCCCCCCC(=O)[O-]
REMARK SMILES IDX 16 1 17 2 18 3 19 4 20 5 21 6 22 7 23 8 24 9 25 10 26 11
REMARK SMILES IDX 27 12 28 13 29 14 30 15 31 16 32 17 15 18 14 19 13 20 12 21
REMARK SMILES IDX 11 22 10 23 9 24 8 25 7 26 6 27 5 28 4 29 3 30 2 31 1 32
REMARK H PARENT
REMARK Flexibility Score: inf
ROOT
ATOM      1  C   UNL     1     -12.513   3.797 -40.531  1.00  0.00     0.000 C 
ENDROOT
BRANCH   1   2
ATOM      2  C   UNL     1     -11.402   3.526 -39.496  1.00  0.00     0.000 C 
BRANCH   2   3
ATOM      3  C   UNL     1     -11.187   4.643 -38.455  1.00  0.00     0.000 C 
BRANCH   3   4
ATOM      4  C   UNL     1     -11.452   6.069 -38.971  1.00  0.00     0.000 C 
BRANCH   4   5
ATOM      5  C   UNL     1     -10.357   6.570 -39.924  1.00  0.00     0.000 C 
BRANCH   5   6
ATOM      6  C   UNL     1     -10.962   7.395 -41.069  1.00  0.00     0.000 C 
BRANCH   6   7
ATOM      7  C   UNL     1     -11.893   8.518 -40.574  1.00  0.00     0.000 C 
BRANCH   7   8
ATOM      8  C   UNL     1     -13.208   8.667 -41.360  1.00  0.00     0.000 C 
BRANCH   8   9
ATOM      9  C   UNL     1     -13.532   7.440 -42.225  1.00  0.00     0.000 C 
BRANCH   9  10
ATOM     10  C   UNL     1     -15.017   7.059 -42.107  1.00  0.00     0.000 C 
BRANCH  10  11
ATOM     11  C   UNL     1     -15.862   8.178 -41.477  1.00  0.00     0.000 C 
BRANCH  11  12
ATOM     12  C   UNL     1     -17.298   7.722 -41.160  1.00  0.00     0.000 C 
BRANCH  12  13
ATOM     13  C   UNL     1     -17.342   6.397 -40.384  1.00  0.00     0.006 C 
BRANCH  13  14
ATOM     14  C   UNL     1     -17.816   5.218 -41.243  1.00  0.00     0.053 C 
BRANCH  14  15
ATOM     15  C   UNL     1     -17.246   3.933 -40.730  1.00  0.00     0.041 C 
ATOM     16  O   UNL     1     -16.035   3.869 -40.387  1.00  0.00    -0.550 OA
ATOM     17  O   UNL     1     -18.062   2.817 -40.585  1.00  0.00    -0.550 OA
ENDBRANCH  14  15
ENDBRANCH  13  14
ENDBRANCH  12  13
ENDBRANCH  11  12
ENDBRANCH  10  11
ENDBRANCH   9  10
ENDBRANCH   8   9
ENDBRANCH   7   8
ENDBRANCH   6   7
ENDBRANCH   5   6
ENDBRANCH   4   5
ENDBRANCH   3   4
ENDBRANCH   2   3
ENDBRANCH   1   2
BRANCH   1  18
ATOM     18  C   UNL     1     -12.164   3.419 -41.983  1.00  0.00     0.000 C 
BRANCH  18  19
ATOM     19  C   UNL     1     -10.649   3.286 -42.221  1.00  0.00     0.000 C 
BRANCH  19  20
ATOM     20  C   UNL     1     -10.065   4.454 -43.038  1.00  0.00     0.000 C 
BRANCH  20  21
ATOM     21  C   UNL     1      -8.553   4.683 -42.861  1.00  0.00     0.000 C 
BRANCH  21  22
ATOM     22  C   UNL     1      -7.851   3.513 -42.153  1.00  0.00     0.000 C 
BRANCH  22  23
ATOM     23  C   UNL     1      -7.332   3.886 -40.752  1.00  0.00     0.000 C 
BRANCH  23  24
ATOM     24  C   UNL     1      -7.951   3.073 -39.599  1.00  0.00    -0.000 C 
BRANCH  24  25
ATOM     25  C   UNL     1      -7.777   1.554 -39.776  1.00  0.00    -0.000 C 
BRANCH  25  26
ATOM     26  C   UNL     1      -9.117   0.801 -39.738  1.00  0.00    -0.000 C 
BRANCH  26  27
ATOM     27  C   UNL     1      -9.272  -0.178 -40.914  1.00  0.00    -0.000 C 
BRANCH  27  28
ATOM     28  C   UNL     1     -10.690  -0.175 -41.512  1.00  0.00    -0.000 C 
BRANCH  28  29
ATOM     29  C   UNL     1     -11.829  -0.261 -40.480  1.00  0.00    -0.000 C 
BRANCH  29  30
ATOM     30  C   UNL     1     -11.991  -1.668 -39.879  1.00  0.00    -0.000 C 
BRANCH  30  31
ATOM     31  C   UNL     1     -13.461  -2.023 -39.606  1.00  0.00    -0.003 C 
ATOM     32  C   UNL     1     -14.437  -1.140 -40.383  1.00  0.00     0.004 C 
ENDBRANCH  30  31
ENDBRANCH  29  30
ENDBRANCH  28  29
ENDBRANCH  27  28
ENDBRANCH  26  27
ENDBRANCH  25  26
ENDBRANCH  24  25
ENDBRANCH  23  24
ENDBRANCH  22  23
ENDBRANCH  21  22
ENDBRANCH  20  21
ENDBRANCH  19  20
ENDBRANCH  18  19
ENDBRANCH   1  18
TORSDOF 28
ENDMDL
MODEL 8
REMARK VINA RESULT:    -4.371      2.366      7.942
REMARK INTER + INTRA:         -16.225
REMARK INTER:                 -11.156
REMARK INTRA:                  -5.068
REMARK UNBOUND:                -4.700
REMARK SMILES CCCCCCCCCCCCCCCCCCCCCCCCCCCCCC(=O)[O-]
REMARK SMILES IDX 16 1 17 2 18 3 19 4 20 5 21 6 22 7 23 8 24 9 25 10 26 11
REMARK SMILES IDX 27 12 28 13 29 14 30 15 31 16 32 17 15 18 14 19 13 20 12 21
REMARK SMILES IDX 11 22 10 23 9 24 8 25 7 26 6 27 5 28 4 29 3 30 2 31 1 32
REMARK H PARENT
REMARK Flexibility Score: inf
ROOT
ATOM      1  C   UNL     1     -13.259   3.939 -40.691  1.00  0.00     0.000 C 
ENDROOT
BRANCH   1   2
ATOM      2  C   UNL     1     -12.963   5.341 -40.121  1.00  0.00     0.000 C 
BRANCH   2   3
ATOM      3  C   UNL     1     -12.072   6.236 -41.006  1.00  0.00     0.000 C 
BRANCH   3   4
ATOM      4  C   UNL     1     -12.761   7.499 -41.552  1.00  0.00     0.000 C 
BRANCH   4   5
ATOM      5  C   UNL     1     -12.407   7.782 -43.020  1.00  0.00     0.000 C 
BRANCH   5   6
ATOM      6  C   UNL     1     -11.386   6.762 -43.543  1.00  0.00     0.000 C 
BRANCH   6   7
ATOM      7  C   UNL     1     -11.958   5.848 -44.643  1.00  0.00     0.000 C 
BRANCH   7   8
ATOM      8  C   UNL     1     -12.934   6.534 -45.617  1.00  0.00     0.000 C 
BRANCH   8   9
ATOM      9  C   UNL     1     -14.257   5.770 -45.778  1.00  0.00     0.000 C 
BRANCH   9  10
ATOM     10  C   UNL     1     -14.518   4.858 -44.568  1.00  0.00     0.000 C 
BRANCH  10  11
ATOM     11  C   UNL     1     -15.904   5.092 -43.945  1.00  0.00     0.000 C 
BRANCH  11  12
ATOM     12  C   UNL     1     -15.859   6.082 -42.766  1.00  0.00     0.000 C 
BRANCH  12  13
ATOM     13  C   UNL     1     -17.083   5.963 -41.845  1.00  0.00     0.006 C 
BRANCH  13  14
ATOM     14  C   UNL     1     -16.853   5.004 -40.670  1.00  0.00     0.053 C 
BRANCH  14  15
ATOM     15  C   UNL     1     -17.600   3.725 -40.885  1.00  0.00     0.041 C 
ATOM     16  O   UNL     1     -18.596   3.695 -41.656  1.00  0.00    -0.550 OA
ATOM     17  O   UNL     1     -17.170   2.555 -40.269  1.00  0.00    -0.550 OA
ENDBRANCH  14  15
ENDBRANCH  13  14
ENDBRANCH  12  13
ENDBRANCH  11  12
ENDBRANCH  10  11
ENDBRANCH   9  10
ENDBRANCH   8   9
ENDBRANCH   7   8
ENDBRANCH   6   7
ENDBRANCH   5   6
ENDBRANCH   4   5
ENDBRANCH   3   4
ENDBRANCH   2   3
ENDBRANCH   1   2
BRANCH   1  18
ATOM     18  C   UNL     1     -12.344   3.494 -41.847  1.00  0.00     0.000 C 
BRANCH  18  19
ATOM     19  C   UNL     1     -11.511   2.245 -41.506  1.00  0.00     0.000 C 
BRANCH  19  20
ATOM     20  C   UNL     1     -10.034   2.571 -41.211  1.00  0.00     0.000 C 
BRANCH  20  21
ATOM     21  C   UNL     1      -9.747   3.058 -39.779  1.00  0.00     0.000 C 
BRANCH  21  22
ATOM     22  C   UNL     1      -8.907   2.059 -38.966  1.00  0.00     0.000 C 
BRANCH  22  23
ATOM     23  C   UNL     1      -9.752   0.925 -38.356  1.00  0.00     0.000 C 
BRANCH  23  24
ATOM     24  C   UNL     1      -8.956  -0.338 -37.975  1.00  0.00    -0.000 C 
BRANCH  24  25
ATOM     25  C   UNL     1      -7.540  -0.358 -38.578  1.00  0.00    -0.000 C 
BRANCH  25  26
ATOM     26  C   UNL     1      -7.392  -1.404 -39.694  1.00  0.00    -0.000 C 
BRANCH  26  27
ATOM     27  C   UNL     1      -7.765  -0.842 -41.077  1.00  0.00    -0.000 C 
BRANCH  27  28
ATOM     28  C   UNL     1      -8.872  -1.654 -41.773  1.00  0.00    -0.000 C 
BRANCH  28  29
ATOM     29  C   UNL     1     -10.305  -1.155 -41.515  1.00  0.00    -0.000 C 
BRANCH  29  30
ATOM     30  C   UNL     1     -11.010  -1.914 -40.378  1.00  0.00    -0.000 C 
BRANCH  30  31
ATOM     31  C   UNL     1     -12.373  -1.301 -40.021  1.00  0.00    -0.003 C 
ATOM     32  C   UNL     1     -13.292  -2.286 -39.298  1.00  0.00     0.004 C 
ENDBRANCH  30  31
ENDBRANCH  29  30
ENDBRANCH  28  29
ENDBRANCH  27  28
ENDBRANCH  26  27
ENDBRANCH  25  26
ENDBRANCH  24  25
ENDBRANCH  23  24
ENDBRANCH  22  23
ENDBRANCH  21  22
ENDBRANCH  20  21
ENDBRANCH  19  20
ENDBRANCH  18  19
ENDBRANCH   1  18
TORSDOF 28
ENDMDL
MODEL 9
REMARK VINA RESULT:    -4.282      2.406      6.975
REMARK INTER + INTRA:         -15.991
REMARK INTER:                 -10.104
REMARK INTRA:                  -5.886
REMARK UNBOUND:                -4.700
REMARK SMILES CCCCCCCCCCCCCCCCCCCCCCCCCCCCCC(=O)[O-]
REMARK SMILES IDX 16 1 17 2 18 3 19 4 20 5 21 6 22 7 23 8 24 9 25 10 26 11
REMARK SMILES IDX 27 12 28 13 29 14 30 15 31 16 32 17 15 18 14 19 13 20 12 21
REMARK SMILES IDX 11 22 10 23 9 24 8 25 7 26 6 27 5 28 4 29 3 30 2 31 1 32
REMARK H PARENT
REMARK Flexibility Score: inf
ROOT
ATOM      1  C   UNL     1     -11.371   4.123 -38.250  1.00  0.00     0.000 C 
ENDROOT
BRANCH   1   2
ATOM      2  C   UNL     1     -11.708   5.348 -39.124  1.00  0.00     0.000 C 
BRANCH   2   3
ATOM      3  C   UNL     1     -10.933   6.636 -38.776  1.00  0.00     0.000 C 
BRANCH   3   4
ATOM      4  C   UNL     1     -10.033   7.175 -39.903  1.00  0.00     0.000 C 
BRANCH   4   5
ATOM      5  C   UNL     1      -8.685   6.444 -39.988  1.00  0.00     0.000 C 
BRANCH   5   6
ATOM      6  C   UNL     1      -8.354   6.072 -41.441  1.00  0.00     0.000 C 
BRANCH   6   7
ATOM      7  C   UNL     1      -8.838   4.662 -41.826  1.00  0.00     0.000 C 
BRANCH   7   8
ATOM      8  C   UNL     1     -10.067   4.626 -42.753  1.00  0.00     0.000 C 
BRANCH   8   9
ATOM      9  C   UNL     1     -10.993   3.433 -42.475  1.00  0.00     0.000 C 
BRANCH   9  10
ATOM     10  C   UNL     1     -12.462   3.881 -42.399  1.00  0.00     0.000 C 
BRANCH  10  11
ATOM     11  C   UNL     1     -12.686   5.266 -43.026  1.00  0.00     0.000 C 
BRANCH  11  12
ATOM     12  C   UNL     1     -13.407   6.234 -42.070  1.00  0.00     0.000 C 
BRANCH  12  13
ATOM     13  C   UNL     1     -14.646   5.605 -41.413  1.00  0.00     0.006 C 
BRANCH  13  14
ATOM     14  C   UNL     1     -15.890   6.496 -41.509  1.00  0.00     0.053 C 
BRANCH  14  15
ATOM     15  C   UNL     1     -16.965   5.996 -40.598  1.00  0.00     0.041 C 
ATOM     16  O   UNL     1     -17.052   4.767 -40.335  1.00  0.00    -0.550 OA
ATOM     17  O   UNL     1     -17.845   6.891 -40.000  1.00  0.00    -0.550 OA
ENDBRANCH  14  15
ENDBRANCH  13  14
ENDBRANCH  12  13
ENDBRANCH  11  12
ENDBRANCH  10  11
ENDBRANCH   9  10
ENDBRANCH   8   9
ENDBRANCH   7   8
ENDBRANCH   6   7
ENDBRANCH   5   6
ENDBRANCH   4   5
ENDBRANCH   3   4
ENDBRANCH   2   3
ENDBRANCH   1   2
BRANCH   1  18
ATOM     18  C   UNL     1     -10.399   3.110 -38.885  1.00  0.00     0.000 C 
BRANCH  18  19
ATOM     19  C   UNL     1      -8.978   3.194 -38.299  1.00  0.00     0.000 C 
BRANCH  19  20
ATOM     20  C   UNL     1      -8.959   3.690 -36.840  1.00  0.00     0.000 C 
BRANCH  20  21
ATOM     21  C   UNL     1      -8.366   2.699 -35.822  1.00  0.00     0.000 C 
BRANCH  21  22
ATOM     22  C   UNL     1      -9.386   2.247 -34.765  1.00  0.00     0.000 C 
BRANCH  22  23
ATOM     23  C   UNL     1     -10.699   1.731 -35.384  1.00  0.00     0.000 C 
BRANCH  23  24
ATOM     24  C   UNL     1     -10.738   0.213 -35.640  1.00  0.00    -0.000 C 
BRANCH  24  25
ATOM     25  C   UNL     1     -10.732  -0.143 -37.137  1.00  0.00    -0.000 C 
BRANCH  25  26
ATOM     26  C   UNL     1      -9.318  -0.432 -37.666  1.00  0.00    -0.000 C 
BRANCH  26  27
ATOM     27  C   UNL     1      -9.293  -1.612 -38.654  1.00  0.00    -0.000 C 
BRANCH  27  28
ATOM     28  C   UNL     1      -8.733  -1.224 -40.034  1.00  0.00    -0.000 C 
BRANCH  28  29
ATOM     29  C   UNL     1      -9.334   0.057 -40.642  1.00  0.00    -0.000 C 
BRANCH  29  30
ATOM     30  C   UNL     1     -10.583  -0.214 -41.499  1.00  0.00    -0.000 C 
BRANCH  30  31
ATOM     31  C   UNL     1     -11.886   0.124 -40.758  1.00  0.00    -0.003 C 
ATOM     32  C   UNL     1     -12.627  -1.121 -40.269  1.00  0.00     0.004 C 
ENDBRANCH  30  31
ENDBRANCH  29  30
ENDBRANCH  28  29
ENDBRANCH  27  28
ENDBRANCH  26  27
ENDBRANCH  25  26
ENDBRANCH  24  25
ENDBRANCH  23  24
ENDBRANCH  22  23
ENDBRANCH  21  22
ENDBRANCH  20  21
ENDBRANCH  19  20
ENDBRANCH  18  19
ENDBRANCH   1  18
TORSDOF 28
ENDMDL
