MODEL 1
REMARK VINA RESULT:    -3.970      0.000      0.000
REMARK INTER + INTRA:          -9.195
REMARK INTER:                  -7.220
REMARK INTRA:                  -1.975
REMARK UNBOUND:                -1.975
REMARK SMILES CCCCCCCCCCCCCCCC(=O)[O-]
REMARK SMILES IDX 9 1 10 2 11 3 12 4 13 5 14 6 15 7 16 8 17 9 18 10 8 11 7 12
REMARK SMILES IDX 6 13 5 14 4 15 3 16 2 17 1 18
REMARK H PARENT
REMARK Flexibility Score: inf
ROOT
ATOM      1  C   UNL     1      11.926  27.287  34.486  1.00  0.00     0.000 C 
ENDROOT
BRANCH   1   2
ATOM      2  C   UNL     1      12.884  26.095  34.637  1.00  0.00     0.000 C 
BRANCH   2   3
ATOM      3  C   UNL     1      12.971  25.243  33.359  1.00  0.00     0.000 C 
BRANCH   3   4
ATOM      4  C   UNL     1      14.408  24.799  33.030  1.00  0.00     0.000 C 
BRANCH   4   5
ATOM      5  C   UNL     1      15.319  24.575  34.251  1.00  0.00     0.000 C 
BRANCH   5   6
ATOM      6  C   UNL     1      16.493  23.625  33.960  1.00  0.00     0.006 C 
BRANCH   6   7
ATOM      7  C   UNL     1      16.028  22.306  33.330  1.00  0.00     0.053 C 
BRANCH   7   8
ATOM      8  C   UNL     1      15.920  21.214  34.349  1.00  0.00     0.041 C 
ATOM      9  O   UNL     1      15.527  20.067  34.010  1.00  0.00    -0.550 OA
ATOM     10  O   UNL     1      16.288  21.454  35.668  1.00  0.00    -0.550 OA
ENDBRANCH   7   8
ENDBRANCH   6   7
ENDBRANCH   5   6
ENDBRANCH   4   5
ENDBRANCH   3   4
ENDBRANCH   2   3
ENDBRANCH   1   2
BRANCH   1  11
ATOM     11  C   UNL     1      11.547  27.921  35.837  1.00  0.00     0.000 C 
BRANCH  11  12
ATOM     12  C   UNL     1      11.913  29.411  35.916  1.00  0.00    -0.000 C 
BRANCH  12  13
ATOM     13  C   UNL     1      13.192  29.661  36.734  1.00  0.00    -0.000 C 
BRANCH  13  14
ATOM     14  C   UNL     1      14.464  29.602  35.870  1.00  0.00    -0.000 C 
BRANCH  14  15
ATOM     15  C   UNL     1      15.396  28.443  36.266  1.00  0.00    -0.000 C 
BRANCH  15  16
ATOM     16  C   UNL     1      16.242  27.937  35.086  1.00  0.00    -0.000 C 
BRANCH  16  17
ATOM     17  C   UNL     1      15.671  28.365  33.726  1.00  0.00    -0.003 C 
ATOM     18  C   UNL     1      16.511  27.812  32.579  1.00  0.00     0.004 C 
ENDBRANCH  16  17
ENDBRANCH  15  16
ENDBRANCH  14  15
ENDBRANCH  13  14
ENDBRANCH  12  13
ENDBRANCH  11  12
ENDBRANCH   1  11
TORSDOF 14
ENDMDL
MODEL 2
REMARK VINA RESULT:    -3.958      3.525      6.023
REMARK INTER + INTRA:          -9.172
REMARK INTER:                  -7.681
REMARK INTRA:                  -1.491
REMARK UNBOUND:                -1.975
REMARK SMILES CCCCCCCCCCCCCCCC(=O)[O-]
REMARK SMILES IDX 9 1 10 2 11 3 12 4 13 5 14 6 15 7 16 8 17 9 18 10 8 11 7 12
REMARK SMILES IDX 6 13 5 14 4 15 3 16 2 17 1 18
REMARK H PARENT
REMARK Flexibility Score: inf
ROOT
ATOM      1  C   UNL     1      11.479  27.856  35.624  1.00  0.00     0.000 C 
ENDROOT
BRANCH   1   2
ATOM      2  C   UNL     1      12.092  29.219  35.987  1.00  0.00     0.000 C 
BRANCH   2   3
ATOM      3  C   UNL     1      13.539  29.099  36.493  1.00  0.00     0.000 C 
BRANCH   3   4
ATOM      4  C   UNL     1      14.544  29.885  35.631  1.00  0.00     0.000 C 
BRANCH   4   5
ATOM      5  C   UNL     1      15.528  29.019  34.823  1.00  0.00     0.000 C 
BRANCH   5   6
ATOM      6  C   UNL     1      16.324  29.826  33.783  1.00  0.00     0.006 C 
BRANCH   6   7
ATOM      7  C   UNL     1      16.769  28.962  32.596  1.00  0.00     0.053 C 
BRANCH   7   8
ATOM      8  C   UNL     1      16.773  29.740  31.316  1.00  0.00     0.041 C 
ATOM      9  O   UNL     1      17.039  29.166  30.227  1.00  0.00    -0.550 OA
ATOM     10  O   UNL     1      16.446  31.090  31.322  1.00  0.00    -0.550 OA
ENDBRANCH   7   8
ENDBRANCH   6   7
ENDBRANCH   5   6
ENDBRANCH   4   5
ENDBRANCH   3   4
ENDBRANCH   2   3
ENDBRANCH   1   2
BRANCH   1  11
ATOM     11  C   UNL     1      12.075  27.260  34.336  1.00  0.00     0.000 C 
BRANCH  11  12
ATOM     12  C   UNL     1      12.802  25.928  34.580  1.00  0.00    -0.000 C 
BRANCH  12  13
ATOM     13  C   UNL     1      13.487  25.390  33.312  1.00  0.00    -0.000 C 
BRANCH  13  14
ATOM     14  C   UNL     1      14.935  25.888  33.168  1.00  0.00    -0.000 C 
BRANCH  14  15
ATOM     15  C   UNL     1      15.970  24.763  33.346  1.00  0.00    -0.000 C 
BRANCH  15  16
ATOM     16  C   UNL     1      15.334  23.364  33.300  1.00  0.00    -0.000 C 
BRANCH  16  17
ATOM     17  C   UNL     1      15.638  22.537  34.558  1.00  0.00    -0.003 C 
ATOM     18  C   UNL     1      15.253  23.299  35.822  1.00  0.00     0.004 C 
ENDBRANCH  16  17
ENDBRANCH  15  16
ENDBRANCH  14  15
ENDBRANCH  13  14
ENDBRANCH  12  13
ENDBRANCH  11  12
ENDBRANCH   1  11
TORSDOF 14
ENDMDL
MODEL 3
REMARK VINA RESULT:    -3.886      1.982      3.277
REMARK INTER + INTRA:          -9.041
REMARK INTER:                  -8.180
REMARK INTRA:                  -0.862
REMARK UNBOUND:                -1.975
REMARK SMILES CCCCCCCCCCCCCCCC(=O)[O-]
REMARK SMILES IDX 9 1 10 2 11 3 12 4 13 5 14 6 15 7 16 8 17 9 18 10 8 11 7 12
REMARK SMILES IDX 6 13 5 14 4 15 3 16 2 17 1 18
REMARK H PARENT
REMARK Flexibility Score: inf
ROOT
ATOM      1  C   UNL     1      13.142  27.066  34.141  1.00  0.00     0.000 C 
ENDROOT
BRANCH   1   2
ATOM      2  C   UNL     1      12.843  25.598  33.793  1.00  0.00     0.000 C 
BRANCH   2   3
ATOM      3  C   UNL     1      14.008  24.918  33.054  1.00  0.00     0.000 C 
BRANCH   3   4
ATOM      4  C   UNL     1      14.889  24.062  33.981  1.00  0.00     0.000 C 
BRANCH   4   5
ATOM      5  C   UNL     1      15.748  23.001  33.269  1.00  0.00     0.000 C 
BRANCH   5   6
ATOM      6  C   UNL     1      16.590  22.157  34.241  1.00  0.00     0.006 C 
BRANCH   6   7
ATOM      7  C   UNL     1      15.761  21.634  35.420  1.00  0.00     0.053 C 
BRANCH   7   8
ATOM      8  C   UNL     1      15.557  20.151  35.339  1.00  0.00     0.041 C 
ATOM      9  O   UNL     1      15.620  19.446  36.380  1.00  0.00    -0.550 OA
ATOM     10  O   UNL     1      15.262  19.555  34.120  1.00  0.00    -0.550 OA
ENDBRANCH   7   8
ENDBRANCH   6   7
ENDBRANCH   5   6
ENDBRANCH   4   5
ENDBRANCH   3   4
ENDBRANCH   2   3
ENDBRANCH   1   2
BRANCH   1  11
ATOM     11  C   UNL     1      14.469  27.238  34.903  1.00  0.00     0.000 C 
BRANCH  11  12
ATOM     12  C   UNL     1      15.417  28.239  34.223  1.00  0.00    -0.000 C 
BRANCH  12  13
ATOM     13  C   UNL     1      16.435  27.550  33.297  1.00  0.00    -0.000 C 
BRANCH  13  14
ATOM     14  C   UNL     1      16.799  28.412  32.076  1.00  0.00    -0.000 C 
BRANCH  14  15
ATOM     15  C   UNL     1      16.615  29.918  32.338  1.00  0.00    -0.000 C 
BRANCH  15  16
ATOM     16  C   UNL     1      16.778  30.762  31.063  1.00  0.00    -0.000 C 
BRANCH  16  17
ATOM     17  C   UNL     1      16.701  29.917  29.783  1.00  0.00    -0.003 C 
ATOM     18  C   UNL     1      16.238  30.758  28.598  1.00  0.00     0.004 C 
ENDBRANCH  16  17
ENDBRANCH  15  16
ENDBRANCH  14  15
ENDBRANCH  13  14
ENDBRANCH  12  13
ENDBRANCH  11  12
ENDBRANCH   1  11
TORSDOF 14
ENDMDL
MODEL 4
REMARK VINA RESULT:    -3.879      0.987      1.867
REMARK INTER + INTRA:          -9.028
REMARK INTER:                  -7.165
REMARK INTRA:                  -1.863
REMARK UNBOUND:                -1.975
REMARK SMILES CCCCCCCCCCCCCCCC(=O)[O-]
REMARK SMILES IDX 9 1 10 2 11 3 12 4 13 5 14 6 15 7 16 8 17 9 18 10 8 11 7 12
REMARK SMILES IDX 6 13 5 14 4 15 3 16 2 17 1 18
REMARK H PARENT
REMARK Flexibility Score: inf
ROOT
ATOM      1  C   UNL     1      12.460  27.030  34.474  1.00  0.00     0.000 C 
ENDROOT
BRANCH   1   2
ATOM      2  C   UNL     1      13.105  25.635  34.412  1.00  0.00     0.000 C 
BRANCH   2   3
ATOM      3  C   UNL     1      13.619  25.285  33.006  1.00  0.00     0.000 C 
BRANCH   3   4
ATOM      4  C   UNL     1      14.795  24.291  33.026  1.00  0.00     0.000 C 
BRANCH   4   5
ATOM      5  C   UNL     1      15.659  24.328  34.299  1.00  0.00     0.000 C 
BRANCH   5   6
ATOM      6  C   UNL     1      16.729  23.224  34.332  1.00  0.00     0.006 C 
BRANCH   6   7
ATOM      7  C   UNL     1      16.287  21.966  33.575  1.00  0.00     0.053 C 
BRANCH   7   8
ATOM      8  C   UNL     1      15.900  20.863  34.513  1.00  0.00     0.041 C 
ATOM      9  O   UNL     1      15.895  19.668  34.117  1.00  0.00    -0.550 OA
ATOM     10  O   UNL     1      15.580  21.153  35.833  1.00  0.00    -0.550 OA
ENDBRANCH   7   8
ENDBRANCH   6   7
ENDBRANCH   5   6
ENDBRANCH   4   5
ENDBRANCH   3   4
ENDBRANCH   2   3
ENDBRANCH   1   2
BRANCH   1  11
ATOM     11  C   UNL     1      12.954  27.860  35.674  1.00  0.00     0.000 C 
BRANCH  11  12
ATOM     12  C   UNL     1      14.256  28.619  35.373  1.00  0.00    -0.000 C 
BRANCH  12  13
ATOM     13  C   UNL     1      15.504  27.866  35.866  1.00  0.00    -0.000 C 
BRANCH  13  14
ATOM     14  C   UNL     1      16.620  27.820  34.809  1.00  0.00    -0.000 C 
BRANCH  14  15
ATOM     15  C   UNL     1      16.089  28.013  33.377  1.00  0.00    -0.000 C 
BRANCH  15  16
ATOM     16  C   UNL     1      17.125  27.632  32.307  1.00  0.00    -0.000 C 
BRANCH  16  17
ATOM     17  C   UNL     1      17.125  28.601  31.116  1.00  0.00    -0.003 C 
ATOM     18  C   UNL     1      16.808  30.024  31.566  1.00  0.00     0.004 C 
ENDBRANCH  16  17
ENDBRANCH  15  16
ENDBRANCH  14  15
ENDBRANCH  13  14
ENDBRANCH  12  13
ENDBRANCH  11  12
ENDBRANCH   1  11
TORSDOF 14
ENDMDL
MODEL 5
REMARK VINA RESULT:    -3.847      4.265      9.383
REMARK INTER + INTRA:          -8.971
REMARK INTER:                  -8.253
REMARK INTRA:                  -0.718
REMARK UNBOUND:                -1.975
REMARK SMILES CCCCCCCCCCCCCCCC(=O)[O-]
REMARK SMILES IDX 9 1 10 2 11 3 12 4 13 5 14 6 15 7 16 8 17 9 18 10 8 11 7 12
REMARK SMILES IDX 6 13 5 14 4 15 3 16 2 17 1 18
REMARK H PARENT
REMARK Flexibility Score: inf
ROOT
ATOM      1  C   UNL     1      16.813  20.886  33.876  1.00  0.00     0.000 C 
ENDROOT
BRANCH   1   2
ATOM      2  C   UNL     1      16.719  22.382  34.220  1.00  0.00     0.000 C 
BRANCH   2   3
ATOM      3  C   UNL     1      15.726  23.134  33.318  1.00  0.00     0.000 C 
BRANCH   3   4
ATOM      4  C   UNL     1      15.165  24.409  33.974  1.00  0.00     0.000 C 
BRANCH   4   5
ATOM      5  C   UNL     1      14.251  25.259  33.072  1.00  0.00     0.000 C 
BRANCH   5   6
ATOM      6  C   UNL     1      12.780  25.240  33.520  1.00  0.00     0.006 C 
BRANCH   6   7
ATOM      7  C   UNL     1      12.268  26.638  33.885  1.00  0.00     0.053 C 
BRANCH   7   8
ATOM      8  C   UNL     1      12.233  26.845  35.369  1.00  0.00     0.041 C 
ATOM      9  O   UNL     1      12.799  26.024  36.136  1.00  0.00    -0.550 OA
ATOM     10  O   UNL     1      11.606  27.965  35.900  1.00  0.00    -0.550 OA
ENDBRANCH   7   8
ENDBRANCH   6   7
ENDBRANCH   5   6
ENDBRANCH   4   5
ENDBRANCH   3   4
ENDBRANCH   2   3
ENDBRANCH   1   2
BRANCH   1  11
ATOM     11  C   UNL     1      15.472  20.149  34.058  1.00  0.00     0.000 C 
BRANCH  11  12
ATOM     12  C   UNL     1      15.602  18.891  34.931  1.00  0.00    -0.000 C 
BRANCH  12  13
ATOM     13  C   UNL     1      16.875  18.086  34.619  1.00  0.00    -0.000 C 
BRANCH  13  14
ATOM     14  C   UNL     1      16.572  16.627  34.238  1.00  0.00    -0.000 C 
BRANCH  14  15
ATOM     15  C   UNL     1      15.119  16.224  34.546  1.00  0.00    -0.000 C 
BRANCH  15  16
ATOM     16  C   UNL     1      14.735  14.874  33.918  1.00  0.00    -0.000 C 
BRANCH  16  17
ATOM     17  C   UNL     1      15.689  14.458  32.788  1.00  0.00    -0.003 C 
ATOM     18  C   UNL     1      15.132  13.269  32.011  1.00  0.00     0.004 C 
ENDBRANCH  16  17
ENDBRANCH  15  16
ENDBRANCH  14  15
ENDBRANCH  13  14
ENDBRANCH  12  13
ENDBRANCH  11  12
ENDBRANCH   1  11
TORSDOF 14
ENDMDL
MODEL 6
REMARK VINA RESULT:    -3.814      1.386      2.672
REMARK INTER + INTRA:          -8.911
REMARK INTER:                  -6.842
REMARK INTRA:                  -2.069
REMARK UNBOUND:                -1.975
REMARK SMILES CCCCCCCCCCCCCCCC(=O)[O-]
REMARK SMILES IDX 9 1 10 2 11 3 12 4 13 5 14 6 15 7 16 8 17 9 18 10 8 11 7 12
REMARK SMILES IDX 6 13 5 14 4 15 3 16 2 17 1 18
REMARK H PARENT
REMARK Flexibility Score: inf
ROOT
ATOM      1  C   UNL     1      14.208  25.145  32.999  1.00  0.00     0.000 C 
ENDROOT
BRANCH   1   2
ATOM      2  C   UNL     1      14.837  23.799  33.396  1.00  0.00     0.000 C 
BRANCH   2   3
ATOM      3  C   UNL     1      16.020  23.964  34.365  1.00  0.00     0.000 C 
BRANCH   3   4
ATOM      4  C   UNL     1      15.577  24.137  35.830  1.00  0.00     0.000 C 
BRANCH   4   5
ATOM      5  C   UNL     1      15.009  22.869  36.494  1.00  0.00     0.000 C 
BRANCH   5   6
ATOM      6  C   UNL     1      15.970  21.671  36.422  1.00  0.00     0.006 C 
BRANCH   6   7
ATOM      7  C   UNL     1      15.231  20.349  36.178  1.00  0.00     0.053 C 
BRANCH   7   8
ATOM      8  C   UNL     1      15.620  19.731  34.870  1.00  0.00     0.041 C 
ATOM      9  O   UNL     1      15.607  20.419  33.815  1.00  0.00    -0.550 OA
ATOM     10  O   UNL     1      16.031  18.405  34.822  1.00  0.00    -0.550 OA
ENDBRANCH   7   8
ENDBRANCH   6   7
ENDBRANCH   5   6
ENDBRANCH   4   5
ENDBRANCH   3   4
ENDBRANCH   2   3
ENDBRANCH   1   2
BRANCH   1  11
ATOM     11  C   UNL     1      12.719  25.241  33.378  1.00  0.00     0.000 C 
BRANCH  11  12
ATOM     12  C   UNL     1      12.362  26.580  34.042  1.00  0.00    -0.000 C 
BRANCH  12  13
ATOM     13  C   UNL     1      13.103  26.793  35.374  1.00  0.00    -0.000 C 
BRANCH  13  14
ATOM     14  C   UNL     1      13.945  28.080  35.380  1.00  0.00    -0.000 C 
BRANCH  14  15
ATOM     15  C   UNL     1      15.400  27.835  35.820  1.00  0.00    -0.000 C 
BRANCH  15  16
ATOM     16  C   UNL     1      16.421  28.416  34.829  1.00  0.00    -0.000 C 
BRANCH  16  17
ATOM     17  C   UNL     1      15.982  28.253  33.367  1.00  0.00    -0.003 C 
ATOM     18  C   UNL     1      16.992  27.423  32.580  1.00  0.00     0.004 C 
ENDBRANCH  16  17
ENDBRANCH  15  16
ENDBRANCH  14  15
ENDBRANCH  13  14
ENDBRANCH  12  13
ENDBRANCH  11  12
ENDBRANCH   1  11
TORSDOF 14
ENDMDL
MODEL 7
REMARK VINA RESULT:    -3.807      2.701      6.010
REMARK INTER + INTRA:          -8.897
REMARK INTER:                  -7.443
REMARK INTRA:                  -1.455
REMARK UNBOUND:                -1.975
REMARK SMILES CCCCCCCCCCCCCCCC(=O)[O-]
REMARK SMILES IDX 9 1 10 2 11 3 12 4 13 5 14 6 15 7 16 8 17 9 18 10 8 11 7 12
REMARK SMILES IDX 6 13 5 14 4 15 3 16 2 17 1 18
REMARK H PARENT
REMARK Flexibility Score: inf
ROOT
ATOM      1  C   UNL     1      11.658  27.312  34.066  1.00  0.00     0.000 C 
ENDROOT
BRANCH   1   2
ATOM      2  C   UNL     1      11.151  28.273  35.154  1.00  0.00     0.000 C 
BRANCH   2   3
ATOM      3  C   UNL     1      12.063  28.297  36.392  1.00  0.00     0.000 C 
BRANCH   3   4
ATOM      4  C   UNL     1      13.024  29.499  36.407  1.00  0.00     0.000 C 
BRANCH   4   5
ATOM      5  C   UNL     1      14.521  29.138  36.442  1.00  0.00     0.000 C 
BRANCH   5   6
ATOM      6  C   UNL     1      15.230  29.384  35.099  1.00  0.00     0.006 C 
BRANCH   6   7
ATOM      7  C   UNL     1      15.918  28.121  34.568  1.00  0.00     0.053 C 
BRANCH   7   8
ATOM      8  C   UNL     1      16.329  28.276  33.135  1.00  0.00     0.041 C 
ATOM      9  O   UNL     1      16.588  27.260  32.437  1.00  0.00    -0.550 OA
ATOM     10  O   UNL     1      16.391  29.540  32.562  1.00  0.00    -0.550 OA
ENDBRANCH   7   8
ENDBRANCH   6   7
ENDBRANCH   5   6
ENDBRANCH   4   5
ENDBRANCH   3   4
ENDBRANCH   2   3
ENDBRANCH   1   2
BRANCH   1  11
ATOM     11  C   UNL     1      12.678  26.291  34.603  1.00  0.00     0.000 C 
BRANCH  11  12
ATOM     12  C   UNL     1      13.371  25.500  33.482  1.00  0.00    -0.000 C 
BRANCH  12  13
ATOM     13  C   UNL     1      14.545  24.651  34.000  1.00  0.00    -0.000 C 
BRANCH  13  14
ATOM     14  C   UNL     1      15.184  23.793  32.895  1.00  0.00    -0.000 C 
BRANCH  14  15
ATOM     15  C   UNL     1      16.036  22.641  33.457  1.00  0.00    -0.000 C 
BRANCH  15  16
ATOM     16  C   UNL     1      15.657  22.278  34.902  1.00  0.00    -0.000 C 
BRANCH  16  17
ATOM     17  C   UNL     1      16.098  20.858  35.288  1.00  0.00    -0.003 C 
ATOM     18  C   UNL     1      15.514  19.823  34.332  1.00  0.00     0.004 C 
ENDBRANCH  16  17
ENDBRANCH  15  16
ENDBRANCH  14  15
ENDBRANCH  13  14
ENDBRANCH  12  13
ENDBRANCH  11  12
ENDBRANCH   1  11
TORSDOF 14
ENDMDL
MODEL 8
REMARK VINA RESULT:    -3.776      3.029      6.356
REMARK INTER + INTRA:          -8.842
REMARK INTER:                  -6.977
REMARK INTRA:                  -1.865
REMARK UNBOUND:                -1.975
REMARK SMILES CCCCCCCCCCCCCCCC(=O)[O-]
REMARK SMILES IDX 9 1 10 2 11 3 12 4 13 5 14 6 15 7 16 8 17 9 18 10 8 11 7 12
REMARK SMILES IDX 6 13 5 14 4 15 3 16 2 17 1 18
REMARK H PARENT
REMARK Flexibility Score: inf
ROOT
ATOM      1  C   UNL     1      15.332  27.869  33.761  1.00  0.00     0.000 C 
ENDROOT
BRANCH   1   2
ATOM      2  C   UNL     1      15.484  28.644  35.080  1.00  0.00     0.000 C 
BRANCH   2   3
ATOM      3  C   UNL     1      16.023  27.766  36.222  1.00  0.00     0.000 C 
BRANCH   3   4
ATOM      4  C   UNL     1      14.910  27.202  37.124  1.00  0.00     0.000 C 
BRANCH   4   5
ATOM      5  C   UNL     1      14.424  25.788  36.755  1.00  0.00     0.000 C 
BRANCH   5   6
ATOM      6  C   UNL     1      13.005  25.776  36.161  1.00  0.00     0.006 C 
BRANCH   6   7
ATOM      7  C   UNL     1      12.272  27.104  36.385  1.00  0.00     0.053 C 
BRANCH   7   8
ATOM      8  C   UNL     1      11.707  27.647  35.107  1.00  0.00     0.041 C 
ATOM      9  O   UNL     1      11.931  27.061  34.016  1.00  0.00    -0.550 OA
ATOM     10  O   UNL     1      10.902  28.779  35.128  1.00  0.00    -0.550 OA
ENDBRANCH   7   8
ENDBRANCH   6   7
ENDBRANCH   5   6
ENDBRANCH   4   5
ENDBRANCH   3   4
ENDBRANCH   2   3
ENDBRANCH   1   2
BRANCH   1  11
ATOM     11  C   UNL     1      16.625  27.143  33.346  1.00  0.00     0.000 C 
BRANCH  11  12
ATOM     12  C   UNL     1      16.486  25.613  33.391  1.00  0.00    -0.000 C 
BRANCH  12  13
ATOM     13  C   UNL     1      15.033  25.148  33.186  1.00  0.00    -0.000 C 
BRANCH  13  14
ATOM     14  C   UNL     1      14.881  23.622  33.303  1.00  0.00    -0.000 C 
BRANCH  14  15
ATOM     15  C   UNL     1      16.057  22.964  34.046  1.00  0.00    -0.000 C 
BRANCH  15  16
ATOM     16  C   UNL     1      16.163  21.456  33.765  1.00  0.00    -0.000 C 
BRANCH  16  17
ATOM     17  C   UNL     1      15.726  20.602  34.965  1.00  0.00    -0.003 C 
ATOM     18  C   UNL     1      15.328  19.197  34.522  1.00  0.00     0.004 C 
ENDBRANCH  16  17
ENDBRANCH  15  16
ENDBRANCH  14  15
ENDBRANCH  13  14
ENDBRANCH  12  13
ENDBRANCH  11  12
ENDBRANCH   1  11
TORSDOF 14
ENDMDL
MODEL 9
REMARK VINA RESULT:    -3.602      2.984      6.232
REMARK INTER + INTRA:          -8.526
REMARK INTER:                  -6.721
REMARK INTRA:                  -1.805
REMARK UNBOUND:                -1.975
REMARK SMILES CCCCCCCCCCCCCCCC(=O)[O-]
REMARK SMILES IDX 9 1 10 2 11 3 12 4 13 5 14 6 15 7 16 8 17 9 18 10 8 11 7 12
REMARK SMILES IDX 6 13 5 14 4 15 3 16 2 17 1 18
REMARK H PARENT
REMARK Flexibility Score: inf
ROOT
ATOM      1  C   UNL     1      14.134  25.230  33.027  1.00  0.00     0.000 C 
ENDROOT
BRANCH   1   2
ATOM      2  C   UNL     1      12.657  25.326  33.443  1.00  0.00     0.000 C 
BRANCH   2   3
ATOM      3  C   UNL     1      12.307  26.689  34.063  1.00  0.00     0.000 C 
BRANCH   3   4
ATOM      4  C   UNL     1      13.149  27.017  35.309  1.00  0.00     0.000 C 
BRANCH   4   5
ATOM      5  C   UNL     1      13.243  28.514  35.658  1.00  0.00     0.000 C 
BRANCH   5   6
ATOM      6  C   UNL     1      14.675  29.067  35.553  1.00  0.00     0.006 C 
BRANCH   6   7
ATOM      7  C   UNL     1      15.620  28.094  34.836  1.00  0.00     0.053 C 
BRANCH   7   8
ATOM      8  C   UNL     1      16.102  28.651  33.532  1.00  0.00     0.041 C 
ATOM      9  O   UNL     1      16.316  27.884  32.556  1.00  0.00    -0.550 OA
ATOM     10  O   UNL     1      16.281  30.020  33.383  1.00  0.00    -0.550 OA
ENDBRANCH   7   8
ENDBRANCH   6   7
ENDBRANCH   5   6
ENDBRANCH   4   5
ENDBRANCH   3   4
ENDBRANCH   2   3
ENDBRANCH   1   2
BRANCH   1  11
ATOM     11  C   UNL     1      14.842  24.000  33.626  1.00  0.00     0.000 C 
BRANCH  11  12
ATOM     12  C   UNL     1      15.570  24.319  34.942  1.00  0.00    -0.000 C 
BRANCH  12  13
ATOM     13  C   UNL     1      15.056  23.471  36.119  1.00  0.00    -0.000 C 
BRANCH  13  14
ATOM     14  C   UNL     1      16.197  22.808  36.909  1.00  0.00    -0.000 C 
BRANCH  14  15
ATOM     15  C   UNL     1      16.670  21.489  36.272  1.00  0.00    -0.000 C 
BRANCH  15  16
ATOM     16  C   UNL     1      15.519  20.695  35.633  1.00  0.00    -0.000 C 
BRANCH  16  17
ATOM     17  C   UNL     1      15.808  20.308  34.176  1.00  0.00    -0.003 C 
ATOM     18  C   UNL     1      17.031  21.049  33.643  1.00  0.00     0.004 C 
ENDBRANCH  16  17
ENDBRANCH  15  16
ENDBRANCH  14  15
ENDBRANCH  13  14
ENDBRANCH  12  13
ENDBRANCH  11  12
ENDBRANCH   1  11
TORSDOF 14
ENDMDL
