MODEL 1
REMARK VINA RESULT:    -4.623      0.000      0.000
REMARK INTER + INTRA:          -9.804
REMARK INTER:                  -8.406
REMARK INTRA:                  -1.398
REMARK UNBOUND:                -1.398
REMARK SMILES CCCCCCCCCCCCCCCC(=O)[O-]
REMARK SMILES IDX 9 1 10 2 11 3 12 4 13 5 14 6 15 7 16 8 17 9 18 10 8 11 7 12
REMARK SMILES IDX 6 13 5 14 4 15 3 16 2 17 1 18
REMARK H PARENT
REMARK Flexibility Score: inf
ROOT
ATOM      1  C   UNL     1     -10.341  -7.178  16.411  1.00  0.00     0.000 C 
ENDROOT
BRANCH   1   2
ATOM      2  C   UNL     1     -10.982  -5.961  15.712  1.00  0.00     0.000 C 
BRANCH   2   3
ATOM      3  C   UNL     1     -10.396  -5.608  14.333  1.00  0.00     0.000 C 
BRANCH   3   4
ATOM      4  C   UNL     1      -8.859  -5.640  14.312  1.00  0.00     0.000 C 
BRANCH   4   5
ATOM      5  C   UNL     1      -8.243  -4.306  13.854  1.00  0.00     0.000 C 
BRANCH   5   6
ATOM      6  C   UNL     1      -9.080  -3.069  14.243  1.00  0.00     0.006 C 
BRANCH   6   7
ATOM      7  C   UNL     1      -9.288  -2.117  13.059  1.00  0.00     0.053 C 
BRANCH   7   8
ATOM      8  C   UNL     1     -10.725  -1.720  12.948  1.00  0.00     0.041 C 
ATOM      9  O   UNL     1     -11.104  -0.588  13.351  1.00  0.00    -0.550 OA
ATOM     10  O   UNL     1     -11.657  -2.620  12.447  1.00  0.00    -0.550 OA
ENDBRANCH   7   8
ENDBRANCH   6   7
ENDBRANCH   5   6
ENDBRANCH   4   5
ENDBRANCH   3   4
ENDBRANCH   2   3
ENDBRANCH   1   2
BRANCH   1  11
ATOM     11  C   UNL     1     -11.112  -7.716  17.629  1.00  0.00     0.000 C 
BRANCH  11  12
ATOM     12  C   UNL     1     -11.429  -9.214  17.519  1.00  0.00    -0.000 C 
BRANCH  12  13
ATOM     13  C   UNL     1     -10.719 -10.008  18.622  1.00  0.00    -0.000 C 
BRANCH  13  14
ATOM     14  C   UNL     1      -9.518 -10.780  18.056  1.00  0.00    -0.000 C 
BRANCH  14  15
ATOM     15  C   UNL     1      -8.168 -10.189  18.496  1.00  0.00    -0.000 C 
BRANCH  15  16
ATOM     16  C   UNL     1      -7.522  -9.224  17.484  1.00  0.00    -0.000 C 
BRANCH  16  17
ATOM     17  C   UNL     1      -6.745  -8.063  18.138  1.00  0.00    -0.003 C 
ATOM     18  C   UNL     1      -7.611  -7.246  19.099  1.00  0.00     0.004 C 
ENDBRANCH  16  17
ENDBRANCH  15  16
ENDBRANCH  14  15
ENDBRANCH  13  14
ENDBRANCH  12  13
ENDBRANCH  11  12
ENDBRANCH   1  11
TORSDOF 14
ENDMDL
MODEL 2
REMARK VINA RESULT:    -4.384      1.411      3.251
REMARK INTER + INTRA:          -9.371
REMARK INTER:                  -7.735
REMARK INTRA:                  -1.636
REMARK UNBOUND:                -1.398
REMARK SMILES CCCCCCCCCCCCCCCC(=O)[O-]
REMARK SMILES IDX 9 1 10 2 11 3 12 4 13 5 14 6 15 7 16 8 17 9 18 10 8 11 7 12
REMARK SMILES IDX 6 13 5 14 4 15 3 16 2 17 1 18
REMARK H PARENT
REMARK Flexibility Score: inf
ROOT
ATOM      1  C   UNL     1      -6.943  -6.975  14.174  1.00  0.00     0.000 C 
ENDROOT
BRANCH   1   2
ATOM      2  C   UNL     1      -8.297  -7.689  13.979  1.00  0.00     0.000 C 
BRANCH   2   3
ATOM      3  C   UNL     1      -9.495  -6.765  13.694  1.00  0.00     0.000 C 
BRANCH   3   4
ATOM      4  C   UNL     1      -9.851  -5.863  14.887  1.00  0.00     0.000 C 
BRANCH   4   5
ATOM      5  C   UNL     1     -10.295  -4.454  14.456  1.00  0.00     0.000 C 
BRANCH   5   6
ATOM      6  C   UNL     1      -9.123  -3.473  14.241  1.00  0.00     0.006 C 
BRANCH   6   7
ATOM      7  C   UNL     1      -9.326  -2.594  13.000  1.00  0.00     0.053 C 
BRANCH   7   8
ATOM      8  C   UNL     1     -10.614  -1.839  13.096  1.00  0.00     0.041 C 
ATOM      9  O   UNL     1     -11.597  -2.170  12.382  1.00  0.00    -0.550 OA
ATOM     10  O   UNL     1     -10.712  -0.738  13.937  1.00  0.00    -0.550 OA
ENDBRANCH   7   8
ENDBRANCH   6   7
ENDBRANCH   5   6
ENDBRANCH   4   5
ENDBRANCH   3   4
ENDBRANCH   2   3
ENDBRANCH   1   2
BRANCH   1  11
ATOM     11  C   UNL     1      -6.057  -7.546  15.295  1.00  0.00     0.000 C 
BRANCH  11  12
ATOM     12  C   UNL     1      -6.845  -8.387  16.308  1.00  0.00    -0.000 C 
BRANCH  12  13
ATOM     13  C   UNL     1      -6.500  -7.981  17.746  1.00  0.00    -0.000 C 
BRANCH  13  14
ATOM     14  C   UNL     1      -7.742  -7.449  18.478  1.00  0.00    -0.000 C 
BRANCH  14  15
ATOM     15  C   UNL     1      -8.773  -8.549  18.781  1.00  0.00    -0.000 C 
BRANCH  15  16
ATOM     16  C   UNL     1     -10.239  -8.154  18.518  1.00  0.00    -0.000 C 
BRANCH  16  17
ATOM     17  C   UNL     1     -10.718  -8.461  17.085  1.00  0.00    -0.003 C 
ATOM     18  C   UNL     1     -10.275  -9.843  16.602  1.00  0.00     0.004 C 
ENDBRANCH  16  17
ENDBRANCH  15  16
ENDBRANCH  14  15
ENDBRANCH  13  14
ENDBRANCH  12  13
ENDBRANCH  11  12
ENDBRANCH   1  11
TORSDOF 14
ENDMDL
MODEL 3
REMARK VINA RESULT:    -4.374      1.187      1.763
REMARK INTER + INTRA:          -9.351
REMARK INTER:                  -7.648
REMARK INTRA:                  -1.703
REMARK UNBOUND:                -1.398
REMARK SMILES CCCCCCCCCCCCCCCC(=O)[O-]
REMARK SMILES IDX 9 1 10 2 11 3 12 4 13 5 14 6 15 7 16 8 17 9 18 10 8 11 7 12
REMARK SMILES IDX 6 13 5 14 4 15 3 16 2 17 1 18
REMARK H PARENT
REMARK Flexibility Score: inf
ROOT
ATOM      1  C   UNL     1      -9.230  -8.795  14.952  1.00  0.00     0.000 C 
ENDROOT
BRANCH   1   2
ATOM      2  C   UNL     1      -9.969  -7.622  15.630  1.00  0.00     0.000 C 
BRANCH   2   3
ATOM      3  C   UNL     1      -9.716  -6.236  15.010  1.00  0.00     0.000 C 
BRANCH   3   4
ATOM      4  C   UNL     1      -8.255  -6.034  14.576  1.00  0.00     0.000 C 
BRANCH   4   5
ATOM      5  C   UNL     1      -8.073  -4.823  13.645  1.00  0.00     0.000 C 
BRANCH   5   6
ATOM      6  C   UNL     1      -8.797  -3.550  14.134  1.00  0.00     0.006 C 
BRANCH   6   7
ATOM      7  C   UNL     1      -9.114  -2.587  12.982  1.00  0.00     0.053 C 
BRANCH   7   8
ATOM      8  C   UNL     1     -10.468  -1.979  13.163  1.00  0.00     0.041 C 
ATOM      9  O   UNL     1     -11.460  -2.445  12.541  1.00  0.00    -0.550 OA
ATOM     10  O   UNL     1     -10.627  -0.868  13.980  1.00  0.00    -0.550 OA
ENDBRANCH   7   8
ENDBRANCH   6   7
ENDBRANCH   5   6
ENDBRANCH   4   5
ENDBRANCH   3   4
ENDBRANCH   2   3
ENDBRANCH   1   2
BRANCH   1  11
ATOM     11  C   UNL     1      -9.486 -10.178  15.574  1.00  0.00     0.000 C 
BRANCH  11  12
ATOM     12  C   UNL     1     -10.736 -10.209  16.465  1.00  0.00    -0.000 C 
BRANCH  12  13
ATOM     13  C   UNL     1     -10.380 -10.634  17.895  1.00  0.00    -0.000 C 
BRANCH  13  14
ATOM     14  C   UNL     1      -9.926  -9.426  18.729  1.00  0.00    -0.000 C 
BRANCH  14  15
ATOM     15  C   UNL     1      -8.403  -9.383  18.938  1.00  0.00    -0.000 C 
BRANCH  15  16
ATOM     16  C   UNL     1      -7.791  -7.969  18.962  1.00  0.00    -0.000 C 
BRANCH  16  17
ATOM     17  C   UNL     1      -6.952  -7.633  17.713  1.00  0.00    -0.003 C 
ATOM     18  C   UNL     1      -6.233  -8.856  17.143  1.00  0.00     0.004 C 
ENDBRANCH  16  17
ENDBRANCH  15  16
ENDBRANCH  14  15
ENDBRANCH  13  14
ENDBRANCH  12  13
ENDBRANCH  11  12
ENDBRANCH   1  11
TORSDOF 14
ENDMDL
MODEL 4
REMARK VINA RESULT:    -4.298      3.485      6.957
REMARK INTER + INTRA:          -9.213
REMARK INTER:                  -7.169
REMARK INTRA:                  -2.045
REMARK UNBOUND:                -1.398
REMARK SMILES CCCCCCCCCCCCCCCC(=O)[O-]
REMARK SMILES IDX 9 1 10 2 11 3 12 4 13 5 14 6 15 7 16 8 17 9 18 10 8 11 7 12
REMARK SMILES IDX 6 13 5 14 4 15 3 16 2 17 1 18
REMARK H PARENT
REMARK Flexibility Score: inf
ROOT
ATOM      1  C   UNL     1      -8.499  -8.697  13.916  1.00  0.00     0.000 C 
ENDROOT
BRANCH   1   2
ATOM      2  C   UNL     1      -8.871  -9.838  14.885  1.00  0.00     0.000 C 
BRANCH   2   3
ATOM      3  C   UNL     1     -10.368  -9.950  15.228  1.00  0.00     0.000 C 
BRANCH   3   4
ATOM      4  C   UNL     1     -10.638  -9.919  16.742  1.00  0.00     0.000 C 
BRANCH   4   5
ATOM      5  C   UNL     1     -10.926  -8.501  17.265  1.00  0.00     0.000 C 
BRANCH   5   6
ATOM      6  C   UNL     1     -10.088  -8.113  18.502  1.00  0.00     0.006 C 
BRANCH   6   7
ATOM      7  C   UNL     1      -8.854  -9.008  18.668  1.00  0.00     0.053 C 
BRANCH   7   8
ATOM      8  C   UNL     1      -7.600  -8.216  18.476  1.00  0.00     0.041 C 
ATOM      9  O   UNL     1      -6.671  -8.664  17.753  1.00  0.00    -0.550 OA
ATOM     10  O   UNL     1      -7.437  -7.005  19.136  1.00  0.00    -0.550 OA
ENDBRANCH   7   8
ENDBRANCH   6   7
ENDBRANCH   5   6
ENDBRANCH   4   5
ENDBRANCH   3   4
ENDBRANCH   2   3
ENDBRANCH   1   2
BRANCH   1  11
ATOM     11  C   UNL     1      -7.732  -7.523  14.549  1.00  0.00     0.000 C 
BRANCH  11  12
ATOM     12  C   UNL     1      -8.657  -6.509  15.237  1.00  0.00    -0.000 C 
BRANCH  12  13
ATOM     13  C   UNL     1      -9.890  -6.217  14.375  1.00  0.00    -0.000 C 
BRANCH  13  14
ATOM     14  C   UNL     1     -10.743  -5.101  14.997  1.00  0.00    -0.000 C 
BRANCH  14  15
ATOM     15  C   UNL     1     -11.050  -3.963  14.009  1.00  0.00    -0.000 C 
BRANCH  15  16
ATOM     16  C   UNL     1     -10.238  -2.672  14.234  1.00  0.00    -0.000 C 
BRANCH  16  17
ATOM     17  C   UNL     1      -9.274  -2.334  13.078  1.00  0.00    -0.003 C 
ATOM     18  C   UNL     1      -8.093  -3.302  12.998  1.00  0.00     0.004 C 
ENDBRANCH  16  17
ENDBRANCH  15  16
ENDBRANCH  14  15
ENDBRANCH  13  14
ENDBRANCH  12  13
ENDBRANCH  11  12
ENDBRANCH   1  11
TORSDOF 14
ENDMDL
MODEL 5
REMARK VINA RESULT:    -4.297      1.231      2.710
REMARK INTER + INTRA:          -9.213
REMARK INTER:                  -7.828
REMARK INTRA:                  -1.384
REMARK UNBOUND:                -1.398
REMARK SMILES CCCCCCCCCCCCCCCC(=O)[O-]
REMARK SMILES IDX 9 1 10 2 11 3 12 4 13 5 14 6 15 7 16 8 17 9 18 10 8 11 7 12
REMARK SMILES IDX 6 13 5 14 4 15 3 16 2 17 1 18
REMARK H PARENT
REMARK Flexibility Score: inf
ROOT
ATOM      1  C   UNL     1     -10.158  -7.566  16.843  1.00  0.00     0.000 C 
ENDROOT
BRANCH   1   2
ATOM      2  C   UNL     1      -9.817  -7.359  15.352  1.00  0.00     0.000 C 
BRANCH   2   3
ATOM      3  C   UNL     1      -9.893  -5.904  14.854  1.00  0.00     0.000 C 
BRANCH   3   4
ATOM      4  C   UNL     1      -8.827  -5.579  13.795  1.00  0.00     0.000 C 
BRANCH   4   5
ATOM      5  C   UNL     1      -8.142  -4.222  14.037  1.00  0.00     0.000 C 
BRANCH   5   6
ATOM      6  C   UNL     1      -8.682  -3.086  13.143  1.00  0.00     0.006 C 
BRANCH   6   7
ATOM      7  C   UNL     1      -9.583  -2.118  13.921  1.00  0.00     0.053 C 
BRANCH   7   8
ATOM      8  C   UNL     1     -10.761  -1.715  13.091  1.00  0.00     0.041 C 
ATOM      9  O   UNL     1     -11.507  -2.593  12.582  1.00  0.00    -0.550 OA
ATOM     10  O   UNL     1     -11.005  -0.371  12.839  1.00  0.00    -0.550 OA
ENDBRANCH   7   8
ENDBRANCH   6   7
ENDBRANCH   5   6
ENDBRANCH   4   5
ENDBRANCH   3   4
ENDBRANCH   2   3
ENDBRANCH   1   2
BRANCH   1  11
ATOM     11  C   UNL     1      -8.957  -7.874  17.754  1.00  0.00     0.000 C 
BRANCH  11  12
ATOM     12  C   UNL     1      -9.332  -8.748  18.959  1.00  0.00    -0.000 C 
BRANCH  12  13
ATOM     13  C   UNL     1      -8.514 -10.045  18.973  1.00  0.00    -0.000 C 
BRANCH  13  14
ATOM     14  C   UNL     1      -8.739 -10.849  17.683  1.00  0.00    -0.000 C 
BRANCH  14  15
ATOM     15  C   UNL     1     -10.057 -11.642  17.697  1.00  0.00    -0.000 C 
BRANCH  15  16
ATOM     16  C   UNL     1     -11.117 -11.154  16.691  1.00  0.00    -0.000 C 
BRANCH  16  17
ATOM     17  C   UNL     1     -12.317 -10.441  17.348  1.00  0.00    -0.003 C 
ATOM     18  C   UNL     1     -12.495 -10.828  18.816  1.00  0.00     0.004 C 
ENDBRANCH  16  17
ENDBRANCH  15  16
ENDBRANCH  14  15
ENDBRANCH  13  14
ENDBRANCH  12  13
ENDBRANCH  11  12
ENDBRANCH   1  11
TORSDOF 14
ENDMDL
MODEL 6
REMARK VINA RESULT:    -4.271      2.054      3.606
REMARK INTER + INTRA:          -9.164
REMARK INTER:                  -7.591
REMARK INTRA:                  -1.574
REMARK UNBOUND:                -1.398
REMARK SMILES CCCCCCCCCCCCCCCC(=O)[O-]
REMARK SMILES IDX 9 1 10 2 11 3 12 4 13 5 14 6 15 7 16 8 17 9 18 10 8 11 7 12
REMARK SMILES IDX 6 13 5 14 4 15 3 16 2 17 1 18
REMARK H PARENT
REMARK Flexibility Score: inf
ROOT
ATOM      1  C   UNL     1     -10.198  -8.263  18.649  1.00  0.00     0.000 C 
ENDROOT
BRANCH   1   2
ATOM      2  C   UNL     1     -10.585  -7.878  17.206  1.00  0.00     0.000 C 
BRANCH   2   3
ATOM      3  C   UNL     1     -10.368  -8.978  16.150  1.00  0.00     0.000 C 
BRANCH   3   4
ATOM      4  C   UNL     1      -9.379  -8.561  15.049  1.00  0.00     0.000 C 
BRANCH   4   5
ATOM      5  C   UNL     1      -8.854  -7.127  15.232  1.00  0.00     0.000 C 
BRANCH   5   6
ATOM      6  C   UNL     1      -9.263  -6.166  14.095  1.00  0.00     0.006 C 
BRANCH   6   7
ATOM      7  C   UNL     1     -10.365  -5.192  14.529  1.00  0.00     0.053 C 
BRANCH   7   8
ATOM      8  C   UNL     1      -9.844  -3.790  14.563  1.00  0.00     0.041 C 
ATOM      9  O   UNL     1      -8.628  -3.560  14.330  1.00  0.00    -0.550 OA
ATOM     10  O   UNL     1     -10.691  -2.743  14.901  1.00  0.00    -0.550 OA
ENDBRANCH   7   8
ENDBRANCH   6   7
ENDBRANCH   5   6
ENDBRANCH   4   5
ENDBRANCH   3   4
ENDBRANCH   2   3
ENDBRANCH   1   2
BRANCH   1  11
ATOM     11  C   UNL     1      -9.136  -9.369  18.770  1.00  0.00     0.000 C 
BRANCH  11  12
ATOM     12  C   UNL     1      -7.705  -8.843  18.595  1.00  0.00    -0.000 C 
BRANCH  12  13
ATOM     13  C   UNL     1      -7.568  -7.424  19.159  1.00  0.00    -0.000 C 
BRANCH  13  14
ATOM     14  C   UNL     1      -6.125  -6.916  19.019  1.00  0.00    -0.000 C 
BRANCH  14  15
ATOM     15  C   UNL     1      -5.402  -7.500  17.793  1.00  0.00    -0.000 C 
BRANCH  15  16
ATOM     16  C   UNL     1      -3.870  -7.589  17.925  1.00  0.00    -0.000 C 
BRANCH  16  17
ATOM     17  C   UNL     1      -3.298  -8.984  17.600  1.00  0.00    -0.003 C 
ATOM     18  C   UNL     1      -4.319  -9.890  16.910  1.00  0.00     0.004 C 
ENDBRANCH  16  17
ENDBRANCH  15  16
ENDBRANCH  14  15
ENDBRANCH  13  14
ENDBRANCH  12  13
ENDBRANCH  11  12
ENDBRANCH   1  11
TORSDOF 14
ENDMDL
MODEL 7
REMARK VINA RESULT:    -4.241      1.396      2.134
REMARK INTER + INTRA:          -9.111
REMARK INTER:                  -7.705
REMARK INTRA:                  -1.405
REMARK UNBOUND:                -1.398
REMARK SMILES CCCCCCCCCCCCCCCC(=O)[O-]
REMARK SMILES IDX 9 1 10 2 11 3 12 4 13 5 14 6 15 7 16 8 17 9 18 10 8 11 7 12
REMARK SMILES IDX 6 13 5 14 4 15 3 16 2 17 1 18
REMARK H PARENT
REMARK Flexibility Score: inf
ROOT
ATOM      1  C   UNL     1     -10.083  -7.435  15.925  1.00  0.00     0.000 C 
ENDROOT
BRANCH   1   2
ATOM      2  C   UNL     1      -9.512  -7.905  14.571  1.00  0.00     0.000 C 
BRANCH   2   3
ATOM      3  C   UNL     1      -8.940  -6.791  13.675  1.00  0.00     0.000 C 
BRANCH   3   4
ATOM      4  C   UNL     1      -7.999  -5.840  14.432  1.00  0.00     0.000 C 
BRANCH   4   5
ATOM      5  C   UNL     1      -7.885  -4.459  13.763  1.00  0.00     0.000 C 
BRANCH   5   6
ATOM      6  C   UNL     1      -9.074  -3.522  14.067  1.00  0.00     0.006 C 
BRANCH   6   7
ATOM      7  C   UNL     1      -9.228  -2.422  13.009  1.00  0.00     0.053 C 
BRANCH   7   8
ATOM      8  C   UNL     1     -10.645  -1.949  12.946  1.00  0.00     0.041 C 
ATOM      9  O   UNL     1     -11.566  -2.746  12.624  1.00  0.00    -0.550 OA
ATOM     10  O   UNL     1     -10.943  -0.616  13.194  1.00  0.00    -0.550 OA
ENDBRANCH   7   8
ENDBRANCH   6   7
ENDBRANCH   5   6
ENDBRANCH   4   5
ENDBRANCH   3   4
ENDBRANCH   2   3
ENDBRANCH   1   2
BRANCH   1  11
ATOM     11  C   UNL     1     -10.154  -8.517  17.017  1.00  0.00     0.000 C 
BRANCH  11  12
ATOM     12  C   UNL     1      -9.692  -8.010  18.390  1.00  0.00    -0.000 C 
BRANCH  12  13
ATOM     13  C   UNL     1      -8.162  -7.977  18.477  1.00  0.00    -0.000 C 
BRANCH  13  14
ATOM     14  C   UNL     1      -7.553  -9.273  17.921  1.00  0.00    -0.000 C 
BRANCH  14  15
ATOM     15  C   UNL     1      -6.649  -9.032  16.701  1.00  0.00    -0.000 C 
BRANCH  15  16
ATOM     16  C   UNL     1      -5.814  -7.738  16.758  1.00  0.00    -0.000 C 
BRANCH  16  17
ATOM     17  C   UNL     1      -4.416  -7.927  17.380  1.00  0.00    -0.003 C 
ATOM     18  C   UNL     1      -3.835  -6.621  17.923  1.00  0.00     0.004 C 
ENDBRANCH  16  17
ENDBRANCH  15  16
ENDBRANCH  14  15
ENDBRANCH  13  14
ENDBRANCH  12  13
ENDBRANCH  11  12
ENDBRANCH   1  11
TORSDOF 14
ENDMDL
MODEL 8
REMARK VINA RESULT:    -4.239      3.927      7.796
REMARK INTER + INTRA:          -9.107
REMARK INTER:                  -7.432
REMARK INTRA:                  -1.675
REMARK UNBOUND:                -1.398
REMARK SMILES CCCCCCCCCCCCCCCC(=O)[O-]
REMARK SMILES IDX 9 1 10 2 11 3 12 4 13 5 14 6 15 7 16 8 17 9 18 10 8 11 7 12
REMARK SMILES IDX 6 13 5 14 4 15 3 16 2 17 1 18
REMARK H PARENT
REMARK Flexibility Score: inf
ROOT
ATOM      1  C   UNL     1      -8.888  -6.069  13.739  1.00  0.00     0.000 C 
ENDROOT
BRANCH   1   2
ATOM      2  C   UNL     1      -9.164  -7.587  13.728  1.00  0.00     0.000 C 
BRANCH   2   3
ATOM      3  C   UNL     1      -8.966  -8.303  15.077  1.00  0.00     0.000 C 
BRANCH   3   4
ATOM      4  C   UNL     1      -9.307  -7.411  16.282  1.00  0.00     0.000 C 
BRANCH   4   5
ATOM      5  C   UNL     1     -10.566  -7.880  17.032  1.00  0.00     0.000 C 
BRANCH   5   6
ATOM      6  C   UNL     1     -10.840  -9.394  16.899  1.00  0.00     0.006 C 
BRANCH   6   7
ATOM      7  C   UNL     1     -10.560 -10.148  18.205  1.00  0.00     0.053 C 
BRANCH   7   8
ATOM      8  C   UNL     1      -9.118 -10.534  18.290  1.00  0.00     0.041 C 
ATOM      9  O   UNL     1      -8.559 -11.115  17.323  1.00  0.00    -0.550 OA
ATOM     10  O   UNL     1      -8.404 -10.296  19.457  1.00  0.00    -0.550 OA
ENDBRANCH   7   8
ENDBRANCH   6   7
ENDBRANCH   5   6
ENDBRANCH   4   5
ENDBRANCH   3   4
ENDBRANCH   2   3
ENDBRANCH   1   2
BRANCH   1  11
ATOM     11  C   UNL     1      -7.445  -5.662  13.396  1.00  0.00     0.000 C 
BRANCH  11  12
ATOM     12  C   UNL     1      -7.177  -4.168  13.624  1.00  0.00    -0.000 C 
BRANCH  12  13
ATOM     13  C   UNL     1      -8.009  -3.308  12.666  1.00  0.00    -0.000 C 
BRANCH  13  14
ATOM     14  C   UNL     1      -8.848  -2.280  13.441  1.00  0.00    -0.000 C 
BRANCH  14  15
ATOM     15  C   UNL     1     -10.302  -2.202  12.946  1.00  0.00    -0.000 C 
BRANCH  15  16
ATOM     16  C   UNL     1     -11.252  -3.250  13.558  1.00  0.00    -0.000 C 
BRANCH  16  17
ATOM     17  C   UNL     1     -11.016  -3.501  15.061  1.00  0.00    -0.003 C 
ATOM     18  C   UNL     1     -11.795  -4.709  15.583  1.00  0.00     0.004 C 
ENDBRANCH  16  17
ENDBRANCH  15  16
ENDBRANCH  14  15
ENDBRANCH  13  14
ENDBRANCH  12  13
ENDBRANCH  11  12
ENDBRANCH   1  11
TORSDOF 14
ENDMDL
MODEL 9
REMARK VINA RESULT:    -4.192      3.292      7.766
REMARK INTER + INTRA:          -9.021
REMARK INTER:                  -7.749
REMARK INTRA:                  -1.273
REMARK UNBOUND:                -1.398
REMARK SMILES CCCCCCCCCCCCCCCC(=O)[O-]
REMARK SMILES IDX 9 1 10 2 11 3 12 4 13 5 14 6 15 7 16 8 17 9 18 10 8 11 7 12
REMARK SMILES IDX 6 13 5 14 4 15 3 16 2 17 1 18
REMARK H PARENT
REMARK Flexibility Score: inf
ROOT
ATOM      1  C   UNL     1      -9.137  -7.507  14.992  1.00  0.00     0.000 C 
ENDROOT
BRANCH   1   2
ATOM      2  C   UNL     1      -8.399  -7.137  16.295  1.00  0.00     0.000 C 
BRANCH   2   3
ATOM      3  C   UNL     1      -7.182  -8.016  16.636  1.00  0.00     0.000 C 
BRANCH   3   4
ATOM      4  C   UNL     1      -6.775  -7.924  18.116  1.00  0.00     0.000 C 
BRANCH   4   5
ATOM      5  C   UNL     1      -7.941  -8.223  19.074  1.00  0.00     0.000 C 
BRANCH   5   6
ATOM      6  C   UNL     1      -8.467  -9.671  18.980  1.00  0.00     0.006 C 
BRANCH   6   7
ATOM      7  C   UNL     1      -9.961  -9.723  18.635  1.00  0.00     0.053 C 
BRANCH   7   8
ATOM      8  C   UNL     1     -10.166 -10.316  17.278  1.00  0.00     0.041 C 
ATOM      9  O   UNL     1      -9.271 -11.033  16.757  1.00  0.00    -0.550 OA
ATOM     10  O   UNL     1     -11.326 -10.037  16.567  1.00  0.00    -0.550 OA
ENDBRANCH   7   8
ENDBRANCH   6   7
ENDBRANCH   5   6
ENDBRANCH   4   5
ENDBRANCH   3   4
ENDBRANCH   2   3
ENDBRANCH   1   2
BRANCH   1  11
ATOM     11  C   UNL     1      -9.589  -6.313  14.133  1.00  0.00     0.000 C 
BRANCH  11  12
ATOM     12  C   UNL     1     -10.764  -5.544  14.753  1.00  0.00    -0.000 C 
BRANCH  12  13
ATOM     13  C   UNL     1     -10.631  -4.038  14.499  1.00  0.00    -0.000 C 
BRANCH  13  14
ATOM     14  C   UNL     1      -9.191  -3.674  14.105  1.00  0.00    -0.000 C 
BRANCH  14  15
ATOM     15  C   UNL     1      -9.125  -2.554  13.053  1.00  0.00    -0.000 C 
BRANCH  15  16
ATOM     16  C   UNL     1     -10.490  -1.968  12.644  1.00  0.00    -0.000 C 
BRANCH  16  17
ATOM     17  C   UNL     1     -10.696  -0.504  13.082  1.00  0.00    -0.003 C 
ATOM     18  C   UNL     1     -12.126  -0.017  12.846  1.00  0.00     0.004 C 
ENDBRANCH  16  17
ENDBRANCH  15  16
ENDBRANCH  14  15
ENDBRANCH  13  14
ENDBRANCH  12  13
ENDBRANCH  11  12
ENDBRANCH   1  11
TORSDOF 14
ENDMDL
