MODEL 1
REMARK VINA RESULT:    -4.513      0.000      0.000
REMARK INTER + INTRA:         -16.185
REMARK INTER:                 -11.373
REMARK INTRA:                  -4.812
REMARK UNBOUND:                -4.812
REMARK SMILES CCCCCCCCCCCCCCCCCCCCCCCCCCCC(=O)[O-]
REMARK SMILES IDX 15 1 16 2 17 3 18 4 19 5 20 6 21 7 22 8 23 9 24 10 25 11
REMARK SMILES IDX 26 12 27 13 28 14 29 15 30 16 14 17 13 18 12 19 11 20 10 21
REMARK SMILES IDX 9 22 8 23 7 24 6 25 5 26 4 27 3 28 2 29 1 30
REMARK H PARENT
REMARK Flexibility Score: inf
ROOT
ATOM      1  C   UNL     1      60.204  12.456  41.004  1.00  0.00     0.000 C 
ENDROOT
BRANCH   1   2
ATOM      2  C   UNL     1      59.069  12.631  39.974  1.00  0.00     0.000 C 
BRANCH   2   3
ATOM      3  C   UNL     1      59.325  13.686  38.883  1.00  0.00     0.000 C 
BRANCH   3   4
ATOM      4  C   UNL     1      59.127  13.146  37.455  1.00  0.00     0.000 C 
BRANCH   4   5
ATOM      5  C   UNL     1      60.422  12.578  36.846  1.00  0.00     0.000 C 
BRANCH   5   6
ATOM      6  C   UNL     1      60.510  11.038  36.815  1.00  0.00     0.000 C 
BRANCH   6   7
ATOM      7  C   UNL     1      59.181  10.306  37.081  1.00  0.00     0.000 C 
BRANCH   7   8
ATOM      8  C   UNL     1      59.274   9.129  38.074  1.00  0.00     0.000 C 
BRANCH   8   9
ATOM      9  C   UNL     1      60.705   8.647  38.380  1.00  0.00     0.000 C 
BRANCH   9  10
ATOM     10  C   UNL     1      60.737   7.378  39.245  1.00  0.00     0.000 C 
BRANCH  10  11
ATOM     11  C   UNL     1      62.125   7.168  39.868  1.00  0.00     0.000 C 
BRANCH  11  12
ATOM     12  C   UNL     1      63.209   8.069  39.246  1.00  0.00     0.006 C 
BRANCH  12  13
ATOM     13  C   UNL     1      64.258   7.305  38.418  1.00  0.00     0.053 C 
BRANCH  13  14
ATOM     14  C   UNL     1      65.104   6.399  39.261  1.00  0.00     0.041 C 
ATOM     15  O   UNL     1      65.213   5.181  38.964  1.00  0.00    -0.550 OA
ATOM     16  O   UNL     1      65.740   6.890  40.397  1.00  0.00    -0.550 OA
ENDBRANCH  13  14
ENDBRANCH  12  13
ENDBRANCH  11  12
ENDBRANCH  10  11
ENDBRANCH   9  10
ENDBRANCH   8   9
ENDBRANCH   7   8
ENDBRANCH   6   7
ENDBRANCH   5   6
ENDBRANCH   4   5
ENDBRANCH   3   4
ENDBRANCH   2   3
ENDBRANCH   1   2
BRANCH   1  17
ATOM     17  C   UNL     1      61.064  11.192  40.828  1.00  0.00     0.000 C 
BRANCH  17  18
ATOM     18  C   UNL     1      62.575  11.442  40.652  1.00  0.00     0.000 C 
BRANCH  18  19
ATOM     19  C   UNL     1      62.989  11.817  39.214  1.00  0.00     0.000 C 
BRANCH  19  20
ATOM     20  C   UNL     1      63.863  13.081  39.149  1.00  0.00     0.000 C 
BRANCH  20  21
ATOM     21  C   UNL     1      63.267  14.263  39.934  1.00  0.00     0.000 C 
BRANCH  21  22
ATOM     22  C   UNL     1      62.367  15.187  39.086  1.00  0.00    -0.000 C 
BRANCH  22  23
ATOM     23  C   UNL     1      61.927  16.445  39.857  1.00  0.00    -0.000 C 
BRANCH  23  24
ATOM     24  C   UNL     1      63.059  17.054  40.698  1.00  0.00    -0.000 C 
BRANCH  24  25
ATOM     25  C   UNL     1      63.987  17.967  39.874  1.00  0.00    -0.000 C 
BRANCH  25  26
ATOM     26  C   UNL     1      63.225  18.789  38.821  1.00  0.00    -0.000 C 
BRANCH  26  27
ATOM     27  C   UNL     1      63.715  18.594  37.373  1.00  0.00    -0.000 C 
BRANCH  27  28
ATOM     28  C   UNL     1      64.705  17.421  37.205  1.00  0.00    -0.000 C 
BRANCH  28  29
ATOM     29  C   UNL     1      64.541  16.706  35.854  1.00  0.00    -0.003 C 
ATOM     30  C   UNL     1      64.372  15.202  36.043  1.00  0.00     0.004 C 
ENDBRANCH  28  29
ENDBRANCH  27  28
ENDBRANCH  26  27
ENDBRANCH  25  26
ENDBRANCH  24  25
ENDBRANCH  23  24
ENDBRANCH  22  23
ENDBRANCH  21  22
ENDBRANCH  20  21
ENDBRANCH  19  20
ENDBRANCH  18  19
ENDBRANCH  17  18
ENDBRANCH   1  17
TORSDOF 26
ENDMDL
MODEL 2
REMARK VINA RESULT:    -4.459      1.197      2.757
REMARK INTER + INTRA:         -16.050
REMARK INTER:                 -10.817
REMARK INTRA:                  -5.232
REMARK UNBOUND:                -4.812
REMARK SMILES CCCCCCCCCCCCCCCCCCCCCCCCCCCC(=O)[O-]
REMARK SMILES IDX 15 1 16 2 17 3 18 4 19 5 20 6 21 7 22 8 23 9 24 10 25 11
REMARK SMILES IDX 26 12 27 13 28 14 29 15 30 16 14 17 13 18 12 19 11 20 10 21
REMARK SMILES IDX 9 22 8 23 7 24 6 25 5 26 4 27 3 28 2 29 1 30
REMARK H PARENT
REMARK Flexibility Score: inf
ROOT
ATOM      1  C   UNL     1      63.425  12.748  38.858  1.00  0.00     0.000 C 
ENDROOT
BRANCH   1   2
ATOM      2  C   UNL     1      62.985  11.389  39.443  1.00  0.00     0.000 C 
BRANCH   2   3
ATOM      3  C   UNL     1      62.369  11.446  40.852  1.00  0.00     0.000 C 
BRANCH   3   4
ATOM      4  C   UNL     1      60.859  11.149  40.868  1.00  0.00     0.000 C 
BRANCH   4   5
ATOM      5  C   UNL     1      60.021  12.278  40.242  1.00  0.00     0.000 C 
BRANCH   5   6
ATOM      6  C   UNL     1      59.177  11.867  39.018  1.00  0.00     0.000 C 
BRANCH   6   7
ATOM      7  C   UNL     1      59.874  12.057  37.657  1.00  0.00     0.000 C 
BRANCH   7   8
ATOM      8  C   UNL     1      60.443  10.767  37.032  1.00  0.00     0.000 C 
BRANCH   8   9
ATOM      9  C   UNL     1      60.014   9.462  37.729  1.00  0.00     0.000 C 
BRANCH   9  10
ATOM     10  C   UNL     1      61.161   8.448  37.859  1.00  0.00     0.000 C 
BRANCH  10  11
ATOM     11  C   UNL     1      61.333   7.992  39.316  1.00  0.00     0.000 C 
BRANCH  11  12
ATOM     12  C   UNL     1      62.743   7.447  39.616  1.00  0.00     0.006 C 
BRANCH  12  13
ATOM     13  C   UNL     1      63.809   7.872  38.590  1.00  0.00     0.053 C 
BRANCH  13  14
ATOM     14  C   UNL     1      64.519   6.701  37.983  1.00  0.00     0.041 C 
ATOM     15  O   UNL     1      64.167   5.528  38.274  1.00  0.00    -0.550 OA
ATOM     16  O   UNL     1      65.597   6.901  37.126  1.00  0.00    -0.550 OA
ENDBRANCH  13  14
ENDBRANCH  12  13
ENDBRANCH  11  12
ENDBRANCH  10  11
ENDBRANCH   9  10
ENDBRANCH   8   9
ENDBRANCH   7   8
ENDBRANCH   6   7
ENDBRANCH   5   6
ENDBRANCH   4   5
ENDBRANCH   3   4
ENDBRANCH   2   3
ENDBRANCH   1   2
BRANCH   1  17
ATOM     17  C   UNL     1      63.509  13.904  39.870  1.00  0.00     0.000 C 
BRANCH  17  18
ATOM     18  C   UNL     1      62.356  14.924  39.804  1.00  0.00     0.000 C 
BRANCH  18  19
ATOM     19  C   UNL     1      61.677  15.020  38.422  1.00  0.00     0.000 C 
BRANCH  19  20
ATOM     20  C   UNL     1      60.444  15.939  38.420  1.00  0.00     0.000 C 
BRANCH  20  21
ATOM     21  C   UNL     1      60.015  16.369  39.834  1.00  0.00     0.000 C 
BRANCH  21  22
ATOM     22  C   UNL     1      60.142  17.886  40.092  1.00  0.00    -0.000 C 
BRANCH  22  23
ATOM     23  C   UNL     1      60.916  18.608  38.974  1.00  0.00    -0.000 C 
BRANCH  23  24
ATOM     24  C   UNL     1      62.176  19.322  39.488  1.00  0.00    -0.000 C 
BRANCH  24  25
ATOM     25  C   UNL     1      63.138  18.372  40.226  1.00  0.00    -0.000 C 
BRANCH  25  26
ATOM     26  C   UNL     1      64.228  17.800  39.305  1.00  0.00    -0.000 C 
BRANCH  26  27
ATOM     27  C   UNL     1      64.130  18.251  37.834  1.00  0.00    -0.000 C 
BRANCH  27  28
ATOM     28  C   UNL     1      65.072  17.480  36.883  1.00  0.00    -0.000 C 
BRANCH  28  29
ATOM     29  C   UNL     1      65.048  15.965  37.139  1.00  0.00    -0.003 C 
ATOM     30  C   UNL     1      64.343  15.226  36.006  1.00  0.00     0.004 C 
ENDBRANCH  28  29
ENDBRANCH  27  28
ENDBRANCH  26  27
ENDBRANCH  25  26
ENDBRANCH  24  25
ENDBRANCH  23  24
ENDBRANCH  22  23
ENDBRANCH  21  22
ENDBRANCH  20  21
ENDBRANCH  19  20
ENDBRANCH  18  19
ENDBRANCH  17  18
ENDBRANCH   1  17
TORSDOF 26
ENDMDL
MODEL 3
REMARK VINA RESULT:    -4.355      3.017      8.389
REMARK INTER + INTRA:         -15.787
REMARK INTER:                 -11.193
REMARK INTRA:                  -4.594
REMARK UNBOUND:                -4.812
REMARK SMILES CCCCCCCCCCCCCCCCCCCCCCCCCCCC(=O)[O-]
REMARK SMILES IDX 15 1 16 2 17 3 18 4 19 5 20 6 21 7 22 8 23 9 24 10 25 11
REMARK SMILES IDX 26 12 27 13 28 14 29 15 30 16 14 17 13 18 12 19 11 20 10 21
REMARK SMILES IDX 9 22 8 23 7 24 6 25 5 26 4 27 3 28 2 29 1 30
REMARK H PARENT
REMARK Flexibility Score: inf
ROOT
ATOM      1  C   UNL     1      63.339  12.926  39.249  1.00  0.00     0.000 C 
ENDROOT
BRANCH   1   2
ATOM      2  C   UNL     1      62.676  14.164  39.889  1.00  0.00     0.000 C 
BRANCH   2   3
ATOM      3  C   UNL     1      61.511  14.775  39.089  1.00  0.00     0.000 C 
BRANCH   3   4
ATOM      4  C   UNL     1      60.313  15.175  39.970  1.00  0.00     0.000 C 
BRANCH   4   5
ATOM      5  C   UNL     1      59.898  16.646  39.782  1.00  0.00     0.000 C 
BRANCH   5   6
ATOM      6  C   UNL     1      59.998  17.174  38.336  1.00  0.00     0.000 C 
BRANCH   6   7
ATOM      7  C   UNL     1      60.519  18.619  38.208  1.00  0.00     0.000 C 
BRANCH   7   8
ATOM      8  C   UNL     1      61.095  19.219  39.507  1.00  0.00     0.000 C 
BRANCH   8   9
ATOM      9  C   UNL     1      62.633  19.293  39.564  1.00  0.00     0.000 C 
BRANCH   9  10
ATOM     10  C   UNL     1      63.266  18.065  40.237  1.00  0.00     0.000 C 
BRANCH  10  11
ATOM     11  C   UNL     1      64.315  17.413  39.323  1.00  0.00     0.000 C 
BRANCH  11  12
ATOM     12  C   UNL     1      64.176  17.834  37.848  1.00  0.00     0.006 C 
BRANCH  12  13
ATOM     13  C   UNL     1      63.489  16.781  36.959  1.00  0.00     0.053 C 
BRANCH  13  14
ATOM     14  C   UNL     1      64.407  16.232  35.909  1.00  0.00     0.041 C 
ATOM     15  O   UNL     1      64.641  14.996  35.860  1.00  0.00    -0.550 OA
ATOM     16  O   UNL     1      65.035  17.087  35.009  1.00  0.00    -0.550 OA
ENDBRANCH  13  14
ENDBRANCH  12  13
ENDBRANCH  11  12
ENDBRANCH  10  11
ENDBRANCH   9  10
ENDBRANCH   8   9
ENDBRANCH   7   8
ENDBRANCH   6   7
ENDBRANCH   5   6
ENDBRANCH   4   5
ENDBRANCH   3   4
ENDBRANCH   2   3
ENDBRANCH   1   2
BRANCH   1  17
ATOM     17  C   UNL     1      63.107  11.598  39.991  1.00  0.00     0.000 C 
BRANCH  17  18
ATOM     18  C   UNL     1      61.984  11.619  41.046  1.00  0.00     0.000 C 
BRANCH  18  19
ATOM     19  C   UNL     1      60.716  10.842  40.633  1.00  0.00     0.000 C 
BRANCH  19  20
ATOM     20  C   UNL     1      59.552  11.762  40.228  1.00  0.00     0.000 C 
BRANCH  20  21
ATOM     21  C   UNL     1      59.071  11.519  38.786  1.00  0.00     0.000 C 
BRANCH  21  22
ATOM     22  C   UNL     1      60.209  11.488  37.744  1.00  0.00    -0.000 C 
BRANCH  22  23
ATOM     23  C   UNL     1      60.367  10.102  37.090  1.00  0.00    -0.000 C 
BRANCH  23  24
ATOM     24  C   UNL     1      61.705   9.431  37.438  1.00  0.00    -0.000 C 
BRANCH  24  25
ATOM     25  C   UNL     1      61.552   7.931  37.754  1.00  0.00    -0.000 C 
BRANCH  25  26
ATOM     26  C   UNL     1      61.528   7.644  39.265  1.00  0.00    -0.000 C 
BRANCH  26  27
ATOM     27  C   UNL     1      62.714   6.805  39.781  1.00  0.00    -0.000 C 
BRANCH  27  28
ATOM     28  C   UNL     1      64.088   7.480  39.580  1.00  0.00    -0.000 C 
BRANCH  28  29
ATOM     29  C   UNL     1      65.255   6.554  39.953  1.00  0.00    -0.003 C 
ATOM     30  C   UNL     1      64.771   5.128  40.196  1.00  0.00     0.004 C 
ENDBRANCH  28  29
ENDBRANCH  27  28
ENDBRANCH  26  27
ENDBRANCH  25  26
ENDBRANCH  24  25
ENDBRANCH  23  24
ENDBRANCH  22  23
ENDBRANCH  21  22
ENDBRANCH  20  21
ENDBRANCH  19  20
ENDBRANCH  18  19
ENDBRANCH  17  18
ENDBRANCH   1  17
TORSDOF 26
ENDMDL
MODEL 4
REMARK VINA RESULT:    -4.343      1.392      5.174
REMARK INTER + INTRA:         -15.757
REMARK INTER:                 -11.124
REMARK INTRA:                  -4.633
REMARK UNBOUND:                -4.812
REMARK SMILES CCCCCCCCCCCCCCCCCCCCCCCCCCCC(=O)[O-]
REMARK SMILES IDX 15 1 16 2 17 3 18 4 19 5 20 6 21 7 22 8 23 9 24 10 25 11
REMARK SMILES IDX 26 12 27 13 28 14 29 15 30 16 14 17 13 18 12 19 11 20 10 21
REMARK SMILES IDX 9 22 8 23 7 24 6 25 5 26 4 27 3 28 2 29 1 30
REMARK H PARENT
REMARK Flexibility Score: inf
ROOT
ATOM      1  C   UNL     1      64.628  16.588  35.480  1.00  0.00     0.000 C 
ENDROOT
BRANCH   1   2
ATOM      2  C   UNL     1      64.471  15.179  36.090  1.00  0.00     0.000 C 
BRANCH   2   3
ATOM      3  C   UNL     1      63.021  14.719  36.323  1.00  0.00     0.000 C 
BRANCH   3   4
ATOM      4  C   UNL     1      62.490  15.071  37.725  1.00  0.00     0.000 C 
BRANCH   4   5
ATOM      5  C   UNL     1      63.520  14.806  38.838  1.00  0.00     0.000 C 
BRANCH   5   6
ATOM      6  C   UNL     1      63.176  13.637  39.784  1.00  0.00     0.000 C 
BRANCH   6   7
ATOM      7  C   UNL     1      63.574  12.242  39.264  1.00  0.00     0.000 C 
BRANCH   7   8
ATOM      8  C   UNL     1      62.850  11.063  39.945  1.00  0.00     0.000 C 
BRANCH   8   9
ATOM      9  C   UNL     1      62.650   9.821  39.056  1.00  0.00     0.000 C 
BRANCH   9  10
ATOM     10  C   UNL     1      61.460   8.954  39.498  1.00  0.00     0.000 C 
BRANCH  10  11
ATOM     11  C   UNL     1      61.196   7.824  38.492  1.00  0.00     0.000 C 
BRANCH  11  12
ATOM     12  C   UNL     1      62.132   7.873  37.269  1.00  0.00     0.006 C 
BRANCH  12  13
ATOM     13  C   UNL     1      62.845   6.541  36.974  1.00  0.00     0.053 C 
BRANCH  13  14
ATOM     14  C   UNL     1      64.157   6.422  37.689  1.00  0.00     0.041 C 
ATOM     15  O   UNL     1      65.061   7.275  37.495  1.00  0.00    -0.550 OA
ATOM     16  O   UNL     1      64.397   5.346  38.539  1.00  0.00    -0.550 OA
ENDBRANCH  13  14
ENDBRANCH  12  13
ENDBRANCH  11  12
ENDBRANCH  10  11
ENDBRANCH   9  10
ENDBRANCH   8   9
ENDBRANCH   7   8
ENDBRANCH   6   7
ENDBRANCH   5   6
ENDBRANCH   4   5
ENDBRANCH   3   4
ENDBRANCH   2   3
ENDBRANCH   1   2
BRANCH   1  17
ATOM     17  C   UNL     1      65.561  17.539  36.252  1.00  0.00     0.000 C 
BRANCH  17  18
ATOM     18  C   UNL     1      65.221  17.729  37.743  1.00  0.00     0.000 C 
BRANCH  18  19
ATOM     19  C   UNL     1      63.864  18.417  37.998  1.00  0.00     0.000 C 
BRANCH  19  20
ATOM     20  C   UNL     1      63.436  18.373  39.475  1.00  0.00     0.000 C 
BRANCH  20  21
ATOM     21  C   UNL     1      62.241  19.295  39.779  1.00  0.00     0.000 C 
BRANCH  21  22
ATOM     22  C   UNL     1      60.866  18.611  39.618  1.00  0.00    -0.000 C 
BRANCH  22  23
ATOM     23  C   UNL     1      60.873  17.155  40.123  1.00  0.00    -0.000 C 
BRANCH  23  24
ATOM     24  C   UNL     1      59.459  16.603  40.363  1.00  0.00    -0.000 C 
BRANCH  24  25
ATOM     25  C   UNL     1      59.194  15.294  39.597  1.00  0.00    -0.000 C 
BRANCH  25  26
ATOM     26  C   UNL     1      59.611  14.047  40.394  1.00  0.00    -0.000 C 
BRANCH  26  27
ATOM     27  C   UNL     1      59.674  12.745  39.570  1.00  0.00    -0.000 C 
BRANCH  27  28
ATOM     28  C   UNL     1      59.509  12.964  38.050  1.00  0.00    -0.000 C 
BRANCH  28  29
ATOM     29  C   UNL     1      60.396  12.020  37.224  1.00  0.00    -0.003 C 
ATOM     30  C   UNL     1      59.595  10.836  36.691  1.00  0.00     0.004 C 
ENDBRANCH  28  29
ENDBRANCH  27  28
ENDBRANCH  26  27
ENDBRANCH  25  26
ENDBRANCH  24  25
ENDBRANCH  23  24
ENDBRANCH  22  23
ENDBRANCH  21  22
ENDBRANCH  20  21
ENDBRANCH  19  20
ENDBRANCH  18  19
ENDBRANCH  17  18
ENDBRANCH   1  17
TORSDOF 26
ENDMDL
MODEL 5
REMARK VINA RESULT:    -4.281      3.780      8.877
REMARK INTER + INTRA:         -15.600
REMARK INTER:                 -11.469
REMARK INTRA:                  -4.131
REMARK UNBOUND:                -4.812
REMARK SMILES CCCCCCCCCCCCCCCCCCCCCCCCCCCC(=O)[O-]
REMARK SMILES IDX 15 1 16 2 17 3 18 4 19 5 20 6 21 7 22 8 23 9 24 10 25 11
REMARK SMILES IDX 26 12 27 13 28 14 29 15 30 16 14 17 13 18 12 19 11 20 10 21
REMARK SMILES IDX 9 22 8 23 7 24 6 25 5 26 4 27 3 28 2 29 1 30
REMARK H PARENT
REMARK Flexibility Score: inf
ROOT
ATOM      1  C   UNL     1      60.934  14.700  39.363  1.00  0.00     0.000 C 
ENDROOT
BRANCH   1   2
ATOM      2  C   UNL     1      62.066  13.797  39.897  1.00  0.00     0.000 C 
BRANCH   2   3
ATOM      3  C   UNL     1      63.495  14.307  39.636  1.00  0.00     0.000 C 
BRANCH   3   4
ATOM      4  C   UNL     1      64.234  13.512  38.544  1.00  0.00     0.000 C 
BRANCH   4   5
ATOM      5  C   UNL     1      65.001  14.418  37.562  1.00  0.00     0.000 C 
BRANCH   5   6
ATOM      6  C   UNL     1      64.222  14.812  36.290  1.00  0.00     0.000 C 
BRANCH   6   7
ATOM      7  C   UNL     1      64.314  16.302  35.909  1.00  0.00     0.000 C 
BRANCH   7   8
ATOM      8  C   UNL     1      65.044  17.191  36.936  1.00  0.00     0.000 C 
BRANCH   8   9
ATOM      9  C   UNL     1      64.130  18.112  37.767  1.00  0.00     0.000 C 
BRANCH   9  10
ATOM     10  C   UNL     1      64.151  17.780  39.267  1.00  0.00     0.000 C 
BRANCH  10  11
ATOM     11  C   UNL     1      63.144  18.646  40.039  1.00  0.00     0.000 C 
BRANCH  11  12
ATOM     12  C   UNL     1      61.772  17.966  40.212  1.00  0.00     0.006 C 
BRANCH  12  13
ATOM     13  C   UNL     1      60.581  18.845  39.788  1.00  0.00     0.053 C 
BRANCH  13  14
ATOM     14  C   UNL     1      60.107  18.537  38.400  1.00  0.00     0.041 C 
ATOM     15  O   UNL     1      60.749  18.963  37.404  1.00  0.00    -0.550 OA
ATOM     16  O   UNL     1      58.935  17.814  38.203  1.00  0.00    -0.550 OA
ENDBRANCH  13  14
ENDBRANCH  12  13
ENDBRANCH  11  12
ENDBRANCH  10  11
ENDBRANCH   9  10
ENDBRANCH   8   9
ENDBRANCH   7   8
ENDBRANCH   6   7
ENDBRANCH   5   6
ENDBRANCH   4   5
ENDBRANCH   3   4
ENDBRANCH   2   3
ENDBRANCH   1   2
BRANCH   1  17
ATOM     17  C   UNL     1      60.995  15.010  37.857  1.00  0.00     0.000 C 
BRANCH  17  18
ATOM     18  C   UNL     1      59.785  14.528  37.035  1.00  0.00     0.000 C 
BRANCH  18  19
ATOM     19  C   UNL     1      59.624  12.994  36.989  1.00  0.00     0.000 C 
BRANCH  19  20
ATOM     20  C   UNL     1      60.918  12.265  36.588  1.00  0.00     0.000 C 
BRANCH  20  21
ATOM     21  C   UNL     1      61.032  10.861  37.209  1.00  0.00     0.000 C 
BRANCH  21  22
ATOM     22  C   UNL     1      60.377  10.738  38.602  1.00  0.00    -0.000 C 
BRANCH  22  23
ATOM     23  C   UNL     1      61.315  10.088  39.636  1.00  0.00    -0.000 C 
BRANCH  23  24
ATOM     24  C   UNL     1      60.898   8.655  39.999  1.00  0.00    -0.000 C 
BRANCH  24  25
ATOM     25  C   UNL     1      62.030   7.633  39.786  1.00  0.00    -0.000 C 
BRANCH  25  26
ATOM     26  C   UNL     1      63.284   8.262  39.155  1.00  0.00    -0.000 C 
BRANCH  26  27
ATOM     27  C   UNL     1      63.757   7.587  37.852  1.00  0.00    -0.000 C 
BRANCH  27  28
ATOM     28  C   UNL     1      64.062   6.081  38.007  1.00  0.00    -0.000 C 
BRANCH  28  29
ATOM     29  C   UNL     1      65.292   5.647  37.196  1.00  0.00    -0.003 C 
ATOM     30  C   UNL     1      66.244   6.818  36.969  1.00  0.00     0.004 C 
ENDBRANCH  28  29
ENDBRANCH  27  28
ENDBRANCH  26  27
ENDBRANCH  25  26
ENDBRANCH  24  25
ENDBRANCH  23  24
ENDBRANCH  22  23
ENDBRANCH  21  22
ENDBRANCH  20  21
ENDBRANCH  19  20
ENDBRANCH  18  19
ENDBRANCH  17  18
ENDBRANCH   1  17
TORSDOF 26
ENDMDL
MODEL 6
REMARK VINA RESULT:    -4.258      3.224      8.081
REMARK INTER + INTRA:         -15.542
REMARK INTER:                 -10.387
REMARK INTRA:                  -5.155
REMARK UNBOUND:                -4.812
REMARK SMILES CCCCCCCCCCCCCCCCCCCCCCCCCCCC(=O)[O-]
REMARK SMILES IDX 15 1 16 2 17 3 18 4 19 5 20 6 21 7 22 8 23 9 24 10 25 11
REMARK SMILES IDX 26 12 27 13 28 14 29 15 30 16 14 17 13 18 12 19 11 20 10 21
REMARK SMILES IDX 9 22 8 23 7 24 6 25 5 26 4 27 3 28 2 29 1 30
REMARK H PARENT
REMARK Flexibility Score: inf
ROOT
ATOM      1  C   UNL     1      60.178  13.829  37.994  1.00  0.00     0.000 C 
ENDROOT
BRANCH   1   2
ATOM      2  C   UNL     1      59.361  14.454  39.145  1.00  0.00     0.000 C 
BRANCH   2   3
ATOM      3  C   UNL     1      59.065  15.958  39.001  1.00  0.00     0.000 C 
BRANCH   3   4
ATOM      4  C   UNL     1      59.730  16.594  37.766  1.00  0.00     0.000 C 
BRANCH   4   5
ATOM      5  C   UNL     1      59.663  18.132  37.777  1.00  0.00     0.000 C 
BRANCH   5   6
ATOM      6  C   UNL     1      60.990  18.844  38.113  1.00  0.00     0.000 C 
BRANCH   6   7
ATOM      7  C   UNL     1      61.351  18.868  39.611  1.00  0.00     0.000 C 
BRANCH   7   8
ATOM      8  C   UNL     1      62.861  18.794  39.916  1.00  0.00     0.000 C 
BRANCH   8   9
ATOM      9  C   UNL     1      63.329  17.484  40.577  1.00  0.00     0.000 C 
BRANCH   9  10
ATOM     10  C   UNL     1      62.582  16.248  40.051  1.00  0.00     0.000 C 
BRANCH  10  11
ATOM     11  C   UNL     1      63.562  15.126  39.681  1.00  0.00     0.000 C 
BRANCH  11  12
ATOM     12  C   UNL     1      63.612  14.842  38.167  1.00  0.00     0.006 C 
BRANCH  12  13
ATOM     13  C   UNL     1      63.319  16.073  37.290  1.00  0.00     0.053 C 
BRANCH  13  14
ATOM     14  C   UNL     1      64.570  16.736  36.798  1.00  0.00     0.041 C 
ATOM     15  O   UNL     1      65.312  17.359  37.601  1.00  0.00    -0.550 OA
ATOM     16  O   UNL     1      64.896  16.701  35.446  1.00  0.00    -0.550 OA
ENDBRANCH  13  14
ENDBRANCH  12  13
ENDBRANCH  11  12
ENDBRANCH  10  11
ENDBRANCH   9  10
ENDBRANCH   8   9
ENDBRANCH   7   8
ENDBRANCH   6   7
ENDBRANCH   5   6
ENDBRANCH   4   5
ENDBRANCH   3   4
ENDBRANCH   2   3
ENDBRANCH   1   2
BRANCH   1  17
ATOM     17  C   UNL     1      59.432  12.776  37.155  1.00  0.00     0.000 C 
BRANCH  17  18
ATOM     18  C   UNL     1      60.300  11.616  36.629  1.00  0.00     0.000 C 
BRANCH  18  19
ATOM     19  C   UNL     1      59.971  10.246  37.258  1.00  0.00     0.000 C 
BRANCH  19  20
ATOM     20  C   UNL     1      59.179  10.362  38.572  1.00  0.00     0.000 C 
BRANCH  20  21
ATOM     21  C   UNL     1      59.168   9.054  39.382  1.00  0.00     0.000 C 
BRANCH  21  22
ATOM     22  C   UNL     1      58.947   7.788  38.526  1.00  0.00    -0.000 C 
BRANCH  22  23
ATOM     23  C   UNL     1      60.133   6.809  38.609  1.00  0.00    -0.000 C 
BRANCH  23  24
ATOM     24  C   UNL     1      60.855   6.864  39.964  1.00  0.00    -0.000 C 
BRANCH  24  25
ATOM     25  C   UNL     1      62.369   7.109  39.822  1.00  0.00    -0.000 C 
BRANCH  25  26
ATOM     26  C   UNL     1      62.747   7.704  38.455  1.00  0.00    -0.000 C 
BRANCH  26  27
ATOM     27  C   UNL     1      63.097   9.205  38.480  1.00  0.00    -0.000 C 
BRANCH  27  28
ATOM     28  C   UNL     1      62.747   9.903  39.812  1.00  0.00    -0.000 C 
BRANCH  28  29
ATOM     29  C   UNL     1      62.686  11.432  39.672  1.00  0.00    -0.003 C 
ATOM     30  C   UNL     1      61.752  12.044  40.712  1.00  0.00     0.004 C 
ENDBRANCH  28  29
ENDBRANCH  27  28
ENDBRANCH  26  27
ENDBRANCH  25  26
ENDBRANCH  24  25
ENDBRANCH  23  24
ENDBRANCH  22  23
ENDBRANCH  21  22
ENDBRANCH  20  21
ENDBRANCH  19  20
ENDBRANCH  18  19
ENDBRANCH  17  18
ENDBRANCH   1  17
TORSDOF 26
ENDMDL
MODEL 7
REMARK VINA RESULT:    -4.238      2.759      8.543
REMARK INTER + INTRA:         -15.491
REMARK INTER:                 -11.489
REMARK INTRA:                  -4.003
REMARK UNBOUND:                -4.812
REMARK SMILES CCCCCCCCCCCCCCCCCCCCCCCCCCCC(=O)[O-]
REMARK SMILES IDX 15 1 16 2 17 3 18 4 19 5 20 6 21 7 22 8 23 9 24 10 25 11
REMARK SMILES IDX 26 12 27 13 28 14 29 15 30 16 14 17 13 18 12 19 11 20 10 21
REMARK SMILES IDX 9 22 8 23 7 24 6 25 5 26 4 27 3 28 2 29 1 30
REMARK H PARENT
REMARK Flexibility Score: inf
ROOT
ATOM      1  C   UNL     1      63.067  12.126  39.571  1.00  0.00     0.000 C 
ENDROOT
BRANCH   1   2
ATOM      2  C   UNL     1      63.144  13.664  39.676  1.00  0.00     0.000 C 
BRANCH   2   3
ATOM      3  C   UNL     1      61.810  14.371  39.975  1.00  0.00     0.000 C 
BRANCH   3   4
ATOM      4  C   UNL     1      61.208  15.077  38.747  1.00  0.00     0.000 C 
BRANCH   4   5
ATOM      5  C   UNL     1      60.356  16.304  39.121  1.00  0.00     0.000 C 
BRANCH   5   6
ATOM      6  C   UNL     1      60.024  17.253  37.951  1.00  0.00     0.000 C 
BRANCH   6   7
ATOM      7  C   UNL     1      60.757  18.608  37.987  1.00  0.00     0.000 C 
BRANCH   7   8
ATOM      8  C   UNL     1      61.089  19.130  39.400  1.00  0.00     0.000 C 
BRANCH   8   9
ATOM      9  C   UNL     1      62.592  19.287  39.700  1.00  0.00     0.000 C 
BRANCH   9  10
ATOM     10  C   UNL     1      63.171  18.104  40.492  1.00  0.00     0.000 C 
BRANCH  10  11
ATOM     11  C   UNL     1      64.116  17.264  39.620  1.00  0.00     0.000 C 
BRANCH  11  12
ATOM     12  C   UNL     1      64.340  17.867  38.219  1.00  0.00     0.006 C 
BRANCH  12  13
ATOM     13  C   UNL     1      65.285  17.041  37.328  1.00  0.00     0.053 C 
BRANCH  13  14
ATOM     14  C   UNL     1      64.731  15.686  37.005  1.00  0.00     0.041 C 
ATOM     15  O   UNL     1      65.323  14.650  37.405  1.00  0.00    -0.550 OA
ATOM     16  O   UNL     1      63.582  15.565  36.229  1.00  0.00    -0.550 OA
ENDBRANCH  13  14
ENDBRANCH  12  13
ENDBRANCH  11  12
ENDBRANCH  10  11
ENDBRANCH   9  10
ENDBRANCH   8   9
ENDBRANCH   7   8
ENDBRANCH   6   7
ENDBRANCH   5   6
ENDBRANCH   4   5
ENDBRANCH   3   4
ENDBRANCH   2   3
ENDBRANCH   1   2
BRANCH   1  17
ATOM     17  C   UNL     1      62.243  11.431  40.670  1.00  0.00     0.000 C 
BRANCH  17  18
ATOM     18  C   UNL     1      61.014  10.645  40.174  1.00  0.00     0.000 C 
BRANCH  18  19
ATOM     19  C   UNL     1      60.383  11.208  38.884  1.00  0.00     0.000 C 
BRANCH  19  20
ATOM     20  C   UNL     1      60.533  10.264  37.679  1.00  0.00     0.000 C 
BRANCH  20  21
ATOM     21  C   UNL     1      60.662   8.786  38.088  1.00  0.00     0.000 C 
BRANCH  21  22
ATOM     22  C   UNL     1      61.900   8.078  37.498  1.00  0.00    -0.000 C 
BRANCH  22  23
ATOM     23  C   UNL     1      63.219   8.629  38.071  1.00  0.00    -0.000 C 
BRANCH  23  24
ATOM     24  C   UNL     1      63.551   8.053  39.456  1.00  0.00    -0.000 C 
BRANCH  24  25
ATOM     25  C   UNL     1      63.119   6.582  39.608  1.00  0.00    -0.000 C 
BRANCH  25  26
ATOM     26  C   UNL     1      64.305   5.642  39.883  1.00  0.00    -0.000 C 
BRANCH  26  27
ATOM     27  C   UNL     1      65.604   6.352  40.315  1.00  0.00    -0.000 C 
BRANCH  27  28
ATOM     28  C   UNL     1      66.663   6.445  39.196  1.00  0.00    -0.000 C 
BRANCH  28  29
ATOM     29  C   UNL     1      66.310   5.571  37.983  1.00  0.00    -0.003 C 
ATOM     30  C   UNL     1      66.182   6.412  36.716  1.00  0.00     0.004 C 
ENDBRANCH  28  29
ENDBRANCH  27  28
ENDBRANCH  26  27
ENDBRANCH  25  26
ENDBRANCH  24  25
ENDBRANCH  23  24
ENDBRANCH  22  23
ENDBRANCH  21  22
ENDBRANCH  20  21
ENDBRANCH  19  20
ENDBRANCH  18  19
ENDBRANCH  17  18
ENDBRANCH   1  17
TORSDOF 26
ENDMDL
MODEL 8
REMARK VINA RESULT:    -4.235      2.248      4.012
REMARK INTER + INTRA:         -15.484
REMARK INTER:                 -10.847
REMARK INTRA:                  -4.637
REMARK UNBOUND:                -4.812
REMARK SMILES CCCCCCCCCCCCCCCCCCCCCCCCCCCC(=O)[O-]
REMARK SMILES IDX 15 1 16 2 17 3 18 4 19 5 20 6 21 7 22 8 23 9 24 10 25 11
REMARK SMILES IDX 26 12 27 13 28 14 29 15 30 16 14 17 13 18 12 19 11 20 10 21
REMARK SMILES IDX 9 22 8 23 7 24 6 25 5 26 4 27 3 28 2 29 1 30
REMARK H PARENT
REMARK Flexibility Score: inf
ROOT
ATOM      1  C   UNL     1      59.080  13.624  36.702  1.00  0.00     0.000 C 
ENDROOT
BRANCH   1   2
ATOM      2  C   UNL     1      60.410  12.916  37.037  1.00  0.00     0.000 C 
BRANCH   2   3
ATOM      3  C   UNL     1      60.370  11.378  36.984  1.00  0.00     0.000 C 
BRANCH   3   4
ATOM      4  C   UNL     1      58.990  10.819  36.595  1.00  0.00     0.000 C 
BRANCH   4   5
ATOM      5  C   UNL     1      58.323  10.029  37.736  1.00  0.00     0.000 C 
BRANCH   5   6
ATOM      6  C   UNL     1      59.186   9.853  39.003  1.00  0.00     0.000 C 
BRANCH   6   7
ATOM      7  C   UNL     1      59.306   8.403  39.509  1.00  0.00     0.000 C 
BRANCH   7   8
ATOM      8  C   UNL     1      59.946   7.416  38.511  1.00  0.00     0.000 C 
BRANCH   8   9
ATOM      9  C   UNL     1      61.290   7.876  37.913  1.00  0.00     0.000 C 
BRANCH   9  10
ATOM     10  C   UNL     1      62.503   7.242  38.612  1.00  0.00     0.000 C 
BRANCH  10  11
ATOM     11  C   UNL     1      63.215   8.260  39.515  1.00  0.00     0.000 C 
BRANCH  11  12
ATOM     12  C   UNL     1      62.983   9.719  39.081  1.00  0.00     0.006 C 
BRANCH  12  13
ATOM     13  C   UNL     1      62.480  10.635  40.210  1.00  0.00     0.053 C 
BRANCH  13  14
ATOM     14  C   UNL     1      62.742  12.085  39.933  1.00  0.00     0.041 C 
ATOM     15  O   UNL     1      63.721  12.424  39.218  1.00  0.00    -0.550 OA
ATOM     16  O   UNL     1      61.930  13.065  40.496  1.00  0.00    -0.550 OA
ENDBRANCH  13  14
ENDBRANCH  12  13
ENDBRANCH  11  12
ENDBRANCH  10  11
ENDBRANCH   9  10
ENDBRANCH   8   9
ENDBRANCH   7   8
ENDBRANCH   6   7
ENDBRANCH   5   6
ENDBRANCH   4   5
ENDBRANCH   3   4
ENDBRANCH   2   3
ENDBRANCH   1   2
BRANCH   1  17
ATOM     17  C   UNL     1      58.939  15.054  37.253  1.00  0.00     0.000 C 
BRANCH  17  18
ATOM     18  C   UNL     1      59.299  15.227  38.741  1.00  0.00     0.000 C 
BRANCH  18  19
ATOM     19  C   UNL     1      59.446  16.696  39.188  1.00  0.00     0.000 C 
BRANCH  19  20
ATOM     20  C   UNL     1      59.465  17.685  38.010  1.00  0.00     0.000 C 
BRANCH  20  21
ATOM     21  C   UNL     1      60.662  18.652  38.059  1.00  0.00     0.000 C 
BRANCH  21  22
ATOM     22  C   UNL     1      61.128  18.999  39.490  1.00  0.00    -0.000 C 
BRANCH  22  23
ATOM     23  C   UNL     1      62.648  19.232  39.570  1.00  0.00    -0.000 C 
BRANCH  23  24
ATOM     24  C   UNL     1      63.357  18.223  40.487  1.00  0.00    -0.000 C 
BRANCH  24  25
ATOM     25  C   UNL     1      62.737  16.815  40.412  1.00  0.00    -0.000 C 
BRANCH  25  26
ATOM     26  C   UNL     1      63.504  15.881  39.461  1.00  0.00    -0.000 C 
BRANCH  26  27
ATOM     27  C   UNL     1      62.899  15.762  38.048  1.00  0.00    -0.000 C 
BRANCH  27  28
ATOM     28  C   UNL     1      63.618  16.626  36.989  1.00  0.00    -0.000 C 
BRANCH  28  29
ATOM     29  C   UNL     1      65.051  16.991  37.409  1.00  0.00    -0.003 C 
ATOM     30  C   UNL     1      65.784  17.721  36.288  1.00  0.00     0.004 C 
ENDBRANCH  28  29
ENDBRANCH  27  28
ENDBRANCH  26  27
ENDBRANCH  25  26
ENDBRANCH  24  25
ENDBRANCH  23  24
ENDBRANCH  22  23
ENDBRANCH  21  22
ENDBRANCH  20  21
ENDBRANCH  19  20
ENDBRANCH  18  19
ENDBRANCH  17  18
ENDBRANCH   1  17
TORSDOF 26
ENDMDL
MODEL 9
REMARK VINA RESULT:    -4.232      2.685      8.078
REMARK INTER + INTRA:         -15.476
REMARK INTER:                 -10.385
REMARK INTRA:                  -5.091
REMARK UNBOUND:                -4.812
REMARK SMILES CCCCCCCCCCCCCCCCCCCCCCCCCCCC(=O)[O-]
REMARK SMILES IDX 15 1 16 2 17 3 18 4 19 5 20 6 21 7 22 8 23 9 24 10 25 11
REMARK SMILES IDX 26 12 27 13 28 14 29 15 30 16 14 17 13 18 12 19 11 20 10 21
REMARK SMILES IDX 9 22 8 23 7 24 6 25 5 26 4 27 3 28 2 29 1 30
REMARK H PARENT
REMARK Flexibility Score: inf
ROOT
ATOM      1  C   UNL     1      61.349  14.412  37.382  1.00  0.00     0.000 C 
ENDROOT
BRANCH   1   2
ATOM      2  C   UNL     1      62.058  14.563  38.745  1.00  0.00     0.000 C 
BRANCH   2   3
ATOM      3  C   UNL     1      61.418  15.576  39.712  1.00  0.00     0.000 C 
BRANCH   3   4
ATOM      4  C   UNL     1      59.886  15.454  39.793  1.00  0.00     0.000 C 
BRANCH   4   5
ATOM      5  C   UNL     1      59.233  16.623  40.553  1.00  0.00     0.000 C 
BRANCH   5   6
ATOM      6  C   UNL     1      58.818  17.824  39.678  1.00  0.00     0.000 C 
BRANCH   6   7
ATOM      7  C   UNL     1      59.715  19.068  39.818  1.00  0.00     0.000 C 
BRANCH   7   8
ATOM      8  C   UNL     1      60.950  19.087  38.894  1.00  0.00     0.000 C 
BRANCH   8   9
ATOM      9  C   UNL     1      62.308  19.070  39.622  1.00  0.00     0.000 C 
BRANCH   9  10
ATOM     10  C   UNL     1      63.465  18.617  38.718  1.00  0.00     0.000 C 
BRANCH  10  11
ATOM     11  C   UNL     1      62.955  18.212  37.327  1.00  0.00     0.000 C 
BRANCH  11  12
ATOM     12  C   UNL     1      64.023  17.501  36.475  1.00  0.00     0.006 C 
BRANCH  12  13
ATOM     13  C   UNL     1      64.980  16.611  37.287  1.00  0.00     0.053 C 
BRANCH  13  14
ATOM     14  C   UNL     1      64.928  15.174  36.862  1.00  0.00     0.041 C 
ATOM     15  O   UNL     1      64.396  14.860  35.765  1.00  0.00    -0.550 OA
ATOM     16  O   UNL     1      65.429  14.178  37.693  1.00  0.00    -0.550 OA
ENDBRANCH  13  14
ENDBRANCH  12  13
ENDBRANCH  11  12
ENDBRANCH  10  11
ENDBRANCH   9  10
ENDBRANCH   8   9
ENDBRANCH   7   8
ENDBRANCH   6   7
ENDBRANCH   5   6
ENDBRANCH   4   5
ENDBRANCH   3   4
ENDBRANCH   2   3
ENDBRANCH   1   2
BRANCH   1  17
ATOM     17  C   UNL     1      60.946  12.975  37.006  1.00  0.00     0.000 C 
BRANCH  17  18
ATOM     18  C   UNL     1      59.448  12.648  37.162  1.00  0.00     0.000 C 
BRANCH  18  19
ATOM     19  C   UNL     1      59.155  11.474  38.119  1.00  0.00     0.000 C 
BRANCH  19  20
ATOM     20  C   UNL     1      58.651  11.933  39.498  1.00  0.00     0.000 C 
BRANCH  20  21
ATOM     21  C   UNL     1      59.448  11.318  40.662  1.00  0.00     0.000 C 
BRANCH  21  22
ATOM     22  C   UNL     1      60.759  12.065  40.987  1.00  0.00    -0.000 C 
BRANCH  22  23
ATOM     23  C   UNL     1      61.982  11.129  40.986  1.00  0.00    -0.000 C 
BRANCH  23  24
ATOM     24  C   UNL     1      62.828  11.258  39.709  1.00  0.00    -0.000 C 
BRANCH  24  25
ATOM     25  C   UNL     1      62.691  10.039  38.779  1.00  0.00    -0.000 C 
BRANCH  25  26
ATOM     26  C   UNL     1      63.093   8.723  39.464  1.00  0.00    -0.000 C 
BRANCH  26  27
ATOM     27  C   UNL     1      62.190   7.519  39.129  1.00  0.00    -0.000 C 
BRANCH  27  28
ATOM     28  C   UNL     1      61.283   7.079  40.298  1.00  0.00    -0.000 C 
BRANCH  28  29
ATOM     29  C   UNL     1      59.881   7.704  40.218  1.00  0.00    -0.003 C 
ATOM     30  C   UNL     1      59.454   7.916  38.769  1.00  0.00     0.004 C 
ENDBRANCH  28  29
ENDBRANCH  27  28
ENDBRANCH  26  27
ENDBRANCH  25  26
ENDBRANCH  24  25
ENDBRANCH  23  24
ENDBRANCH  22  23
ENDBRANCH  21  22
ENDBRANCH  20  21
ENDBRANCH  19  20
ENDBRANCH  18  19
ENDBRANCH  17  18
ENDBRANCH   1  17
TORSDOF 26
ENDMDL
