MODEL 1
REMARK VINA RESULT:    -4.700      0.000      0.000
REMARK INTER + INTRA:         -14.680
REMARK INTER:                 -10.745
REMARK INTRA:                  -3.935
REMARK UNBOUND:                -3.935
REMARK SMILES CCCCCCCCCCCCCCCCCCCCCCCC(=O)[O-]
REMARK SMILES IDX 13 1 14 2 15 3 16 4 17 5 18 6 19 7 20 8 21 9 22 10 23 11
REMARK SMILES IDX 24 12 25 13 26 14 12 15 11 16 10 17 9 18 8 19 7 20 6 21 5 22
REMARK SMILES IDX 4 23 3 24 2 25 1 26
REMARK H PARENT
REMARK Flexibility Score: inf
ROOT
ATOM      1  C   UNL     1     209.087 206.469 159.378  1.00  0.00     0.000 C 
ENDROOT
BRANCH   1   2
ATOM      2  C   UNL     1     208.307 205.244 159.884  1.00  0.00     0.000 C 
BRANCH   2   3
ATOM      3  C   UNL     1     207.004 204.991 159.102  1.00  0.00     0.000 C 
BRANCH   3   4
ATOM      4  C   UNL     1     206.213 203.747 159.546  1.00  0.00     0.000 C 
BRANCH   4   5
ATOM      5  C   UNL     1     205.672 202.924 158.363  1.00  0.00     0.000 C 
BRANCH   5   6
ATOM      6  C   UNL     1     205.992 203.574 157.002  1.00  0.00     0.000 C 
BRANCH   6   7
ATOM      7  C   UNL     1     206.352 202.564 155.896  1.00  0.00     0.000 C 
BRANCH   7   8
ATOM      8  C   UNL     1     207.865 202.333 155.763  1.00  0.00     0.000 C 
BRANCH   8   9
ATOM      9  C   UNL     1     208.694 203.468 156.386  1.00  0.00     0.000 C 
BRANCH   9  10
ATOM     10  C   UNL     1     210.151 203.474 155.888  1.00  0.00     0.006 C 
BRANCH  10  11
ATOM     11  C   UNL     1     210.470 202.245 155.024  1.00  0.00     0.053 C 
BRANCH  11  12
ATOM     12  C   UNL     1     211.894 202.249 154.557  1.00  0.00     0.041 C 
ATOM     13  O   UNL     1     212.666 201.307 154.876  1.00  0.00    -0.550 OA
ATOM     14  O   UNL     1     212.363 203.286 153.759  1.00  0.00    -0.550 OA
ENDBRANCH  11  12
ENDBRANCH  10  11
ENDBRANCH   9  10
ENDBRANCH   8   9
ENDBRANCH   7   8
ENDBRANCH   6   7
ENDBRANCH   5   6
ENDBRANCH   4   5
ENDBRANCH   3   4
ENDBRANCH   2   3
ENDBRANCH   1   2
BRANCH   1  15
ATOM     15  C   UNL     1     208.465 207.072 158.099  1.00  0.00     0.000 C 
BRANCH  15  16
ATOM     16  C   UNL     1     209.497 207.700 157.143  1.00  0.00     0.000 C 
BRANCH  16  17
ATOM     17  C   UNL     1     209.546 207.077 155.735  1.00  0.00     0.000 C 
BRANCH  17  18
ATOM     18  C   UNL     1     208.313 207.353 154.854  1.00  0.00    -0.000 C 
BRANCH  18  19
ATOM     19  C   UNL     1     207.250 206.247 154.941  1.00  0.00    -0.000 C 
BRANCH  19  20
ATOM     20  C   UNL     1     205.983 206.654 154.172  1.00  0.00    -0.000 C 
BRANCH  20  21
ATOM     21  C   UNL     1     204.960 207.390 155.049  1.00  0.00    -0.000 C 
BRANCH  21  22
ATOM     22  C   UNL     1     204.924 206.855 156.492  1.00  0.00    -0.000 C 
BRANCH  22  23
ATOM     23  C   UNL     1     205.289 207.931 157.528  1.00  0.00    -0.000 C 
BRANCH  23  24
ATOM     24  C   UNL     1     205.290 209.348 156.924  1.00  0.00    -0.000 C 
BRANCH  24  25
ATOM     25  C   UNL     1     206.698 209.961 156.860  1.00  0.00    -0.003 C 
ATOM     26  C   UNL     1     207.164 210.517 158.207  1.00  0.00     0.004 C 
ENDBRANCH  24  25
ENDBRANCH  23  24
ENDBRANCH  22  23
ENDBRANCH  21  22
ENDBRANCH  20  21
ENDBRANCH  19  20
ENDBRANCH  18  19
ENDBRANCH  17  18
ENDBRANCH  16  17
ENDBRANCH  15  16
ENDBRANCH   1  15
TORSDOF 22
ENDMDL
MODEL 2
REMARK VINA RESULT:    -4.635      1.133      2.093
REMARK INTER + INTRA:         -14.531
REMARK INTER:                 -10.409
REMARK INTRA:                  -4.122
REMARK UNBOUND:                -3.935
REMARK SMILES CCCCCCCCCCCCCCCCCCCCCCCC(=O)[O-]
REMARK SMILES IDX 13 1 14 2 15 3 16 4 17 5 18 6 19 7 20 8 21 9 22 10 23 11
REMARK SMILES IDX 24 12 25 13 26 14 12 15 11 16 10 17 9 18 8 19 7 20 6 21 5 22
REMARK SMILES IDX 4 23 3 24 2 25 1 26
REMARK H PARENT
REMARK Flexibility Score: inf
ROOT
ATOM      1  C   UNL     1     208.807 207.245 157.438  1.00  0.00     0.000 C 
ENDROOT
BRANCH   1   2
ATOM      2  C   UNL     1     208.653 206.703 158.868  1.00  0.00     0.000 C 
BRANCH   2   3
ATOM      3  C   UNL     1     208.211 205.229 158.913  1.00  0.00     0.000 C 
BRANCH   3   4
ATOM      4  C   UNL     1     207.045 204.930 159.873  1.00  0.00     0.000 C 
BRANCH   4   5
ATOM      5  C   UNL     1     206.142 203.783 159.384  1.00  0.00     0.000 C 
BRANCH   5   6
ATOM      6  C   UNL     1     206.007 203.757 157.848  1.00  0.00     0.000 C 
BRANCH   6   7
ATOM      7  C   UNL     1     206.354 202.398 157.212  1.00  0.00     0.000 C 
BRANCH   7   8
ATOM      8  C   UNL     1     206.297 202.421 155.677  1.00  0.00     0.000 C 
BRANCH   8   9
ATOM      9  C   UNL     1     207.687 202.570 155.037  1.00  0.00     0.000 C 
BRANCH   9  10
ATOM     10  C   UNL     1     208.823 202.189 156.002  1.00  0.00     0.006 C 
BRANCH  10  11
ATOM     11  C   UNL     1     210.151 202.861 155.626  1.00  0.00     0.053 C 
BRANCH  11  12
ATOM     12  C   UNL     1     210.931 202.042 154.644  1.00  0.00     0.041 C 
ATOM     13  O   UNL     1     212.173 202.212 154.524  1.00  0.00    -0.550 OA
ATOM     14  O   UNL     1     210.288 201.081 153.872  1.00  0.00    -0.550 OA
ENDBRANCH  11  12
ENDBRANCH  10  11
ENDBRANCH   9  10
ENDBRANCH   8   9
ENDBRANCH   7   8
ENDBRANCH   6   7
ENDBRANCH   5   6
ENDBRANCH   4   5
ENDBRANCH   3   4
ENDBRANCH   2   3
ENDBRANCH   1   2
BRANCH   1  15
ATOM     15  C   UNL     1     208.450 206.188 156.369  1.00  0.00     0.000 C 
BRANCH  15  16
ATOM     16  C   UNL     1     207.765 206.775 155.120  1.00  0.00     0.000 C 
BRANCH  16  17
ATOM     17  C   UNL     1     206.502 206.024 154.656  1.00  0.00     0.000 C 
BRANCH  17  18
ATOM     18  C   UNL     1     205.310 206.923 154.277  1.00  0.00    -0.000 C 
BRANCH  18  19
ATOM     19  C   UNL     1     204.549 207.461 155.498  1.00  0.00    -0.000 C 
BRANCH  19  20
ATOM     20  C   UNL     1     203.950 206.304 156.314  1.00  0.00    -0.000 C 
BRANCH  20  21
ATOM     21  C   UNL     1     203.982 206.560 157.828  1.00  0.00    -0.000 C 
BRANCH  21  22
ATOM     22  C   UNL     1     205.095 207.540 158.240  1.00  0.00    -0.000 C 
BRANCH  22  23
ATOM     23  C   UNL     1     204.592 208.633 159.198  1.00  0.00    -0.000 C 
BRANCH  23  24
ATOM     24  C   UNL     1     205.182 210.017 158.868  1.00  0.00    -0.000 C 
BRANCH  24  25
ATOM     25  C   UNL     1     206.622 209.933 158.339  1.00  0.00    -0.003 C 
ATOM     26  C   UNL     1     206.705 210.101 156.820  1.00  0.00     0.004 C 
ENDBRANCH  24  25
ENDBRANCH  23  24
ENDBRANCH  22  23
ENDBRANCH  21  22
ENDBRANCH  20  21
ENDBRANCH  19  20
ENDBRANCH  18  19
ENDBRANCH  17  18
ENDBRANCH  16  17
ENDBRANCH  15  16
ENDBRANCH   1  15
TORSDOF 22
ENDMDL
MODEL 3
REMARK VINA RESULT:    -4.546      4.015      7.426
REMARK INTER + INTRA:         -14.327
REMARK INTER:                 -10.666
REMARK INTRA:                  -3.661
REMARK UNBOUND:                -3.935
REMARK SMILES CCCCCCCCCCCCCCCCCCCCCCCC(=O)[O-]
REMARK SMILES IDX 13 1 14 2 15 3 16 4 17 5 18 6 19 7 20 8 21 9 22 10 23 11
REMARK SMILES IDX 24 12 25 13 26 14 12 15 11 16 10 17 9 18 8 19 7 20 6 21 5 22
REMARK SMILES IDX 4 23 3 24 2 25 1 26
REMARK H PARENT
REMARK Flexibility Score: inf
ROOT
ATOM      1  C   UNL     1     208.916 207.987 157.282  1.00  0.00     0.000 C 
ENDROOT
BRANCH   1   2
ATOM      2  C   UNL     1     209.425 207.284 156.013  1.00  0.00     0.000 C 
BRANCH   2   3
ATOM      3  C   UNL     1     208.376 207.234 154.887  1.00  0.00     0.000 C 
BRANCH   3   4
ATOM      4  C   UNL     1     207.185 206.295 155.151  1.00  0.00     0.000 C 
BRANCH   4   5
ATOM      5  C   UNL     1     205.892 206.751 154.451  1.00  0.00     0.000 C 
BRANCH   5   6
ATOM      6  C   UNL     1     204.921 207.461 155.417  1.00  0.00     0.000 C 
BRANCH   6   7
ATOM      7  C   UNL     1     204.675 206.695 156.730  1.00  0.00     0.000 C 
BRANCH   7   8
ATOM      8  C   UNL     1     205.121 207.478 157.974  1.00  0.00     0.000 C 
BRANCH   8   9
ATOM      9  C   UNL     1     205.575 208.908 157.642  1.00  0.00     0.000 C 
BRANCH   9  10
ATOM     10  C   UNL     1     205.210 209.913 158.750  1.00  0.00     0.006 C 
BRANCH  10  11
ATOM     11  C   UNL     1     204.117 209.373 159.683  1.00  0.00     0.053 C 
BRANCH  11  12
ATOM     12  C   UNL     1     202.920 210.273 159.717  1.00  0.00     0.041 C 
ATOM     13  O   UNL     1     203.022 211.474 159.357  1.00  0.00    -0.550 OA
ATOM     14  O   UNL     1     201.689 209.779 160.133  1.00  0.00    -0.550 OA
ENDBRANCH  11  12
ENDBRANCH  10  11
ENDBRANCH   9  10
ENDBRANCH   8   9
ENDBRANCH   7   8
ENDBRANCH   6   7
ENDBRANCH   5   6
ENDBRANCH   4   5
ENDBRANCH   3   4
ENDBRANCH   2   3
ENDBRANCH   1   2
BRANCH   1  15
ATOM     15  C   UNL     1     209.138 207.136 158.552  1.00  0.00     0.000 C 
BRANCH  15  16
ATOM     16  C   UNL     1     208.431 205.768 158.515  1.00  0.00     0.000 C 
BRANCH  16  17
ATOM     17  C   UNL     1     207.798 205.324 159.848  1.00  0.00     0.000 C 
BRANCH  17  18
ATOM     18  C   UNL     1     206.377 204.742 159.735  1.00  0.00    -0.000 C 
BRANCH  18  19
ATOM     19  C   UNL     1     206.363 203.216 159.561  1.00  0.00    -0.000 C 
BRANCH  19  20
ATOM     20  C   UNL     1     205.607 202.825 158.281  1.00  0.00    -0.000 C 
BRANCH  20  21
ATOM     21  C   UNL     1     206.280 203.349 157.004  1.00  0.00    -0.000 C 
BRANCH  21  22
ATOM     22  C   UNL     1     206.407 202.268 155.916  1.00  0.00    -0.000 C 
BRANCH  22  23
ATOM     23  C   UNL     1     207.823 202.195 155.320  1.00  0.00    -0.000 C 
BRANCH  23  24
ATOM     24  C   UNL     1     208.814 203.117 156.054  1.00  0.00    -0.000 C 
BRANCH  24  25
ATOM     25  C   UNL     1     210.278 202.817 155.693  1.00  0.00    -0.003 C 
ATOM     26  C   UNL     1     210.411 201.805 154.553  1.00  0.00     0.004 C 
ENDBRANCH  24  25
ENDBRANCH  23  24
ENDBRANCH  22  23
ENDBRANCH  21  22
ENDBRANCH  20  21
ENDBRANCH  19  20
ENDBRANCH  18  19
ENDBRANCH  17  18
ENDBRANCH  16  17
ENDBRANCH  15  16
ENDBRANCH   1  15
TORSDOF 22
ENDMDL
MODEL 4
REMARK VINA RESULT:    -4.545      4.603      7.996
REMARK INTER + INTRA:         -14.324
REMARK INTER:                 -10.507
REMARK INTRA:                  -3.817
REMARK UNBOUND:                -3.935
REMARK SMILES CCCCCCCCCCCCCCCCCCCCCCCC(=O)[O-]
REMARK SMILES IDX 13 1 14 2 15 3 16 4 17 5 18 6 19 7 20 8 21 9 22 10 23 11
REMARK SMILES IDX 24 12 25 13 26 14 12 15 11 16 10 17 9 18 8 19 7 20 6 21 5 22
REMARK SMILES IDX 4 23 3 24 2 25 1 26
REMARK H PARENT
REMARK Flexibility Score: inf
ROOT
ATOM      1  C   UNL     1     208.848 206.684 156.296  1.00  0.00     0.000 C 
ENDROOT
BRANCH   1   2
ATOM      2  C   UNL     1     207.822 207.253 155.302  1.00  0.00     0.000 C 
BRANCH   2   3
ATOM      3  C   UNL     1     206.933 206.170 154.662  1.00  0.00     0.000 C 
BRANCH   3   4
ATOM      4  C   UNL     1     205.439 206.263 155.021  1.00  0.00     0.000 C 
BRANCH   4   5
ATOM      5  C   UNL     1     205.133 207.373 156.043  1.00  0.00     0.000 C 
BRANCH   5   6
ATOM      6  C   UNL     1     204.673 206.807 157.401  1.00  0.00     0.000 C 
BRANCH   6   7
ATOM      7  C   UNL     1     204.997 207.718 158.600  1.00  0.00     0.000 C 
BRANCH   7   8
ATOM      8  C   UNL     1     205.569 209.081 158.181  1.00  0.00     0.000 C 
BRANCH   8   9
ATOM      9  C   UNL     1     205.024 210.238 159.034  1.00  0.00     0.000 C 
BRANCH   9  10
ATOM     10  C   UNL     1     203.717 209.869 159.760  1.00  0.00     0.006 C 
BRANCH  10  11
ATOM     11  C   UNL     1     202.675 210.992 159.680  1.00  0.00     0.053 C 
BRANCH  11  12
ATOM     12  C   UNL     1     201.479 210.703 160.537  1.00  0.00     0.041 C 
ATOM     13  O   UNL     1     200.704 209.757 160.241  1.00  0.00    -0.550 OA
ATOM     14  O   UNL     1     201.231 211.471 161.669  1.00  0.00    -0.550 OA
ENDBRANCH  11  12
ENDBRANCH  10  11
ENDBRANCH   9  10
ENDBRANCH   8   9
ENDBRANCH   7   8
ENDBRANCH   6   7
ENDBRANCH   5   6
ENDBRANCH   4   5
ENDBRANCH   3   4
ENDBRANCH   2   3
ENDBRANCH   1   2
BRANCH   1  15
ATOM     15  C   UNL     1     208.883 207.478 157.620  1.00  0.00     0.000 C 
BRANCH  15  16
ATOM     16  C   UNL     1     208.578 206.624 158.865  1.00  0.00     0.000 C 
BRANCH  16  17
ATOM     17  C   UNL     1     207.807 205.320 158.589  1.00  0.00     0.000 C 
BRANCH  17  18
ATOM     18  C   UNL     1     206.926 204.822 159.750  1.00  0.00    -0.000 C 
BRANCH  18  19
ATOM     19  C   UNL     1     206.127 203.557 159.402  1.00  0.00    -0.000 C 
BRANCH  19  20
ATOM     20  C   UNL     1     205.731 203.559 157.917  1.00  0.00    -0.000 C 
BRANCH  20  21
ATOM     21  C   UNL     1     206.264 202.338 157.152  1.00  0.00    -0.000 C 
BRANCH  21  22
ATOM     22  C   UNL     1     206.160 202.505 155.626  1.00  0.00    -0.000 C 
BRANCH  22  23
ATOM     23  C   UNL     1     207.535 202.492 154.937  1.00  0.00    -0.000 C 
BRANCH  23  24
ATOM     24  C   UNL     1     208.641 203.089 155.828  1.00  0.00    -0.000 C 
BRANCH  24  25
ATOM     25  C   UNL     1     209.883 202.189 155.910  1.00  0.00    -0.003 C 
ATOM     26  C   UNL     1     210.804 202.339 154.697  1.00  0.00     0.004 C 
ENDBRANCH  24  25
ENDBRANCH  23  24
ENDBRANCH  22  23
ENDBRANCH  21  22
ENDBRANCH  20  21
ENDBRANCH  19  20
ENDBRANCH  18  19
ENDBRANCH  17  18
ENDBRANCH  16  17
ENDBRANCH  15  16
ENDBRANCH   1  15
TORSDOF 22
ENDMDL
MODEL 5
REMARK VINA RESULT:    -4.530      2.505      4.247
REMARK INTER + INTRA:         -14.290
REMARK INTER:                 -11.085
REMARK INTRA:                  -3.204
REMARK UNBOUND:                -3.935
REMARK SMILES CCCCCCCCCCCCCCCCCCCCCCCC(=O)[O-]
REMARK SMILES IDX 13 1 14 2 15 3 16 4 17 5 18 6 19 7 20 8 21 9 22 10 23 11
REMARK SMILES IDX 24 12 25 13 26 14 12 15 11 16 10 17 9 18 8 19 7 20 6 21 5 22
REMARK SMILES IDX 4 23 3 24 2 25 1 26
REMARK H PARENT
REMARK Flexibility Score: inf
ROOT
ATOM      1  C   UNL     1     205.660 204.920 158.710  1.00  0.00     0.000 C 
ENDROOT
BRANCH   1   2
ATOM      2  C   UNL     1     206.180 203.576 159.245  1.00  0.00     0.000 C 
BRANCH   2   3
ATOM      3  C   UNL     1     205.671 202.366 158.441  1.00  0.00     0.000 C 
BRANCH   3   4
ATOM      4  C   UNL     1     206.725 201.694 157.543  1.00  0.00     0.000 C 
BRANCH   4   5
ATOM      5  C   UNL     1     206.706 202.220 156.096  1.00  0.00     0.000 C 
BRANCH   5   6
ATOM      6  C   UNL     1     208.125 202.445 155.536  1.00  0.00     0.000 C 
BRANCH   6   7
ATOM      7  C   UNL     1     208.861 203.644 156.162  1.00  0.00     0.000 C 
BRANCH   7   8
ATOM      8  C   UNL     1     208.086 204.963 156.024  1.00  0.00     0.000 C 
BRANCH   8   9
ATOM      9  C   UNL     1     208.577 206.043 157.003  1.00  0.00     0.000 C 
BRANCH   9  10
ATOM     10  C   UNL     1     208.779 207.407 156.320  1.00  0.00     0.006 C 
BRANCH  10  11
ATOM     11  C   UNL     1     209.540 207.282 154.992  1.00  0.00     0.053 C 
BRANCH  11  12
ATOM     12  C   UNL     1     210.993 206.987 155.210  1.00  0.00     0.041 C 
ATOM     13  O   UNL     1     211.462 205.861 154.901  1.00  0.00    -0.550 OA
ATOM     14  O   UNL     1     211.830 207.962 155.740  1.00  0.00    -0.550 OA
ENDBRANCH  11  12
ENDBRANCH  10  11
ENDBRANCH   9  10
ENDBRANCH   8   9
ENDBRANCH   7   8
ENDBRANCH   6   7
ENDBRANCH   5   6
ENDBRANCH   4   5
ENDBRANCH   3   4
ENDBRANCH   2   3
ENDBRANCH   1   2
BRANCH   1  15
ATOM     15  C   UNL     1     204.730 204.744 157.489  1.00  0.00     0.000 C 
BRANCH  15  16
ATOM     16  C   UNL     1     203.673 205.856 157.348  1.00  0.00     0.000 C 
BRANCH  16  17
ATOM     17  C   UNL     1     203.735 206.651 156.030  1.00  0.00     0.000 C 
BRANCH  17  18
ATOM     18  C   UNL     1     205.124 207.209 155.668  1.00  0.00    -0.000 C 
BRANCH  18  19
ATOM     19  C   UNL     1     205.373 208.617 156.229  1.00  0.00    -0.000 C 
BRANCH  19  20
ATOM     20  C   UNL     1     205.653 208.555 157.739  1.00  0.00    -0.000 C 
BRANCH  20  21
ATOM     21  C   UNL     1     205.756 209.944 158.388  1.00  0.00    -0.000 C 
BRANCH  21  22
ATOM     22  C   UNL     1     204.434 210.394 159.034  1.00  0.00    -0.000 C 
BRANCH  22  23
ATOM     23  C   UNL     1     203.712 209.246 159.759  1.00  0.00    -0.000 C 
BRANCH  23  24
ATOM     24  C   UNL     1     202.240 209.581 160.065  1.00  0.00    -0.000 C 
BRANCH  24  25
ATOM     25  C   UNL     1     201.998 211.091 160.220  1.00  0.00    -0.003 C 
ATOM     26  C   UNL     1     201.174 211.433 161.462  1.00  0.00     0.004 C 
ENDBRANCH  24  25
ENDBRANCH  23  24
ENDBRANCH  22  23
ENDBRANCH  21  22
ENDBRANCH  20  21
ENDBRANCH  19  20
ENDBRANCH  18  19
ENDBRANCH  17  18
ENDBRANCH  16  17
ENDBRANCH  15  16
ENDBRANCH   1  15
TORSDOF 22
ENDMDL
MODEL 6
REMARK VINA RESULT:    -4.489      4.482      8.191
REMARK INTER + INTRA:         -14.197
REMARK INTER:                 -10.794
REMARK INTRA:                  -3.403
REMARK UNBOUND:                -3.935
REMARK SMILES CCCCCCCCCCCCCCCCCCCCCCCC(=O)[O-]
REMARK SMILES IDX 13 1 14 2 15 3 16 4 17 5 18 6 19 7 20 8 21 9 22 10 23 11
REMARK SMILES IDX 24 12 25 13 26 14 12 15 11 16 10 17 9 18 8 19 7 20 6 21 5 22
REMARK SMILES IDX 4 23 3 24 2 25 1 26
REMARK H PARENT
REMARK Flexibility Score: inf
ROOT
ATOM      1  C   UNL     1     205.251 206.677 154.460  1.00  0.00     0.000 C 
ENDROOT
BRANCH   1   2
ATOM      2  C   UNL     1     206.755 206.560 154.161  1.00  0.00     0.000 C 
BRANCH   2   3
ATOM      3  C   UNL     1     207.619 206.466 155.432  1.00  0.00     0.000 C 
BRANCH   3   4
ATOM      4  C   UNL     1     208.769 207.486 155.511  1.00  0.00     0.000 C 
BRANCH   4   5
ATOM      5  C   UNL     1     209.259 207.731 156.950  1.00  0.00     0.000 C 
BRANCH   5   6
ATOM      6  C   UNL     1     208.095 207.980 157.930  1.00  0.00     0.000 C 
BRANCH   6   7
ATOM      7  C   UNL     1     207.463 209.379 157.809  1.00  0.00     0.000 C 
BRANCH   7   8
ATOM      8  C   UNL     1     205.928 209.352 157.875  1.00  0.00     0.000 C 
BRANCH   8   9
ATOM      9  C   UNL     1     205.377 210.099 159.101  1.00  0.00     0.000 C 
BRANCH   9  10
ATOM     10  C   UNL     1     203.963 209.629 159.489  1.00  0.00     0.006 C 
BRANCH  10  11
ATOM     11  C   UNL     1     202.951 210.784 159.493  1.00  0.00     0.053 C 
BRANCH  11  12
ATOM     12  C   UNL     1     201.750 210.469 160.332  1.00  0.00     0.041 C 
ATOM     13  O   UNL     1     201.073 209.433 160.102  1.00  0.00    -0.550 OA
ATOM     14  O   UNL     1     201.388 211.313 161.375  1.00  0.00    -0.550 OA
ENDBRANCH  11  12
ENDBRANCH  10  11
ENDBRANCH   9  10
ENDBRANCH   8   9
ENDBRANCH   7   8
ENDBRANCH   6   7
ENDBRANCH   5   6
ENDBRANCH   4   5
ENDBRANCH   3   4
ENDBRANCH   2   3
ENDBRANCH   1   2
BRANCH   1  15
ATOM     15  C   UNL     1     204.970 206.929 155.958  1.00  0.00     0.000 C 
BRANCH  15  16
ATOM     16  C   UNL     1     203.821 206.074 156.527  1.00  0.00     0.000 C 
BRANCH  16  17
ATOM     17  C   UNL     1     204.211 205.154 157.700  1.00  0.00     0.000 C 
BRANCH  17  18
ATOM     18  C   UNL     1     205.586 205.446 158.330  1.00  0.00    -0.000 C 
BRANCH  18  19
ATOM     19  C   UNL     1     206.591 204.299 158.144  1.00  0.00    -0.000 C 
BRANCH  19  20
ATOM     20  C   UNL     1     205.864 202.946 158.097  1.00  0.00    -0.000 C 
BRANCH  20  21
ATOM     21  C   UNL     1     206.292 202.075 156.907  1.00  0.00    -0.000 C 
BRANCH  21  22
ATOM     22  C   UNL     1     206.447 202.885 155.608  1.00  0.00    -0.000 C 
BRANCH  22  23
ATOM     23  C   UNL     1     207.798 202.635 154.915  1.00  0.00    -0.000 C 
BRANCH  23  24
ATOM     24  C   UNL     1     208.903 202.246 155.914  1.00  0.00    -0.000 C 
BRANCH  24  25
ATOM     25  C   UNL     1     210.192 203.060 155.714  1.00  0.00    -0.003 C 
ATOM     26  C   UNL     1     211.224 202.332 154.852  1.00  0.00     0.004 C 
ENDBRANCH  24  25
ENDBRANCH  23  24
ENDBRANCH  22  23
ENDBRANCH  21  22
ENDBRANCH  20  21
ENDBRANCH  19  20
ENDBRANCH  18  19
ENDBRANCH  17  18
ENDBRANCH  16  17
ENDBRANCH  15  16
ENDBRANCH   1  15
TORSDOF 22
ENDMDL
MODEL 7
REMARK VINA RESULT:    -4.468      1.842      3.009
REMARK INTER + INTRA:         -14.148
REMARK INTER:                 -10.563
REMARK INTRA:                  -3.585
REMARK UNBOUND:                -3.935
REMARK SMILES CCCCCCCCCCCCCCCCCCCCCCCC(=O)[O-]
REMARK SMILES IDX 13 1 14 2 15 3 16 4 17 5 18 6 19 7 20 8 21 9 22 10 23 11
REMARK SMILES IDX 24 12 25 13 26 14 12 15 11 16 10 17 9 18 8 19 7 20 6 21 5 22
REMARK SMILES IDX 4 23 3 24 2 25 1 26
REMARK H PARENT
REMARK Flexibility Score: inf
ROOT
ATOM      1  C   UNL     1     208.977 206.491 156.414  1.00  0.00     0.000 C 
ENDROOT
BRANCH   1   2
ATOM      2  C   UNL     1     209.136 207.439 157.614  1.00  0.00     0.000 C 
BRANCH   2   3
ATOM      3  C   UNL     1     208.608 206.842 158.932  1.00  0.00     0.000 C 
BRANCH   3   4
ATOM      4  C   UNL     1     208.159 205.372 158.843  1.00  0.00     0.000 C 
BRANCH   4   5
ATOM      5  C   UNL     1     206.871 205.087 159.637  1.00  0.00     0.000 C 
BRANCH   5   6
ATOM      6  C   UNL     1     205.960 204.064 158.929  1.00  0.00     0.000 C 
BRANCH   6   7
ATOM      7  C   UNL     1     206.359 203.776 157.470  1.00  0.00     0.000 C 
BRANCH   7   8
ATOM      8  C   UNL     1     206.296 202.283 157.114  1.00  0.00     0.000 C 
BRANCH   8   9
ATOM      9  C   UNL     1     207.183 201.924 155.910  1.00  0.00     0.000 C 
BRANCH   9  10
ATOM     10  C   UNL     1     208.250 202.998 155.626  1.00  0.00     0.006 C 
BRANCH  10  11
ATOM     11  C   UNL     1     209.656 202.537 156.036  1.00  0.00     0.053 C 
BRANCH  11  12
ATOM     12  C   UNL     1     210.474 202.125 154.849  1.00  0.00     0.041 C 
ATOM     13  O   UNL     1     210.026 201.271 154.040  1.00  0.00    -0.550 OA
ATOM     14  O   UNL     1     211.723 202.694 154.633  1.00  0.00    -0.550 OA
ENDBRANCH  11  12
ENDBRANCH  10  11
ENDBRANCH   9  10
ENDBRANCH   8   9
ENDBRANCH   7   8
ENDBRANCH   6   7
ENDBRANCH   5   6
ENDBRANCH   4   5
ENDBRANCH   3   4
ENDBRANCH   2   3
ENDBRANCH   1   2
BRANCH   1  15
ATOM     15  C   UNL     1     209.069 207.236 155.063  1.00  0.00     0.000 C 
BRANCH  15  16
ATOM     16  C   UNL     1     207.822 207.067 154.175  1.00  0.00     0.000 C 
BRANCH  16  17
ATOM     17  C   UNL     1     206.690 206.225 154.792  1.00  0.00     0.000 C 
BRANCH  17  18
ATOM     18  C   UNL     1     205.274 206.807 154.621  1.00  0.00    -0.000 C 
BRANCH  18  19
ATOM     19  C   UNL     1     204.506 206.925 155.946  1.00  0.00    -0.000 C 
BRANCH  19  20
ATOM     20  C   UNL     1     205.450 207.353 157.081  1.00  0.00    -0.000 C 
BRANCH  20  21
ATOM     21  C   UNL     1     205.981 208.784 156.912  1.00  0.00    -0.000 C 
BRANCH  21  22
ATOM     22  C   UNL     1     205.591 209.701 158.085  1.00  0.00    -0.000 C 
BRANCH  22  23
ATOM     23  C   UNL     1     204.517 209.075 158.991  1.00  0.00    -0.000 C 
BRANCH  23  24
ATOM     24  C   UNL     1     203.725 210.135 159.777  1.00  0.00    -0.000 C 
BRANCH  24  25
ATOM     25  C   UNL     1     202.309 209.663 160.143  1.00  0.00    -0.003 C 
ATOM     26  C   UNL     1     201.405 210.806 160.608  1.00  0.00     0.004 C 
ENDBRANCH  24  25
ENDBRANCH  23  24
ENDBRANCH  22  23
ENDBRANCH  21  22
ENDBRANCH  20  21
ENDBRANCH  19  20
ENDBRANCH  18  19
ENDBRANCH  17  18
ENDBRANCH  16  17
ENDBRANCH  15  16
ENDBRANCH   1  15
TORSDOF 22
ENDMDL
MODEL 8
REMARK VINA RESULT:    -4.464      1.300      2.763
REMARK INTER + INTRA:         -14.141
REMARK INTER:                 -10.639
REMARK INTRA:                  -3.502
REMARK UNBOUND:                -3.935
REMARK SMILES CCCCCCCCCCCCCCCCCCCCCCCC(=O)[O-]
REMARK SMILES IDX 13 1 14 2 15 3 16 4 17 5 18 6 19 7 20 8 21 9 22 10 23 11
REMARK SMILES IDX 24 12 25 13 26 14 12 15 11 16 10 17 9 18 8 19 7 20 6 21 5 22
REMARK SMILES IDX 4 23 3 24 2 25 1 26
REMARK H PARENT
REMARK Flexibility Score: inf
ROOT
ATOM      1  C   UNL     1     204.590 206.509 156.139  1.00  0.00     0.000 C 
ENDROOT
BRANCH   1   2
ATOM      2  C   UNL     1     205.089 205.098 156.491  1.00  0.00     0.000 C 
BRANCH   2   3
ATOM      3  C   UNL     1     205.158 204.841 158.008  1.00  0.00     0.000 C 
BRANCH   3   4
ATOM      4  C   UNL     1     206.303 203.916 158.458  1.00  0.00     0.000 C 
BRANCH   4   5
ATOM      5  C   UNL     1     205.873 202.444 158.587  1.00  0.00     0.000 C 
BRANCH   5   6
ATOM      6  C   UNL     1     206.576 201.536 157.558  1.00  0.00     0.000 C 
BRANCH   6   7
ATOM      7  C   UNL     1     206.398 201.991 156.097  1.00  0.00     0.000 C 
BRANCH   7   8
ATOM      8  C   UNL     1     207.733 202.226 155.375  1.00  0.00     0.000 C 
BRANCH   8   9
ATOM      9  C   UNL     1     208.536 203.389 155.981  1.00  0.00     0.000 C 
BRANCH   9  10
ATOM     10  C   UNL     1     210.051 203.114 155.992  1.00  0.00     0.006 C 
BRANCH  10  11
ATOM     11  C   UNL     1     210.451 202.043 154.968  1.00  0.00     0.053 C 
BRANCH  11  12
ATOM     12  C   UNL     1     211.872 202.207 154.518  1.00  0.00     0.041 C 
ATOM     13  O   UNL     1     212.725 201.322 154.786  1.00  0.00    -0.550 OA
ATOM     14  O   UNL     1     212.247 203.330 153.791  1.00  0.00    -0.550 OA
ENDBRANCH  11  12
ENDBRANCH  10  11
ENDBRANCH   9  10
ENDBRANCH   8   9
ENDBRANCH   7   8
ENDBRANCH   6   7
ENDBRANCH   5   6
ENDBRANCH   4   5
ENDBRANCH   3   4
ENDBRANCH   2   3
ENDBRANCH   1   2
BRANCH   1  15
ATOM     15  C   UNL     1     205.399 207.146 154.988  1.00  0.00     0.000 C 
BRANCH  15  16
ATOM     16  C   UNL     1     206.567 206.273 154.492  1.00  0.00     0.000 C 
BRANCH  16  17
ATOM     17  C   UNL     1     207.783 207.052 153.956  1.00  0.00     0.000 C 
BRANCH  17  18
ATOM     18  C   UNL     1     208.837 207.429 155.014  1.00  0.00    -0.000 C 
BRANCH  18  19
ATOM     19  C   UNL     1     208.731 206.589 156.296  1.00  0.00    -0.000 C 
BRANCH  19  20
ATOM     20  C   UNL     1     208.789 207.491 157.539  1.00  0.00    -0.000 C 
BRANCH  20  21
ATOM     21  C   UNL     1     207.399 207.909 158.042  1.00  0.00    -0.000 C 
BRANCH  21  22
ATOM     22  C   UNL     1     207.008 209.326 157.588  1.00  0.00    -0.000 C 
BRANCH  22  23
ATOM     23  C   UNL     1     205.541 209.662 157.907  1.00  0.00    -0.000 C 
BRANCH  23  24
ATOM     24  C   UNL     1     204.953 208.743 158.994  1.00  0.00    -0.000 C 
BRANCH  24  25
ATOM     25  C   UNL     1     203.755 209.377 159.718  1.00  0.00    -0.003 C 
ATOM     26  C   UNL     1     203.506 210.826 159.294  1.00  0.00     0.004 C 
ENDBRANCH  24  25
ENDBRANCH  23  24
ENDBRANCH  22  23
ENDBRANCH  21  22
ENDBRANCH  20  21
ENDBRANCH  19  20
ENDBRANCH  18  19
ENDBRANCH  17  18
ENDBRANCH  16  17
ENDBRANCH  15  16
ENDBRANCH   1  15
TORSDOF 22
ENDMDL
MODEL 9
REMARK VINA RESULT:    -4.462      3.251      6.915
REMARK INTER + INTRA:         -14.136
REMARK INTER:                 -10.545
REMARK INTRA:                  -3.591
REMARK UNBOUND:                -3.935
REMARK SMILES CCCCCCCCCCCCCCCCCCCCCCCC(=O)[O-]
REMARK SMILES IDX 13 1 14 2 15 3 16 4 17 5 18 6 19 7 20 8 21 9 22 10 23 11
REMARK SMILES IDX 24 12 25 13 26 14 12 15 11 16 10 17 9 18 8 19 7 20 6 21 5 22
REMARK SMILES IDX 4 23 3 24 2 25 1 26
REMARK H PARENT
REMARK Flexibility Score: inf
ROOT
ATOM      1  C   UNL     1     207.932 205.713 158.488  1.00  0.00     0.000 C 
ENDROOT
BRANCH   1   2
ATOM      2  C   UNL     1     208.893 206.846 158.885  1.00  0.00     0.000 C 
BRANCH   2   3
ATOM      3  C   UNL     1     209.075 207.901 157.778  1.00  0.00     0.000 C 
BRANCH   3   4
ATOM      4  C   UNL     1     209.629 207.358 156.448  1.00  0.00     0.000 C 
BRANCH   4   5
ATOM      5  C   UNL     1     208.803 207.800 155.227  1.00  0.00     0.000 C 
BRANCH   5   6
ATOM      6  C   UNL     1     208.099 206.615 154.535  1.00  0.00     0.000 C 
BRANCH   6   7
ATOM      7  C   UNL     1     206.575 206.787 154.397  1.00  0.00     0.000 C 
BRANCH   7   8
ATOM      8  C   UNL     1     205.779 205.905 155.370  1.00  0.00     0.000 C 
BRANCH   8   9
ATOM      9  C   UNL     1     205.238 206.692 156.574  1.00  0.00     0.000 C 
BRANCH   9  10
ATOM     10  C   UNL     1     205.194 208.209 156.313  1.00  0.00     0.006 C 
BRANCH  10  11
ATOM     11  C   UNL     1     205.903 209.006 157.417  1.00  0.00     0.053 C 
BRANCH  11  12
ATOM     12  C   UNL     1     205.019 209.213 158.609  1.00  0.00     0.041 C 
ATOM     13  O   UNL     1     204.499 208.225 159.189  1.00  0.00    -0.550 OA
ATOM     14  O   UNL     1     204.782 210.497 159.085  1.00  0.00    -0.550 OA
ENDBRANCH  11  12
ENDBRANCH  10  11
ENDBRANCH   9  10
ENDBRANCH   8   9
ENDBRANCH   7   8
ENDBRANCH   6   7
ENDBRANCH   5   6
ENDBRANCH   4   5
ENDBRANCH   3   4
ENDBRANCH   2   3
ENDBRANCH   1   2
BRANCH   1  15
ATOM     15  C   UNL     1     206.783 205.537 159.506  1.00  0.00     0.000 C 
BRANCH  15  16
ATOM     16  C   UNL     1     206.381 204.068 159.741  1.00  0.00     0.000 C 
BRANCH  16  17
ATOM     17  C   UNL     1     205.810 203.343 158.507  1.00  0.00     0.000 C 
BRANCH  17  18
ATOM     18  C   UNL     1     205.984 201.812 158.510  1.00  0.00    -0.000 C 
BRANCH  18  19
ATOM     19  C   UNL     1     206.654 201.279 157.235  1.00  0.00    -0.000 C 
BRANCH  19  20
ATOM     20  C   UNL     1     206.427 202.245 156.061  1.00  0.00    -0.000 C 
BRANCH  20  21
ATOM     21  C   UNL     1     207.702 202.511 155.248  1.00  0.00    -0.000 C 
BRANCH  21  22
ATOM     22  C   UNL     1     208.669 203.471 155.963  1.00  0.00    -0.000 C 
BRANCH  22  23
ATOM     23  C   UNL     1     210.093 202.900 156.072  1.00  0.00    -0.000 C 
BRANCH  23  24
ATOM     24  C   UNL     1     210.458 202.007 154.871  1.00  0.00    -0.000 C 
BRANCH  24  25
ATOM     25  C   UNL     1     211.959 202.042 154.545  1.00  0.00    -0.003 C 
ATOM     26  C   UNL     1     212.372 203.306 153.787  1.00  0.00     0.004 C 
ENDBRANCH  24  25
ENDBRANCH  23  24
ENDBRANCH  22  23
ENDBRANCH  21  22
ENDBRANCH  20  21
ENDBRANCH  19  20
ENDBRANCH  18  19
ENDBRANCH  17  18
ENDBRANCH  16  17
ENDBRANCH  15  16
ENDBRANCH   1  15
TORSDOF 22
ENDMDL
