MODEL 1
REMARK VINA RESULT:    -5.151      0.000      0.000
REMARK INTER + INTRA:          -9.376
REMARK INTER:                  -7.108
REMARK INTRA:                  -2.268
REMARK UNBOUND:                -2.268
REMARK SMILES CC[C@H](CC[C@H](C)[C@@H]1CC[C@@H]2[C@H]3CC=C4C[C@H](O)CC[C@@]4(C)[C@H]3CC[C@@]21C)C(C)C
REMARK SMILES IDX 5 1 4 2 3 3 2 4 1 5 28 6 29 7 30 8 6 9 7 10 8 11 9 12 26 13
REMARK SMILES IDX 10 14 11 15 25 16 27 17 12 18 24 19 23 20 13 21 21 22 14 23
REMARK SMILES IDX 15 24 20 25 22 26 16 27 19 28 17 29 18 30
REMARK H PARENT 18 31
REMARK Flexibility Score: inf
ROOT
ATOM      1  C   UNL     1      35.717  27.126  10.695  1.00  0.00     0.004 C 
ENDROOT
BRANCH   1   2
ATOM      2  C   UNL     1      35.814  26.141  11.877  1.00  0.00     0.004 C 
BRANCH   2   3
ATOM      3  C   UNL     1      34.460  26.029  12.654  1.00  0.00    -0.009 C 
BRANCH   3   4
ATOM      4  C   UNL     1      34.309  24.610  13.271  1.00  0.00     0.000 C 
ATOM      5  C   UNL     1      33.039  23.893  12.799  1.00  0.00     0.004 C 
ENDBRANCH   3   4
BRANCH   3   6
ATOM      6  C   UNL     1      34.334  27.173  13.718  1.00  0.00    -0.014 C 
ATOM      7  C   UNL     1      33.975  26.656  15.124  1.00  0.00     0.007 C 
ATOM      8  C   UNL     1      33.270  28.206  13.294  1.00  0.00     0.007 C 
ENDBRANCH   3   6
ENDBRANCH   2   3
ENDBRANCH   1   2
BRANCH   1   9
ATOM      9  C   UNL     1      34.762  26.627   9.567  1.00  0.00    -0.011 C 
ATOM     10  C   UNL     1      35.620  26.070   8.413  1.00  0.00     0.008 C 
BRANCH   9  11
ATOM     11  C   UNL     1      33.777  27.767   9.091  1.00  0.00    -0.002 C 
ATOM     12  C   UNL     1      34.003  29.072   9.879  1.00  0.00     0.005 C 
ATOM     13  C   UNL     1      32.226  27.513   9.173  1.00  0.00    -0.026 C 
ATOM     14  C   UNL     1      32.672  29.794   9.999  1.00  0.00     0.005 C 
ATOM     15  C   UNL     1      31.641  28.959   9.240  1.00  0.00    -0.001 C 
ATOM     16  C   UNL     1      31.843  26.710  10.451  1.00  0.00     0.007 C 
ATOM     17  C   UNL     1      31.725  26.784   7.894  1.00  0.00     0.012 C 
ATOM     18  C   UNL     1      30.210  29.137   9.845  1.00  0.00     0.000 C 
ATOM     19  C   UNL     1      30.362  26.818  10.843  1.00  0.00     0.005 C 
ATOM     20  C   UNL     1      29.972  28.286  11.121  1.00  0.00     0.003 C 
ATOM     21  C   UNL     1      29.112  28.904   8.792  1.00  0.00     0.031 C 
ATOM     22  C   UNL     1      28.524  28.530  11.725  1.00  0.00    -0.008 C 
ATOM     23  C   UNL     1      27.727  28.948   9.364  1.00  0.00    -0.027 C 
ATOM     24  C   UNL     1      27.439  28.646  10.646  1.00  0.00    -0.065 C 
ATOM     25  C   UNL     1      28.117  27.388  12.711  1.00  0.00     0.014 C 
ATOM     26  C   UNL     1      28.559  29.873  12.509  1.00  0.00     0.016 C 
ATOM     27  C   UNL     1      25.983  28.665  11.083  1.00  0.00     0.063 C 
ATOM     28  C   UNL     1      26.677  27.500  13.235  1.00  0.00     0.033 C 
ATOM     29  C   UNL     1      25.681  27.519  12.064  1.00  0.00     0.118 C 
BRANCH  29  30
ATOM     30  O   UNL     1      24.361  27.607  12.538  1.00  0.00    -0.393 OA
ATOM     31  H   UNL     1      23.781  27.096  11.913  1.00  0.00     0.210 HD
ENDBRANCH  29  30
ENDBRANCH   9  11
ENDBRANCH   1   9
TORSDOF 7
ENDMDL
MODEL 2
REMARK VINA RESULT:    -4.343      2.374      5.342
REMARK INTER + INTRA:          -8.261
REMARK INTER:                  -6.462
REMARK INTRA:                  -1.800
REMARK UNBOUND:                -2.268
REMARK SMILES CC[C@H](CC[C@H](C)[C@@H]1CC[C@@H]2[C@H]3CC=C4C[C@H](O)CC[C@@]4(C)[C@H]3CC[C@@]21C)C(C)C
REMARK SMILES IDX 5 1 4 2 3 3 2 4 1 5 28 6 29 7 30 8 6 9 7 10 8 11 9 12 26 13
REMARK SMILES IDX 10 14 11 15 25 16 27 17 12 18 24 19 23 20 13 21 21 22 14 23
REMARK SMILES IDX 15 24 20 25 22 26 16 27 19 28 17 29 18 30
REMARK H PARENT 18 31
REMARK Flexibility Score: inf
ROOT
ATOM      1  C   UNL     1      31.614  25.200  12.485  1.00  0.00     0.004 C 
ENDROOT
BRANCH   1   2
ATOM      2  C   UNL     1      31.935  26.429  11.610  1.00  0.00     0.004 C 
BRANCH   2   3
ATOM      3  C   UNL     1      32.428  27.642  12.466  1.00  0.00    -0.009 C 
BRANCH   3   4
ATOM      4  C   UNL     1      33.874  27.387  12.979  1.00  0.00     0.000 C 
ATOM      5  C   UNL     1      34.007  27.584  14.494  1.00  0.00     0.004 C 
ENDBRANCH   3   4
BRANCH   3   6
ATOM      6  C   UNL     1      32.294  28.981  11.662  1.00  0.00    -0.014 C 
ATOM      7  C   UNL     1      30.898  29.176  11.040  1.00  0.00     0.007 C 
ATOM      8  C   UNL     1      33.344  29.054  10.534  1.00  0.00     0.007 C 
ENDBRANCH   3   6
ENDBRANCH   2   3
ENDBRANCH   1   2
BRANCH   1   9
ATOM      9  C   UNL     1      30.632  25.528  13.651  1.00  0.00    -0.011 C 
ATOM     10  C   UNL     1      31.282  25.082  14.976  1.00  0.00     0.008 C 
BRANCH   9  11
ATOM     11  C   UNL     1      29.215  24.867  13.422  1.00  0.00    -0.002 C 
ATOM     12  C   UNL     1      29.185  24.033  12.126  1.00  0.00     0.005 C 
ATOM     13  C   UNL     1      27.949  25.798  13.329  1.00  0.00    -0.026 C 
ATOM     14  C   UNL     1      27.782  24.098  11.548  1.00  0.00     0.005 C 
ATOM     15  C   UNL     1      26.939  24.928  12.517  1.00  0.00    -0.001 C 
ATOM     16  C   UNL     1      28.264  27.119  12.570  1.00  0.00     0.007 C 
ATOM     17  C   UNL     1      27.388  26.097  14.748  1.00  0.00     0.012 C 
ATOM     18  C   UNL     1      25.780  25.666  11.771  1.00  0.00     0.000 C 
ATOM     19  C   UNL     1      27.024  27.852  12.038  1.00  0.00     0.005 C 
ATOM     20  C   UNL     1      26.240  26.961  11.050  1.00  0.00     0.003 C 
ATOM     21  C   UNL     1      24.578  25.926  12.697  1.00  0.00     0.031 C 
ATOM     22  C   UNL     1      25.042  27.655  10.272  1.00  0.00    -0.008 C 
ATOM     23  C   UNL     1      23.498  26.739  12.049  1.00  0.00    -0.027 C 
ATOM     24  C   UNL     1      23.722  27.619  11.053  1.00  0.00    -0.065 C 
ATOM     25  C   UNL     1      25.370  29.143   9.927  1.00  0.00     0.014 C 
ATOM     26  C   UNL     1      24.828  26.874   8.943  1.00  0.00     0.016 C 
ATOM     27  C   UNL     1      22.548  28.429  10.528  1.00  0.00     0.063 C 
ATOM     28  C   UNL     1      24.203  29.906   9.283  1.00  0.00     0.033 C 
ATOM     29  C   UNL     1      22.970  29.872  10.200  1.00  0.00     0.118 C 
BRANCH  29  30
ATOM     30  O   UNL     1      21.903  30.581   9.622  1.00  0.00    -0.393 OA
ATOM     31  H   UNL     1      22.137  30.759   8.673  1.00  0.00     0.210 HD
ENDBRANCH  29  30
ENDBRANCH   9  11
ENDBRANCH   1   9
TORSDOF 7
ENDMDL
MODEL 3
REMARK VINA RESULT:    -4.340      2.774      7.328
REMARK INTER + INTRA:          -8.257
REMARK INTER:                  -6.359
REMARK INTRA:                  -1.898
REMARK UNBOUND:                -2.268
REMARK SMILES CC[C@H](CC[C@H](C)[C@@H]1CC[C@@H]2[C@H]3CC=C4C[C@H](O)CC[C@@]4(C)[C@H]3CC[C@@]21C)C(C)C
REMARK SMILES IDX 5 1 4 2 3 3 2 4 1 5 28 6 29 7 30 8 6 9 7 10 8 11 9 12 26 13
REMARK SMILES IDX 10 14 11 15 25 16 27 17 12 18 24 19 23 20 13 21 21 22 14 23
REMARK SMILES IDX 15 24 20 25 22 26 16 27 19 28 17 29 18 30
REMARK H PARENT 18 31
REMARK Flexibility Score: inf
ROOT
ATOM      1  C   UNL     1      26.091  26.503   9.989  1.00  0.00     0.004 C 
ENDROOT
BRANCH   1   2
ATOM      2  C   UNL     1      26.169  25.371  11.033  1.00  0.00     0.004 C 
BRANCH   2   3
ATOM      3  C   UNL     1      25.581  25.810  12.414  1.00  0.00    -0.009 C 
BRANCH   3   4
ATOM      4  C   UNL     1      24.213  25.115  12.664  1.00  0.00     0.000 C 
ATOM      5  C   UNL     1      23.165  25.477  11.605  1.00  0.00     0.004 C 
ENDBRANCH   3   4
BRANCH   3   6
ATOM      6  C   UNL     1      26.615  25.553  13.565  1.00  0.00    -0.014 C 
ATOM      7  C   UNL     1      27.230  26.849  14.128  1.00  0.00     0.007 C 
ATOM      8  C   UNL     1      27.761  24.640  13.082  1.00  0.00     0.007 C 
ENDBRANCH   3   6
ENDBRANCH   2   3
ENDBRANCH   1   2
BRANCH   1   9
ATOM      9  C   UNL     1      26.370  27.910  10.600  1.00  0.00    -0.011 C 
ATOM     10  C   UNL     1      25.060  28.722  10.573  1.00  0.00     0.008 C 
BRANCH   9  11
ATOM     11  C   UNL     1      27.552  28.646   9.851  1.00  0.00    -0.002 C 
ATOM     12  C   UNL     1      27.785  28.054   8.447  1.00  0.00     0.005 C 
ATOM     13  C   UNL     1      28.977  28.667  10.519  1.00  0.00    -0.026 C 
ATOM     14  C   UNL     1      29.263  28.170   8.120  1.00  0.00     0.005 C 
ATOM     15  C   UNL     1      29.927  28.880   9.299  1.00  0.00    -0.001 C 
ATOM     16  C   UNL     1      29.296  27.321  11.231  1.00  0.00     0.007 C 
ATOM     17  C   UNL     1      29.095  29.858  11.513  1.00  0.00     0.012 C 
ATOM     18  C   UNL     1      31.421  28.444   9.457  1.00  0.00     0.000 C 
ATOM     19  C   UNL     1      30.791  27.086  11.496  1.00  0.00     0.005 C 
ATOM     20  C   UNL     1      31.589  27.078  10.174  1.00  0.00     0.003 C 
ATOM     21  C   UNL     1      32.271  29.543  10.119  1.00  0.00     0.031 C 
ATOM     22  C   UNL     1      33.116  26.654  10.275  1.00  0.00    -0.008 C 
ATOM     23  C   UNL     1      33.680  29.113  10.395  1.00  0.00    -0.027 C 
ATOM     24  C   UNL     1      34.042  27.832  10.604  1.00  0.00    -0.065 C 
ATOM     25  C   UNL     1      33.331  25.543  11.352  1.00  0.00     0.014 C 
ATOM     26  C   UNL     1      33.541  26.089   8.888  1.00  0.00     0.016 C 
ATOM     27  C   UNL     1      35.495  27.538  10.941  1.00  0.00     0.063 C 
ATOM     28  C   UNL     1      34.805  25.176  11.585  1.00  0.00     0.033 C 
ATOM     29  C   UNL     1      35.608  26.422  11.993  1.00  0.00     0.118 C 
BRANCH  29  30
ATOM     30  O   UNL     1      36.954  26.089  12.222  1.00  0.00    -0.393 OA
ATOM     31  H   UNL     1      37.104  26.093  13.204  1.00  0.00     0.210 HD
ENDBRANCH  29  30
ENDBRANCH   9  11
ENDBRANCH   1   9
TORSDOF 7
ENDMDL
MODEL 4
REMARK VINA RESULT:    -4.315      1.709      2.507
REMARK INTER + INTRA:          -8.224
REMARK INTER:                  -5.939
REMARK INTRA:                  -2.284
REMARK UNBOUND:                -2.268
REMARK SMILES CC[C@H](CC[C@H](C)[C@@H]1CC[C@@H]2[C@H]3CC=C4C[C@H](O)CC[C@@]4(C)[C@H]3CC[C@@]21C)C(C)C
REMARK SMILES IDX 5 1 4 2 3 3 2 4 1 5 28 6 29 7 30 8 6 9 7 10 8 11 9 12 26 13
REMARK SMILES IDX 10 14 11 15 25 16 27 17 12 18 24 19 23 20 13 21 21 22 14 23
REMARK SMILES IDX 15 24 20 25 22 26 16 27 19 28 17 29 18 30
REMARK H PARENT 18 31
REMARK Flexibility Score: inf
ROOT
ATOM      1  C   UNL     1      34.401  28.192  10.420  1.00  0.00     0.004 C 
ENDROOT
BRANCH   1   2
ATOM      2  C   UNL     1      35.008  27.188  11.421  1.00  0.00     0.004 C 
BRANCH   2   3
ATOM      3  C   UNL     1      33.967  26.108  11.866  1.00  0.00    -0.009 C 
BRANCH   3   4
ATOM      4  C   UNL     1      34.478  24.685  11.500  1.00  0.00     0.000 C 
ATOM      5  C   UNL     1      35.616  24.712  10.473  1.00  0.00     0.004 C 
ENDBRANCH   3   4
BRANCH   3   6
ATOM      6  C   UNL     1      33.624  26.260  13.388  1.00  0.00    -0.014 C 
ATOM      7  C   UNL     1      32.175  25.859  13.725  1.00  0.00     0.007 C 
ATOM      8  C   UNL     1      33.851  27.711  13.861  1.00  0.00     0.007 C 
ENDBRANCH   3   6
ENDBRANCH   2   3
ENDBRANCH   1   2
BRANCH   1   9
ATOM      9  C   UNL     1      33.208  27.594   9.612  1.00  0.00    -0.011 C 
ATOM     10  C   UNL     1      33.629  27.486   8.132  1.00  0.00     0.008 C 
BRANCH   9  11
ATOM     11  C   UNL     1      31.890  28.445   9.804  1.00  0.00    -0.002 C 
ATOM     12  C   UNL     1      31.963  29.317  11.073  1.00  0.00     0.005 C 
ATOM     13  C   UNL     1      30.512  27.694   9.912  1.00  0.00    -0.026 C 
ATOM     14  C   UNL     1      30.560  29.457  11.637  1.00  0.00     0.005 C 
ATOM     15  C   UNL     1      29.621  28.716  10.685  1.00  0.00    -0.001 C 
ATOM     16  C   UNL     1      30.642  26.367  10.715  1.00  0.00     0.007 C 
ATOM     17  C   UNL     1      29.926  27.426   8.497  1.00  0.00     0.012 C 
ATOM     18  C   UNL     1      28.368  28.163  11.441  1.00  0.00     0.000 C 
ATOM     19  C   UNL     1      29.312  25.823  11.256  1.00  0.00     0.005 C 
ATOM     20  C   UNL     1      28.647  26.843  12.207  1.00  0.00     0.003 C 
ATOM     21  C   UNL     1      27.149  28.035  10.510  1.00  0.00     0.031 C 
ATOM     22  C   UNL     1      27.362  26.340  12.993  1.00  0.00    -0.008 C 
ATOM     23  C   UNL     1      25.966  27.395  11.171  1.00  0.00    -0.027 C 
ATOM     24  C   UNL     1      26.064  26.525  12.196  1.00  0.00    -0.065 C 
ATOM     25  C   UNL     1      27.486  24.833  13.387  1.00  0.00     0.014 C 
ATOM     26  C   UNL     1      27.245  27.185  14.295  1.00  0.00     0.016 C 
ATOM     27  C   UNL     1      24.789  25.895  12.733  1.00  0.00     0.063 C 
ATOM     28  C   UNL     1      26.224  24.253  14.042  1.00  0.00     0.033 C 
ATOM     29  C   UNL     1      25.012  24.421  13.111  1.00  0.00     0.118 C 
BRANCH  29  30
ATOM     30  O   UNL     1      23.857  23.879  13.699  1.00  0.00    -0.393 OA
ATOM     31  H   UNL     1      23.586  24.480  14.442  1.00  0.00     0.210 HD
ENDBRANCH  29  30
ENDBRANCH   9  11
ENDBRANCH   1   9
TORSDOF 7
ENDMDL
MODEL 5
REMARK VINA RESULT:    -4.057      2.924      7.884
REMARK INTER + INTRA:          -7.868
REMARK INTER:                  -6.086
REMARK INTRA:                  -1.781
REMARK UNBOUND:                -2.268
REMARK SMILES CC[C@H](CC[C@H](C)[C@@H]1CC[C@@H]2[C@H]3CC=C4C[C@H](O)CC[C@@]4(C)[C@H]3CC[C@@]21C)C(C)C
REMARK SMILES IDX 5 1 4 2 3 3 2 4 1 5 28 6 29 7 30 8 6 9 7 10 8 11 9 12 26 13
REMARK SMILES IDX 10 14 11 15 25 16 27 17 12 18 24 19 23 20 13 21 21 22 14 23
REMARK SMILES IDX 15 24 20 25 22 26 16 27 19 28 17 29 18 30
REMARK H PARENT 18 31
REMARK Flexibility Score: inf
ROOT
ATOM      1  C   UNL     1      25.728  26.806   9.634  1.00  0.00     0.004 C 
ENDROOT
BRANCH   1   2
ATOM      2  C   UNL     1      25.670  25.542  10.516  1.00  0.00     0.004 C 
BRANCH   2   3
ATOM      3  C   UNL     1      24.212  25.225  10.984  1.00  0.00    -0.009 C 
BRANCH   3   4
ATOM      4  C   UNL     1      23.983  25.751  12.430  1.00  0.00     0.000 C 
ATOM      5  C   UNL     1      25.281  25.825  13.242  1.00  0.00     0.004 C 
ENDBRANCH   3   4
BRANCH   3   6
ATOM      6  C   UNL     1      23.165  25.785   9.959  1.00  0.00    -0.014 C 
ATOM      7  C   UNL     1      22.052  26.617  10.625  1.00  0.00     0.007 C 
ATOM      8  C   UNL     1      22.507  24.639   9.163  1.00  0.00     0.007 C 
ENDBRANCH   3   6
ENDBRANCH   2   3
ENDBRANCH   1   2
BRANCH   1   9
ATOM      9  C   UNL     1      26.057  28.097  10.447  1.00  0.00    -0.011 C 
ATOM     10  C   UNL     1      24.873  29.075  10.306  1.00  0.00     0.008 C 
BRANCH   9  11
ATOM     11  C   UNL     1      27.427  28.738   9.992  1.00  0.00    -0.002 C 
ATOM     12  C   UNL     1      27.927  28.122   8.671  1.00  0.00     0.005 C 
ATOM     13  C   UNL     1      28.662  28.658  10.965  1.00  0.00    -0.026 C 
ATOM     14  C   UNL     1      29.446  28.126   8.687  1.00  0.00     0.005 C 
ATOM     15  C   UNL     1      29.877  28.793   9.994  1.00  0.00    -0.001 C 
ATOM     16  C   UNL     1      28.713  27.296  11.717  1.00  0.00     0.007 C 
ATOM     17  C   UNL     1      28.639  29.843  11.972  1.00  0.00     0.012 C 
ATOM     18  C   UNL     1      31.260  28.248  10.480  1.00  0.00     0.000 C 
ATOM     19  C   UNL     1      30.087  26.954  12.310  1.00  0.00     0.005 C 
ATOM     20  C   UNL     1      31.161  26.879  11.202  1.00  0.00     0.003 C 
ATOM     21  C   UNL     1      32.017  29.286  11.328  1.00  0.00     0.031 C 
ATOM     22  C   UNL     1      32.591  26.343  11.640  1.00  0.00    -0.008 C 
ATOM     23  C   UNL     1      33.291  28.755  11.911  1.00  0.00    -0.027 C 
ATOM     24  C   UNL     1      33.502  27.452  12.183  1.00  0.00    -0.065 C 
ATOM     25  C   UNL     1      32.474  25.226  12.727  1.00  0.00     0.014 C 
ATOM     26  C   UNL     1      33.275  25.740  10.380  1.00  0.00     0.016 C 
ATOM     27  C   UNL     1      34.815  27.053  12.836  1.00  0.00     0.063 C 
ATOM     28  C   UNL     1      33.826  24.753  13.282  1.00  0.00     0.033 C 
ATOM     29  C   UNL     1      34.605  25.938  13.875  1.00  0.00     0.118 C 
BRANCH  29  30
ATOM     30  O   UNL     1      35.837  25.509  14.398  1.00  0.00    -0.393 OA
ATOM     31  H   UNL     1      35.685  24.638  14.852  1.00  0.00     0.210 HD
ENDBRANCH  29  30
ENDBRANCH   9  11
ENDBRANCH   1   9
TORSDOF 7
ENDMDL
MODEL 6
REMARK VINA RESULT:    -3.997      1.663      2.893
REMARK INTER + INTRA:          -7.785
REMARK INTER:                  -5.473
REMARK INTRA:                  -2.312
REMARK UNBOUND:                -2.268
REMARK SMILES CC[C@H](CC[C@H](C)[C@@H]1CC[C@@H]2[C@H]3CC=C4C[C@H](O)CC[C@@]4(C)[C@H]3CC[C@@]21C)C(C)C
REMARK SMILES IDX 5 1 4 2 3 3 2 4 1 5 28 6 29 7 30 8 6 9 7 10 8 11 9 12 26 13
REMARK SMILES IDX 10 14 11 15 25 16 27 17 12 18 24 19 23 20 13 21 21 22 14 23
REMARK SMILES IDX 15 24 20 25 22 26 16 27 19 28 17 29 18 30
REMARK H PARENT 18 31
REMARK Flexibility Score: inf
ROOT
ATOM      1  C   UNL     1      33.713  27.782  10.198  1.00  0.00     0.004 C 
ENDROOT
BRANCH   1   2
ATOM      2  C   UNL     1      33.828  26.283  10.543  1.00  0.00     0.004 C 
BRANCH   2   3
ATOM      3  C   UNL     1      33.866  26.042  12.088  1.00  0.00    -0.009 C 
BRANCH   3   4
ATOM      4  C   UNL     1      33.989  27.396  12.842  1.00  0.00     0.000 C 
ATOM      5  C   UNL     1      34.526  27.231  14.268  1.00  0.00     0.004 C 
ENDBRANCH   3   4
BRANCH   3   6
ATOM      6  C   UNL     1      32.628  25.197  12.550  1.00  0.00    -0.014 C 
ATOM      7  C   UNL     1      32.141  24.203  11.479  1.00  0.00     0.007 C 
ATOM      8  C   UNL     1      31.449  26.114  12.935  1.00  0.00     0.007 C 
ENDBRANCH   3   6
ENDBRANCH   2   3
ENDBRANCH   1   2
BRANCH   1   9
ATOM      9  C   UNL     1      32.710  28.060   9.037  1.00  0.00    -0.011 C 
ATOM     10  C   UNL     1      33.480  28.720   7.875  1.00  0.00     0.008 C 
BRANCH   9  11
ATOM     11  C   UNL     1      31.485  28.934   9.522  1.00  0.00    -0.002 C 
ATOM     12  C   UNL     1      31.670  29.403  10.979  1.00  0.00     0.005 C 
ATOM     13  C   UNL     1      30.042  28.306   9.483  1.00  0.00    -0.026 C 
ATOM     14  C   UNL     1      30.300  29.500  11.626  1.00  0.00     0.005 C 
ATOM     15  C   UNL     1      29.272  29.142  10.552  1.00  0.00    -0.001 C 
ATOM     16  C   UNL     1      30.061  26.800   9.878  1.00  0.00     0.007 C 
ATOM     17  C   UNL     1      29.402  28.499   8.079  1.00  0.00     0.012 C 
ATOM     18  C   UNL     1      27.989  28.509  11.184  1.00  0.00     0.000 C 
ATOM     19  C   UNL     1      28.697  26.244  10.309  1.00  0.00     0.005 C 
ATOM     20  C   UNL     1      28.155  27.008  11.537  1.00  0.00     0.003 C 
ATOM     21  C   UNL     1      26.743  28.756  10.314  1.00  0.00     0.031 C 
ATOM     22  C   UNL     1      26.844  26.418  12.213  1.00  0.00    -0.008 C 
ATOM     23  C   UNL     1      25.518  28.061  10.827  1.00  0.00    -0.027 C 
ATOM     24  C   UNL     1      25.554  26.932  11.563  1.00  0.00    -0.065 C 
ATOM     25  C   UNL     1      26.831  24.856  12.166  1.00  0.00     0.014 C 
ATOM     26  C   UNL     1      26.838  26.868  13.703  1.00  0.00     0.016 C 
ATOM     27  C   UNL     1      24.236  26.290  11.965  1.00  0.00     0.063 C 
ATOM     28  C   UNL     1      25.532  24.227  12.694  1.00  0.00     0.033 C 
ATOM     29  C   UNL     1      24.323  24.756  11.905  1.00  0.00     0.118 C 
BRANCH  29  30
ATOM     30  O   UNL     1      23.133  24.173  12.374  1.00  0.00    -0.393 OA
ATOM     31  H   UNL     1      22.452  24.892  12.446  1.00  0.00     0.210 HD
ENDBRANCH  29  30
ENDBRANCH   9  11
ENDBRANCH   1   9
TORSDOF 7
ENDMDL
MODEL 7
REMARK VINA RESULT:    -3.921      2.036      3.736
REMARK INTER + INTRA:          -7.680
REMARK INTER:                  -5.747
REMARK INTRA:                  -1.932
REMARK UNBOUND:                -2.268
REMARK SMILES CC[C@H](CC[C@H](C)[C@@H]1CC[C@@H]2[C@H]3CC=C4C[C@H](O)CC[C@@]4(C)[C@H]3CC[C@@]21C)C(C)C
REMARK SMILES IDX 5 1 4 2 3 3 2 4 1 5 28 6 29 7 30 8 6 9 7 10 8 11 9 12 26 13
REMARK SMILES IDX 10 14 11 15 25 16 27 17 12 18 24 19 23 20 13 21 21 22 14 23
REMARK SMILES IDX 15 24 20 25 22 26 16 27 19 28 17 29 18 30
REMARK H PARENT 18 31
REMARK Flexibility Score: inf
ROOT
ATOM      1  C   UNL     1      32.574  28.560  10.371  1.00  0.00     0.004 C 
ENDROOT
BRANCH   1   2
ATOM      2  C   UNL     1      32.825  27.092  10.772  1.00  0.00     0.004 C 
BRANCH   2   3
ATOM      3  C   UNL     1      32.537  26.845  12.289  1.00  0.00    -0.009 C 
BRANCH   3   4
ATOM      4  C   UNL     1      31.551  25.655  12.464  1.00  0.00     0.000 C 
ATOM      5  C   UNL     1      30.133  26.111  12.825  1.00  0.00     0.004 C 
ENDBRANCH   3   4
BRANCH   3   6
ATOM      6  C   UNL     1      33.874  26.651  13.084  1.00  0.00    -0.014 C 
ATOM      7  C   UNL     1      33.986  27.572  14.315  1.00  0.00     0.007 C 
ATOM      8  C   UNL     1      35.096  26.902  12.176  1.00  0.00     0.007 C 
ENDBRANCH   3   6
ENDBRANCH   2   3
ENDBRANCH   1   2
BRANCH   1   9
ATOM      9  C   UNL     1      31.471  28.709   9.278  1.00  0.00    -0.011 C 
ATOM     10  C   UNL     1      32.074  29.466   8.077  1.00  0.00     0.008 C 
BRANCH   9  11
ATOM     11  C   UNL     1      30.178  29.415   9.849  1.00  0.00    -0.002 C 
ATOM     12  C   UNL     1      30.247  29.564  11.382  1.00  0.00     0.005 C 
ATOM     13  C   UNL     1      28.772  28.763   9.572  1.00  0.00    -0.026 C 
ATOM     14  C   UNL     1      28.835  29.473  11.934  1.00  0.00     0.005 C 
ATOM     15  C   UNL     1      27.896  29.322  10.737  1.00  0.00    -0.001 C 
ATOM     16  C   UNL     1      28.838  27.210   9.636  1.00  0.00     0.007 C 
ATOM     17  C   UNL     1      28.214  29.235   8.199  1.00  0.00     0.012 C 
ATOM     18  C   UNL     1      26.607  28.526  11.123  1.00  0.00     0.000 C 
ATOM     19  C   UNL     1      27.477  26.528   9.838  1.00  0.00     0.005 C 
ATOM     20  C   UNL     1      26.822  26.990  11.159  1.00  0.00     0.003 C 
ATOM     21  C   UNL     1      25.409  28.913  10.238  1.00  0.00     0.031 C 
ATOM     22  C   UNL     1      25.501  26.224  11.596  1.00  0.00    -0.008 C 
ATOM     23  C   UNL     1      24.189  28.083  10.500  1.00  0.00    -0.027 C 
ATOM     24  C   UNL     1      24.231  26.824  10.979  1.00  0.00    -0.065 C 
ATOM     25  C   UNL     1      25.565  24.710  11.214  1.00  0.00     0.014 C 
ATOM     26  C   UNL     1      25.379  26.340  13.143  1.00  0.00     0.016 C 
ATOM     27  C   UNL     1      22.923  26.067  11.137  1.00  0.00     0.063 C 
ATOM     28  C   UNL     1      24.268  23.939  11.500  1.00  0.00     0.033 C 
ATOM     29  C   UNL     1      23.087  24.585  10.757  1.00  0.00     0.118 C 
BRANCH  29  30
ATOM     30  O   UNL     1      21.899  23.875  11.003  1.00  0.00    -0.393 OA
ATOM     31  H   UNL     1      21.141  24.441  10.700  1.00  0.00     0.210 HD
ENDBRANCH  29  30
ENDBRANCH   9  11
ENDBRANCH   1   9
TORSDOF 7
ENDMDL
MODEL 8
REMARK VINA RESULT:    -3.910      3.137      8.614
REMARK INTER + INTRA:          -7.665
REMARK INTER:                  -6.637
REMARK INTRA:                  -1.028
REMARK UNBOUND:                -2.268
REMARK SMILES CC[C@H](CC[C@H](C)[C@@H]1CC[C@@H]2[C@H]3CC=C4C[C@H](O)CC[C@@]4(C)[C@H]3CC[C@@]21C)C(C)C
REMARK SMILES IDX 5 1 4 2 3 3 2 4 1 5 28 6 29 7 30 8 6 9 7 10 8 11 9 12 26 13
REMARK SMILES IDX 10 14 11 15 25 16 27 17 12 18 24 19 23 20 13 21 21 22 14 23
REMARK SMILES IDX 15 24 20 25 22 26 16 27 19 28 17 29 18 30
REMARK H PARENT 18 31
REMARK Flexibility Score: inf
ROOT
ATOM      1  C   UNL     1      23.994  25.735  11.385  1.00  0.00     0.004 C 
ENDROOT
BRANCH   1   2
ATOM      2  C   UNL     1      23.257  27.070  11.614  1.00  0.00     0.004 C 
BRANCH   2   3
ATOM      3  C   UNL     1      22.358  27.456  10.393  1.00  0.00    -0.009 C 
BRANCH   3   4
ATOM      4  C   UNL     1      20.930  27.838  10.876  1.00  0.00     0.000 C 
ATOM      5  C   UNL     1      20.875  29.233  11.511  1.00  0.00     0.004 C 
ENDBRANCH   3   4
BRANCH   3   6
ATOM      6  C   UNL     1      23.035  28.582   9.538  1.00  0.00    -0.014 C 
ATOM      7  C   UNL     1      23.629  28.063   8.215  1.00  0.00     0.007 C 
ATOM      8  C   UNL     1      24.156  29.280  10.335  1.00  0.00     0.007 C 
ENDBRANCH   3   6
ENDBRANCH   2   3
ENDBRANCH   1   2
BRANCH   1   9
ATOM      9  C   UNL     1      25.446  25.739  11.956  1.00  0.00    -0.011 C 
ATOM     10  C   UNL     1      25.366  25.878  13.490  1.00  0.00     0.008 C 
BRANCH   9  11
ATOM     11  C   UNL     1      26.329  26.869  11.293  1.00  0.00    -0.002 C 
ATOM     12  C   UNL     1      26.574  26.588   9.797  1.00  0.00     0.005 C 
ATOM     13  C   UNL     1      27.758  27.161  11.885  1.00  0.00    -0.026 C 
ATOM     14  C   UNL     1      27.938  27.140   9.425  1.00  0.00     0.005 C 
ATOM     15  C   UNL     1      28.508  27.807  10.678  1.00  0.00    -0.001 C 
ATOM     16  C   UNL     1      28.471  25.852  12.333  1.00  0.00     0.007 C 
ATOM     17  C   UNL     1      27.663  28.169  13.066  1.00  0.00     0.012 C 
ATOM     18  C   UNL     1      30.071  27.761  10.684  1.00  0.00     0.000 C 
ATOM     19  C   UNL     1      29.994  25.982  12.481  1.00  0.00     0.005 C 
ATOM     20  C   UNL     1      30.644  26.394  11.141  1.00  0.00     0.003 C 
ATOM     21  C   UNL     1      30.673  28.928  11.487  1.00  0.00     0.031 C 
ATOM     22  C   UNL     1      32.231  26.378  11.092  1.00  0.00    -0.008 C 
ATOM     23  C   UNL     1      32.164  28.848  11.616  1.00  0.00    -0.027 C 
ATOM     24  C   UNL     1      32.856  27.692  11.578  1.00  0.00    -0.065 C 
ATOM     25  C   UNL     1      32.818  25.208  11.946  1.00  0.00     0.014 C 
ATOM     26  C   UNL     1      32.655  26.170   9.609  1.00  0.00     0.016 C 
ATOM     27  C   UNL     1      34.361  27.743  11.788  1.00  0.00     0.063 C 
ATOM     28  C   UNL     1      34.351  25.212  12.039  1.00  0.00     0.033 C 
ATOM     29  C   UNL     1      34.848  26.545  12.621  1.00  0.00     0.118 C 
BRANCH  29  30
ATOM     30  O   UNL     1      36.250  26.549  12.723  1.00  0.00    -0.393 OA
ATOM     31  H   UNL     1      36.615  26.180  11.876  1.00  0.00     0.210 HD
ENDBRANCH  29  30
ENDBRANCH   9  11
ENDBRANCH   1   9
TORSDOF 7
ENDMDL
MODEL 9
REMARK VINA RESULT:    -3.752      1.861      4.367
REMARK INTER + INTRA:          -7.447
REMARK INTER:                  -5.576
REMARK INTRA:                  -1.870
REMARK UNBOUND:                -2.268
REMARK SMILES CC[C@H](CC[C@H](C)[C@@H]1CC[C@@H]2[C@H]3CC=C4C[C@H](O)CC[C@@]4(C)[C@H]3CC[C@@]21C)C(C)C
REMARK SMILES IDX 5 1 4 2 3 3 2 4 1 5 28 6 29 7 30 8 6 9 7 10 8 11 9 12 26 13
REMARK SMILES IDX 10 14 11 15 25 16 27 17 12 18 24 19 23 20 13 21 21 22 14 23
REMARK SMILES IDX 15 24 20 25 22 26 16 27 19 28 17 29 18 30
REMARK H PARENT 18 31
REMARK Flexibility Score: inf
ROOT
ATOM      1  C   UNL     1      34.933  26.301  11.447  1.00  0.00     0.004 C 
ENDROOT
BRANCH   1   2
ATOM      2  C   UNL     1      34.973  27.816  11.161  1.00  0.00     0.004 C 
BRANCH   2   3
ATOM      3  C   UNL     1      34.160  28.188   9.877  1.00  0.00    -0.009 C 
BRANCH   3   4
ATOM      4  C   UNL     1      33.159  27.051   9.524  1.00  0.00     0.000 C 
ATOM      5  C   UNL     1      33.301  26.569   8.076  1.00  0.00     0.004 C 
ENDBRANCH   3   4
BRANCH   3   6
ATOM      6  C   UNL     1      33.464  29.583  10.046  1.00  0.00    -0.014 C 
ATOM      7  C   UNL     1      31.955  29.475  10.338  1.00  0.00     0.007 C 
ATOM      8  C   UNL     1      33.654  30.450   8.784  1.00  0.00     0.007 C 
ENDBRANCH   3   6
ENDBRANCH   2   3
ENDBRANCH   1   2
BRANCH   1   9
ATOM      9  C   UNL     1      34.307  25.963  12.835  1.00  0.00    -0.011 C 
ATOM     10  C   UNL     1      35.447  25.594  13.805  1.00  0.00     0.008 C 
BRANCH   9  11
ATOM     11  C   UNL     1      33.218  24.824  12.722  1.00  0.00    -0.002 C 
ATOM     12  C   UNL     1      33.101  24.298  11.277  1.00  0.00     0.005 C 
ATOM     13  C   UNL     1      31.738  25.144  13.153  1.00  0.00    -0.026 C 
ATOM     14  C   UNL     1      31.662  23.875  11.039  1.00  0.00     0.005 C 
ATOM     15  C   UNL     1      30.909  24.091  12.352  1.00  0.00    -0.001 C 
ATOM     16  C   UNL     1      31.322  26.588  12.749  1.00  0.00     0.007 C 
ATOM     17  C   UNL     1      31.558  24.925  14.682  1.00  0.00     0.012 C 
ATOM     18  C   UNL     1      29.398  24.399  12.095  1.00  0.00     0.000 C 
ATOM     19  C   UNL     1      29.805  26.819  12.708  1.00  0.00     0.005 C 
ATOM     20  C   UNL     1      29.132  25.873  11.690  1.00  0.00     0.003 C 
ATOM     21  C   UNL     1      28.517  23.966  13.281  1.00  0.00     0.031 C 
ATOM     22  C   UNL     1      27.592  26.131  11.398  1.00  0.00    -0.008 C 
ATOM     23  C   UNL     1      27.079  24.356  13.121  1.00  0.00    -0.027 C 
ATOM     24  C   UNL     1      26.668  25.411  12.389  1.00  0.00    -0.065 C 
ATOM     25  C   UNL     1      27.252  27.656  11.428  1.00  0.00     0.014 C 
ATOM     26  C   UNL     1      27.283  25.582   9.976  1.00  0.00     0.016 C 
ATOM     27  C   UNL     1      25.184  25.737  12.363  1.00  0.00     0.063 C 
ATOM     28  C   UNL     1      25.755  27.964  11.275  1.00  0.00     0.033 C 
ATOM     29  C   UNL     1      24.948  27.257  12.375  1.00  0.00     0.118 C 
BRANCH  29  30
ATOM     30  O   UNL     1      23.579  27.548  12.249  1.00  0.00    -0.393 OA
ATOM     31  H   UNL     1      23.378  28.320  12.842  1.00  0.00     0.210 HD
ENDBRANCH  29  30
ENDBRANCH   9  11
ENDBRANCH   1   9
TORSDOF 7
ENDMDL
