MODEL 1
REMARK VINA RESULT:    -3.676      0.000      0.000
REMARK INTER + INTRA:         -12.637
REMARK INTER:                  -9.262
REMARK INTRA:                  -3.375
REMARK UNBOUND:                -3.375
REMARK SMILES CCCCCCCCCCCCCCCCCCCCCCCCCCCC(=O)[O-]
REMARK SMILES IDX 15 1 16 2 17 3 18 4 19 5 20 6 21 7 22 8 23 9 24 10 25 11
REMARK SMILES IDX 26 12 27 13 28 14 29 15 30 16 14 17 13 18 12 19 11 20 10 21
REMARK SMILES IDX 9 22 8 23 7 24 6 25 5 26 4 27 3 28 2 29 1 30
REMARK H PARENT
REMARK Flexibility Score: inf
ROOT
ATOM      1  C   UNL     1      -8.867 -13.094  -2.801  1.00  0.00     0.000 C 
ENDROOT
BRANCH   1   2
ATOM      2  C   UNL     1      -9.294 -13.805  -4.099  1.00  0.00     0.000 C 
BRANCH   2   3
ATOM      3  C   UNL     1     -10.822 -13.843  -4.323  1.00  0.00     0.000 C 
BRANCH   3   4
ATOM      4  C   UNL     1     -11.588 -12.784  -3.508  1.00  0.00     0.000 C 
BRANCH   4   5
ATOM      5  C   UNL     1     -12.866 -13.360  -2.875  1.00  0.00     0.000 C 
BRANCH   5   6
ATOM      6  C   UNL     1     -12.616 -13.798  -1.424  1.00  0.00     0.000 C 
BRANCH   6   7
ATOM      7  C   UNL     1     -11.929 -12.706  -0.587  1.00  0.00     0.000 C 
BRANCH   7   8
ATOM      8  C   UNL     1     -12.931 -11.813   0.161  1.00  0.00     0.000 C 
BRANCH   8   9
ATOM      9  C   UNL     1     -13.979 -12.659   0.899  1.00  0.00     0.000 C 
BRANCH   9  10
ATOM     10  C   UNL     1     -14.286 -12.113   2.304  1.00  0.00     0.000 C 
BRANCH  10  11
ATOM     11  C   UNL     1     -13.215 -11.120   2.787  1.00  0.00     0.000 C 
BRANCH  11  12
ATOM     12  C   UNL     1     -13.697 -10.249   3.959  1.00  0.00     0.006 C 
BRANCH  12  13
ATOM     13  C   UNL     1     -13.068 -10.650   5.300  1.00  0.00     0.053 C 
BRANCH  13  14
ATOM     14  C   UNL     1     -11.579 -10.729   5.177  1.00  0.00     0.041 C 
ATOM     15  O   UNL     1     -10.966 -11.764   5.553  1.00  0.00    -0.550 OA
ATOM     16  O   UNL     1     -10.862  -9.634   4.710  1.00  0.00    -0.550 OA
ENDBRANCH  13  14
ENDBRANCH  12  13
ENDBRANCH  11  12
ENDBRANCH  10  11
ENDBRANCH   9  10
ENDBRANCH   8   9
ENDBRANCH   7   8
ENDBRANCH   6   7
ENDBRANCH   5   6
ENDBRANCH   4   5
ENDBRANCH   3   4
ENDBRANCH   2   3
ENDBRANCH   1   2
BRANCH   1  17
ATOM     17  C   UNL     1      -7.567 -12.272  -2.932  1.00  0.00     0.000 C 
BRANCH  17  18
ATOM     18  C   UNL     1      -6.517 -12.912  -3.858  1.00  0.00     0.000 C 
BRANCH  18  19
ATOM     19  C   UNL     1      -6.074 -11.960  -4.982  1.00  0.00     0.000 C 
BRANCH  19  20
ATOM     20  C   UNL     1      -5.087 -12.650  -5.938  1.00  0.00     0.000 C 
BRANCH  20  21
ATOM     21  C   UNL     1      -5.607 -12.703  -7.385  1.00  0.00     0.000 C 
BRANCH  21  22
ATOM     22  C   UNL     1      -7.112 -12.412  -7.484  1.00  0.00    -0.000 C 
BRANCH  22  23
ATOM     23  C   UNL     1      -7.913 -13.698  -7.728  1.00  0.00    -0.000 C 
BRANCH  23  24
ATOM     24  C   UNL     1      -9.419 -13.403  -7.809  1.00  0.00    -0.000 C 
BRANCH  24  25
ATOM     25  C   UNL     1      -9.735 -11.901  -7.647  1.00  0.00    -0.000 C 
BRANCH  25  26
ATOM     26  C   UNL     1     -11.191 -11.531  -7.990  1.00  0.00    -0.000 C 
BRANCH  26  27
ATOM     27  C   UNL     1     -12.260 -12.370  -7.271  1.00  0.00    -0.000 C 
BRANCH  27  28
ATOM     28  C   UNL     1     -13.551 -11.584  -7.000  1.00  0.00    -0.000 C 
BRANCH  28  29
ATOM     29  C   UNL     1     -14.464 -12.345  -6.032  1.00  0.00    -0.003 C 
ATOM     30  C   UNL     1     -14.385 -13.849  -6.273  1.00  0.00     0.004 C 
ENDBRANCH  28  29
ENDBRANCH  27  28
ENDBRANCH  26  27
ENDBRANCH  25  26
ENDBRANCH  24  25
ENDBRANCH  23  24
ENDBRANCH  22  23
ENDBRANCH  21  22
ENDBRANCH  20  21
ENDBRANCH  19  20
ENDBRANCH  18  19
ENDBRANCH  17  18
ENDBRANCH   1  17
TORSDOF 26
ENDMDL
MODEL 2
REMARK VINA RESULT:    -3.577      1.830      2.997
REMARK INTER + INTRA:         -12.390
REMARK INTER:                  -9.467
REMARK INTRA:                  -2.923
REMARK UNBOUND:                -3.375
REMARK SMILES CCCCCCCCCCCCCCCCCCCCCCCCCCCC(=O)[O-]
REMARK SMILES IDX 15 1 16 2 17 3 18 4 19 5 20 6 21 7 22 8 23 9 24 10 25 11
REMARK SMILES IDX 26 12 27 13 28 14 29 15 30 16 14 17 13 18 12 19 11 20 10 21
REMARK SMILES IDX 9 22 8 23 7 24 6 25 5 26 4 27 3 28 2 29 1 30
REMARK H PARENT
REMARK Flexibility Score: inf
ROOT
ATOM      1  C   UNL     1      -9.800 -13.016  -2.989  1.00  0.00     0.000 C 
ENDROOT
BRANCH   1   2
ATOM      2  C   UNL     1     -10.584 -13.776  -1.903  1.00  0.00     0.000 C 
BRANCH   2   3
ATOM      3  C   UNL     1     -12.117 -13.748  -2.097  1.00  0.00     0.000 C 
BRANCH   3   4
ATOM      4  C   UNL     1     -12.892 -13.404  -0.811  1.00  0.00     0.000 C 
BRANCH   4   5
ATOM      5  C   UNL     1     -13.143 -11.892  -0.678  1.00  0.00     0.000 C 
BRANCH   5   6
ATOM      6  C   UNL     1     -13.248 -11.476   0.798  1.00  0.00     0.000 C 
BRANCH   6   7
ATOM      7  C   UNL     1     -12.938 -12.634   1.761  1.00  0.00     0.000 C 
BRANCH   7   8
ATOM      8  C   UNL     1     -13.625 -12.470   3.126  1.00  0.00     0.000 C 
BRANCH   8   9
ATOM      9  C   UNL     1     -12.695 -12.907   4.267  1.00  0.00     0.000 C 
BRANCH   9  10
ATOM     10  C   UNL     1     -11.640 -11.839   4.602  1.00  0.00     0.000 C 
BRANCH  10  11
ATOM     11  C   UNL     1     -12.240 -10.423   4.640  1.00  0.00     0.000 C 
BRANCH  11  12
ATOM     12  C   UNL     1     -12.185  -9.791   6.041  1.00  0.00     0.006 C 
BRANCH  12  13
ATOM     13  C   UNL     1     -13.576  -9.515   6.628  1.00  0.00     0.053 C 
BRANCH  13  14
ATOM     14  C   UNL     1     -13.476  -9.206   8.088  1.00  0.00     0.041 C 
ATOM     15  O   UNL     1     -14.092  -9.914   8.930  1.00  0.00    -0.550 OA
ATOM     16  O   UNL     1     -12.758  -8.095   8.515  1.00  0.00    -0.550 OA
ENDBRANCH  13  14
ENDBRANCH  12  13
ENDBRANCH  11  12
ENDBRANCH  10  11
ENDBRANCH   9  10
ENDBRANCH   8   9
ENDBRANCH   7   8
ENDBRANCH   6   7
ENDBRANCH   5   6
ENDBRANCH   4   5
ENDBRANCH   3   4
ENDBRANCH   2   3
ENDBRANCH   1   2
BRANCH   1  17
ATOM     17  C   UNL     1      -8.357 -13.527  -3.197  1.00  0.00     0.000 C 
BRANCH  17  18
ATOM     18  C   UNL     1      -7.286 -12.427  -3.076  1.00  0.00     0.000 C 
BRANCH  18  19
ATOM     19  C   UNL     1      -6.216 -12.533  -4.175  1.00  0.00     0.000 C 
BRANCH  19  20
ATOM     20  C   UNL     1      -5.579 -13.932  -4.199  1.00  0.00     0.000 C 
BRANCH  20  21
ATOM     21  C   UNL     1      -4.618 -14.123  -5.385  1.00  0.00     0.000 C 
BRANCH  21  22
ATOM     22  C   UNL     1      -4.617 -12.922  -6.345  1.00  0.00    -0.000 C 
BRANCH  22  23
ATOM     23  C   UNL     1      -4.774 -13.375  -7.802  1.00  0.00    -0.000 C 
BRANCH  23  24
ATOM     24  C   UNL     1      -6.243 -13.688  -8.126  1.00  0.00    -0.000 C 
BRANCH  24  25
ATOM     25  C   UNL     1      -7.156 -12.454  -7.977  1.00  0.00    -0.000 C 
BRANCH  25  26
ATOM     26  C   UNL     1      -8.310 -12.650  -6.974  1.00  0.00    -0.000 C 
BRANCH  26  27
ATOM     27  C   UNL     1      -9.001 -14.021  -7.041  1.00  0.00    -0.000 C 
BRANCH  27  28
ATOM     28  C   UNL     1     -10.432 -13.994  -6.485  1.00  0.00    -0.000 C 
BRANCH  28  29
ATOM     29  C   UNL     1     -11.175 -12.736  -6.948  1.00  0.00    -0.003 C 
ATOM     30  C   UNL     1     -11.995 -12.135  -5.810  1.00  0.00     0.004 C 
ENDBRANCH  28  29
ENDBRANCH  27  28
ENDBRANCH  26  27
ENDBRANCH  25  26
ENDBRANCH  24  25
ENDBRANCH  23  24
ENDBRANCH  22  23
ENDBRANCH  21  22
ENDBRANCH  20  21
ENDBRANCH  19  20
ENDBRANCH  18  19
ENDBRANCH  17  18
ENDBRANCH   1  17
TORSDOF 26
ENDMDL
MODEL 3
REMARK VINA RESULT:    -3.557      3.650      9.163
REMARK INTER + INTRA:         -12.338
REMARK INTER:                  -9.307
REMARK INTRA:                  -3.031
REMARK UNBOUND:                -3.375
REMARK SMILES CCCCCCCCCCCCCCCCCCCCCCCCCCCC(=O)[O-]
REMARK SMILES IDX 15 1 16 2 17 3 18 4 19 5 20 6 21 7 22 8 23 9 24 10 25 11
REMARK SMILES IDX 26 12 27 13 28 14 29 15 30 16 14 17 13 18 12 19 11 20 10 21
REMARK SMILES IDX 9 22 8 23 7 24 6 25 5 26 4 27 3 28 2 29 1 30
REMARK H PARENT
REMARK Flexibility Score: inf
ROOT
ATOM      1  C   UNL     1      -5.489 -13.380  -4.338  1.00  0.00     0.000 C 
ENDROOT
BRANCH   1   2
ATOM      2  C   UNL     1      -5.061 -12.995  -5.767  1.00  0.00     0.000 C 
BRANCH   2   3
ATOM      3  C   UNL     1      -5.693 -13.871  -6.872  1.00  0.00     0.000 C 
BRANCH   3   4
ATOM      4  C   UNL     1      -6.315 -13.055  -8.021  1.00  0.00     0.000 C 
BRANCH   4   5
ATOM      5  C   UNL     1      -7.258 -11.957  -7.502  1.00  0.00     0.000 C 
BRANCH   5   6
ATOM      6  C   UNL     1      -8.398 -11.690  -8.497  1.00  0.00     0.000 C 
BRANCH   6   7
ATOM      7  C   UNL     1      -9.788 -11.885  -7.869  1.00  0.00     0.000 C 
BRANCH   7   8
ATOM      8  C   UNL     1     -10.121 -13.363  -7.610  1.00  0.00     0.000 C 
BRANCH   8   9
ATOM      9  C   UNL     1     -10.061 -13.687  -6.111  1.00  0.00     0.000 C 
BRANCH   9  10
ATOM     10  C   UNL     1     -11.457 -13.716  -5.464  1.00  0.00     0.000 C 
BRANCH  10  11
ATOM     11  C   UNL     1     -11.880 -12.335  -4.935  1.00  0.00     0.000 C 
BRANCH  11  12
ATOM     12  C   UNL     1     -13.301 -11.941  -5.369  1.00  0.00     0.006 C 
BRANCH  12  13
ATOM     13  C   UNL     1     -13.810 -12.761  -6.562  1.00  0.00     0.053 C 
BRANCH  13  14
ATOM     14  C   UNL     1     -13.832 -11.922  -7.801  1.00  0.00     0.041 C 
ATOM     15  O   UNL     1     -14.552 -12.257  -8.780  1.00  0.00    -0.550 OA
ATOM     16  O   UNL     1     -13.007 -10.809  -7.901  1.00  0.00    -0.550 OA
ENDBRANCH  13  14
ENDBRANCH  12  13
ENDBRANCH  11  12
ENDBRANCH  10  11
ENDBRANCH   9  10
ENDBRANCH   8   9
ENDBRANCH   7   8
ENDBRANCH   6   7
ENDBRANCH   5   6
ENDBRANCH   4   5
ENDBRANCH   3   4
ENDBRANCH   2   3
ENDBRANCH   1   2
BRANCH   1  17
ATOM     17  C   UNL     1      -6.720 -12.605  -3.820  1.00  0.00     0.000 C 
BRANCH  17  18
ATOM     18  C   UNL     1      -7.872 -13.512  -3.351  1.00  0.00     0.000 C 
BRANCH  18  19
ATOM     19  C   UNL     1      -8.904 -12.752  -2.500  1.00  0.00     0.000 C 
BRANCH  19  20
ATOM     20  C   UNL     1      -9.995 -13.697  -1.973  1.00  0.00     0.000 C 
BRANCH  20  21
ATOM     21  C   UNL     1     -11.011 -12.978  -1.068  1.00  0.00     0.000 C 
BRANCH  21  22
ATOM     22  C   UNL     1     -12.438 -13.008  -1.640  1.00  0.00    -0.000 C 
BRANCH  22  23
ATOM     23  C   UNL     1     -13.357 -12.034  -0.890  1.00  0.00    -0.000 C 
BRANCH  23  24
ATOM     24  C   UNL     1     -12.783 -11.689   0.493  1.00  0.00    -0.000 C 
BRANCH  24  25
ATOM     25  C   UNL     1     -13.873 -11.616   1.583  1.00  0.00    -0.000 C 
BRANCH  25  26
ATOM     26  C   UNL     1     -13.327 -11.732   3.019  1.00  0.00    -0.000 C 
BRANCH  26  27
ATOM     27  C   UNL     1     -13.233 -10.402   3.786  1.00  0.00    -0.000 C 
BRANCH  27  28
ATOM     28  C   UNL     1     -11.867 -10.197   4.456  1.00  0.00    -0.000 C 
BRANCH  28  29
ATOM     29  C   UNL     1     -11.360 -11.503   5.078  1.00  0.00    -0.003 C 
ATOM     30  C   UNL     1     -11.905 -11.685   6.490  1.00  0.00     0.004 C 
ENDBRANCH  28  29
ENDBRANCH  27  28
ENDBRANCH  26  27
ENDBRANCH  25  26
ENDBRANCH  24  25
ENDBRANCH  23  24
ENDBRANCH  22  23
ENDBRANCH  21  22
ENDBRANCH  20  21
ENDBRANCH  19  20
ENDBRANCH  18  19
ENDBRANCH  17  18
ENDBRANCH   1  17
TORSDOF 26
ENDMDL
MODEL 4
REMARK VINA RESULT:    -3.549      3.190     11.169
REMARK INTER + INTRA:         -12.317
REMARK INTER:                  -9.813
REMARK INTRA:                  -2.504
REMARK UNBOUND:                -3.375
REMARK SMILES CCCCCCCCCCCCCCCCCCCCCCCCCCCC(=O)[O-]
REMARK SMILES IDX 15 1 16 2 17 3 18 4 19 5 20 6 21 7 22 8 23 9 24 10 25 11
REMARK SMILES IDX 26 12 27 13 28 14 29 15 30 16 14 17 13 18 12 19 11 20 10 21
REMARK SMILES IDX 9 22 8 23 7 24 6 25 5 26 4 27 3 28 2 29 1 30
REMARK H PARENT
REMARK Flexibility Score: inf
ROOT
ATOM      1  C   UNL     1     -13.981 -11.142  -2.051  1.00  0.00     0.000 C 
ENDROOT
BRANCH   1   2
ATOM      2  C   UNL     1     -14.407 -11.781  -3.386  1.00  0.00     0.000 C 
BRANCH   2   3
ATOM      3  C   UNL     1     -13.325 -11.718  -4.488  1.00  0.00     0.000 C 
BRANCH   3   4
ATOM      4  C   UNL     1     -12.111 -12.624  -4.209  1.00  0.00     0.000 C 
BRANCH   4   5
ATOM      5  C   UNL     1     -11.195 -12.752  -5.438  1.00  0.00     0.000 C 
BRANCH   5   6
ATOM      6  C   UNL     1     -11.739 -11.937  -6.621  1.00  0.00     0.000 C 
BRANCH   6   7
ATOM      7  C   UNL     1     -10.920 -12.143  -7.906  1.00  0.00     0.000 C 
BRANCH   7   8
ATOM      8  C   UNL     1      -9.482 -12.606  -7.625  1.00  0.00     0.000 C 
BRANCH   8   9
ATOM      9  C   UNL     1      -8.461 -11.611  -8.194  1.00  0.00     0.000 C 
BRANCH   9  10
ATOM     10  C   UNL     1      -7.178 -12.305  -8.684  1.00  0.00     0.000 C 
BRANCH  10  11
ATOM     11  C   UNL     1      -6.570 -13.223  -7.609  1.00  0.00     0.000 C 
BRANCH  11  12
ATOM     12  C   UNL     1      -5.398 -12.568  -6.861  1.00  0.00     0.006 C 
BRANCH  12  13
ATOM     13  C   UNL     1      -5.837 -11.843  -5.581  1.00  0.00     0.053 C 
BRANCH  13  14
ATOM     14  C   UNL     1      -6.386 -12.819  -4.589  1.00  0.00     0.041 C 
ATOM     15  O   UNL     1      -7.608 -12.794  -4.284  1.00  0.00    -0.550 OA
ATOM     16  O   UNL     1      -5.534 -13.713  -3.950  1.00  0.00    -0.550 OA
ENDBRANCH  13  14
ENDBRANCH  12  13
ENDBRANCH  11  12
ENDBRANCH  10  11
ENDBRANCH   9  10
ENDBRANCH   8   9
ENDBRANCH   7   8
ENDBRANCH   6   7
ENDBRANCH   5   6
ENDBRANCH   4   5
ENDBRANCH   3   4
ENDBRANCH   2   3
ENDBRANCH   1   2
BRANCH   1  17
ATOM     17  C   UNL     1     -13.672 -12.164  -0.935  1.00  0.00     0.000 C 
BRANCH  17  18
ATOM     18  C   UNL     1     -13.206 -11.520   0.384  1.00  0.00     0.000 C 
BRANCH  18  19
ATOM     19  C   UNL     1     -13.678 -12.310   1.616  1.00  0.00     0.000 C 
BRANCH  19  20
ATOM     20  C   UNL     1     -14.296 -11.378   2.671  1.00  0.00     0.000 C 
BRANCH  20  21
ATOM     21  C   UNL     1     -13.235 -10.709   3.561  1.00  0.00     0.000 C 
BRANCH  21  22
ATOM     22  C   UNL     1     -12.083 -11.659   3.925  1.00  0.00    -0.000 C 
BRANCH  22  23
ATOM     23  C   UNL     1     -11.645 -11.468   5.383  1.00  0.00    -0.000 C 
BRANCH  23  24
ATOM     24  C   UNL     1     -11.633  -9.979   5.764  1.00  0.00    -0.000 C 
BRANCH  24  25
ATOM     25  C   UNL     1     -12.328  -9.710   7.115  1.00  0.00    -0.000 C 
BRANCH  25  26
ATOM     26  C   UNL     1     -13.778  -9.204   6.979  1.00  0.00    -0.000 C 
BRANCH  26  27
ATOM     27  C   UNL     1     -14.832 -10.305   6.781  1.00  0.00    -0.000 C 
BRANCH  27  28
ATOM     28  C   UNL     1     -14.987 -11.209   8.012  1.00  0.00    -0.000 C 
BRANCH  28  29
ATOM     29  C   UNL     1     -14.975 -12.688   7.610  1.00  0.00    -0.003 C 
ATOM     30  C   UNL     1     -14.906 -12.844   6.095  1.00  0.00     0.004 C 
ENDBRANCH  28  29
ENDBRANCH  27  28
ENDBRANCH  26  27
ENDBRANCH  25  26
ENDBRANCH  24  25
ENDBRANCH  23  24
ENDBRANCH  22  23
ENDBRANCH  21  22
ENDBRANCH  20  21
ENDBRANCH  19  20
ENDBRANCH  18  19
ENDBRANCH  17  18
ENDBRANCH   1  17
TORSDOF 26
ENDMDL
MODEL 5
REMARK VINA RESULT:    -3.542      1.381      2.190
REMARK INTER + INTRA:         -12.300
REMARK INTER:                  -9.748
REMARK INTRA:                  -2.552
REMARK UNBOUND:                -3.375
REMARK SMILES CCCCCCCCCCCCCCCCCCCCCCCCCCCC(=O)[O-]
REMARK SMILES IDX 15 1 16 2 17 3 18 4 19 5 20 6 21 7 22 8 23 9 24 10 25 11
REMARK SMILES IDX 26 12 27 13 28 14 29 15 30 16 14 17 13 18 12 19 11 20 10 21
REMARK SMILES IDX 9 22 8 23 7 24 6 25 5 26 4 27 3 28 2 29 1 30
REMARK H PARENT
REMARK Flexibility Score: inf
ROOT
ATOM      1  C   UNL     1      -8.778 -14.028  -3.620  1.00  0.00     0.000 C 
ENDROOT
BRANCH   1   2
ATOM      2  C   UNL     1      -9.253 -13.232  -2.390  1.00  0.00     0.000 C 
BRANCH   2   3
ATOM      3  C   UNL     1     -10.783 -13.031  -2.321  1.00  0.00     0.000 C 
BRANCH   3   4
ATOM      4  C   UNL     1     -11.340 -13.046  -0.885  1.00  0.00     0.000 C 
BRANCH   4   5
ATOM      5  C   UNL     1     -12.656 -12.260  -0.770  1.00  0.00     0.000 C 
BRANCH   5   6
ATOM      6  C   UNL     1     -13.596 -12.901   0.263  1.00  0.00     0.000 C 
BRANCH   6   7
ATOM      7  C   UNL     1     -14.030 -11.914   1.359  1.00  0.00     0.000 C 
BRANCH   7   8
ATOM      8  C   UNL     1     -14.746 -12.605   2.530  1.00  0.00     0.000 C 
BRANCH   8   9
ATOM      9  C   UNL     1     -14.785 -11.695   3.766  1.00  0.00     0.000 C 
BRANCH   9  10
ATOM     10  C   UNL     1     -13.842 -10.487   3.632  1.00  0.00     0.000 C 
BRANCH  10  11
ATOM     11  C   UNL     1     -13.786  -9.649   4.921  1.00  0.00     0.000 C 
BRANCH  11  12
ATOM     12  C   UNL     1     -12.497  -9.882   5.726  1.00  0.00     0.006 C 
BRANCH  12  13
ATOM     13  C   UNL     1     -11.423 -10.635   4.929  1.00  0.00     0.053 C 
BRANCH  13  14
ATOM     14  C   UNL     1     -11.220 -12.007   5.492  1.00  0.00     0.041 C 
ATOM     15  O   UNL     1     -11.371 -12.214   6.727  1.00  0.00    -0.550 OA
ATOM     16  O   UNL     1     -10.796 -13.041   4.666  1.00  0.00    -0.550 OA
ENDBRANCH  13  14
ENDBRANCH  12  13
ENDBRANCH  11  12
ENDBRANCH  10  11
ENDBRANCH   9  10
ENDBRANCH   8   9
ENDBRANCH   7   8
ENDBRANCH   6   7
ENDBRANCH   5   6
ENDBRANCH   4   5
ENDBRANCH   3   4
ENDBRANCH   2   3
ENDBRANCH   1   2
BRANCH   1  17
ATOM     17  C   UNL     1      -7.256 -13.957  -3.868  1.00  0.00     0.000 C 
BRANCH  17  18
ATOM     18  C   UNL     1      -6.696 -12.523  -3.885  1.00  0.00     0.000 C 
BRANCH  18  19
ATOM     19  C   UNL     1      -5.745 -12.283  -5.070  1.00  0.00     0.000 C 
BRANCH  19  20
ATOM     20  C   UNL     1      -4.996 -13.570  -5.451  1.00  0.00     0.000 C 
BRANCH  20  21
ATOM     21  C   UNL     1      -4.184 -13.417  -6.749  1.00  0.00     0.000 C 
BRANCH  21  22
ATOM     22  C   UNL     1      -5.033 -12.898  -7.921  1.00  0.00    -0.000 C 
BRANCH  22  23
ATOM     23  C   UNL     1      -6.055 -13.948  -8.375  1.00  0.00    -0.000 C 
BRANCH  23  24
ATOM     24  C   UNL     1      -7.458 -13.333  -8.502  1.00  0.00    -0.000 C 
BRANCH  24  25
ATOM     25  C   UNL     1      -8.380 -13.722  -7.328  1.00  0.00    -0.000 C 
BRANCH  25  26
ATOM     26  C   UNL     1      -9.883 -13.586  -7.645  1.00  0.00    -0.000 C 
BRANCH  26  27
ATOM     27  C   UNL     1     -10.572 -12.368  -7.008  1.00  0.00    -0.000 C 
BRANCH  27  28
ATOM     28  C   UNL     1     -11.537 -12.755  -5.879  1.00  0.00    -0.000 C 
BRANCH  28  29
ATOM     29  C   UNL     1     -12.762 -11.834  -5.865  1.00  0.00    -0.003 C 
ATOM     30  C   UNL     1     -13.308 -11.669  -4.450  1.00  0.00     0.004 C 
ENDBRANCH  28  29
ENDBRANCH  27  28
ENDBRANCH  26  27
ENDBRANCH  25  26
ENDBRANCH  24  25
ENDBRANCH  23  24
ENDBRANCH  22  23
ENDBRANCH  21  22
ENDBRANCH  20  21
ENDBRANCH  19  20
ENDBRANCH  18  19
ENDBRANCH  17  18
ENDBRANCH   1  17
TORSDOF 26
ENDMDL
MODEL 6
REMARK VINA RESULT:    -3.535      2.495      8.619
REMARK INTER + INTRA:         -12.283
REMARK INTER:                  -9.358
REMARK INTRA:                  -2.925
REMARK UNBOUND:                -3.375
REMARK SMILES CCCCCCCCCCCCCCCCCCCCCCCCCCCC(=O)[O-]
REMARK SMILES IDX 15 1 16 2 17 3 18 4 19 5 20 6 21 7 22 8 23 9 24 10 25 11
REMARK SMILES IDX 26 12 27 13 28 14 29 15 30 16 14 17 13 18 12 19 11 20 10 21
REMARK SMILES IDX 9 22 8 23 7 24 6 25 5 26 4 27 3 28 2 29 1 30
REMARK H PARENT
REMARK Flexibility Score: inf
ROOT
ATOM      1  C   UNL     1      -5.811 -12.962  -4.598  1.00  0.00     0.000 C 
ENDROOT
BRANCH   1   2
ATOM      2  C   UNL     1      -5.690 -11.987  -5.784  1.00  0.00     0.000 C 
BRANCH   2   3
ATOM      3  C   UNL     1      -5.522 -12.680  -7.155  1.00  0.00     0.000 C 
BRANCH   3   4
ATOM      4  C   UNL     1      -6.673 -12.386  -8.136  1.00  0.00     0.000 C 
BRANCH   4   5
ATOM      5  C   UNL     1      -8.038 -12.361  -7.430  1.00  0.00     0.000 C 
BRANCH   5   6
ATOM      6  C   UNL     1      -8.555 -13.785  -7.173  1.00  0.00     0.000 C 
BRANCH   6   7
ATOM      7  C   UNL     1     -10.045 -13.813  -6.794  1.00  0.00     0.000 C 
BRANCH   7   8
ATOM      8  C   UNL     1     -10.719 -12.439  -6.933  1.00  0.00     0.000 C 
BRANCH   8   9
ATOM      9  C   UNL     1     -11.690 -12.419  -8.122  1.00  0.00     0.000 C 
BRANCH   9  10
ATOM     10  C   UNL     1     -13.109 -11.992  -7.710  1.00  0.00     0.000 C 
BRANCH  10  11
ATOM     11  C   UNL     1     -13.800 -13.048  -6.829  1.00  0.00     0.000 C 
BRANCH  11  12
ATOM     12  C   UNL     1     -14.545 -12.431  -5.634  1.00  0.00     0.006 C 
BRANCH  12  13
ATOM     13  C   UNL     1     -13.644 -11.552  -4.757  1.00  0.00     0.053 C 
BRANCH  13  14
ATOM     14  C   UNL     1     -14.319 -11.242  -3.459  1.00  0.00     0.041 C 
ATOM     15  O   UNL     1     -15.125 -12.067  -2.950  1.00  0.00    -0.550 OA
ATOM     16  O   UNL     1     -14.112 -10.012  -2.845  1.00  0.00    -0.550 OA
ENDBRANCH  13  14
ENDBRANCH  12  13
ENDBRANCH  11  12
ENDBRANCH  10  11
ENDBRANCH   9  10
ENDBRANCH   8   9
ENDBRANCH   7   8
ENDBRANCH   6   7
ENDBRANCH   5   6
ENDBRANCH   4   5
ENDBRANCH   3   4
ENDBRANCH   2   3
ENDBRANCH   1   2
BRANCH   1  17
ATOM     17  C   UNL     1      -6.878 -12.558  -3.557  1.00  0.00     0.000 C 
BRANCH  17  18
ATOM     18  C   UNL     1      -8.098 -13.496  -3.523  1.00  0.00     0.000 C 
BRANCH  18  19
ATOM     19  C   UNL     1      -9.194 -12.991  -2.569  1.00  0.00     0.000 C 
BRANCH  19  20
ATOM     20  C   UNL     1     -10.582 -13.075  -3.225  1.00  0.00     0.000 C 
BRANCH  20  21
ATOM     21  C   UNL     1     -11.662 -13.588  -2.255  1.00  0.00     0.000 C 
BRANCH  21  22
ATOM     22  C   UNL     1     -11.527 -12.987  -0.847  1.00  0.00    -0.000 C 
BRANCH  22  23
ATOM     23  C   UNL     1     -12.902 -12.776  -0.199  1.00  0.00    -0.000 C 
BRANCH  23  24
ATOM     24  C   UNL     1     -12.758 -12.351   1.271  1.00  0.00    -0.000 C 
BRANCH  24  25
ATOM     25  C   UNL     1     -14.035 -11.681   1.819  1.00  0.00    -0.000 C 
BRANCH  25  26
ATOM     26  C   UNL     1     -13.820 -10.921   3.143  1.00  0.00    -0.000 C 
BRANCH  26  27
ATOM     27  C   UNL     1     -12.464 -11.172   3.821  1.00  0.00    -0.000 C 
BRANCH  27  28
ATOM     28  C   UNL     1     -12.029 -10.012   4.727  1.00  0.00    -0.000 C 
BRANCH  28  29
ATOM     29  C   UNL     1     -11.786 -10.497   6.161  1.00  0.00    -0.003 C 
ATOM     30  C   UNL     1     -12.236 -11.944   6.333  1.00  0.00     0.004 C 
ENDBRANCH  28  29
ENDBRANCH  27  28
ENDBRANCH  26  27
ENDBRANCH  25  26
ENDBRANCH  24  25
ENDBRANCH  23  24
ENDBRANCH  22  23
ENDBRANCH  21  22
ENDBRANCH  20  21
ENDBRANCH  19  20
ENDBRANCH  18  19
ENDBRANCH  17  18
ENDBRANCH   1  17
TORSDOF 26
ENDMDL
MODEL 7
REMARK VINA RESULT:    -3.447      2.804      9.847
REMARK INTER + INTRA:         -12.060
REMARK INTER:                  -9.054
REMARK INTRA:                  -3.005
REMARK UNBOUND:                -3.375
REMARK SMILES CCCCCCCCCCCCCCCCCCCCCCCCCCCC(=O)[O-]
REMARK SMILES IDX 15 1 16 2 17 3 18 4 19 5 20 6 21 7 22 8 23 9 24 10 25 11
REMARK SMILES IDX 26 12 27 13 28 14 29 15 30 16 14 17 13 18 12 19 11 20 10 21
REMARK SMILES IDX 9 22 8 23 7 24 6 25 5 26 4 27 3 28 2 29 1 30
REMARK H PARENT
REMARK Flexibility Score: inf
ROOT
ATOM      1  C   UNL     1      -8.766 -12.620  -2.377  1.00  0.00     0.000 C 
ENDROOT
BRANCH   1   2
ATOM      2  C   UNL     1      -7.449 -12.528  -3.169  1.00  0.00     0.000 C 
BRANCH   2   3
ATOM      3  C   UNL     1      -6.999 -13.863  -3.802  1.00  0.00     0.000 C 
BRANCH   3   4
ATOM      4  C   UNL     1      -5.835 -13.708  -4.799  1.00  0.00     0.000 C 
BRANCH   4   5
ATOM      5  C   UNL     1      -5.739 -12.277  -5.354  1.00  0.00     0.000 C 
BRANCH   5   6
ATOM      6  C   UNL     1      -6.345 -12.189  -6.764  1.00  0.00     0.000 C 
BRANCH   6   7
ATOM      7  C   UNL     1      -6.841 -13.549  -7.280  1.00  0.00     0.000 C 
BRANCH   7   8
ATOM      8  C   UNL     1      -8.047 -13.422  -8.224  1.00  0.00     0.000 C 
BRANCH   8   9
ATOM      9  C   UNL     1      -9.318 -13.988  -7.575  1.00  0.00     0.000 C 
BRANCH   9  10
ATOM     10  C   UNL     1      -9.578 -13.390  -6.182  1.00  0.00     0.000 C 
BRANCH  10  11
ATOM     11  C   UNL     1     -11.046 -13.548  -5.748  1.00  0.00     0.000 C 
BRANCH  11  12
ATOM     12  C   UNL     1     -11.526 -12.398  -4.847  1.00  0.00     0.006 C 
BRANCH  12  13
ATOM     13  C   UNL     1     -12.937 -11.911  -5.201  1.00  0.00     0.053 C 
BRANCH  13  14
ATOM     14  C   UNL     1     -13.827 -11.966  -4.000  1.00  0.00     0.041 C 
ATOM     15  O   UNL     1     -14.130 -13.077  -3.486  1.00  0.00    -0.550 OA
ATOM     16  O   UNL     1     -14.378 -10.797  -3.489  1.00  0.00    -0.550 OA
ENDBRANCH  13  14
ENDBRANCH  12  13
ENDBRANCH  11  12
ENDBRANCH  10  11
ENDBRANCH   9  10
ENDBRANCH   8   9
ENDBRANCH   7   8
ENDBRANCH   6   7
ENDBRANCH   5   6
ENDBRANCH   4   5
ENDBRANCH   3   4
ENDBRANCH   2   3
ENDBRANCH   1   2
BRANCH   1  17
ATOM     17  C   UNL     1      -9.405 -14.026  -2.379  1.00  0.00     0.000 C 
BRANCH  17  18
ATOM     18  C   UNL     1     -10.692 -14.125  -1.542  1.00  0.00     0.000 C 
BRANCH  18  19
ATOM     19  C   UNL     1     -11.212 -12.744  -1.107  1.00  0.00     0.000 C 
BRANCH  19  20
ATOM     20  C   UNL     1     -12.543 -12.865  -0.346  1.00  0.00     0.000 C 
BRANCH  20  21
ATOM     21  C   UNL     1     -12.448 -13.816   0.860  1.00  0.00     0.000 C 
BRANCH  21  22
ATOM     22  C   UNL     1     -13.095 -13.234   2.126  1.00  0.00    -0.000 C 
BRANCH  22  23
ATOM     23  C   UNL     1     -12.976 -11.705   2.158  1.00  0.00    -0.000 C 
BRANCH  23  24
ATOM     24  C   UNL     1     -13.989 -11.094   3.140  1.00  0.00    -0.000 C 
BRANCH  24  25
ATOM     25  C   UNL     1     -13.388  -9.937   3.964  1.00  0.00    -0.000 C 
BRANCH  25  26
ATOM     26  C   UNL     1     -12.029 -10.272   4.610  1.00  0.00    -0.000 C 
BRANCH  26  27
ATOM     27  C   UNL     1     -11.952 -10.020   6.125  1.00  0.00    -0.000 C 
BRANCH  27  28
ATOM     28  C   UNL     1     -13.190 -10.530   6.876  1.00  0.00    -0.000 C 
BRANCH  28  29
ATOM     29  C   UNL     1     -13.593  -9.561   7.992  1.00  0.00    -0.003 C 
ATOM     30  C   UNL     1     -12.531  -8.485   8.193  1.00  0.00     0.004 C 
ENDBRANCH  28  29
ENDBRANCH  27  28
ENDBRANCH  26  27
ENDBRANCH  25  26
ENDBRANCH  24  25
ENDBRANCH  23  24
ENDBRANCH  22  23
ENDBRANCH  21  22
ENDBRANCH  20  21
ENDBRANCH  19  20
ENDBRANCH  18  19
ENDBRANCH  17  18
ENDBRANCH   1  17
TORSDOF 26
ENDMDL
MODEL 8
REMARK VINA RESULT:    -3.433      3.240     11.303
REMARK INTER + INTRA:         -12.026
REMARK INTER:                 -10.115
REMARK INTRA:                  -1.911
REMARK UNBOUND:                -3.375
REMARK SMILES CCCCCCCCCCCCCCCCCCCCCCCCCCCC(=O)[O-]
REMARK SMILES IDX 15 1 16 2 17 3 18 4 19 5 20 6 21 7 22 8 23 9 24 10 25 11
REMARK SMILES IDX 26 12 27 13 28 14 29 15 30 16 14 17 13 18 12 19 11 20 10 21
REMARK SMILES IDX 9 22 8 23 7 24 6 25 5 26 4 27 3 28 2 29 1 30
REMARK H PARENT
REMARK Flexibility Score: inf
ROOT
ATOM      1  C   UNL     1     -13.924 -10.882  -2.879  1.00  0.00     0.000 C 
ENDROOT
BRANCH   1   2
ATOM      2  C   UNL     1     -14.266 -11.614  -4.189  1.00  0.00     0.000 C 
BRANCH   2   3
ATOM      3  C   UNL     1     -13.046 -11.881  -5.099  1.00  0.00     0.000 C 
BRANCH   3   4
ATOM      4  C   UNL     1     -12.111 -12.982  -4.564  1.00  0.00     0.000 C 
BRANCH   4   5
ATOM      5  C   UNL     1     -10.805 -13.069  -5.370  1.00  0.00     0.000 C 
BRANCH   5   6
ATOM      6  C   UNL     1     -10.936 -12.341  -6.717  1.00  0.00     0.000 C 
BRANCH   6   7
ATOM      7  C   UNL     1      -9.919 -12.837  -7.758  1.00  0.00     0.000 C 
BRANCH   7   8
ATOM      8  C   UNL     1      -8.476 -12.829  -7.228  1.00  0.00     0.000 C 
BRANCH   8   9
ATOM      9  C   UNL     1      -7.513 -12.224  -8.260  1.00  0.00     0.000 C 
BRANCH   9  10
ATOM     10  C   UNL     1      -6.100 -12.822  -8.161  1.00  0.00     0.000 C 
BRANCH  10  11
ATOM     11  C   UNL     1      -5.986 -13.858  -7.029  1.00  0.00     0.000 C 
BRANCH  11  12
ATOM     12  C   UNL     1      -5.001 -13.432  -5.928  1.00  0.00     0.006 C 
BRANCH  12  13
ATOM     13  C   UNL     1      -5.627 -13.450  -4.527  1.00  0.00     0.053 C 
BRANCH  13  14
ATOM     14  C   UNL     1      -6.367 -12.176  -4.268  1.00  0.00     0.041 C 
ATOM     15  O   UNL     1      -6.235 -11.196  -5.050  1.00  0.00    -0.550 OA
ATOM     16  O   UNL     1      -7.148 -12.046  -3.126  1.00  0.00    -0.550 OA
ENDBRANCH  13  14
ENDBRANCH  12  13
ENDBRANCH  11  12
ENDBRANCH  10  11
ENDBRANCH   9  10
ENDBRANCH   8   9
ENDBRANCH   7   8
ENDBRANCH   6   7
ENDBRANCH   5   6
ENDBRANCH   4   5
ENDBRANCH   3   4
ENDBRANCH   2   3
ENDBRANCH   1   2
BRANCH   1  17
ATOM     17  C   UNL     1     -14.078 -11.752  -1.612  1.00  0.00     0.000 C 
BRANCH  17  18
ATOM     18  C   UNL     1     -12.745 -12.304  -1.073  1.00  0.00     0.000 C 
BRANCH  18  19
ATOM     19  C   UNL     1     -12.789 -12.553   0.444  1.00  0.00     0.000 C 
BRANCH  19  20
ATOM     20  C   UNL     1     -14.226 -12.458   0.982  1.00  0.00     0.000 C 
BRANCH  20  21
ATOM     21  C   UNL     1     -14.292 -11.810   2.376  1.00  0.00     0.000 C 
BRANCH  21  22
ATOM     22  C   UNL     1     -12.978 -11.116   2.769  1.00  0.00    -0.000 C 
BRANCH  22  23
ATOM     23  C   UNL     1     -13.144 -10.299   4.056  1.00  0.00    -0.000 C 
BRANCH  23  24
ATOM     24  C   UNL     1     -11.797 -10.124   4.775  1.00  0.00    -0.000 C 
BRANCH  24  25
ATOM     25  C   UNL     1     -11.935 -10.179   6.311  1.00  0.00    -0.000 C 
BRANCH  25  26
ATOM     26  C   UNL     1     -12.145 -11.601   6.867  1.00  0.00    -0.000 C 
BRANCH  26  27
ATOM     27  C   UNL     1     -12.037 -11.721   8.396  1.00  0.00    -0.000 C 
BRANCH  27  28
ATOM     28  C   UNL     1     -11.557 -10.423   9.061  1.00  0.00    -0.000 C 
BRANCH  28  29
ATOM     29  C   UNL     1     -12.468 -10.039  10.233  1.00  0.00    -0.003 C 
ATOM     30  C   UNL     1     -13.601  -9.129   9.771  1.00  0.00     0.004 C 
ENDBRANCH  28  29
ENDBRANCH  27  28
ENDBRANCH  26  27
ENDBRANCH  25  26
ENDBRANCH  24  25
ENDBRANCH  23  24
ENDBRANCH  22  23
ENDBRANCH  21  22
ENDBRANCH  20  21
ENDBRANCH  19  20
ENDBRANCH  18  19
ENDBRANCH  17  18
ENDBRANCH   1  17
TORSDOF 26
ENDMDL
MODEL 9
REMARK VINA RESULT:    -3.428      2.171      5.727
REMARK INTER + INTRA:         -12.013
REMARK INTER:                  -9.460
REMARK INTRA:                  -2.553
REMARK UNBOUND:                -3.375
REMARK SMILES CCCCCCCCCCCCCCCCCCCCCCCCCCCC(=O)[O-]
REMARK SMILES IDX 15 1 16 2 17 3 18 4 19 5 20 6 21 7 22 8 23 9 24 10 25 11
REMARK SMILES IDX 26 12 27 13 28 14 29 15 30 16 14 17 13 18 12 19 11 20 10 21
REMARK SMILES IDX 9 22 8 23 7 24 6 25 5 26 4 27 3 28 2 29 1 30
REMARK H PARENT
REMARK Flexibility Score: inf
ROOT
ATOM      1  C   UNL     1     -12.775 -11.842  -0.160  1.00  0.00     0.000 C 
ENDROOT
BRANCH   1   2
ATOM      2  C   UNL     1     -13.426 -11.998   1.226  1.00  0.00     0.000 C 
BRANCH   2   3
ATOM      3  C   UNL     1     -12.936 -13.231   2.018  1.00  0.00     0.000 C 
BRANCH   3   4
ATOM      4  C   UNL     1     -13.867 -13.625   3.179  1.00  0.00     0.000 C 
BRANCH   4   5
ATOM      5  C   UNL     1     -13.115 -13.708   4.518  1.00  0.00     0.000 C 
BRANCH   5   6
ATOM      6  C   UNL     1     -11.693 -13.138   4.389  1.00  0.00     0.000 C 
BRANCH   6   7
ATOM      7  C   UNL     1     -11.511 -11.825   5.170  1.00  0.00     0.000 C 
BRANCH   7   8
ATOM      8  C   UNL     1     -11.879 -10.585   4.340  1.00  0.00     0.000 C 
BRANCH   8   9
ATOM      9  C   UNL     1     -12.772  -9.630   5.144  1.00  0.00     0.000 C 
BRANCH   9  10
ATOM     10  C   UNL     1     -13.818 -10.379   5.987  1.00  0.00     0.000 C 
BRANCH  10  11
ATOM     11  C   UNL     1     -13.921  -9.817   7.416  1.00  0.00     0.000 C 
BRANCH  11  12
ATOM     12  C   UNL     1     -12.550  -9.462   8.015  1.00  0.00     0.006 C 
BRANCH  12  13
ATOM     13  C   UNL     1     -12.487  -9.679   9.533  1.00  0.00     0.053 C 
BRANCH  13  14
ATOM     14  C   UNL     1     -11.601 -10.839   9.859  1.00  0.00     0.041 C 
ATOM     15  O   UNL     1     -12.076 -11.861  10.424  1.00  0.00    -0.550 OA
ATOM     16  O   UNL     1     -10.237 -10.765   9.603  1.00  0.00    -0.550 OA
ENDBRANCH  13  14
ENDBRANCH  12  13
ENDBRANCH  11  12
ENDBRANCH  10  11
ENDBRANCH   9  10
ENDBRANCH   8   9
ENDBRANCH   7   8
ENDBRANCH   6   7
ENDBRANCH   5   6
ENDBRANCH   4   5
ENDBRANCH   3   4
ENDBRANCH   2   3
ENDBRANCH   1   2
BRANCH   1  17
ATOM     17  C   UNL     1     -13.679 -12.281  -1.333  1.00  0.00     0.000 C 
BRANCH  17  18
ATOM     18  C   UNL     1     -12.900 -12.789  -2.561  1.00  0.00     0.000 C 
BRANCH  18  19
ATOM     19  C   UNL     1     -11.477 -13.245  -2.200  1.00  0.00     0.000 C 
BRANCH  19  20
ATOM     20  C   UNL     1     -10.537 -13.145  -3.412  1.00  0.00     0.000 C 
BRANCH  20  21
ATOM     21  C   UNL     1     -11.168 -13.711  -4.696  1.00  0.00     0.000 C 
BRANCH  21  22
ATOM     22  C   UNL     1     -10.975 -12.787  -5.908  1.00  0.00    -0.000 C 
BRANCH  22  23
ATOM     23  C   UNL     1      -9.642 -13.068  -6.615  1.00  0.00    -0.000 C 
BRANCH  23  24
ATOM     24  C   UNL     1      -9.413 -12.081  -7.770  1.00  0.00    -0.000 C 
BRANCH  24  25
ATOM     25  C   UNL     1      -7.920 -11.935  -8.134  1.00  0.00    -0.000 C 
BRANCH  25  26
ATOM     26  C   UNL     1      -7.022 -13.034  -7.533  1.00  0.00    -0.000 C 
BRANCH  26  27
ATOM     27  C   UNL     1      -5.615 -12.568  -7.123  1.00  0.00    -0.000 C 
BRANCH  27  28
ATOM     28  C   UNL     1      -5.551 -12.080  -5.669  1.00  0.00    -0.000 C 
BRANCH  28  29
ATOM     29  C   UNL     1      -6.062 -13.157  -4.706  1.00  0.00    -0.003 C 
ATOM     30  C   UNL     1      -6.864 -12.536  -3.567  1.00  0.00     0.004 C 
ENDBRANCH  28  29
ENDBRANCH  27  28
ENDBRANCH  26  27
ENDBRANCH  25  26
ENDBRANCH  24  25
ENDBRANCH  23  24
ENDBRANCH  22  23
ENDBRANCH  21  22
ENDBRANCH  20  21
ENDBRANCH  19  20
ENDBRANCH  18  19
ENDBRANCH  17  18
ENDBRANCH   1  17
TORSDOF 26
ENDMDL
