MODEL 1
REMARK VINA RESULT:    24.066      0.000      0.000
REMARK INTER + INTRA:          40.458
REMARK INTER:                  39.542
REMARK INTRA:                   0.916
REMARK UNBOUND:                 0.916
REMARK SMILES C[C@@H]1O[C@@H](OC[C@@H]2O[C@H](Oc3c(-c4ccc(O)c(O)c4)oc4cc(O)cc(O)c4c3=O)[C@H](O)[C@@H](O)[C@H]2O)[C@H](O)[C@@H](O)[C@@H]1O
REMARK SMILES IDX 7 1 36 2 34 3 32 4 9 5 8 6 6 7 5 8 4 9 1 10 2 11 42 12 3 13
REMARK SMILES IDX 40 14 38 15 43 16 41 18 39 20 37 22 35 24 10 26 11 27 12 28
REMARK SMILES IDX 30 29 21 30 29 31 31 32 22 33 27 34 23 35 26 36 24 37 13 38
REMARK SMILES IDX 20 39 14 40 18 41 15 42 16 43 19 44 17 46 28 48 25 50 33 52
REMARK H PARENT 43 17 41 19 39 21 37 23 35 25 19 45 17 47 28 49 25 51 33 53
REMARK Flexibility Score: inf
ROOT
ATOM      1  C   UNL     1     150.629 142.316 148.724  1.00  0.00     0.180 C 
ATOM      2  C   UNL     1     150.318 140.971 149.426  1.00  0.00     0.177 C 
ATOM      3  C   UNL     1     151.367 140.664 150.536  1.00  0.00     0.180 C 
ATOM      4  C   UNL     1     152.073 141.958 150.995  1.00  0.00     0.214 C 
ATOM      5  C   UNL     1     152.743 142.648 149.770  1.00  0.00     0.339 C 
ATOM      6  O   UNL     1     152.022 142.471 148.560  1.00  0.00    -0.332 OA
ENDROOT
BRANCH   1   7
ATOM      7  C   UNL     1     149.981 142.393 147.325  1.00  0.00     0.198 C 
BRANCH   7   8
ATOM      8  O   UNL     1     149.285 143.604 147.112  1.00  0.00    -0.347 OA
BRANCH   8   9
ATOM      9  C   UNL     1     149.900 144.407 146.113  1.00  0.00     0.281 C 
ATOM     10  C   UNL     1     148.412 147.634 147.090  1.00  0.00     0.041 C 
ATOM     11  C   UNL     1     148.444 146.192 146.564  1.00  0.00     0.150 C 
ATOM     12  C   UNL     1     147.699 146.053 145.214  1.00  0.00     0.174 C 
ATOM     13  O   UNL     1     149.800 145.785 146.440  1.00  0.00    -0.344 OA
ATOM     14  C   UNL     1     147.826 144.619 144.674  1.00  0.00     0.179 C 
ATOM     15  C   UNL     1     149.293 144.149 144.714  1.00  0.00     0.202 C 
BRANCH  12  16
ATOM     16  O   UNL     1     148.225 146.959 144.279  1.00  0.00    -0.388 OA
ATOM     17  H   UNL     1     148.221 146.502 143.391  1.00  0.00     0.211 HD
ENDBRANCH  12  16
BRANCH  14  18
ATOM     18  O   UNL     1     147.009 143.750 145.426  1.00  0.00    -0.387 OA
ATOM     19  H   UNL     1     146.960 142.886 144.946  1.00  0.00     0.211 HD
ENDBRANCH  14  18
BRANCH  15  20
ATOM     20  O   UNL     1     150.063 144.841 143.756  1.00  0.00    -0.385 OA
ATOM     21  H   UNL     1     150.984 144.454 143.733  1.00  0.00     0.211 HD
ENDBRANCH  15  20
ENDBRANCH   8   9
ENDBRANCH   7   8
ENDBRANCH   1   7
BRANCH   2  22
ATOM     22  O   UNL     1     149.027 141.034 149.971  1.00  0.00    -0.387 OA
ATOM     23  H   UNL     1     148.444 140.404 149.467  1.00  0.00     0.211 HD
ENDBRANCH   2  22
BRANCH   3  24
ATOM     24  O   UNL     1     150.793 139.980 151.631  1.00  0.00    -0.387 OA
ATOM     25  H   UNL     1     151.473 139.337 151.977  1.00  0.00     0.211 HD
ENDBRANCH   3  24
BRANCH   5  26
ATOM     26  O   UNL     1     154.045 142.115 149.535  1.00  0.00    -0.454 OA
BRANCH  26  27
ATOM     27  C   UNL     1     154.860 142.216 148.391  1.00  0.00     0.214 A 
ATOM     28  C   UNL     1     156.253 142.255 148.590  1.00  0.00     0.180 A 
ATOM     29  C   UNL     1     154.376 142.230 147.067  1.00  0.00     0.239 A 
ATOM     30  O   UNL     1     157.075 142.245 147.546  1.00  0.00    -0.452 OA
ATOM     31  C   UNL     1     155.284 142.272 145.992  1.00  0.00     0.111 A 
ATOM     32  O   UNL     1     153.138 142.195 146.841  1.00  0.00    -0.285 OA
ATOM     33  C   UNL     1     156.665 142.241 146.285  1.00  0.00     0.146 A 
ATOM     34  C   UNL     1     154.874 142.320 144.639  1.00  0.00     0.134 A 
ATOM     35  C   UNL     1     157.616 142.193 145.249  1.00  0.00     0.094 A 
ATOM     36  C   UNL     1     155.830 142.281 143.615  1.00  0.00     0.093 A 
ATOM     37  C   UNL     1     157.193 142.182 143.913  1.00  0.00     0.123 A 
BRANCH  28  38
ATOM     38  C   UNL     1     156.840 142.395 149.937  1.00  0.00     0.025 A 
ATOM     39  C   UNL     1     157.294 143.659 150.349  1.00  0.00     0.062 A 
ATOM     40  C   UNL     1     156.891 141.321 150.837  1.00  0.00     0.016 A 
ATOM     41  C   UNL     1     157.720 143.867 151.677  1.00  0.00     0.158 A 
ATOM     42  C   UNL     1     157.328 141.526 152.152  1.00  0.00     0.051 A 
ATOM     43  C   UNL     1     157.739 142.786 152.585  1.00  0.00     0.157 A 
BRANCH  41  44
ATOM     44  O   UNL     1     158.110 145.155 152.044  1.00  0.00    -0.504 OA
ATOM     45  H   UNL     1     158.589 145.799 151.431  1.00  0.00     0.293 HD
ENDBRANCH  41  44
BRANCH  43  46
ATOM     46  O   UNL     1     158.125 142.924 153.926  1.00  0.00    -0.504 OA
ATOM     47  H   UNL     1     158.789 143.603 154.259  1.00  0.00     0.293 HD
ENDBRANCH  43  46
ENDBRANCH  28  38
BRANCH  34  48
ATOM     48  O   UNL     1     153.527 142.449 144.302  1.00  0.00    -0.507 OA
ATOM     49  H   UNL     1     153.271 142.710 143.346  1.00  0.00     0.293 HD
ENDBRANCH  34  48
BRANCH  37  50
ATOM     50  O   UNL     1     158.124 142.096 142.875  1.00  0.00    -0.508 OA
ATOM     51  H   UNL     1     157.851 142.059 141.890  1.00  0.00     0.293 HD
ENDBRANCH  37  50
ENDBRANCH  26  27
ENDBRANCH   5  26
BRANCH   4  52
ATOM     52  O   UNL     1     152.993 141.713 152.035  1.00  0.00    -0.384 OA
ATOM     53  H   UNL     1     153.343 142.576 152.352  1.00  0.00     0.211 HD
ENDBRANCH   4  52
TORSDOF 16
ENDMDL
