MODEL 1
REMARK VINA RESULT:    -6.257      0.000      0.000
REMARK INTER + INTRA:          -8.018
REMARK INTER:                  -7.537
REMARK INTRA:                  -0.481
REMARK UNBOUND:                -0.481
REMARK SMILES O=c1c(O)c(-c2ccc(O)cc2O)oc2cc(O)cc(O)c12
REMARK SMILES IDX 5 1 3 2 2 3 1 4 22 5 20 6 19 7 17 8 16 9 15 10 14 11 6 12
REMARK SMILES IDX 8 13 7 14 9 15 11 16 12 17 10 18 13 20 4 22 21 24 18 26
REMARK H PARENT 10 19 13 21 4 23 21 25 18 27
REMARK Flexibility Score: inf
ROOT
ATOM      1  C   UNL     1      60.439  19.772  47.261  1.00  0.00     0.184 A 
ATOM      2  C   UNL     1      61.453  20.106  48.174  1.00  0.00     0.208 A 
ATOM      3  C   UNL     1      62.523  19.215  48.360  1.00  0.00     0.238 A 
ATOM      4  O   UNL     1      63.399  19.494  49.219  1.00  0.00    -0.285 OA
ATOM      5  C   UNL     1      62.574  18.011  47.616  1.00  0.00     0.111 A 
ATOM      6  C   UNL     1      63.630  17.055  47.694  1.00  0.00     0.134 A 
ATOM      7  C   UNL     1      63.512  15.839  47.008  1.00  0.00     0.093 A 
ATOM      8  C   UNL     1      62.411  15.573  46.196  1.00  0.00     0.123 A 
ATOM      9  C   UNL     1      61.400  16.527  46.066  1.00  0.00     0.094 A 
ATOM     10  C   UNL     1      61.471  17.733  46.767  1.00  0.00     0.146 A 
ATOM     11  O   UNL     1      60.483  18.608  46.624  1.00  0.00    -0.451 OA
ENDROOT
BRANCH   1  12
ATOM     12  C   UNL     1      59.295  20.676  47.000  1.00  0.00     0.063 A 
ATOM     13  C   UNL     1      58.355  22.616  45.868  1.00  0.00     0.047 A 
ATOM     14  C   UNL     1      59.441  21.778  46.137  1.00  0.00     0.020 A 
ATOM     15  C   UNL     1      57.107  22.359  46.447  1.00  0.00     0.119 A 
ATOM     16  C   UNL     1      56.949  21.259  47.295  1.00  0.00     0.093 A 
ATOM     17  C   UNL     1      58.033  20.414  47.573  1.00  0.00     0.130 A 
BRANCH  15  18
ATOM     18  O   UNL     1      56.019  23.187  46.185  1.00  0.00    -0.508 OA
ATOM     19  H   UNL     1      55.204  23.198  46.787  1.00  0.00     0.293 HD
ENDBRANCH  15  18
BRANCH  17  20
ATOM     20  O   UNL     1      57.862  19.324  48.426  1.00  0.00    -0.507 OA
ATOM     21  H   UNL     1      56.959  19.098  48.826  1.00  0.00     0.293 HD
ENDBRANCH  17  20
ENDBRANCH   1  12
BRANCH   2  22
ATOM     22  O   UNL     1      61.375  21.293  48.906  1.00  0.00    -0.502 OA
ATOM     23  H   UNL     1      61.996  21.497  49.681  1.00  0.00     0.293 HD
ENDBRANCH   2  22
BRANCH   6  24
ATOM     24  O   UNL     1      64.817  17.258  48.403  1.00  0.00    -0.507 OA
ATOM     25  H   UNL     1      65.011  16.883  49.320  1.00  0.00     0.293 HD
ENDBRANCH   6  24
BRANCH   8  26
ATOM     26  O   UNL     1      62.335  14.361  45.516  1.00  0.00    -0.508 OA
ATOM     27  H   UNL     1      62.029  13.511  45.976  1.00  0.00     0.293 HD
ENDBRANCH   8  26
TORSDOF 6
ENDMDL
MODEL 2
REMARK VINA RESULT:    -5.995      2.838      4.906
REMARK INTER + INTRA:          -7.702
REMARK INTER:                  -7.244
REMARK INTRA:                  -0.458
REMARK UNBOUND:                -0.481
REMARK SMILES O=c1c(O)c(-c2ccc(O)cc2O)oc2cc(O)cc(O)c12
REMARK SMILES IDX 5 1 3 2 2 3 1 4 22 5 20 6 19 7 17 8 16 9 15 10 14 11 6 12
REMARK SMILES IDX 8 13 7 14 9 15 11 16 12 17 10 18 13 20 4 22 21 24 18 26
REMARK H PARENT 10 19 13 21 4 23 21 25 18 27
REMARK Flexibility Score: inf
ROOT
ATOM      1  C   UNL     1      58.761  19.104  46.782  1.00  0.00     0.184 A 
ATOM      2  C   UNL     1      58.139  19.848  47.798  1.00  0.00     0.208 A 
ATOM      3  C   UNL     1      58.922  20.692  48.602  1.00  0.00     0.238 A 
ATOM      4  O   UNL     1      58.369  21.312  49.547  1.00  0.00    -0.285 OA
ATOM      5  C   UNL     1      60.315  20.796  48.366  1.00  0.00     0.111 A 
ATOM      6  C   UNL     1      61.199  21.648  49.092  1.00  0.00     0.134 A 
ATOM      7  C   UNL     1      62.578  21.574  48.858  1.00  0.00     0.093 A 
ATOM      8  C   UNL     1      63.098  20.728  47.880  1.00  0.00     0.123 A 
ATOM      9  C   UNL     1      62.237  19.932  47.123  1.00  0.00     0.094 A 
ATOM     10  C   UNL     1      60.860  19.957  47.358  1.00  0.00     0.146 A 
ATOM     11  O   UNL     1      60.077  19.176  46.624  1.00  0.00    -0.451 OA
ENDROOT
BRANCH   1  12
ATOM     12  C   UNL     1      57.990  18.214  45.883  1.00  0.00     0.063 A 
ATOM     13  C   UNL     1      56.398  17.917  44.065  1.00  0.00     0.047 A 
ATOM     14  C   UNL     1      57.105  18.754  44.933  1.00  0.00     0.020 A 
ATOM     15  C   UNL     1      56.575  16.530  44.128  1.00  0.00     0.119 A 
ATOM     16  C   UNL     1      57.462  15.984  45.059  1.00  0.00     0.093 A 
ATOM     17  C   UNL     1      58.174  16.817  45.935  1.00  0.00     0.130 A 
BRANCH  15  18
ATOM     18  O   UNL     1      55.876  15.686  43.267  1.00  0.00    -0.508 OA
ATOM     19  H   UNL     1      55.898  15.817  42.262  1.00  0.00     0.293 HD
ENDBRANCH  15  18
BRANCH  17  20
ATOM     20  O   UNL     1      59.051  16.257  46.864  1.00  0.00    -0.507 OA
ATOM     21  H   UNL     1      58.764  16.058  47.814  1.00  0.00     0.293 HD
ENDBRANCH  17  20
ENDBRANCH   1  12
BRANCH   2  22
ATOM     22  O   UNL     1      56.765  19.720  48.021  1.00  0.00    -0.502 OA
ATOM     23  H   UNL     1      56.073  20.081  47.375  1.00  0.00     0.293 HD
ENDBRANCH   2  22
BRANCH   6  24
ATOM     24  O   UNL     1      60.776  22.598  50.027  1.00  0.00    -0.507 OA
ATOM     25  H   UNL     1      60.559  23.560  49.812  1.00  0.00     0.293 HD
ENDBRANCH   6  24
BRANCH   8  26
ATOM     26  O   UNL     1      64.473  20.691  47.663  1.00  0.00    -0.508 OA
ATOM     27  H   UNL     1      64.872  20.207  46.867  1.00  0.00     0.293 HD
ENDBRANCH   8  26
TORSDOF 6
ENDMDL
MODEL 3
REMARK VINA RESULT:    -5.986      3.074      6.951
REMARK INTER + INTRA:          -7.691
REMARK INTER:                  -7.218
REMARK INTRA:                  -0.473
REMARK UNBOUND:                -0.481
REMARK SMILES O=c1c(O)c(-c2ccc(O)cc2O)oc2cc(O)cc(O)c12
REMARK SMILES IDX 5 1 3 2 2 3 1 4 22 5 20 6 19 7 17 8 16 9 15 10 14 11 6 12
REMARK SMILES IDX 8 13 7 14 9 15 11 16 12 17 10 18 13 20 4 22 21 24 18 26
REMARK H PARENT 10 19 13 21 4 23 21 25 18 27
REMARK Flexibility Score: inf
ROOT
ATOM      1  C   UNL     1      58.226  17.576  46.277  1.00  0.00     0.184 A 
ATOM      2  C   UNL     1      57.078  18.071  45.637  1.00  0.00     0.208 A 
ATOM      3  C   UNL     1      56.954  19.455  45.436  1.00  0.00     0.238 A 
ATOM      4  O   UNL     1      55.899  19.898  44.913  1.00  0.00    -0.285 OA
ATOM      5  C   UNL     1      57.988  20.325  45.861  1.00  0.00     0.111 A 
ATOM      6  C   UNL     1      57.987  21.739  45.674  1.00  0.00     0.134 A 
ATOM      7  C   UNL     1      59.003  22.513  46.249  1.00  0.00     0.093 A 
ATOM      8  C   UNL     1      60.053  21.920  46.947  1.00  0.00     0.123 A 
ATOM      9  C   UNL     1      60.096  20.531  47.085  1.00  0.00     0.094 A 
ATOM     10  C   UNL     1      59.078  19.735  46.555  1.00  0.00     0.146 A 
ATOM     11  O   UNL     1      59.151  18.420  46.719  1.00  0.00    -0.451 OA
ENDROOT
BRANCH   1  12
ATOM     12  C   UNL     1      58.432  16.125  46.499  1.00  0.00     0.063 A 
ATOM     13  C   UNL     1      58.966  13.914  45.633  1.00  0.00     0.047 A 
ATOM     14  C   UNL     1      58.744  15.277  45.421  1.00  0.00     0.020 A 
ATOM     15  C   UNL     1      58.890  13.381  46.925  1.00  0.00     0.119 A 
ATOM     16  C   UNL     1      58.594  14.218  48.005  1.00  0.00     0.093 A 
ATOM     17  C   UNL     1      58.368  15.588  47.801  1.00  0.00     0.130 A 
BRANCH  15  18
ATOM     18  O   UNL     1      59.110  12.024  47.147  1.00  0.00    -0.508 OA
ATOM     19  H   UNL     1      59.914  11.696  47.671  1.00  0.00     0.293 HD
ENDBRANCH  15  18
BRANCH  17  20
ATOM     20  O   UNL     1      58.066  16.409  48.887  1.00  0.00    -0.507 OA
ATOM     21  H   UNL     1      58.757  17.030  49.292  1.00  0.00     0.293 HD
ENDBRANCH  17  20
ENDBRANCH   1  12
BRANCH   2  22
ATOM     22  O   UNL     1      56.065  17.196  45.238  1.00  0.00    -0.502 OA
ATOM     23  H   UNL     1      55.085  17.457  45.249  1.00  0.00     0.293 HD
ENDBRANCH   2  22
BRANCH   6  24
ATOM     24  O   UNL     1      57.034  22.425  44.916  1.00  0.00    -0.507 OA
ATOM     25  H   UNL     1      56.346  21.986  44.322  1.00  0.00     0.293 HD
ENDBRANCH   6  24
BRANCH   8  26
ATOM     26  O   UNL     1      61.056  22.718  47.491  1.00  0.00    -0.508 OA
ATOM     27  H   UNL     1      61.503  23.451  46.953  1.00  0.00     0.293 HD
ENDBRANCH   8  26
TORSDOF 6
ENDMDL
MODEL 4
REMARK VINA RESULT:    -5.981      2.699      4.889
REMARK INTER + INTRA:          -7.686
REMARK INTER:                  -7.435
REMARK INTRA:                  -0.251
REMARK UNBOUND:                -0.481
REMARK SMILES O=c1c(O)c(-c2ccc(O)cc2O)oc2cc(O)cc(O)c12
REMARK SMILES IDX 5 1 3 2 2 3 1 4 22 5 20 6 19 7 17 8 16 9 15 10 14 11 6 12
REMARK SMILES IDX 8 13 7 14 9 15 11 16 12 17 10 18 13 20 4 22 21 24 18 26
REMARK H PARENT 10 19 13 21 4 23 21 25 18 27
REMARK Flexibility Score: inf
ROOT
ATOM      1  C   UNL     1      60.153  19.290  47.876  1.00  0.00     0.184 A 
ATOM      2  C   UNL     1      58.808  19.357  48.276  1.00  0.00     0.208 A 
ATOM      3  C   UNL     1      57.900  18.413  47.771  1.00  0.00     0.238 A 
ATOM      4  O   UNL     1      56.686  18.512  48.088  1.00  0.00    -0.285 OA
ATOM      5  C   UNL     1      58.352  17.401  46.890  1.00  0.00     0.111 A 
ATOM      6  C   UNL     1      57.529  16.370  46.349  1.00  0.00     0.134 A 
ATOM      7  C   UNL     1      58.055  15.499  45.386  1.00  0.00     0.093 A 
ATOM      8  C   UNL     1      59.390  15.581  44.993  1.00  0.00     0.123 A 
ATOM      9  C   UNL     1      60.220  16.549  45.560  1.00  0.00     0.094 A 
ATOM     10  C   UNL     1      59.715  17.455  46.495  1.00  0.00     0.146 A 
ATOM     11  O   UNL     1      60.535  18.368  47.002  1.00  0.00    -0.451 OA
ENDROOT
BRANCH   1  12
ATOM     12  C   UNL     1      61.168  20.240  48.389  1.00  0.00     0.063 A 
ATOM     13  C   UNL     1      63.218  20.671  49.630  1.00  0.00     0.047 A 
ATOM     14  C   UNL     1      62.244  19.780  49.169  1.00  0.00     0.020 A 
ATOM     15  C   UNL     1      63.135  22.031  49.309  1.00  0.00     0.119 A 
ATOM     16  C   UNL     1      62.077  22.496  48.523  1.00  0.00     0.093 A 
ATOM     17  C   UNL     1      61.094  21.609  48.057  1.00  0.00     0.130 A 
BRANCH  15  18
ATOM     18  O   UNL     1      64.100  22.927  49.762  1.00  0.00    -0.508 OA
ATOM     19  H   UNL     1      64.650  23.484  49.118  1.00  0.00     0.293 HD
ENDBRANCH  15  18
BRANCH  17  20
ATOM     20  O   UNL     1      60.040  22.088  47.280  1.00  0.00    -0.507 OA
ATOM     21  H   UNL     1      60.189  22.441  46.342  1.00  0.00     0.293 HD
ENDBRANCH  17  20
ENDBRANCH   1  12
BRANCH   2  22
ATOM     22  O   UNL     1      58.382  20.372  49.137  1.00  0.00    -0.502 OA
ATOM     23  H   UNL     1      58.820  20.544  50.034  1.00  0.00     0.293 HD
ENDBRANCH   2  22
BRANCH   6  24
ATOM     24  O   UNL     1      56.206  16.140  46.739  1.00  0.00    -0.507 OA
ATOM     25  H   UNL     1      55.397  16.549  46.297  1.00  0.00     0.293 HD
ENDBRANCH   6  24
BRANCH   8  26
ATOM     26  O   UNL     1      59.885  14.688  44.046  1.00  0.00    -0.508 OA
ATOM     27  H   UNL     1      59.326  14.389  43.255  1.00  0.00     0.293 HD
ENDBRANCH   8  26
TORSDOF 6
ENDMDL
MODEL 5
REMARK VINA RESULT:    -5.972      3.079      6.109
REMARK INTER + INTRA:          -7.675
REMARK INTER:                  -7.208
REMARK INTRA:                  -0.467
REMARK UNBOUND:                -0.481
REMARK SMILES O=c1c(O)c(-c2ccc(O)cc2O)oc2cc(O)cc(O)c12
REMARK SMILES IDX 5 1 3 2 2 3 1 4 22 5 20 6 19 7 17 8 16 9 15 10 14 11 6 12
REMARK SMILES IDX 8 13 7 14 9 15 11 16 12 17 10 18 13 20 4 22 21 24 18 26
REMARK H PARENT 10 19 13 21 4 23 21 25 18 27
REMARK Flexibility Score: inf
ROOT
ATOM      1  C   UNL     1      60.067  21.170  47.016  1.00  0.00     0.184 A 
ATOM      2  C   UNL     1      59.650  22.129  46.077  1.00  0.00     0.208 A 
ATOM      3  C   UNL     1      58.498  21.878  45.314  1.00  0.00     0.238 A 
ATOM      4  O   UNL     1      58.161  22.714  44.436  1.00  0.00    -0.285 OA
ATOM      5  C   UNL     1      57.766  20.683  45.515  1.00  0.00     0.111 A 
ATOM      6  C   UNL     1      56.563  20.343  44.828  1.00  0.00     0.134 A 
ATOM      7  C   UNL     1      55.994  19.077  45.014  1.00  0.00     0.093 A 
ATOM      8  C   UNL     1      56.547  18.163  45.910  1.00  0.00     0.123 A 
ATOM      9  C   UNL     1      57.691  18.508  46.632  1.00  0.00     0.094 A 
ATOM     10  C   UNL     1      58.302  19.749  46.441  1.00  0.00     0.146 A 
ATOM     11  O   UNL     1      59.395  20.032  47.139  1.00  0.00    -0.451 OA
ENDROOT
BRANCH   1  12
ATOM     12  C   UNL     1      61.259  21.381  47.870  1.00  0.00     0.063 A 
ATOM     13  C   UNL     1      62.278  22.298  49.882  1.00  0.00     0.047 A 
ATOM     14  C   UNL     1      61.160  22.122  49.062  1.00  0.00     0.020 A 
ATOM     15  C   UNL     1      63.506  21.728  49.529  1.00  0.00     0.119 A 
ATOM     16  C   UNL     1      63.612  20.979  48.354  1.00  0.00     0.093 A 
ATOM     17  C   UNL     1      62.496  20.799  47.523  1.00  0.00     0.130 A 
BRANCH  15  18
ATOM     18  O   UNL     1      64.626  21.897  50.339  1.00  0.00    -0.508 OA
ATOM     19  H   UNL     1      64.557  22.322  51.257  1.00  0.00     0.293 HD
ENDBRANCH  15  18
BRANCH  17  20
ATOM     20  O   UNL     1      62.618  20.054  46.350  1.00  0.00    -0.507 OA
ATOM     21  H   UNL     1      63.517  19.725  46.020  1.00  0.00     0.293 HD
ENDBRANCH  17  20
ENDBRANCH   1  12
BRANCH   2  22
ATOM     22  O   UNL     1      60.395  23.295  45.887  1.00  0.00    -0.502 OA
ATOM     23  H   UNL     1      61.016  23.665  46.597  1.00  0.00     0.293 HD
ENDBRANCH   2  22
BRANCH   6  24
ATOM     24  O   UNL     1      55.876  21.216  43.979  1.00  0.00    -0.507 OA
ATOM     25  H   UNL     1      56.015  22.215  43.946  1.00  0.00     0.293 HD
ENDBRANCH   6  24
BRANCH   8  26
ATOM     26  O   UNL     1      55.946  16.919  46.083  1.00  0.00    -0.508 OA
ATOM     27  H   UNL     1      56.155  16.139  45.471  1.00  0.00     0.293 HD
ENDBRANCH   8  26
TORSDOF 6
ENDMDL
MODEL 6
REMARK VINA RESULT:    -5.897      2.115      3.477
REMARK INTER + INTRA:          -7.585
REMARK INTER:                  -7.164
REMARK INTRA:                  -0.421
REMARK UNBOUND:                -0.481
REMARK SMILES O=c1c(O)c(-c2ccc(O)cc2O)oc2cc(O)cc(O)c12
REMARK SMILES IDX 5 1 3 2 2 3 1 4 22 5 20 6 19 7 17 8 16 9 15 10 14 11 6 12
REMARK SMILES IDX 8 13 7 14 9 15 11 16 12 17 10 18 13 20 4 22 21 24 18 26
REMARK H PARENT 10 19 13 21 4 23 21 25 18 27
REMARK Flexibility Score: inf
ROOT
ATOM      1  C   UNL     1      58.594  18.220  46.617  1.00  0.00     0.184 A 
ATOM      2  C   UNL     1      57.856  17.025  46.657  1.00  0.00     0.208 A 
ATOM      3  C   UNL     1      58.540  15.808  46.813  1.00  0.00     0.238 A 
ATOM      4  O   UNL     1      57.880  14.737  46.792  1.00  0.00    -0.285 OA
ATOM      5  C   UNL     1      59.950  15.804  46.949  1.00  0.00     0.111 A 
ATOM      6  C   UNL     1      60.741  14.635  47.152  1.00  0.00     0.134 A 
ATOM      7  C   UNL     1      62.138  14.736  47.143  1.00  0.00     0.093 A 
ATOM      8  C   UNL     1      62.770  15.971  47.004  1.00  0.00     0.123 A 
ATOM      9  C   UNL     1      62.004  17.129  46.864  1.00  0.00     0.094 A 
ATOM     10  C   UNL     1      60.610  17.056  46.832  1.00  0.00     0.146 A 
ATOM     11  O   UNL     1      59.919  18.180  46.685  1.00  0.00    -0.451 OA
ENDROOT
BRANCH   1  12
ATOM     12  C   UNL     1      57.934  19.540  46.478  1.00  0.00     0.063 A 
ATOM     13  C   UNL     1      56.737  21.167  45.120  1.00  0.00     0.047 A 
ATOM     14  C   UNL     1      57.384  19.935  45.245  1.00  0.00     0.020 A 
ATOM     15  C   UNL     1      56.623  22.017  46.226  1.00  0.00     0.119 A 
ATOM     16  C   UNL     1      57.154  21.628  47.459  1.00  0.00     0.093 A 
ATOM     17  C   UNL     1      57.807  20.393  47.593  1.00  0.00     0.130 A 
BRANCH  15  18
ATOM     18  O   UNL     1      55.979  23.247  46.112  1.00  0.00    -0.508 OA
ATOM     19  H   UNL     1      56.494  24.099  45.920  1.00  0.00     0.293 HD
ENDBRANCH  15  18
BRANCH  17  20
ATOM     20  O   UNL     1      58.339  20.021  48.828  1.00  0.00    -0.507 OA
ATOM     21  H   UNL     1      57.746  19.818  49.623  1.00  0.00     0.293 HD
ENDBRANCH  17  20
ENDBRANCH   1  12
BRANCH   2  22
ATOM     22  O   UNL     1      56.467  17.052  46.508  1.00  0.00    -0.502 OA
ATOM     23  H   UNL     1      55.895  17.800  46.882  1.00  0.00     0.293 HD
ENDBRANCH   2  22
BRANCH   6  24
ATOM     24  O   UNL     1      60.211  13.364  47.393  1.00  0.00    -0.507 OA
ATOM     25  H   UNL     1      60.672  12.639  47.921  1.00  0.00     0.293 HD
ENDBRANCH   6  24
BRANCH   8  26
ATOM     26  O   UNL     1      64.161  16.037  47.016  1.00  0.00    -0.508 OA
ATOM     27  H   UNL     1      64.654  16.903  46.830  1.00  0.00     0.293 HD
ENDBRANCH   8  26
TORSDOF 6
ENDMDL
MODEL 7
REMARK VINA RESULT:    -5.887      2.849      7.402
REMARK INTER + INTRA:          -7.572
REMARK INTER:                  -7.163
REMARK INTRA:                  -0.408
REMARK UNBOUND:                -0.481
REMARK SMILES O=c1c(O)c(-c2ccc(O)cc2O)oc2cc(O)cc(O)c12
REMARK SMILES IDX 5 1 3 2 2 3 1 4 22 5 20 6 19 7 17 8 16 9 15 10 14 11 6 12
REMARK SMILES IDX 8 13 7 14 9 15 11 16 12 17 10 18 13 20 4 22 21 24 18 26
REMARK H PARENT 10 19 13 21 4 23 21 25 18 27
REMARK Flexibility Score: inf
ROOT
ATOM      1  C   UNL     1      61.570  16.067  47.115  1.00  0.00     0.184 A 
ATOM      2  C   UNL     1      61.156  15.490  45.903  1.00  0.00     0.208 A 
ATOM      3  C   UNL     1      59.889  15.815  45.392  1.00  0.00     0.238 A 
ATOM      4  O   UNL     1      59.501  15.252  44.336  1.00  0.00    -0.285 OA
ATOM      5  C   UNL     1      59.062  16.730  46.089  1.00  0.00     0.111 A 
ATOM      6  C   UNL     1      57.777  17.162  45.644  1.00  0.00     0.134 A 
ATOM      7  C   UNL     1      56.994  17.970  46.477  1.00  0.00     0.093 A 
ATOM      8  C   UNL     1      57.472  18.414  47.709  1.00  0.00     0.123 A 
ATOM      9  C   UNL     1      58.751  18.045  48.128  1.00  0.00     0.094 A 
ATOM     10  C   UNL     1      59.543  17.210  47.336  1.00  0.00     0.146 A 
ATOM     11  O   UNL     1      60.749  16.874  47.776  1.00  0.00    -0.451 OA
ENDROOT
BRANCH   1  12
ATOM     12  C   UNL     1      62.903  15.785  47.699  1.00  0.00     0.063 A 
ATOM     13  C   UNL     1      64.383  14.335  48.977  1.00  0.00     0.047 A 
ATOM     14  C   UNL     1      63.119  14.615  48.449  1.00  0.00     0.020 A 
ATOM     15  C   UNL     1      65.449  15.213  48.753  1.00  0.00     0.119 A 
ATOM     16  C   UNL     1      65.248  16.372  47.998  1.00  0.00     0.093 A 
ATOM     17  C   UNL     1      63.982  16.663  47.466  1.00  0.00     0.130 A 
BRANCH  15  18
ATOM     18  O   UNL     1      66.712  14.943  49.273  1.00  0.00    -0.508 OA
ATOM     19  H   UNL     1      67.533  15.449  48.962  1.00  0.00     0.293 HD
ENDBRANCH  15  18
BRANCH  17  20
ATOM     20  O   UNL     1      63.794  17.826  46.720  1.00  0.00    -0.507 OA
ATOM     21  H   UNL     1      64.277  18.687  46.946  1.00  0.00     0.293 HD
ENDBRANCH  17  20
ENDBRANCH   1  12
BRANCH   2  22
ATOM     22  O   UNL     1      61.984  14.580  45.241  1.00  0.00    -0.502 OA
ATOM     23  H   UNL     1      61.837  13.578  45.287  1.00  0.00     0.293 HD
ENDBRANCH   2  22
BRANCH   6  24
ATOM     24  O   UNL     1      57.240  16.853  44.391  1.00  0.00    -0.507 OA
ATOM     25  H   UNL     1      57.019  17.531  43.677  1.00  0.00     0.293 HD
ENDBRANCH   6  24
BRANCH   8  26
ATOM     26  O   UNL     1      56.673  19.230  48.504  1.00  0.00    -0.508 OA
ATOM     27  H   UNL     1      56.173  20.023  48.119  1.00  0.00     0.293 HD
ENDBRANCH   8  26
TORSDOF 6
ENDMDL
MODEL 8
REMARK VINA RESULT:    -5.841      2.564      6.334
REMARK INTER + INTRA:          -7.517
REMARK INTER:                  -7.114
REMARK INTRA:                  -0.403
REMARK UNBOUND:                -0.481
REMARK SMILES O=c1c(O)c(-c2ccc(O)cc2O)oc2cc(O)cc(O)c12
REMARK SMILES IDX 5 1 3 2 2 3 1 4 22 5 20 6 19 7 17 8 16 9 15 10 14 11 6 12
REMARK SMILES IDX 8 13 7 14 9 15 11 16 12 17 10 18 13 20 4 22 21 24 18 26
REMARK H PARENT 10 19 13 21 4 23 21 25 18 27
REMARK Flexibility Score: inf
ROOT
ATOM      1  C   UNL     1      59.111  17.620  46.683  1.00  0.00     0.184 A 
ATOM      2  C   UNL     1      60.379  18.135  46.999  1.00  0.00     0.208 A 
ATOM      3  C   UNL     1      60.568  19.526  46.996  1.00  0.00     0.238 A 
ATOM      4  O   UNL     1      61.719  19.980  47.224  1.00  0.00    -0.285 OA
ATOM      5  C   UNL     1      59.482  20.385  46.696  1.00  0.00     0.111 A 
ATOM      6  C   UNL     1      59.549  21.810  46.701  1.00  0.00     0.134 A 
ATOM      7  C   UNL     1      58.447  22.555  46.264  1.00  0.00     0.093 A 
ATOM      8  C   UNL     1      57.260  21.931  45.883  1.00  0.00     0.123 A 
ATOM      9  C   UNL     1      57.164  20.540  45.930  1.00  0.00     0.094 A 
ATOM     10  C   UNL     1      58.258  19.767  46.327  1.00  0.00     0.146 A 
ATOM     11  O   UNL     1      58.128  18.446  46.346  1.00  0.00    -0.451 OA
ENDROOT
BRANCH   1  12
ATOM     12  C   UNL     1      58.836  16.163  46.691  1.00  0.00     0.063 A 
ATOM     13  C   UNL     1      58.837  14.010  45.556  1.00  0.00     0.047 A 
ATOM     14  C   UNL     1      59.070  15.388  45.541  1.00  0.00     0.020 A 
ATOM     15  C   UNL     1      58.378  13.387  46.722  1.00  0.00     0.119 A 
ATOM     16  C   UNL     1      58.155  14.146  47.874  1.00  0.00     0.093 A 
ATOM     17  C   UNL     1      58.384  15.531  47.867  1.00  0.00     0.130 A 
BRANCH  15  18
ATOM     18  O   UNL     1      58.144  12.014  46.748  1.00  0.00    -0.508 OA
ATOM     19  H   UNL     1      57.719  11.564  47.551  1.00  0.00     0.293 HD
ENDBRANCH  15  18
BRANCH  17  20
ATOM     20  O   UNL     1      58.151  16.277  49.022  1.00  0.00    -0.507 OA
ATOM     21  H   UNL     1      58.026  15.835  49.925  1.00  0.00     0.293 HD
ENDBRANCH  17  20
ENDBRANCH   1  12
BRANCH   2  22
ATOM     22  O   UNL     1      61.438  17.269  47.279  1.00  0.00    -0.502 OA
ATOM     23  H   UNL     1      61.588  16.408  46.764  1.00  0.00     0.293 HD
ENDBRANCH   2  22
BRANCH   6  24
ATOM     24  O   UNL     1      60.655  22.538  47.150  1.00  0.00    -0.507 OA
ATOM     25  H   UNL     1      61.617  22.306  46.948  1.00  0.00     0.293 HD
ENDBRANCH   6  24
BRANCH   8  26
ATOM     26  O   UNL     1      56.179  22.704  45.469  1.00  0.00    -0.508 OA
ATOM     27  H   UNL     1      55.436  22.965  46.108  1.00  0.00     0.293 HD
ENDBRANCH   8  26
TORSDOF 6
ENDMDL
MODEL 9
REMARK VINA RESULT:    -4.612      3.302      7.221
REMARK INTER + INTRA:          -6.036
REMARK INTER:                  -5.623
REMARK INTRA:                  -0.413
REMARK UNBOUND:                -0.481
REMARK SMILES O=c1c(O)c(-c2ccc(O)cc2O)oc2cc(O)cc(O)c12
REMARK SMILES IDX 5 1 3 2 2 3 1 4 22 5 20 6 19 7 17 8 16 9 15 10 14 11 6 12
REMARK SMILES IDX 8 13 7 14 9 15 11 16 12 17 10 18 13 20 4 22 21 24 18 26
REMARK H PARENT 10 19 13 21 4 23 21 25 18 27
REMARK Flexibility Score: inf
ROOT
ATOM      1  C   UNL     1      57.715  18.273  45.967  1.00  0.00     0.184 A 
ATOM      2  C   UNL     1      57.671  19.219  47.004  1.00  0.00     0.208 A 
ATOM      3  C   UNL     1      57.215  20.516  46.723  1.00  0.00     0.238 A 
ATOM      4  O   UNL     1      57.231  21.375  47.643  1.00  0.00    -0.285 OA
ATOM      5  C   UNL     1      56.789  20.846  45.413  1.00  0.00     0.111 A 
ATOM      6  C   UNL     1      56.271  22.117  45.024  1.00  0.00     0.134 A 
ATOM      7  C   UNL     1      56.001  22.368  43.673  1.00  0.00     0.093 A 
ATOM      8  C   UNL     1      56.168  21.377  42.707  1.00  0.00     0.123 A 
ATOM      9  C   UNL     1      56.618  20.111  43.086  1.00  0.00     0.094 A 
ATOM     10  C   UNL     1      56.931  19.840  44.420  1.00  0.00     0.146 A 
ATOM     11  O   UNL     1      57.367  18.627  44.736  1.00  0.00    -0.451 OA
ENDROOT
BRANCH   1  12
ATOM     12  C   UNL     1      58.163  16.879  46.199  1.00  0.00     0.063 A 
ATOM     13  C   UNL     1      59.932  15.293  46.731  1.00  0.00     0.047 A 
ATOM     14  C   UNL     1      59.513  16.603  46.484  1.00  0.00     0.020 A 
ATOM     15  C   UNL     1      59.007  14.243  46.707  1.00  0.00     0.119 A 
ATOM     16  C   UNL     1      57.661  14.508  46.439  1.00  0.00     0.093 A 
ATOM     17  C   UNL     1      57.232  15.820  46.187  1.00  0.00     0.130 A 
BRANCH  15  18
ATOM     18  O   UNL     1      59.413  12.933  46.953  1.00  0.00    -0.508 OA
ATOM     19  H   UNL     1      59.626  12.611  47.890  1.00  0.00     0.293 HD
ENDBRANCH  15  18
BRANCH  17  20
ATOM     20  O   UNL     1      55.887  16.069  45.914  1.00  0.00    -0.507 OA
ATOM     21  H   UNL     1      55.206  15.322  45.871  1.00  0.00     0.293 HD
ENDBRANCH  17  20
ENDBRANCH   1  12
BRANCH   2  22
ATOM     22  O   UNL     1      58.108  18.875  48.286  1.00  0.00    -0.502 OA
ATOM     23  H   UNL     1      58.211  17.913  48.586  1.00  0.00     0.293 HD
ENDBRANCH   2  22
BRANCH   6  24
ATOM     24  O   UNL     1      55.979  23.149  45.920  1.00  0.00    -0.507 OA
ATOM     25  H   UNL     1      56.376  23.238  46.844  1.00  0.00     0.293 HD
ENDBRANCH   6  24
BRANCH   8  26
ATOM     26  O   UNL     1      55.875  21.657  41.375  1.00  0.00    -0.508 OA
ATOM     27  H   UNL     1      55.438  22.529  41.099  1.00  0.00     0.293 HD
ENDBRANCH   8  26
TORSDOF 6
ENDMDL
