MODEL 1
REMARK VINA RESULT:    -5.432      0.000      0.000
REMARK INTER + INTRA:         -11.027
REMARK INTER:                  -9.878
REMARK INTRA:                  -1.149
REMARK UNBOUND:                -1.149
REMARK SMILES CCCCCCCCCCCCCCCC(=O)[O-]
REMARK SMILES IDX 9 1 10 2 11 3 12 4 13 5 14 6 15 7 16 8 17 9 18 10 8 11 7 12
REMARK SMILES IDX 6 13 5 14 4 15 3 16 2 17 1 18
REMARK H PARENT
REMARK Flexibility Score: inf
ROOT
ATOM      1  C   UNL     1     -22.030  -8.914   7.397  1.00  0.00     0.000 C 
ENDROOT
BRANCH   1   2
ATOM      2  C   UNL     1     -23.226  -8.295   8.134  1.00  0.00     0.000 C 
BRANCH   2   3
ATOM      3  C   UNL     1     -24.337  -9.316   8.442  1.00  0.00     0.000 C 
BRANCH   3   4
ATOM      4  C   UNL     1     -23.898 -10.792   8.397  1.00  0.00     0.000 C 
BRANCH   4   5
ATOM      5  C   UNL     1     -24.561 -11.649   9.489  1.00  0.00     0.000 C 
BRANCH   5   6
ATOM      6  C   UNL     1     -23.584 -12.025  10.616  1.00  0.00     0.006 C 
BRANCH   6   7
ATOM      7  C   UNL     1     -22.387 -12.842  10.113  1.00  0.00     0.053 C 
BRANCH   7   8
ATOM      8  C   UNL     1     -22.709 -14.303  10.131  1.00  0.00     0.041 C 
ATOM      9  O   UNL     1     -23.785 -14.710  10.644  1.00  0.00    -0.550 OA
ATOM     10  O   UNL     1     -21.798 -15.223   9.624  1.00  0.00    -0.550 OA
ENDBRANCH   7   8
ENDBRANCH   6   7
ENDBRANCH   5   6
ENDBRANCH   4   5
ENDBRANCH   3   4
ENDBRANCH   2   3
ENDBRANCH   1   2
BRANCH   1  11
ATOM     11  C   UNL     1     -21.993  -8.464   5.930  1.00  0.00     0.000 C 
BRANCH  11  12
ATOM     12  C   UNL     1     -22.102  -9.669   4.983  1.00  0.00    -0.000 C 
BRANCH  12  13
ATOM     13  C   UNL     1     -23.521 -10.258   4.927  1.00  0.00    -0.000 C 
BRANCH  13  14
ATOM     14  C   UNL     1     -23.568 -11.621   4.214  1.00  0.00    -0.000 C 
BRANCH  14  15
ATOM     15  C   UNL     1     -24.521 -12.613   4.901  1.00  0.00    -0.000 C 
BRANCH  15  16
ATOM     16  C   UNL     1     -24.590 -13.966   4.177  1.00  0.00    -0.000 C 
BRANCH  16  17
ATOM     17  C   UNL     1     -25.362 -14.995   5.012  1.00  0.00    -0.003 C 
ATOM     18  C   UNL     1     -24.831 -16.406   4.779  1.00  0.00     0.004 C 
ENDBRANCH  16  17
ENDBRANCH  15  16
ENDBRANCH  14  15
ENDBRANCH  13  14
ENDBRANCH  12  13
ENDBRANCH  11  12
ENDBRANCH   1  11
TORSDOF 14
ENDMDL
MODEL 2
REMARK VINA RESULT:    -5.307      2.930      5.959
REMARK INTER + INTRA:         -10.798
REMARK INTER:                  -9.443
REMARK INTRA:                  -1.356
REMARK UNBOUND:                -1.149
REMARK SMILES CCCCCCCCCCCCCCCC(=O)[O-]
REMARK SMILES IDX 9 1 10 2 11 3 12 4 13 5 14 6 15 7 16 8 17 9 18 10 8 11 7 12
REMARK SMILES IDX 6 13 5 14 4 15 3 16 2 17 1 18
REMARK H PARENT
REMARK Flexibility Score: inf
ROOT
ATOM      1  C   UNL     1     -24.256 -13.593   4.119  1.00  0.00     0.000 C 
ENDROOT
BRANCH   1   2
ATOM      2  C   UNL     1     -24.462 -12.097   4.395  1.00  0.00     0.000 C 
BRANCH   2   3
ATOM      3  C   UNL     1     -23.204 -11.255   4.111  1.00  0.00     0.000 C 
BRANCH   3   4
ATOM      4  C   UNL     1     -22.925 -10.134   5.130  1.00  0.00     0.000 C 
BRANCH   4   5
ATOM      5  C   UNL     1     -24.067  -9.946   6.144  1.00  0.00     0.000 C 
BRANCH   5   6
ATOM      6  C   UNL     1     -23.554  -9.759   7.581  1.00  0.00     0.006 C 
BRANCH   6   7
ATOM      7  C   UNL     1     -24.690  -9.553   8.592  1.00  0.00     0.053 C 
BRANCH   7   8
ATOM      8  C   UNL     1     -25.108  -8.117   8.620  1.00  0.00     0.041 C 
ATOM      9  O   UNL     1     -26.323  -7.807   8.498  1.00  0.00    -0.550 OA
ATOM     10  O   UNL     1     -24.151  -7.115   8.734  1.00  0.00    -0.550 OA
ENDBRANCH   7   8
ENDBRANCH   6   7
ENDBRANCH   5   6
ENDBRANCH   4   5
ENDBRANCH   3   4
ENDBRANCH   2   3
ENDBRANCH   1   2
BRANCH   1  11
ATOM     11  C   UNL     1     -25.470 -14.411   4.580  1.00  0.00     0.000 C 
BRANCH  11  12
ATOM     12  C   UNL     1     -25.108 -15.306   5.775  1.00  0.00    -0.000 C 
BRANCH  12  13
ATOM     13  C   UNL     1     -25.512 -14.689   7.125  1.00  0.00    -0.000 C 
BRANCH  13  14
ATOM     14  C   UNL     1     -24.342 -14.637   8.124  1.00  0.00    -0.000 C 
BRANCH  14  15
ATOM     15  C   UNL     1     -24.335 -13.342   8.954  1.00  0.00    -0.000 C 
BRANCH  15  16
ATOM     16  C   UNL     1     -23.656 -13.519  10.321  1.00  0.00    -0.000 C 
BRANCH  16  17
ATOM     17  C   UNL     1     -23.191 -12.168  10.880  1.00  0.00    -0.003 C 
ATOM     18  C   UNL     1     -21.689 -11.979  10.690  1.00  0.00     0.004 C 
ENDBRANCH  16  17
ENDBRANCH  15  16
ENDBRANCH  14  15
ENDBRANCH  13  14
ENDBRANCH  12  13
ENDBRANCH  11  12
ENDBRANCH   1  11
TORSDOF 14
ENDMDL
MODEL 3
REMARK VINA RESULT:    -5.191      2.425      5.384
REMARK INTER + INTRA:         -10.588
REMARK INTER:                  -9.291
REMARK INTRA:                  -1.297
REMARK UNBOUND:                -1.149
REMARK SMILES CCCCCCCCCCCCCCCC(=O)[O-]
REMARK SMILES IDX 9 1 10 2 11 3 12 4 13 5 14 6 15 7 16 8 17 9 18 10 8 11 7 12
REMARK SMILES IDX 6 13 5 14 4 15 3 16 2 17 1 18
REMARK H PARENT
REMARK Flexibility Score: inf
ROOT
ATOM      1  C   UNL     1     -23.781 -12.234   3.929  1.00  0.00     0.000 C 
ENDROOT
BRANCH   1   2
ATOM      2  C   UNL     1     -24.276 -11.653   5.261  1.00  0.00     0.000 C 
BRANCH   2   3
ATOM      3  C   UNL     1     -23.959 -10.154   5.418  1.00  0.00     0.000 C 
BRANCH   3   4
ATOM      4  C   UNL     1     -22.506  -9.756   5.099  1.00  0.00     0.000 C 
BRANCH   4   5
ATOM      5  C   UNL     1     -21.958  -8.676   6.047  1.00  0.00     0.000 C 
BRANCH   5   6
ATOM      6  C   UNL     1     -22.284  -8.965   7.522  1.00  0.00     0.006 C 
BRANCH   6   7
ATOM      7  C   UNL     1     -23.194  -7.899   8.146  1.00  0.00     0.053 C 
BRANCH   7   8
ATOM      8  C   UNL     1     -24.479  -8.513   8.603  1.00  0.00     0.041 C 
ATOM      9  O   UNL     1     -24.568  -9.761   8.753  1.00  0.00    -0.550 OA
ATOM     10  O   UNL     1     -25.595  -7.713   8.818  1.00  0.00    -0.550 OA
ENDBRANCH   7   8
ENDBRANCH   6   7
ENDBRANCH   5   6
ENDBRANCH   4   5
ENDBRANCH   3   4
ENDBRANCH   2   3
ENDBRANCH   1   2
BRANCH   1  11
ATOM     11  C   UNL     1     -23.985 -13.754   3.881  1.00  0.00     0.000 C 
BRANCH  11  12
ATOM     12  C   UNL     1     -25.263 -14.162   4.630  1.00  0.00    -0.000 C 
BRANCH  12  13
ATOM     13  C   UNL     1     -25.013 -15.250   5.687  1.00  0.00    -0.000 C 
BRANCH  13  14
ATOM     14  C   UNL     1     -25.522 -14.846   7.083  1.00  0.00    -0.000 C 
BRANCH  14  15
ATOM     15  C   UNL     1     -24.377 -14.620   8.085  1.00  0.00    -0.000 C 
BRANCH  15  16
ATOM     16  C   UNL     1     -24.445 -13.241   8.759  1.00  0.00    -0.000 C 
BRANCH  16  17
ATOM     17  C   UNL     1     -23.848 -13.294  10.171  1.00  0.00    -0.003 C 
ATOM     18  C   UNL     1     -22.569 -12.467  10.261  1.00  0.00     0.004 C 
ENDBRANCH  16  17
ENDBRANCH  15  16
ENDBRANCH  14  15
ENDBRANCH  13  14
ENDBRANCH  12  13
ENDBRANCH  11  12
ENDBRANCH   1  11
TORSDOF 14
ENDMDL
MODEL 4
REMARK VINA RESULT:    -5.102      1.345      5.042
REMARK INTER + INTRA:         -10.426
REMARK INTER:                  -9.166
REMARK INTRA:                  -1.260
REMARK UNBOUND:                -1.149
REMARK SMILES CCCCCCCCCCCCCCCC(=O)[O-]
REMARK SMILES IDX 9 1 10 2 11 3 12 4 13 5 14 6 15 7 16 8 17 9 18 10 8 11 7 12
REMARK SMILES IDX 6 13 5 14 4 15 3 16 2 17 1 18
REMARK H PARENT
REMARK Flexibility Score: inf
ROOT
ATOM      1  C   UNL     1     -23.854 -12.225   3.970  1.00  0.00     0.000 C 
ENDROOT
BRANCH   1   2
ATOM      2  C   UNL     1     -24.039 -13.749   3.929  1.00  0.00     0.000 C 
BRANCH   2   3
ATOM      3  C   UNL     1     -25.342 -14.214   4.606  1.00  0.00     0.000 C 
BRANCH   3   4
ATOM      4  C   UNL     1     -25.161 -15.255   5.726  1.00  0.00     0.000 C 
BRANCH   4   5
ATOM      5  C   UNL     1     -25.601 -14.735   7.106  1.00  0.00     0.000 C 
BRANCH   5   6
ATOM      6  C   UNL     1     -24.434 -14.657   8.105  1.00  0.00     0.006 C 
BRANCH   6   7
ATOM      7  C   UNL     1     -24.336 -13.289   8.792  1.00  0.00     0.053 C 
BRANCH   7   8
ATOM      8  C   UNL     1     -23.732 -13.431  10.154  1.00  0.00     0.041 C 
ATOM      9  O   UNL     1     -23.694 -14.558  10.716  1.00  0.00    -0.550 OA
ATOM     10  O   UNL     1     -23.255 -12.311  10.824  1.00  0.00    -0.550 OA
ENDBRANCH   7   8
ENDBRANCH   6   7
ENDBRANCH   5   6
ENDBRANCH   4   5
ENDBRANCH   3   4
ENDBRANCH   2   3
ENDBRANCH   1   2
BRANCH   1  11
ATOM     11  C   UNL     1     -24.158 -11.671   5.369  1.00  0.00     0.000 C 
BRANCH  11  12
ATOM     12  C   UNL     1     -23.961 -10.148   5.411  1.00  0.00    -0.000 C 
BRANCH  12  13
ATOM     13  C   UNL     1     -22.501  -9.729   5.169  1.00  0.00    -0.000 C 
BRANCH  13  14
ATOM     14  C   UNL     1     -22.072  -8.544   6.052  1.00  0.00    -0.000 C 
BRANCH  14  15
ATOM     15  C   UNL     1     -22.209  -8.848   7.554  1.00  0.00    -0.000 C 
BRANCH  15  16
ATOM     16  C   UNL     1     -23.205  -7.915   8.259  1.00  0.00    -0.000 C 
BRANCH  16  17
ATOM     17  C   UNL     1     -24.549  -8.619   8.484  1.00  0.00    -0.003 C 
ATOM     18  C   UNL     1     -25.639  -7.620   8.860  1.00  0.00     0.004 C 
ENDBRANCH  16  17
ENDBRANCH  15  16
ENDBRANCH  14  15
ENDBRANCH  13  14
ENDBRANCH  12  13
ENDBRANCH  11  12
ENDBRANCH   1  11
TORSDOF 14
ENDMDL
MODEL 5
REMARK VINA RESULT:    -5.048      2.741      5.010
REMARK INTER + INTRA:         -10.328
REMARK INTER:                  -9.185
REMARK INTRA:                  -1.143
REMARK UNBOUND:                -1.149
REMARK SMILES CCCCCCCCCCCCCCCC(=O)[O-]
REMARK SMILES IDX 9 1 10 2 11 3 12 4 13 5 14 6 15 7 16 8 17 9 18 10 8 11 7 12
REMARK SMILES IDX 6 13 5 14 4 15 3 16 2 17 1 18
REMARK H PARENT
REMARK Flexibility Score: inf
ROOT
ATOM      1  C   UNL     1     -22.373 -14.017   9.891  1.00  0.00     0.000 C 
ENDROOT
BRANCH   1   2
ATOM      2  C   UNL     1     -22.011 -12.771  10.712  1.00  0.00     0.000 C 
BRANCH   2   3
ATOM      3  C   UNL     1     -23.103 -11.685  10.668  1.00  0.00     0.000 C 
BRANCH   3   4
ATOM      4  C   UNL     1     -23.076 -10.781   9.421  1.00  0.00     0.000 C 
BRANCH   4   5
ATOM      5  C   UNL     1     -24.481 -10.470   8.875  1.00  0.00     0.000 C 
BRANCH   5   6
ATOM      6  C   UNL     1     -24.465  -9.367   7.804  1.00  0.00     0.006 C 
BRANCH   6   7
ATOM      7  C   UNL     1     -23.979  -9.874   6.440  1.00  0.00     0.053 C 
BRANCH   7   8
ATOM      8  C   UNL     1     -22.668  -9.245   6.088  1.00  0.00     0.041 C 
ATOM      9  O   UNL     1     -22.115  -9.506   4.986  1.00  0.00    -0.550 OA
ATOM     10  O   UNL     1     -22.030  -8.408   6.996  1.00  0.00    -0.550 OA
ENDBRANCH   7   8
ENDBRANCH   6   7
ENDBRANCH   5   6
ENDBRANCH   4   5
ENDBRANCH   3   4
ENDBRANCH   2   3
ENDBRANCH   1   2
BRANCH   1  11
ATOM     11  C   UNL     1     -23.863 -14.356  10.032  1.00  0.00     0.000 C 
BRANCH  11  12
ATOM     12  C   UNL     1     -24.631 -14.001   8.749  1.00  0.00    -0.000 C 
BRANCH  12  13
ATOM     13  C   UNL     1     -24.591 -15.125   7.700  1.00  0.00    -0.000 C 
BRANCH  13  14
ATOM     14  C   UNL     1     -25.516 -14.848   6.501  1.00  0.00    -0.000 C 
BRANCH  14  15
ATOM     15  C   UNL     1     -25.157 -15.699   5.272  1.00  0.00    -0.000 C 
BRANCH  15  16
ATOM     16  C   UNL     1     -24.586 -14.861   4.118  1.00  0.00    -0.000 C 
BRANCH  16  17
ATOM     17  C   UNL     1     -24.971 -13.384   4.271  1.00  0.00    -0.003 C 
ATOM     18  C   UNL     1     -23.813 -12.468   3.885  1.00  0.00     0.004 C 
ENDBRANCH  16  17
ENDBRANCH  15  16
ENDBRANCH  14  15
ENDBRANCH  13  14
ENDBRANCH  12  13
ENDBRANCH  11  12
ENDBRANCH   1  11
TORSDOF 14
ENDMDL
MODEL 6
REMARK VINA RESULT:    -5.028      2.308      4.512
REMARK INTER + INTRA:         -10.291
REMARK INTER:                  -9.180
REMARK INTRA:                  -1.111
REMARK UNBOUND:                -1.149
REMARK SMILES CCCCCCCCCCCCCCCC(=O)[O-]
REMARK SMILES IDX 9 1 10 2 11 3 12 4 13 5 14 6 15 7 16 8 17 9 18 10 8 11 7 12
REMARK SMILES IDX 6 13 5 14 4 15 3 16 2 17 1 18
REMARK H PARENT
REMARK Flexibility Score: inf
ROOT
ATOM      1  C   UNL     1     -23.274 -10.958   9.068  1.00  0.00     0.000 C 
ENDROOT
BRANCH   1   2
ATOM      2  C   UNL     1     -23.756 -12.092   9.984  1.00  0.00     0.000 C 
BRANCH   2   3
ATOM      3  C   UNL     1     -22.712 -13.211  10.155  1.00  0.00     0.000 C 
BRANCH   3   4
ATOM      4  C   UNL     1     -23.143 -14.592   9.626  1.00  0.00     0.000 C 
BRANCH   4   5
ATOM      5  C   UNL     1     -24.550 -14.584   9.002  1.00  0.00     0.000 C 
BRANCH   5   6
ATOM      6  C   UNL     1     -24.518 -14.352   7.482  1.00  0.00     0.006 C 
BRANCH   6   7
ATOM      7  C   UNL     1     -25.714 -14.990   6.763  1.00  0.00     0.053 C 
BRANCH   7   8
ATOM      8  C   UNL     1     -25.345 -15.353   5.359  1.00  0.00     0.041 C 
ATOM      9  O   UNL     1     -24.835 -16.477   5.108  1.00  0.00    -0.550 OA
ATOM     10  O   UNL     1     -25.520 -14.432   4.333  1.00  0.00    -0.550 OA
ENDBRANCH   7   8
ENDBRANCH   6   7
ENDBRANCH   5   6
ENDBRANCH   4   5
ENDBRANCH   3   4
ENDBRANCH   2   3
ENDBRANCH   1   2
BRANCH   1  11
ATOM     11  C   UNL     1     -24.409  -9.968   8.772  1.00  0.00     0.000 C 
BRANCH  11  12
ATOM     12  C   UNL     1     -23.852  -8.630   8.262  1.00  0.00    -0.000 C 
BRANCH  12  13
ATOM     13  C   UNL     1     -22.334  -8.669   8.023  1.00  0.00    -0.000 C 
BRANCH  13  14
ATOM     14  C   UNL     1     -21.967  -8.552   6.532  1.00  0.00    -0.000 C 
BRANCH  14  15
ATOM     15  C   UNL     1     -22.866  -9.420   5.635  1.00  0.00    -0.000 C 
BRANCH  15  16
ATOM     16  C   UNL     1     -22.102 -10.045   4.459  1.00  0.00    -0.000 C 
BRANCH  16  17
ATOM     17  C   UNL     1     -22.874 -11.235   3.875  1.00  0.00    -0.003 C 
ATOM     18  C   UNL     1     -24.080 -11.587   4.740  1.00  0.00     0.004 C 
ENDBRANCH  16  17
ENDBRANCH  15  16
ENDBRANCH  14  15
ENDBRANCH  13  14
ENDBRANCH  12  13
ENDBRANCH  11  12
ENDBRANCH   1  11
TORSDOF 14
ENDMDL
MODEL 7
REMARK VINA RESULT:    -4.964      3.121      5.416
REMARK INTER + INTRA:         -10.175
REMARK INTER:                  -9.068
REMARK INTRA:                  -1.108
REMARK UNBOUND:                -1.149
REMARK SMILES CCCCCCCCCCCCCCCC(=O)[O-]
REMARK SMILES IDX 9 1 10 2 11 3 12 4 13 5 14 6 15 7 16 8 17 9 18 10 8 11 7 12
REMARK SMILES IDX 6 13 5 14 4 15 3 16 2 17 1 18
REMARK H PARENT
REMARK Flexibility Score: inf
ROOT
ATOM      1  C   UNL     1     -22.145 -13.982  10.228  1.00  0.00     0.000 C 
ENDROOT
BRANCH   1   2
ATOM      2  C   UNL     1     -22.122 -12.448  10.269  1.00  0.00     0.000 C 
BRANCH   2   3
ATOM      3  C   UNL     1     -23.486 -11.836  10.639  1.00  0.00     0.000 C 
BRANCH   3   4
ATOM      4  C   UNL     1     -24.255 -11.196   9.469  1.00  0.00     0.000 C 
BRANCH   4   5
ATOM      5  C   UNL     1     -23.401 -10.201   8.663  1.00  0.00     0.000 C 
BRANCH   5   6
ATOM      6  C   UNL     1     -24.242  -9.351   7.696  1.00  0.00     0.006 C 
BRANCH   6   7
ATOM      7  C   UNL     1     -25.376  -8.599   8.404  1.00  0.00     0.053 C 
BRANCH   7   8
ATOM      8  C   UNL     1     -24.957  -7.197   8.717  1.00  0.00     0.041 C 
ATOM      9  O   UNL     1     -23.738  -6.878   8.687  1.00  0.00    -0.550 OA
ATOM     10  O   UNL     1     -25.906  -6.253   9.091  1.00  0.00    -0.550 OA
ENDBRANCH   7   8
ENDBRANCH   6   7
ENDBRANCH   5   6
ENDBRANCH   4   5
ENDBRANCH   3   4
ENDBRANCH   2   3
ENDBRANCH   1   2
BRANCH   1  11
ATOM     11  C   UNL     1     -23.584 -14.510  10.148  1.00  0.00     0.000 C 
BRANCH  11  12
ATOM     12  C   UNL     1     -23.864 -15.136   8.773  1.00  0.00    -0.000 C 
BRANCH  12  13
ATOM     13  C   UNL     1     -24.716 -14.230   7.868  1.00  0.00    -0.000 C 
BRANCH  13  14
ATOM     14  C   UNL     1     -25.682 -15.028   6.973  1.00  0.00    -0.000 C 
BRANCH  14  15
ATOM     15  C   UNL     1     -25.115 -15.270   5.564  1.00  0.00    -0.000 C 
BRANCH  15  16
ATOM     16  C   UNL     1     -25.456 -14.135   4.586  1.00  0.00    -0.000 C 
BRANCH  16  17
ATOM     17  C   UNL     1     -24.187 -13.401   4.136  1.00  0.00    -0.003 C 
ATOM     18  C   UNL     1     -24.165 -11.967   4.657  1.00  0.00     0.004 C 
ENDBRANCH  16  17
ENDBRANCH  15  16
ENDBRANCH  14  15
ENDBRANCH  13  14
ENDBRANCH  12  13
ENDBRANCH  11  12
ENDBRANCH   1  11
TORSDOF 14
ENDMDL
MODEL 8
REMARK VINA RESULT:    -4.920      2.631      5.934
REMARK INTER + INTRA:         -10.096
REMARK INTER:                  -8.693
REMARK INTRA:                  -1.404
REMARK UNBOUND:                -1.149
REMARK SMILES CCCCCCCCCCCCCCCC(=O)[O-]
REMARK SMILES IDX 9 1 10 2 11 3 12 4 13 5 14 6 15 7 16 8 17 9 18 10 8 11 7 12
REMARK SMILES IDX 6 13 5 14 4 15 3 16 2 17 1 18
REMARK H PARENT
REMARK Flexibility Score: inf
ROOT
ATOM      1  C   UNL     1     -22.386 -13.442  10.228  1.00  0.00     0.000 C 
ENDROOT
BRANCH   1   2
ATOM      2  C   UNL     1     -23.809 -14.016  10.285  1.00  0.00     0.000 C 
BRANCH   2   3
ATOM      3  C   UNL     1     -24.103 -15.009   9.145  1.00  0.00     0.000 C 
BRANCH   3   4
ATOM      4  C   UNL     1     -24.352 -14.368   7.767  1.00  0.00     0.000 C 
BRANCH   4   5
ATOM      5  C   UNL     1     -25.741 -14.697   7.194  1.00  0.00     0.000 C 
BRANCH   5   6
ATOM      6  C   UNL     1     -25.664 -15.393   5.825  1.00  0.00     0.006 C 
BRANCH   6   7
ATOM      7  C   UNL     1     -24.631 -14.748   4.891  1.00  0.00     0.053 C 
BRANCH   7   8
ATOM      8  C   UNL     1     -25.221 -13.558   4.203  1.00  0.00     0.041 C 
ATOM      9  O   UNL     1     -26.439 -13.553   3.878  1.00  0.00    -0.550 OA
ATOM     10  O   UNL     1     -24.417 -12.473   3.875  1.00  0.00    -0.550 OA
ENDBRANCH   7   8
ENDBRANCH   6   7
ENDBRANCH   5   6
ENDBRANCH   4   5
ENDBRANCH   3   4
ENDBRANCH   2   3
ENDBRANCH   1   2
BRANCH   1  11
ATOM     11  C   UNL     1     -22.409 -11.908  10.257  1.00  0.00     0.000 C 
BRANCH  11  12
ATOM     12  C   UNL     1     -23.812 -11.373   9.930  1.00  0.00    -0.000 C 
BRANCH  12  13
ATOM     13  C   UNL     1     -23.912 -10.790   8.510  1.00  0.00    -0.000 C 
BRANCH  13  14
ATOM     14  C   UNL     1     -24.599  -9.413   8.484  1.00  0.00    -0.000 C 
BRANCH  14  15
ATOM     15  C   UNL     1     -23.608  -8.265   8.230  1.00  0.00    -0.000 C 
BRANCH  15  16
ATOM     16  C   UNL     1     -22.244  -8.760   7.727  1.00  0.00    -0.000 C 
BRANCH  16  17
ATOM     17  C   UNL     1     -22.001  -8.318   6.278  1.00  0.00    -0.003 C 
ATOM     18  C   UNL     1     -22.349  -9.433   5.296  1.00  0.00     0.004 C 
ENDBRANCH  16  17
ENDBRANCH  15  16
ENDBRANCH  14  15
ENDBRANCH  13  14
ENDBRANCH  12  13
ENDBRANCH  11  12
ENDBRANCH   1  11
TORSDOF 14
ENDMDL
MODEL 9
REMARK VINA RESULT:    -4.858      1.680      5.101
REMARK INTER + INTRA:          -9.982
REMARK INTER:                  -8.875
REMARK INTRA:                  -1.107
REMARK UNBOUND:                -1.149
REMARK SMILES CCCCCCCCCCCCCCCC(=O)[O-]
REMARK SMILES IDX 9 1 10 2 11 3 12 4 13 5 14 6 15 7 16 8 17 9 18 10 8 11 7 12
REMARK SMILES IDX 6 13 5 14 4 15 3 16 2 17 1 18
REMARK H PARENT
REMARK Flexibility Score: inf
ROOT
ATOM      1  C   UNL     1     -25.203 -13.735   4.228  1.00  0.00     0.000 C 
ENDROOT
BRANCH   1   2
ATOM      2  C   UNL     1     -24.988 -15.068   4.959  1.00  0.00     0.000 C 
BRANCH   2   3
ATOM      3  C   UNL     1     -25.509 -15.049   6.408  1.00  0.00     0.000 C 
BRANCH   3   4
ATOM      4  C   UNL     1     -24.632 -14.272   7.407  1.00  0.00     0.000 C 
BRANCH   4   5
ATOM      5  C   UNL     1     -24.511 -14.973   8.772  1.00  0.00     0.000 C 
BRANCH   5   6
ATOM      6  C   UNL     1     -23.248 -14.551   9.541  1.00  0.00     0.006 C 
BRANCH   6   7
ATOM      7  C   UNL     1     -23.552 -13.580  10.689  1.00  0.00     0.053 C 
BRANCH   7   8
ATOM      8  C   UNL     1     -23.014 -12.219  10.377  1.00  0.00     0.041 C 
ATOM      9  O   UNL     1     -21.802 -11.951  10.592  1.00  0.00    -0.550 OA
ATOM     10  O   UNL     1     -23.863 -11.230   9.894  1.00  0.00    -0.550 OA
ENDBRANCH   7   8
ENDBRANCH   6   7
ENDBRANCH   5   6
ENDBRANCH   4   5
ENDBRANCH   3   4
ENDBRANCH   2   3
ENDBRANCH   1   2
BRANCH   1  11
ATOM     11  C   UNL     1     -23.861 -13.079   3.875  1.00  0.00     0.000 C 
BRANCH  11  12
ATOM     12  C   UNL     1     -23.853 -11.595   4.277  1.00  0.00    -0.000 C 
BRANCH  12  13
ATOM     13  C   UNL     1     -24.548 -11.339   5.625  1.00  0.00    -0.000 C 
BRANCH  13  14
ATOM     14  C   UNL     1     -24.118 -10.008   6.268  1.00  0.00    -0.000 C 
BRANCH  14  15
ATOM     15  C   UNL     1     -22.913  -9.372   5.554  1.00  0.00    -0.000 C 
BRANCH  15  16
ATOM     16  C   UNL     1     -21.962  -8.654   6.524  1.00  0.00    -0.000 C 
BRANCH  16  17
ATOM     17  C   UNL     1     -22.540  -8.635   7.944  1.00  0.00    -0.003 C 
ATOM     18  C   UNL     1     -23.115  -7.264   8.287  1.00  0.00     0.004 C 
ENDBRANCH  16  17
ENDBRANCH  15  16
ENDBRANCH  14  15
ENDBRANCH  13  14
ENDBRANCH  12  13
ENDBRANCH  11  12
ENDBRANCH   1  11
TORSDOF 14
ENDMDL
