MODEL 1
REMARK VINA RESULT:    -5.412      0.000      0.000
REMARK INTER + INTRA:         -18.207
REMARK INTER:                 -13.638
REMARK INTRA:                  -4.568
REMARK UNBOUND:                -4.568
REMARK SMILES CCCCCCCCCCCCCCCCCCCCCCCCCCCC(=O)[O-]
REMARK SMILES IDX 15 1 16 2 17 3 18 4 19 5 20 6 21 7 22 8 23 9 24 10 25 11
REMARK SMILES IDX 26 12 27 13 28 14 29 15 30 16 14 17 13 18 12 19 11 20 10 21
REMARK SMILES IDX 9 22 8 23 7 24 6 25 5 26 4 27 3 28 2 29 1 30
REMARK H PARENT
REMARK Flexibility Score: inf
ROOT
ATOM      1  C   UNL     1       2.761  53.890  19.871  1.00  0.00     0.000 C 
ENDROOT
BRANCH   1   2
ATOM      2  C   UNL     1       1.629  54.462  20.741  1.00  0.00     0.000 C 
BRANCH   2   3
ATOM      3  C   UNL     1       1.087  55.798  20.205  1.00  0.00     0.000 C 
BRANCH   3   4
ATOM      4  C   UNL     1       1.804  56.255  18.925  1.00  0.00     0.000 C 
BRANCH   4   5
ATOM      5  C   UNL     1       0.802  56.824  17.910  1.00  0.00     0.000 C 
BRANCH   5   6
ATOM      6  C   UNL     1       1.093  56.305  16.497  1.00  0.00     0.000 C 
BRANCH   6   7
ATOM      7  C   UNL     1       1.977  55.050  16.538  1.00  0.00     0.000 C 
BRANCH   7   8
ATOM      8  C   UNL     1       2.984  55.052  15.379  1.00  0.00     0.000 C 
BRANCH   8   9
ATOM      9  C   UNL     1       4.450  55.009  15.861  1.00  0.00     0.000 C 
BRANCH   9  10
ATOM     10  C   UNL     1       4.637  55.439  17.328  1.00  0.00     0.000 C 
BRANCH  10  11
ATOM     11  C   UNL     1       5.335  56.798  17.528  1.00  0.00     0.000 C 
BRANCH  11  12
ATOM     12  C   UNL     1       6.813  56.848  17.086  1.00  0.00     0.006 C 
BRANCH  12  13
ATOM     13  C   UNL     1       7.815  57.085  18.227  1.00  0.00     0.053 C 
BRANCH  13  14
ATOM     14  C   UNL     1       7.984  58.542  18.539  1.00  0.00     0.041 C 
ATOM     15  O   UNL     1       7.273  59.087  19.425  1.00  0.00    -0.550 OA
ATOM     16  O   UNL     1       8.924  59.299  17.849  1.00  0.00    -0.550 OA
ENDBRANCH  13  14
ENDBRANCH  12  13
ENDBRANCH  11  12
ENDBRANCH  10  11
ENDBRANCH   9  10
ENDBRANCH   8   9
ENDBRANCH   7   8
ENDBRANCH   6   7
ENDBRANCH   5   6
ENDBRANCH   4   5
ENDBRANCH   3   4
ENDBRANCH   2   3
ENDBRANCH   1   2
BRANCH   1  17
ATOM     17  C   UNL     1       2.354  52.576  19.182  1.00  0.00     0.000 C 
BRANCH  17  18
ATOM     18  C   UNL     1       0.826  52.407  19.101  1.00  0.00     0.000 C 
BRANCH  18  19
ATOM     19  C   UNL     1       0.336  52.140  17.662  1.00  0.00     0.000 C 
BRANCH  19  20
ATOM     20  C   UNL     1      -1.009  52.806  17.320  1.00  0.00     0.000 C 
BRANCH  20  21
ATOM     21  C   UNL     1      -1.334  53.997  18.236  1.00  0.00     0.000 C 
BRANCH  21  22
ATOM     22  C   UNL     1      -2.510  53.722  19.195  1.00  0.00    -0.000 C 
BRANCH  22  23
ATOM     23  C   UNL     1      -2.252  54.064  20.674  1.00  0.00    -0.000 C 
BRANCH  23  24
ATOM     24  C   UNL     1      -1.944  52.863  21.591  1.00  0.00    -0.000 C 
BRANCH  24  25
ATOM     25  C   UNL     1      -3.141  51.914  21.819  1.00  0.00    -0.000 C 
BRANCH  25  26
ATOM     26  C   UNL     1      -2.955  50.548  21.137  1.00  0.00    -0.000 C 
BRANCH  26  27
ATOM     27  C   UNL     1      -1.553  50.369  20.524  1.00  0.00    -0.000 C 
BRANCH  27  28
ATOM     28  C   UNL     1      -1.370  49.111  19.649  1.00  0.00    -0.000 C 
BRANCH  28  29
ATOM     29  C   UNL     1      -1.838  49.259  18.189  1.00  0.00    -0.003 C 
ATOM     30  C   UNL     1      -3.070  50.152  18.046  1.00  0.00     0.004 C 
ENDBRANCH  28  29
ENDBRANCH  27  28
ENDBRANCH  26  27
ENDBRANCH  25  26
ENDBRANCH  24  25
ENDBRANCH  23  24
ENDBRANCH  22  23
ENDBRANCH  21  22
ENDBRANCH  20  21
ENDBRANCH  19  20
ENDBRANCH  18  19
ENDBRANCH  17  18
ENDBRANCH   1  17
TORSDOF 26
ENDMDL
MODEL 2
REMARK VINA RESULT:    -5.309      4.162      8.727
REMARK INTER + INTRA:         -17.947
REMARK INTER:                 -13.471
REMARK INTRA:                  -4.476
REMARK UNBOUND:                -4.568
REMARK SMILES CCCCCCCCCCCCCCCCCCCCCCCCCCCC(=O)[O-]
REMARK SMILES IDX 15 1 16 2 17 3 18 4 19 5 20 6 21 7 22 8 23 9 24 10 25 11
REMARK SMILES IDX 26 12 27 13 28 14 29 15 30 16 14 17 13 18 12 19 11 20 10 21
REMARK SMILES IDX 9 22 8 23 7 24 6 25 5 26 4 27 3 28 2 29 1 30
REMARK H PARENT
REMARK Flexibility Score: inf
ROOT
ATOM      1  C   UNL     1       0.103  53.806  20.538  1.00  0.00     0.000 C 
ENDROOT
BRANCH   1   2
ATOM      2  C   UNL     1      -1.195  53.732  21.361  1.00  0.00     0.000 C 
BRANCH   2   3
ATOM      3  C   UNL     1      -2.062  52.517  20.992  1.00  0.00     0.000 C 
BRANCH   3   4
ATOM      4  C   UNL     1      -1.349  51.553  20.032  1.00  0.00     0.000 C 
BRANCH   4   5
ATOM      5  C   UNL     1      -2.194  51.309  18.773  1.00  0.00     0.000 C 
BRANCH   5   6
ATOM      6  C   UNL     1      -1.621  52.063  17.568  1.00  0.00     0.000 C 
BRANCH   6   7
ATOM      7  C   UNL     1      -2.308  53.424  17.389  1.00  0.00     0.000 C 
BRANCH   7   8
ATOM      8  C   UNL     1      -1.351  54.572  17.747  1.00  0.00     0.000 C 
BRANCH   8   9
ATOM      9  C   UNL     1      -2.053  55.946  17.785  1.00  0.00     0.000 C 
BRANCH   9  10
ATOM     10  C   UNL     1      -2.562  56.348  19.182  1.00  0.00     0.000 C 
BRANCH  10  11
ATOM     11  C   UNL     1      -4.062  56.102  19.429  1.00  0.00     0.000 C 
BRANCH  11  12
ATOM     12  C   UNL     1      -5.010  57.146  18.803  1.00  0.00     0.006 C 
BRANCH  12  13
ATOM     13  C   UNL     1      -6.436  57.141  19.377  1.00  0.00     0.053 C 
BRANCH  13  14
ATOM     14  C   UNL     1      -6.461  57.484  20.837  1.00  0.00     0.041 C 
ATOM     15  O   UNL     1      -6.541  56.571  21.701  1.00  0.00    -0.550 OA
ATOM     16  O   UNL     1      -6.400  58.813  21.242  1.00  0.00    -0.550 OA
ENDBRANCH  13  14
ENDBRANCH  12  13
ENDBRANCH  11  12
ENDBRANCH  10  11
ENDBRANCH   9  10
ENDBRANCH   8   9
ENDBRANCH   7   8
ENDBRANCH   6   7
ENDBRANCH   5   6
ENDBRANCH   4   5
ENDBRANCH   3   4
ENDBRANCH   2   3
ENDBRANCH   1   2
BRANCH   1  17
ATOM     17  C   UNL     1       0.915  55.076  20.848  1.00  0.00     0.000 C 
BRANCH  17  18
ATOM     18  C   UNL     1       2.432  54.847  20.714  1.00  0.00     0.000 C 
BRANCH  18  19
ATOM     19  C   UNL     1       2.774  53.429  20.210  1.00  0.00     0.000 C 
BRANCH  19  20
ATOM     20  C   UNL     1       3.912  53.385  19.176  1.00  0.00     0.000 C 
BRANCH  20  21
ATOM     21  C   UNL     1       3.470  52.787  17.830  1.00  0.00     0.000 C 
BRANCH  21  22
ATOM     22  C   UNL     1       1.997  53.087  17.487  1.00  0.00    -0.000 C 
BRANCH  22  23
ATOM     23  C   UNL     1       1.767  53.866  16.179  1.00  0.00    -0.000 C 
BRANCH  23  24
ATOM     24  C   UNL     1       2.504  55.217  16.071  1.00  0.00    -0.000 C 
BRANCH  24  25
ATOM     25  C   UNL     1       2.288  56.156  17.277  1.00  0.00    -0.000 C 
BRANCH  25  26
ATOM     26  C   UNL     1       3.590  56.832  17.744  1.00  0.00    -0.000 C 
BRANCH  26  27
ATOM     27  C   UNL     1       4.811  56.431  16.896  1.00  0.00    -0.000 C 
BRANCH  27  28
ATOM     28  C   UNL     1       6.137  56.288  17.673  1.00  0.00    -0.000 C 
BRANCH  28  29
ATOM     29  C   UNL     1       7.162  57.411  17.426  1.00  0.00    -0.003 C 
ATOM     30  C   UNL     1       7.522  58.179  18.698  1.00  0.00     0.004 C 
ENDBRANCH  28  29
ENDBRANCH  27  28
ENDBRANCH  26  27
ENDBRANCH  25  26
ENDBRANCH  24  25
ENDBRANCH  23  24
ENDBRANCH  22  23
ENDBRANCH  21  22
ENDBRANCH  20  21
ENDBRANCH  19  20
ENDBRANCH  18  19
ENDBRANCH  17  18
ENDBRANCH   1  17
TORSDOF 26
ENDMDL
MODEL 3
REMARK VINA RESULT:    -5.270      2.491      5.248
REMARK INTER + INTRA:         -17.849
REMARK INTER:                 -13.787
REMARK INTRA:                  -4.062
REMARK UNBOUND:                -4.568
REMARK SMILES CCCCCCCCCCCCCCCCCCCCCCCCCCCC(=O)[O-]
REMARK SMILES IDX 15 1 16 2 17 3 18 4 19 5 20 6 21 7 22 8 23 9 24 10 25 11
REMARK SMILES IDX 26 12 27 13 28 14 29 15 30 16 14 17 13 18 12 19 11 20 10 21
REMARK SMILES IDX 9 22 8 23 7 24 6 25 5 26 4 27 3 28 2 29 1 30
REMARK H PARENT
REMARK Flexibility Score: inf
ROOT
ATOM      1  C   UNL     1       0.341  56.048  17.253  1.00  0.00     0.000 C 
ENDROOT
BRANCH   1   2
ATOM      2  C   UNL     1       1.726  56.312  16.637  1.00  0.00     0.000 C 
BRANCH   2   3
ATOM      3  C   UNL     1       2.344  55.052  16.007  1.00  0.00     0.000 C 
BRANCH   3   4
ATOM      4  C   UNL     1       3.880  55.070  16.038  1.00  0.00     0.000 C 
BRANCH   4   5
ATOM      5  C   UNL     1       4.399  56.247  16.877  1.00  0.00     0.000 C 
BRANCH   5   6
ATOM      6  C   UNL     1       5.905  56.448  16.675  1.00  0.00     0.000 C 
BRANCH   6   7
ATOM      7  C   UNL     1       6.568  56.986  17.950  1.00  0.00     0.000 C 
BRANCH   7   8
ATOM      8  C   UNL     1       8.040  57.344  17.692  1.00  0.00     0.000 C 
BRANCH   8   9
ATOM      9  C   UNL     1       8.468  58.653  18.389  1.00  0.00     0.000 C 
BRANCH   9  10
ATOM     10  C   UNL     1       9.353  59.563  17.517  1.00  0.00     0.000 C 
BRANCH  10  11
ATOM     11  C   UNL     1      10.849  59.197  17.494  1.00  0.00     0.000 C 
BRANCH  11  12
ATOM     12  C   UNL     1      11.624  59.681  16.252  1.00  0.00     0.006 C 
BRANCH  12  13
ATOM     13  C   UNL     1      10.846  59.576  14.930  1.00  0.00     0.053 C 
BRANCH  13  14
ATOM     14  C   UNL     1      11.306  58.421  14.092  1.00  0.00     0.041 C 
ATOM     15  O   UNL     1      11.216  58.472  12.837  1.00  0.00    -0.550 OA
ATOM     16  O   UNL     1      11.831  57.284  14.699  1.00  0.00    -0.550 OA
ENDBRANCH  13  14
ENDBRANCH  12  13
ENDBRANCH  11  12
ENDBRANCH  10  11
ENDBRANCH   9  10
ENDBRANCH   8   9
ENDBRANCH   7   8
ENDBRANCH   6   7
ENDBRANCH   5   6
ENDBRANCH   4   5
ENDBRANCH   3   4
ENDBRANCH   2   3
ENDBRANCH   1   2
BRANCH   1  17
ATOM     17  C   UNL     1       0.365  56.129  18.789  1.00  0.00     0.000 C 
BRANCH  17  18
ATOM     18  C   UNL     1       1.749  56.533  19.332  1.00  0.00     0.000 C 
BRANCH  18  19
ATOM     19  C   UNL     1       2.285  55.539  20.383  1.00  0.00     0.000 C 
BRANCH  19  20
ATOM     20  C   UNL     1       1.810  54.089  20.179  1.00  0.00     0.000 C 
BRANCH  20  21
ATOM     21  C   UNL     1       2.788  53.255  19.337  1.00  0.00     0.000 C 
BRANCH  21  22
ATOM     22  C   UNL     1       2.081  52.269  18.385  1.00  0.00    -0.000 C 
BRANCH  22  23
ATOM     23  C   UNL     1       0.547  52.218  18.506  1.00  0.00    -0.000 C 
BRANCH  23  24
ATOM     24  C   UNL     1      -0.234  52.607  17.234  1.00  0.00    -0.000 C 
BRANCH  24  25
ATOM     25  C   UNL     1      -1.702  53.014  17.490  1.00  0.00    -0.000 C 
BRANCH  25  26
ATOM     26  C   UNL     1      -2.003  53.247  18.981  1.00  0.00    -0.000 C 
BRANCH  26  27
ATOM     27  C   UNL     1      -2.855  54.505  19.230  1.00  0.00    -0.000 C 
BRANCH  27  28
ATOM     28  C   UNL     1      -3.256  55.293  17.965  1.00  0.00    -0.000 C 
BRANCH  28  29
ATOM     29  C   UNL     1      -3.418  56.812  18.167  1.00  0.00    -0.003 C 
ATOM     30  C   UNL     1      -3.004  57.623  16.939  1.00  0.00     0.004 C 
ENDBRANCH  28  29
ENDBRANCH  27  28
ENDBRANCH  26  27
ENDBRANCH  25  26
ENDBRANCH  24  25
ENDBRANCH  23  24
ENDBRANCH  22  23
ENDBRANCH  21  22
ENDBRANCH  20  21
ENDBRANCH  19  20
ENDBRANCH  18  19
ENDBRANCH  17  18
ENDBRANCH   1  17
TORSDOF 26
ENDMDL
MODEL 4
REMARK VINA RESULT:    -5.219      1.706      3.556
REMARK INTER + INTRA:         -17.720
REMARK INTER:                 -13.676
REMARK INTRA:                  -4.044
REMARK UNBOUND:                -4.568
REMARK SMILES CCCCCCCCCCCCCCCCCCCCCCCCCCCC(=O)[O-]
REMARK SMILES IDX 15 1 16 2 17 3 18 4 19 5 20 6 21 7 22 8 23 9 24 10 25 11
REMARK SMILES IDX 26 12 27 13 28 14 29 15 30 16 14 17 13 18 12 19 11 20 10 21
REMARK SMILES IDX 9 22 8 23 7 24 6 25 5 26 4 27 3 28 2 29 1 30
REMARK H PARENT
REMARK Flexibility Score: inf
ROOT
ATOM      1  C   UNL     1       1.322  55.252  20.426  1.00  0.00     0.000 C 
ENDROOT
BRANCH   1   2
ATOM      2  C   UNL     1       0.406  55.988  19.432  1.00  0.00     0.000 C 
BRANCH   2   3
ATOM      3  C   UNL     1       1.187  56.641  18.280  1.00  0.00     0.000 C 
BRANCH   3   4
ATOM      4  C   UNL     1       0.784  56.087  16.905  1.00  0.00     0.000 C 
BRANCH   4   5
ATOM      5  C   UNL     1       1.623  54.853  16.543  1.00  0.00     0.000 C 
BRANCH   5   6
ATOM      6  C   UNL     1       2.779  55.226  15.608  1.00  0.00     0.000 C 
BRANCH   6   7
ATOM      7  C   UNL     1       4.126  55.172  16.343  1.00  0.00     0.000 C 
BRANCH   7   8
ATOM      8  C   UNL     1       4.538  56.569  16.833  1.00  0.00     0.000 C 
BRANCH   8   9
ATOM      9  C   UNL     1       6.068  56.731  16.958  1.00  0.00     0.000 C 
BRANCH   9  10
ATOM     10  C   UNL     1       6.517  57.420  18.260  1.00  0.00     0.000 C 
BRANCH  10  11
ATOM     11  C   UNL     1       8.033  57.668  18.381  1.00  0.00     0.000 C 
BRANCH  11  12
ATOM     12  C   UNL     1       8.845  57.409  17.094  1.00  0.00     0.006 C 
BRANCH  12  13
ATOM     13  C   UNL     1      10.364  57.583  17.250  1.00  0.00     0.053 C 
BRANCH  13  14
ATOM     14  C   UNL     1      10.769  59.027  17.281  1.00  0.00     0.041 C 
ATOM     15  O   UNL     1      11.512  59.457  18.202  1.00  0.00    -0.550 OA
ATOM     16  O   UNL     1      10.320  59.899  16.295  1.00  0.00    -0.550 OA
ENDBRANCH  13  14
ENDBRANCH  12  13
ENDBRANCH  11  12
ENDBRANCH  10  11
ENDBRANCH   9  10
ENDBRANCH   8   9
ENDBRANCH   7   8
ENDBRANCH   6   7
ENDBRANCH   5   6
ENDBRANCH   4   5
ENDBRANCH   3   4
ENDBRANCH   2   3
ENDBRANCH   1   2
BRANCH   1  17
ATOM     17  C   UNL     1       2.769  55.152  19.915  1.00  0.00     0.000 C 
BRANCH  17  18
ATOM     18  C   UNL     1       3.185  53.699  19.618  1.00  0.00     0.000 C 
BRANCH  18  19
ATOM     19  C   UNL     1       2.045  52.693  19.881  1.00  0.00     0.000 C 
BRANCH  19  20
ATOM     20  C   UNL     1       1.614  51.891  18.640  1.00  0.00     0.000 C 
BRANCH  20  21
ATOM     21  C   UNL     1       0.128  52.078  18.297  1.00  0.00     0.000 C 
BRANCH  21  22
ATOM     22  C   UNL     1      -0.754  50.896  18.749  1.00  0.00    -0.000 C 
BRANCH  22  23
ATOM     23  C   UNL     1      -1.185  50.920  20.227  1.00  0.00    -0.000 C 
BRANCH  23  24
ATOM     24  C   UNL     1      -2.364  51.856  20.561  1.00  0.00    -0.000 C 
BRANCH  24  25
ATOM     25  C   UNL     1      -1.967  53.335  20.753  1.00  0.00    -0.000 C 
BRANCH  25  26
ATOM     26  C   UNL     1      -2.831  54.296  19.919  1.00  0.00    -0.000 C 
BRANCH  26  27
ATOM     27  C   UNL     1      -2.526  54.223  18.411  1.00  0.00    -0.000 C 
BRANCH  27  28
ATOM     28  C   UNL     1      -2.948  55.461  17.591  1.00  0.00    -0.000 C 
BRANCH  28  29
ATOM     29  C   UNL     1      -3.094  56.762  18.402  1.00  0.00    -0.003 C 
ATOM     30  C   UNL     1      -4.044  57.767  17.749  1.00  0.00     0.004 C 
ENDBRANCH  28  29
ENDBRANCH  27  28
ENDBRANCH  26  27
ENDBRANCH  25  26
ENDBRANCH  24  25
ENDBRANCH  23  24
ENDBRANCH  22  23
ENDBRANCH  21  22
ENDBRANCH  20  21
ENDBRANCH  19  20
ENDBRANCH  18  19
ENDBRANCH  17  18
ENDBRANCH   1  17
TORSDOF 26
ENDMDL
MODEL 5
REMARK VINA RESULT:    -5.210      3.887      9.772
REMARK INTER + INTRA:         -17.698
REMARK INTER:                 -13.865
REMARK INTRA:                  -3.833
REMARK UNBOUND:                -4.568
REMARK SMILES CCCCCCCCCCCCCCCCCCCCCCCCCCCC(=O)[O-]
REMARK SMILES IDX 15 1 16 2 17 3 18 4 19 5 20 6 21 7 22 8 23 9 24 10 25 11
REMARK SMILES IDX 26 12 27 13 28 14 29 15 30 16 14 17 13 18 12 19 11 20 10 21
REMARK SMILES IDX 9 22 8 23 7 24 6 25 5 26 4 27 3 28 2 29 1 30
REMARK H PARENT
REMARK Flexibility Score: inf
ROOT
ATOM      1  C   UNL     1       1.420  52.924  19.031  1.00  0.00     0.000 C 
ENDROOT
BRANCH   1   2
ATOM      2  C   UNL     1       2.379  53.520  20.075  1.00  0.00     0.000 C 
BRANCH   2   3
ATOM      3  C   UNL     1       1.872  54.850  20.655  1.00  0.00     0.000 C 
BRANCH   3   4
ATOM      4  C   UNL     1       2.267  56.059  19.792  1.00  0.00     0.000 C 
BRANCH   4   5
ATOM      5  C   UNL     1       1.024  56.742  19.203  1.00  0.00     0.000 C 
BRANCH   5   6
ATOM      6  C   UNL     1       1.278  57.206  17.764  1.00  0.00     0.000 C 
BRANCH   6   7
ATOM      7  C   UNL     1       0.007  57.092  16.912  1.00  0.00     0.000 C 
BRANCH   7   8
ATOM      8  C   UNL     1      -0.894  55.956  17.422  1.00  0.00     0.000 C 
BRANCH   8   9
ATOM      9  C   UNL     1      -2.325  56.431  17.753  1.00  0.00     0.000 C 
BRANCH   9  10
ATOM     10  C   UNL     1      -2.882  55.861  19.070  1.00  0.00     0.000 C 
BRANCH  10  11
ATOM     11  C   UNL     1      -2.000  54.794  19.747  1.00  0.00     0.000 C 
BRANCH  11  12
ATOM     12  C   UNL     1      -2.602  53.374  19.786  1.00  0.00     0.006 C 
BRANCH  12  13
ATOM     13  C   UNL     1      -2.124  52.445  18.658  1.00  0.00     0.053 C 
BRANCH  13  14
ATOM     14  C   UNL     1      -2.627  51.042  18.826  1.00  0.00     0.041 C 
ATOM     15  O   UNL     1      -3.062  50.655  19.943  1.00  0.00    -0.550 OA
ATOM     16  O   UNL     1      -2.612  50.162  17.750  1.00  0.00    -0.550 OA
ENDBRANCH  13  14
ENDBRANCH  12  13
ENDBRANCH  11  12
ENDBRANCH  10  11
ENDBRANCH   9  10
ENDBRANCH   8   9
ENDBRANCH   7   8
ENDBRANCH   6   7
ENDBRANCH   5   6
ENDBRANCH   4   5
ENDBRANCH   3   4
ENDBRANCH   2   3
ENDBRANCH   1   2
BRANCH   1  17
ATOM     17  C   UNL     1       2.128  52.628  17.697  1.00  0.00     0.000 C 
BRANCH  17  18
ATOM     18  C   UNL     1       1.690  53.589  16.576  1.00  0.00     0.000 C 
BRANCH  18  19
ATOM     19  C   UNL     1       2.789  54.608  16.208  1.00  0.00     0.000 C 
BRANCH  19  20
ATOM     20  C   UNL     1       4.209  54.179  16.619  1.00  0.00     0.000 C 
BRANCH  20  21
ATOM     21  C   UNL     1       4.807  55.075  17.716  1.00  0.00     0.000 C 
BRANCH  21  22
ATOM     22  C   UNL     1       4.953  56.547  17.283  1.00  0.00    -0.000 C 
BRANCH  22  23
ATOM     23  C   UNL     1       6.381  56.991  16.917  1.00  0.00    -0.000 C 
BRANCH  23  24
ATOM     24  C   UNL     1       7.380  57.055  18.090  1.00  0.00    -0.000 C 
BRANCH  24  25
ATOM     25  C   UNL     1       7.678  58.484  18.594  1.00  0.00    -0.000 C 
BRANCH  25  26
ATOM     26  C   UNL     1       9.004  59.042  18.048  1.00  0.00    -0.000 C 
BRANCH  26  27
ATOM     27  C   UNL     1       9.834  57.987  17.294  1.00  0.00    -0.000 C 
BRANCH  27  28
ATOM     28  C   UNL     1      11.217  58.463  16.801  1.00  0.00    -0.000 C 
BRANCH  28  29
ATOM     29  C   UNL     1      11.923  59.478  17.721  1.00  0.00    -0.003 C 
ATOM     30  C   UNL     1      11.945  60.892  17.141  1.00  0.00     0.004 C 
ENDBRANCH  28  29
ENDBRANCH  27  28
ENDBRANCH  26  27
ENDBRANCH  25  26
ENDBRANCH  24  25
ENDBRANCH  23  24
ENDBRANCH  22  23
ENDBRANCH  21  22
ENDBRANCH  20  21
ENDBRANCH  19  20
ENDBRANCH  18  19
ENDBRANCH  17  18
ENDBRANCH   1  17
TORSDOF 26
ENDMDL
MODEL 6
REMARK VINA RESULT:    -5.203      1.793      3.576
REMARK INTER + INTRA:         -17.680
REMARK INTER:                 -13.976
REMARK INTRA:                  -3.705
REMARK UNBOUND:                -4.568
REMARK SMILES CCCCCCCCCCCCCCCCCCCCCCCCCCCC(=O)[O-]
REMARK SMILES IDX 15 1 16 2 17 3 18 4 19 5 20 6 21 7 22 8 23 9 24 10 25 11
REMARK SMILES IDX 26 12 27 13 28 14 29 15 30 16 14 17 13 18 12 19 11 20 10 21
REMARK SMILES IDX 9 22 8 23 7 24 6 25 5 26 4 27 3 28 2 29 1 30
REMARK H PARENT
REMARK Flexibility Score: inf
ROOT
ATOM      1  C   UNL     1       2.419  53.741  20.399  1.00  0.00     0.000 C 
ENDROOT
BRANCH   1   2
ATOM      2  C   UNL     1       1.421  53.064  19.444  1.00  0.00     0.000 C 
BRANCH   2   3
ATOM      3  C   UNL     1       2.058  52.679  18.098  1.00  0.00     0.000 C 
BRANCH   3   4
ATOM      4  C   UNL     1       3.568  52.424  18.212  1.00  0.00     0.000 C 
BRANCH   4   5
ATOM      5  C   UNL     1       4.367  53.672  17.810  1.00  0.00     0.000 C 
BRANCH   5   6
ATOM      6  C   UNL     1       3.818  54.287  16.518  1.00  0.00     0.000 C 
BRANCH   6   7
ATOM      7  C   UNL     1       4.419  55.677  16.267  1.00  0.00     0.000 C 
BRANCH   7   8
ATOM      8  C   UNL     1       5.209  56.162  17.492  1.00  0.00     0.000 C 
BRANCH   8   9
ATOM      9  C   UNL     1       6.461  56.980  17.110  1.00  0.00     0.000 C 
BRANCH   9  10
ATOM     10  C   UNL     1       7.532  57.032  18.216  1.00  0.00     0.000 C 
BRANCH  10  11
ATOM     11  C   UNL     1       8.974  57.259  17.721  1.00  0.00     0.000 C 
BRANCH  11  12
ATOM     12  C   UNL     1       9.312  58.713  17.332  1.00  0.00     0.006 C 
BRANCH  12  13
ATOM     13  C   UNL     1      10.713  58.905  16.728  1.00  0.00     0.053 C 
BRANCH  13  14
ATOM     14  C   UNL     1      10.987  60.336  16.374  1.00  0.00     0.041 C 
ATOM     15  O   UNL     1      10.369  60.883  15.424  1.00  0.00    -0.550 OA
ATOM     16  O   UNL     1      11.930  61.064  17.092  1.00  0.00    -0.550 OA
ENDBRANCH  13  14
ENDBRANCH  12  13
ENDBRANCH  11  12
ENDBRANCH  10  11
ENDBRANCH   9  10
ENDBRANCH   8   9
ENDBRANCH   7   8
ENDBRANCH   6   7
ENDBRANCH   5   6
ENDBRANCH   4   5
ENDBRANCH   3   4
ENDBRANCH   2   3
ENDBRANCH   1   2
BRANCH   1  17
ATOM     17  C   UNL     1       2.043  55.205  20.688  1.00  0.00     0.000 C 
BRANCH  17  18
ATOM     18  C   UNL     1       1.123  55.797  19.604  1.00  0.00     0.000 C 
BRANCH  18  19
ATOM     19  C   UNL     1       1.849  56.824  18.710  1.00  0.00     0.000 C 
BRANCH  19  20
ATOM     20  C   UNL     1       1.106  57.161  17.405  1.00  0.00     0.000 C 
BRANCH  20  21
ATOM     21  C   UNL     1      -0.103  56.246  17.156  1.00  0.00     0.000 C 
BRANCH  21  22
ATOM     22  C   UNL     1      -1.444  57.007  17.123  1.00  0.00    -0.000 C 
BRANCH  22  23
ATOM     23  C   UNL     1      -2.648  56.253  17.717  1.00  0.00    -0.000 C 
BRANCH  23  24
ATOM     24  C   UNL     1      -2.487  55.788  19.178  1.00  0.00    -0.000 C 
BRANCH  24  25
ATOM     25  C   UNL     1      -2.547  54.257  19.368  1.00  0.00    -0.000 C 
BRANCH  25  26
ATOM     26  C   UNL     1      -2.257  53.485  18.069  1.00  0.00    -0.000 C 
BRANCH  26  27
ATOM     27  C   UNL     1      -2.212  51.960  18.274  1.00  0.00    -0.000 C 
BRANCH  27  28
ATOM     28  C   UNL     1      -2.087  51.494  19.741  1.00  0.00    -0.000 C 
BRANCH  28  29
ATOM     29  C   UNL     1      -1.079  50.355  19.979  1.00  0.00    -0.003 C 
ATOM     30  C   UNL     1      -0.716  49.603  18.698  1.00  0.00     0.004 C 
ENDBRANCH  28  29
ENDBRANCH  27  28
ENDBRANCH  26  27
ENDBRANCH  25  26
ENDBRANCH  24  25
ENDBRANCH  23  24
ENDBRANCH  22  23
ENDBRANCH  21  22
ENDBRANCH  20  21
ENDBRANCH  19  20
ENDBRANCH  18  19
ENDBRANCH  17  18
ENDBRANCH   1  17
TORSDOF 26
ENDMDL
MODEL 7
REMARK VINA RESULT:    -5.114      1.714      3.564
REMARK INTER + INTRA:         -17.456
REMARK INTER:                 -13.618
REMARK INTRA:                  -3.838
REMARK UNBOUND:                -4.568
REMARK SMILES CCCCCCCCCCCCCCCCCCCCCCCCCCCC(=O)[O-]
REMARK SMILES IDX 15 1 16 2 17 3 18 4 19 5 20 6 21 7 22 8 23 9 24 10 25 11
REMARK SMILES IDX 26 12 27 13 28 14 29 15 30 16 14 17 13 18 12 19 11 20 10 21
REMARK SMILES IDX 9 22 8 23 7 24 6 25 5 26 4 27 3 28 2 29 1 30
REMARK H PARENT
REMARK Flexibility Score: inf
ROOT
ATOM      1  C   UNL     1       2.802  53.748  19.950  1.00  0.00     0.000 C 
ENDROOT
BRANCH   1   2
ATOM      2  C   UNL     1       2.077  52.915  18.879  1.00  0.00     0.000 C 
BRANCH   2   3
ATOM      3  C   UNL     1       2.669  53.112  17.474  1.00  0.00     0.000 C 
BRANCH   3   4
ATOM      4  C   UNL     1       1.736  53.903  16.545  1.00  0.00     0.000 C 
BRANCH   4   5
ATOM      5  C   UNL     1       2.443  55.144  15.984  1.00  0.00     0.000 C 
BRANCH   5   6
ATOM      6  C   UNL     1       3.962  55.042  16.161  1.00  0.00     0.000 C 
BRANCH   6   7
ATOM      7  C   UNL     1       4.536  56.325  16.779  1.00  0.00     0.000 C 
BRANCH   7   8
ATOM      8  C   UNL     1       5.692  56.001  17.738  1.00  0.00     0.000 C 
BRANCH   8   9
ATOM      9  C   UNL     1       6.933  56.887  17.499  1.00  0.00     0.000 C 
BRANCH   9  10
ATOM     10  C   UNL     1       7.148  57.963  18.579  1.00  0.00     0.000 C 
BRANCH  10  11
ATOM     11  C   UNL     1       8.266  58.979  18.278  1.00  0.00     0.000 C 
BRANCH  11  12
ATOM     12  C   UNL     1       9.402  58.457  17.373  1.00  0.00     0.006 C 
BRANCH  12  13
ATOM     13  C   UNL     1      10.635  59.372  17.301  1.00  0.00     0.053 C 
BRANCH  13  14
ATOM     14  C   UNL     1      10.868  59.901  15.918  1.00  0.00     0.041 C 
ATOM     15  O   UNL     1      10.135  60.816  15.457  1.00  0.00    -0.550 OA
ATOM     16  O   UNL     1      11.894  59.381  15.136  1.00  0.00    -0.550 OA
ENDBRANCH  13  14
ENDBRANCH  12  13
ENDBRANCH  11  12
ENDBRANCH  10  11
ENDBRANCH   9  10
ENDBRANCH   8   9
ENDBRANCH   7   8
ENDBRANCH   6   7
ENDBRANCH   5   6
ENDBRANCH   4   5
ENDBRANCH   3   4
ENDBRANCH   2   3
ENDBRANCH   1   2
BRANCH   1  17
ATOM     17  C   UNL     1       1.951  54.935  20.434  1.00  0.00     0.000 C 
BRANCH  17  18
ATOM     18  C   UNL     1       2.185  56.204  19.592  1.00  0.00     0.000 C 
BRANCH  18  19
ATOM     19  C   UNL     1       0.922  56.643  18.821  1.00  0.00     0.000 C 
BRANCH  19  20
ATOM     20  C   UNL     1      -0.358  55.892  19.229  1.00  0.00     0.000 C 
BRANCH  20  21
ATOM     21  C   UNL     1      -1.524  56.129  18.256  1.00  0.00     0.000 C 
BRANCH  21  22
ATOM     22  C   UNL     1      -2.363  54.863  17.994  1.00  0.00    -0.000 C 
BRANCH  22  23
ATOM     23  C   UNL     1      -1.602  53.529  18.112  1.00  0.00    -0.000 C 
BRANCH  23  24
ATOM     24  C   UNL     1      -2.276  52.316  17.438  1.00  0.00    -0.000 C 
BRANCH  24  25
ATOM     25  C   UNL     1      -1.856  50.950  18.022  1.00  0.00    -0.000 C 
BRANCH  25  26
ATOM     26  C   UNL     1      -1.010  51.085  19.300  1.00  0.00    -0.000 C 
BRANCH  26  27
ATOM     27  C   UNL     1      -1.789  50.716  20.577  1.00  0.00    -0.000 C 
BRANCH  27  28
ATOM     28  C   UNL     1      -2.119  51.897  21.515  1.00  0.00    -0.000 C 
BRANCH  28  29
ATOM     29  C   UNL     1      -3.416  52.655  21.177  1.00  0.00    -0.003 C 
ATOM     30  C   UNL     1      -3.959  53.461  22.357  1.00  0.00     0.004 C 
ENDBRANCH  28  29
ENDBRANCH  27  28
ENDBRANCH  26  27
ENDBRANCH  25  26
ENDBRANCH  24  25
ENDBRANCH  23  24
ENDBRANCH  22  23
ENDBRANCH  21  22
ENDBRANCH  20  21
ENDBRANCH  19  20
ENDBRANCH  18  19
ENDBRANCH  17  18
ENDBRANCH   1  17
TORSDOF 26
ENDMDL
MODEL 8
REMARK VINA RESULT:    -5.110      4.006     10.647
REMARK INTER + INTRA:         -17.445
REMARK INTER:                 -14.079
REMARK INTRA:                  -3.366
REMARK UNBOUND:                -4.568
REMARK SMILES CCCCCCCCCCCCCCCCCCCCCCCCCCCC(=O)[O-]
REMARK SMILES IDX 15 1 16 2 17 3 18 4 19 5 20 6 21 7 22 8 23 9 24 10 25 11
REMARK SMILES IDX 26 12 27 13 28 14 29 15 30 16 14 17 13 18 12 19 11 20 10 21
REMARK SMILES IDX 9 22 8 23 7 24 6 25 5 26 4 27 3 28 2 29 1 30
REMARK H PARENT
REMARK Flexibility Score: inf
ROOT
ATOM      1  C   UNL     1       2.613  54.915  15.365  1.00  0.00     0.000 C 
ENDROOT
BRANCH   1   2
ATOM      2  C   UNL     1       1.682  55.035  16.584  1.00  0.00     0.000 C 
BRANCH   2   3
ATOM      3  C   UNL     1       1.297  56.491  16.894  1.00  0.00     0.000 C 
BRANCH   3   4
ATOM      4  C   UNL     1       1.747  56.935  18.294  1.00  0.00     0.000 C 
BRANCH   4   5
ATOM      5  C   UNL     1       1.082  56.080  19.382  1.00  0.00     0.000 C 
BRANCH   5   6
ATOM      6  C   UNL     1       2.084  55.102  20.005  1.00  0.00     0.000 C 
BRANCH   6   7
ATOM      7  C   UNL     1       1.507  53.681  20.068  1.00  0.00     0.000 C 
BRANCH   7   8
ATOM      8  C   UNL     1      -0.029  53.712  20.040  1.00  0.00     0.000 C 
BRANCH   8   9
ATOM      9  C   UNL     1      -0.627  52.753  18.988  1.00  0.00     0.000 C 
BRANCH   9  10
ATOM     10  C   UNL     1      -1.203  53.466  17.751  1.00  0.00     0.000 C 
BRANCH  10  11
ATOM     11  C   UNL     1      -2.516  54.236  17.990  1.00  0.00     0.000 C 
BRANCH  11  12
ATOM     12  C   UNL     1      -2.346  55.726  18.353  1.00  0.00     0.006 C 
BRANCH  12  13
ATOM     13  C   UNL     1      -3.614  56.400  18.901  1.00  0.00     0.053 C 
BRANCH  13  14
ATOM     14  C   UNL     1      -4.102  57.503  18.009  1.00  0.00     0.041 C 
ATOM     15  O   UNL     1      -3.408  57.877  17.027  1.00  0.00    -0.550 OA
ATOM     16  O   UNL     1      -5.321  58.120  18.266  1.00  0.00    -0.550 OA
ENDBRANCH  13  14
ENDBRANCH  12  13
ENDBRANCH  11  12
ENDBRANCH  10  11
ENDBRANCH   9  10
ENDBRANCH   8   9
ENDBRANCH   7   8
ENDBRANCH   6   7
ENDBRANCH   5   6
ENDBRANCH   4   5
ENDBRANCH   3   4
ENDBRANCH   2   3
ENDBRANCH   1   2
BRANCH   1  17
ATOM     17  C   UNL     1       4.080  55.202  15.727  1.00  0.00     0.000 C 
BRANCH  17  18
ATOM     18  C   UNL     1       4.480  54.584  17.080  1.00  0.00     0.000 C 
BRANCH  18  19
ATOM     19  C   UNL     1       5.262  55.572  17.972  1.00  0.00     0.000 C 
BRANCH  19  20
ATOM     20  C   UNL     1       5.976  56.693  17.196  1.00  0.00     0.000 C 
BRANCH  20  21
ATOM     21  C   UNL     1       6.811  57.608  18.106  1.00  0.00     0.000 C 
BRANCH  21  22
ATOM     22  C   UNL     1       8.177  57.985  17.498  1.00  0.00    -0.000 C 
BRANCH  22  23
ATOM     23  C   UNL     1       9.233  56.863  17.496  1.00  0.00    -0.000 C 
BRANCH  23  24
ATOM     24  C   UNL     1       9.949  56.625  16.151  1.00  0.00    -0.000 C 
BRANCH  24  25
ATOM     25  C   UNL     1      11.461  56.341  16.279  1.00  0.00    -0.000 C 
BRANCH  25  26
ATOM     26  C   UNL     1      12.301  57.122  15.254  1.00  0.00    -0.000 C 
BRANCH  26  27
ATOM     27  C   UNL     1      12.590  58.570  15.694  1.00  0.00    -0.000 C 
BRANCH  27  28
ATOM     28  C   UNL     1      11.874  59.665  14.875  1.00  0.00    -0.000 C 
BRANCH  28  29
ATOM     29  C   UNL     1      10.471  60.046  15.383  1.00  0.00    -0.003 C 
ATOM     30  C   UNL     1      10.508  60.917  16.639  1.00  0.00     0.004 C 
ENDBRANCH  28  29
ENDBRANCH  27  28
ENDBRANCH  26  27
ENDBRANCH  25  26
ENDBRANCH  24  25
ENDBRANCH  23  24
ENDBRANCH  22  23
ENDBRANCH  21  22
ENDBRANCH  20  21
ENDBRANCH  19  20
ENDBRANCH  18  19
ENDBRANCH  17  18
ENDBRANCH   1  17
TORSDOF 26
ENDMDL
MODEL 9
REMARK VINA RESULT:    -5.066      4.007      8.801
REMARK INTER + INTRA:         -17.335
REMARK INTER:                 -12.346
REMARK INTRA:                  -4.988
REMARK UNBOUND:                -4.568
REMARK SMILES CCCCCCCCCCCCCCCCCCCCCCCCCCCC(=O)[O-]
REMARK SMILES IDX 15 1 16 2 17 3 18 4 19 5 20 6 21 7 22 8 23 9 24 10 25 11
REMARK SMILES IDX 26 12 27 13 28 14 29 15 30 16 14 17 13 18 12 19 11 20 10 21
REMARK SMILES IDX 9 22 8 23 7 24 6 25 5 26 4 27 3 28 2 29 1 30
REMARK H PARENT
REMARK Flexibility Score: inf
ROOT
ATOM      1  C   UNL     1      -2.101  53.912  18.155  1.00  0.00     0.000 C 
ENDROOT
BRANCH   1   2
ATOM      2  C   UNL     1      -2.106  52.657  17.266  1.00  0.00     0.000 C 
BRANCH   2   3
ATOM      3  C   UNL     1      -2.564  51.398  18.021  1.00  0.00     0.000 C 
BRANCH   3   4
ATOM      4  C   UNL     1      -1.473  50.318  18.084  1.00  0.00     0.000 C 
BRANCH   4   5
ATOM      5  C   UNL     1      -0.131  50.919  18.526  1.00  0.00     0.000 C 
BRANCH   5   6
ATOM      6  C   UNL     1       0.604  49.982  19.491  1.00  0.00     0.000 C 
BRANCH   6   7
ATOM      7  C   UNL     1       0.107  48.537  19.346  1.00  0.00     0.000 C 
BRANCH   7   8
ATOM      8  C   UNL     1       0.294  47.760  20.658  1.00  0.00     0.000 C 
BRANCH   8   9
ATOM      9  C   UNL     1      -0.992  47.705  21.510  1.00  0.00     0.000 C 
BRANCH   9  10
ATOM     10  C   UNL     1      -2.277  48.008  20.717  1.00  0.00     0.000 C 
BRANCH  10  11
ATOM     11  C   UNL     1      -3.116  49.184  21.254  1.00  0.00     0.000 C 
BRANCH  11  12
ATOM     12  C   UNL     1      -2.305  50.417  21.704  1.00  0.00     0.006 C 
BRANCH  12  13
ATOM     13  C   UNL     1      -2.661  50.941  23.104  1.00  0.00     0.053 C 
BRANCH  13  14
ATOM     14  C   UNL     1      -3.699  52.023  23.058  1.00  0.00     0.041 C 
ATOM     15  O   UNL     1      -4.834  51.791  22.563  1.00  0.00    -0.550 OA
ATOM     16  O   UNL     1      -3.411  53.288  23.557  1.00  0.00    -0.550 OA
ENDBRANCH  13  14
ENDBRANCH  12  13
ENDBRANCH  11  12
ENDBRANCH  10  11
ENDBRANCH   9  10
ENDBRANCH   8   9
ENDBRANCH   7   8
ENDBRANCH   6   7
ENDBRANCH   5   6
ENDBRANCH   4   5
ENDBRANCH   3   4
ENDBRANCH   2   3
ENDBRANCH   1   2
BRANCH   1  17
ATOM     17  C   UNL     1      -2.628  53.621  19.571  1.00  0.00     0.000 C 
BRANCH  17  18
ATOM     18  C   UNL     1      -1.556  53.853  20.652  1.00  0.00     0.000 C 
BRANCH  18  19
ATOM     19  C   UNL     1      -0.143  54.026  20.056  1.00  0.00     0.000 C 
BRANCH  19  20
ATOM     20  C   UNL     1       0.772  54.963  20.864  1.00  0.00     0.000 C 
BRANCH  20  21
ATOM     21  C   UNL     1       2.258  54.586  20.753  1.00  0.00     0.000 C 
BRANCH  21  22
ATOM     22  C   UNL     1       2.506  53.349  19.867  1.00  0.00    -0.000 C 
BRANCH  22  23
ATOM     23  C   UNL     1       3.943  53.191  19.337  1.00  0.00    -0.000 C 
BRANCH  23  24
ATOM     24  C   UNL     1       4.123  53.412  17.822  1.00  0.00    -0.000 C 
BRANCH  24  25
ATOM     25  C   UNL     1       4.053  54.891  17.384  1.00  0.00    -0.000 C 
BRANCH  25  26
ATOM     26  C   UNL     1       3.082  55.119  16.213  1.00  0.00    -0.000 C 
BRANCH  26  27
ATOM     27  C   UNL     1       1.605  54.965  16.620  1.00  0.00    -0.000 C 
BRANCH  27  28
ATOM     28  C   UNL     1       0.837  56.287  16.832  1.00  0.00    -0.000 C 
BRANCH  28  29
ATOM     29  C   UNL     1       1.140  57.012  18.157  1.00  0.00    -0.003 C 
ATOM     30  C   UNL     1       2.047  58.229  17.976  1.00  0.00     0.004 C 
ENDBRANCH  28  29
ENDBRANCH  27  28
ENDBRANCH  26  27
ENDBRANCH  25  26
ENDBRANCH  24  25
ENDBRANCH  23  24
ENDBRANCH  22  23
ENDBRANCH  21  22
ENDBRANCH  20  21
ENDBRANCH  19  20
ENDBRANCH  18  19
ENDBRANCH  17  18
ENDBRANCH   1  17
TORSDOF 26
ENDMDL
