MODEL 1
REMARK VINA RESULT:    -4.915      0.000      0.000
REMARK INTER + INTRA:          -5.058
REMARK INTER:                  -5.058
REMARK INTRA:                   0.000
REMARK UNBOUND:                 0.000
REMARK SMILES O=c1ccc2ccc(O)cc2o1
REMARK SMILES IDX 6 1 7 2 8 3 10 4 11 5 5 6 4 7 3 8 2 9 1 10 12 11 9 12
REMARK H PARENT 9 13
REMARK Flexibility Score: inf
ROOT
ATOM      1  C   UNL     1      18.240  -6.334   9.617  1.00  0.00     0.016 A 
ATOM      2  C   UNL     1      18.084  -5.261   8.733  1.00  0.00     0.047 A 
ATOM      3  C   UNL     1      17.509  -5.462   7.470  1.00  0.00     0.119 A 
ATOM      4  C   UNL     1      17.087  -6.743   7.090  1.00  0.00     0.094 A 
ATOM      5  C   UNL     1      17.237  -7.822   7.968  1.00  0.00     0.142 A 
ATOM      6  C   UNL     1      17.818  -7.616   9.240  1.00  0.00     0.018 A 
ATOM      7  C   UNL     1      17.955  -8.714  10.095  1.00  0.00     0.019 A 
ATOM      8  C   UNL     1      17.519  -9.970   9.673  1.00  0.00     0.094 A 
ATOM      9  C   UNL     1      16.954 -10.098   8.398  1.00  0.00     0.336 A 
ATOM     10  O   UNL     1      16.554 -11.223   7.998  1.00  0.00    -0.246 OA
ATOM     11  O   UNL     1      16.835  -9.036   7.604  1.00  0.00    -0.423 OA
ENDROOT
BRANCH   3  12
ATOM     12  O   UNL     1      17.352  -4.398   6.585  1.00  0.00    -0.508 OA
ATOM     13  H   UNL     1      18.130  -3.799   6.333  1.00  0.00     0.293 HD
ENDBRANCH   3  12
TORSDOF 1
ENDMDL
MODEL 2
REMARK VINA RESULT:    -4.822     14.491     16.594
REMARK INTER + INTRA:          -4.963
REMARK INTER:                  -4.963
REMARK INTRA:                   0.000
REMARK UNBOUND:                 0.000
REMARK SMILES O=c1ccc2ccc(O)cc2o1
REMARK SMILES IDX 6 1 7 2 8 3 10 4 11 5 5 6 4 7 3 8 2 9 1 10 12 11 9 12
REMARK H PARENT 9 13
REMARK Flexibility Score: inf
ROOT
ATOM      1  C   UNL     1      13.487 -17.421  22.740  1.00  0.00     0.016 A 
ATOM      2  C   UNL     1      14.257 -16.964  23.813  1.00  0.00     0.047 A 
ATOM      3  C   UNL     1      14.601 -15.608  23.911  1.00  0.00     0.119 A 
ATOM      4  C   UNL     1      14.170 -14.706  22.930  1.00  0.00     0.094 A 
ATOM      5  C   UNL     1      13.398 -15.154  21.853  1.00  0.00     0.142 A 
ATOM      6  C   UNL     1      13.054 -16.521  21.757  1.00  0.00     0.018 A 
ATOM      7  C   UNL     1      12.281 -16.938  20.669  1.00  0.00     0.019 A 
ATOM      8  C   UNL     1      11.875 -16.002  19.718  1.00  0.00     0.094 A 
ATOM      9  C   UNL     1      12.254 -14.665  19.878  1.00  0.00     0.336 A 
ATOM     10  O   UNL     1      11.899 -13.804  19.031  1.00  0.00    -0.246 OA
ATOM     11  O   UNL     1      12.991 -14.294  20.923  1.00  0.00    -0.423 OA
ENDROOT
BRANCH   3  12
ATOM     12  O   UNL     1      15.369 -15.146  24.978  1.00  0.00    -0.508 OA
ATOM     13  H   UNL     1      15.464 -15.682  25.833  1.00  0.00     0.293 HD
ENDBRANCH   3  12
TORSDOF 1
ENDMDL
MODEL 3
REMARK VINA RESULT:    -4.821      1.696      4.586
REMARK INTER + INTRA:          -4.962
REMARK INTER:                  -4.962
REMARK INTRA:                   0.000
REMARK UNBOUND:                 0.000
REMARK SMILES O=c1ccc2ccc(O)cc2o1
REMARK SMILES IDX 6 1 7 2 8 3 10 4 11 5 5 6 4 7 3 8 2 9 1 10 12 11 9 12
REMARK H PARENT 9 13
REMARK Flexibility Score: inf
ROOT
ATOM      1  C   UNL     1      17.121  -9.837   7.849  1.00  0.00     0.016 A 
ATOM      2  C   UNL     1      17.497 -10.348   9.095  1.00  0.00     0.047 A 
ATOM      3  C   UNL     1      17.870  -9.482  10.132  1.00  0.00     0.119 A 
ATOM      4  C   UNL     1      17.866  -8.098   9.922  1.00  0.00     0.094 A 
ATOM      5  C   UNL     1      17.491  -7.576   8.679  1.00  0.00     0.142 A 
ATOM      6  C   UNL     1      17.116  -8.452   7.635  1.00  0.00     0.018 A 
ATOM      7  C   UNL     1      16.746  -7.901   6.404  1.00  0.00     0.019 A 
ATOM      8  C   UNL     1      16.757  -6.516   6.243  1.00  0.00     0.094 A 
ATOM      9  C   UNL     1      17.140  -5.710   7.321  1.00  0.00     0.336 A 
ATOM     10  O   UNL     1      17.157  -4.458   7.196  1.00  0.00    -0.246 OA
ATOM     11  O   UNL     1      17.488  -6.261   8.482  1.00  0.00    -0.423 OA
ENDROOT
BRANCH   3  12
ATOM     12  O   UNL     1      18.246  -9.986  11.376  1.00  0.00    -0.508 OA
ATOM     13  H   UNL     1      17.602 -10.001  12.158  1.00  0.00     0.293 HD
ENDBRANCH   3  12
TORSDOF 1
ENDMDL
MODEL 4
REMARK VINA RESULT:    -4.808      0.949      4.209
REMARK INTER + INTRA:          -4.948
REMARK INTER:                  -4.948
REMARK INTRA:                   0.000
REMARK UNBOUND:                 0.000
REMARK SMILES O=c1ccc2ccc(O)cc2o1
REMARK SMILES IDX 6 1 7 2 8 3 10 4 11 5 5 6 4 7 3 8 2 9 1 10 12 11 9 12
REMARK H PARENT 9 13
REMARK Flexibility Score: inf
ROOT
ATOM      1  C   UNL     1      17.971  -8.529  10.012  1.00  0.00     0.016 A 
ATOM      2  C   UNL     1      17.826  -9.899   9.775  1.00  0.00     0.047 A 
ATOM      3  C   UNL     1      17.217 -10.353   8.596  1.00  0.00     0.119 A 
ATOM      4  C   UNL     1      16.749  -9.431   7.651  1.00  0.00     0.094 A 
ATOM      5  C   UNL     1      16.890  -8.058   7.880  1.00  0.00     0.142 A 
ATOM      6  C   UNL     1      17.505  -7.603   9.068  1.00  0.00     0.018 A 
ATOM      7  C   UNL     1      17.631  -6.226   9.268  1.00  0.00     0.019 A 
ATOM      8  C   UNL     1      17.151  -5.346   8.298  1.00  0.00     0.094 A 
ATOM      9  C   UNL     1      16.553  -5.868   7.145  1.00  0.00     0.336 A 
ATOM     10  O   UNL     1      16.114  -5.091   6.258  1.00  0.00    -0.246 OA
ATOM     11  O   UNL     1      16.446  -7.184   6.980  1.00  0.00    -0.423 OA
ENDROOT
BRANCH   3  12
ATOM     12  O   UNL     1      17.069 -11.718   8.354  1.00  0.00    -0.508 OA
ATOM     13  H   UNL     1      17.840 -12.363   8.476  1.00  0.00     0.293 HD
ENDBRANCH   3  12
TORSDOF 1
ENDMDL
MODEL 5
REMARK VINA RESULT:    -4.786     16.550     17.411
REMARK INTER + INTRA:          -4.926
REMARK INTER:                  -4.926
REMARK INTRA:                   0.000
REMARK UNBOUND:                 0.000
REMARK SMILES O=c1ccc2ccc(O)cc2o1
REMARK SMILES IDX 6 1 7 2 8 3 10 4 11 5 5 6 4 7 3 8 2 9 1 10 12 11 9 12
REMARK H PARENT 9 13
REMARK Flexibility Score: inf
ROOT
ATOM      1  C   UNL     1      13.737 -14.892  21.929  1.00  0.00     0.016 A 
ATOM      2  C   UNL     1      14.448 -14.587  23.093  1.00  0.00     0.047 A 
ATOM      3  C   UNL     1      14.691 -15.578  24.054  1.00  0.00     0.119 A 
ATOM      4  C   UNL     1      14.221 -16.881  23.849  1.00  0.00     0.094 A 
ATOM      5  C   UNL     1      13.509 -17.197  22.687  1.00  0.00     0.142 A 
ATOM      6  C   UNL     1      13.265 -16.196  21.720  1.00  0.00     0.018 A 
ATOM      7  C   UNL     1      12.551 -16.542  20.569  1.00  0.00     0.019 A 
ATOM      8  C   UNL     1      12.104 -17.853  20.408  1.00  0.00     0.094 A 
ATOM      9  C   UNL     1      12.382 -18.792  21.408  1.00  0.00     0.336 A 
ATOM     10  O   UNL     1      11.987 -19.980  21.283  1.00  0.00    -0.246 OA
ATOM     11  O   UNL     1      13.064 -18.436  22.495  1.00  0.00    -0.423 OA
ENDROOT
BRANCH   3  12
ATOM     12  O   UNL     1      15.399 -15.279  25.217  1.00  0.00    -0.508 OA
ATOM     13  H   UNL     1      15.036 -15.516  26.133  1.00  0.00     0.293 HD
ENDBRANCH   3  12
TORSDOF 1
ENDMDL
MODEL 6
REMARK VINA RESULT:    -4.728      2.642      3.641
REMARK INTER + INTRA:          -4.867
REMARK INTER:                  -4.867
REMARK INTRA:                   0.000
REMARK UNBOUND:                 0.000
REMARK SMILES O=c1ccc2ccc(O)cc2o1
REMARK SMILES IDX 6 1 7 2 8 3 10 4 11 5 5 6 4 7 3 8 2 9 1 10 12 11 9 12
REMARK H PARENT 9 13
REMARK Flexibility Score: inf
ROOT
ATOM      1  C   UNL     1      16.894  -8.696   9.650  1.00  0.00     0.016 A 
ATOM      2  C   UNL     1      18.096  -8.051   9.956  1.00  0.00     0.047 A 
ATOM      3  C   UNL     1      18.326  -6.738   9.520  1.00  0.00     0.119 A 
ATOM      4  C   UNL     1      17.348  -6.068   8.775  1.00  0.00     0.094 A 
ATOM      5  C   UNL     1      16.141  -6.705   8.464  1.00  0.00     0.142 A 
ATOM      6  C   UNL     1      15.912  -8.028   8.905  1.00  0.00     0.018 A 
ATOM      7  C   UNL     1      14.697  -8.638   8.579  1.00  0.00     0.019 A 
ATOM      8  C   UNL     1      13.753  -7.930   7.835  1.00  0.00     0.094 A 
ATOM      9  C   UNL     1      14.049  -6.623   7.432  1.00  0.00     0.336 A 
ATOM     10  O   UNL     1      13.211  -5.967   6.760  1.00  0.00    -0.246 OA
ATOM     11  O   UNL     1      15.214  -6.066   7.756  1.00  0.00    -0.423 OA
ENDROOT
BRANCH   3  12
ATOM     12  O   UNL     1      19.522  -6.090   9.821  1.00  0.00    -0.508 OA
ATOM     13  H   UNL     1      20.323  -6.597  10.181  1.00  0.00     0.293 HD
ENDBRANCH   3  12
TORSDOF 1
ENDMDL
MODEL 7
REMARK VINA RESULT:    -4.594      2.719      3.625
REMARK INTER + INTRA:          -4.728
REMARK INTER:                  -4.728
REMARK INTRA:                   0.000
REMARK UNBOUND:                 0.000
REMARK SMILES O=c1ccc2ccc(O)cc2o1
REMARK SMILES IDX 6 1 7 2 8 3 10 4 11 5 5 6 4 7 3 8 2 9 1 10 12 11 9 12
REMARK H PARENT 9 13
REMARK Flexibility Score: inf
ROOT
ATOM      1  C   UNL     1      14.618  -8.735   8.604  1.00  0.00     0.016 A 
ATOM      2  C   UNL     1      13.667  -8.037   7.854  1.00  0.00     0.047 A 
ATOM      3  C   UNL     1      13.938  -6.738   7.401  1.00  0.00     0.119 A 
ATOM      4  C   UNL     1      15.166  -6.135   7.701  1.00  0.00     0.094 A 
ATOM      5  C   UNL     1      16.124  -6.826   8.450  1.00  0.00     0.142 A 
ATOM      6  C   UNL     1      15.849  -8.135   8.905  1.00  0.00     0.018 A 
ATOM      7  C   UNL     1      16.826  -8.800   9.651  1.00  0.00     0.019 A 
ATOM      8  C   UNL     1      18.035  -8.159   9.923  1.00  0.00     0.094 A 
ATOM      9  C   UNL     1      18.237  -6.861   9.441  1.00  0.00     0.336 A 
ATOM     10  O   UNL     1      19.321  -6.265   9.675  1.00  0.00    -0.246 OA
ATOM     11  O   UNL     1      17.290  -6.251   8.733  1.00  0.00    -0.423 OA
ENDROOT
BRANCH   3  12
ATOM     12  O   UNL     1      12.994  -6.036   6.654  1.00  0.00    -0.508 OA
ATOM     13  H   UNL     1      12.000  -6.191   6.776  1.00  0.00     0.293 HD
ENDBRANCH   3  12
TORSDOF 1
ENDMDL
MODEL 8
REMARK VINA RESULT:    -4.540      1.877      2.495
REMARK INTER + INTRA:          -4.673
REMARK INTER:                  -4.673
REMARK INTRA:                   0.000
REMARK UNBOUND:                 0.000
REMARK SMILES O=c1ccc2ccc(O)cc2o1
REMARK SMILES IDX 6 1 7 2 8 3 10 4 11 5 5 6 4 7 3 8 2 9 1 10 12 11 9 12
REMARK H PARENT 9 13
REMARK Flexibility Score: inf
ROOT
ATOM      1  C   UNL     1      15.026  -6.015   7.532  1.00  0.00     0.016 A 
ATOM      2  C   UNL     1      15.542  -4.828   7.002  1.00  0.00     0.047 A 
ATOM      3  C   UNL     1      16.881  -4.476   7.225  1.00  0.00     0.119 A 
ATOM      4  C   UNL     1      17.707  -5.316   7.982  1.00  0.00     0.094 A 
ATOM      5  C   UNL     1      17.200  -6.506   8.516  1.00  0.00     0.142 A 
ATOM      6  C   UNL     1      15.850  -6.858   8.289  1.00  0.00     0.018 A 
ATOM      7  C   UNL     1      15.373  -8.053   8.836  1.00  0.00     0.019 A 
ATOM      8  C   UNL     1      16.234  -8.857   9.582  1.00  0.00     0.094 A 
ATOM      9  C   UNL     1      17.559  -8.444   9.766  1.00  0.00     0.336 A 
ATOM     10  O   UNL     1      18.352  -9.156  10.436  1.00  0.00    -0.246 OA
ATOM     11  O   UNL     1      17.988  -7.302   9.235  1.00  0.00    -0.423 OA
ENDROOT
BRANCH   3  12
ATOM     12  O   UNL     1      17.401  -3.295   6.700  1.00  0.00    -0.508 OA
ATOM     13  H   UNL     1      16.798  -2.529   6.422  1.00  0.00     0.293 HD
ENDBRANCH   3  12
TORSDOF 1
ENDMDL
MODEL 9
REMARK VINA RESULT:    -4.503     14.695     16.850
REMARK INTER + INTRA:          -4.634
REMARK INTER:                  -4.634
REMARK INTRA:                   0.000
REMARK UNBOUND:                 0.000
REMARK SMILES O=c1ccc2ccc(O)cc2o1
REMARK SMILES IDX 6 1 7 2 8 3 10 4 11 5 5 6 4 7 3 8 2 9 1 10 12 11 9 12
REMARK H PARENT 9 13
REMARK Flexibility Score: inf
ROOT
ATOM      1  C   UNL     1      14.114 -15.164  22.794  1.00  0.00     0.016 A 
ATOM      2  C   UNL     1      13.625 -15.594  24.031  1.00  0.00     0.047 A 
ATOM      3  C   UNL     1      12.595 -16.544  24.094  1.00  0.00     0.119 A 
ATOM      4  C   UNL     1      12.054 -17.066  22.913  1.00  0.00     0.094 A 
ATOM      5  C   UNL     1      12.537 -16.643  21.670  1.00  0.00     0.142 A 
ATOM      6  C   UNL     1      13.575 -15.685  21.610  1.00  0.00     0.018 A 
ATOM      7  C   UNL     1      14.037 -15.282  20.354  1.00  0.00     0.019 A 
ATOM      8  C   UNL     1      13.467 -15.831  19.205  1.00  0.00     0.094 A 
ATOM      9  C   UNL     1      12.442 -16.775  19.342  1.00  0.00     0.336 A 
ATOM     10  O   UNL     1      11.915 -17.283  18.318  1.00  0.00    -0.246 OA
ATOM     11  O   UNL     1      12.021 -17.141  20.550  1.00  0.00    -0.423 OA
ENDROOT
BRANCH   3  12
ATOM     12  O   UNL     1      12.103 -16.976  25.324  1.00  0.00    -0.508 OA
ATOM     13  H   UNL     1      12.531 -16.689  26.197  1.00  0.00     0.293 HD
ENDBRANCH   3  12
TORSDOF 1
ENDMDL
