MODEL 1
REMARK VINA RESULT:    -6.099      0.000      0.000
REMARK INTER + INTRA:         -14.067
REMARK INTER:                 -11.447
REMARK INTRA:                  -2.620
REMARK UNBOUND:                -2.620
REMARK SMILES CCCCCCCCC=CCCCCCCCC(=O)[O-]
REMARK SMILES IDX 10 1 9 2 11 3 12 4 13 5 14 6 15 7 16 8 17 9 18 10 19 11
REMARK SMILES IDX 20 12 8 13 7 14 6 15 5 16 4 17 3 18 2 19 1 20
REMARK H PARENT
REMARK Flexibility Score: inf
ROOT
ATOM      1  C   UNL     1      13.198 -13.750  36.769  1.00  0.00    -0.031 C 
ATOM      2  C   UNL     1      12.976 -13.316  35.521  1.00  0.00    -0.031 C 
ENDROOT
BRANCH   1   3
ATOM      3  C   UNL     1      12.190 -14.584  37.509  1.00  0.00     0.027 C 
BRANCH   3   4
ATOM      4  C   UNL     1      11.210 -15.320  36.577  1.00  0.00     0.004 C 
BRANCH   4   5
ATOM      5  C   UNL     1       9.774 -14.756  36.602  1.00  0.00     0.000 C 
BRANCH   5   6
ATOM      6  C   UNL     1       9.351 -14.093  37.927  1.00  0.00     0.000 C 
BRANCH   6   7
ATOM      7  C   UNL     1       8.079 -13.233  37.793  1.00  0.00     0.000 C 
BRANCH   7   8
ATOM      8  C   UNL     1       7.329 -13.480  36.472  1.00  0.00     0.006 C 
BRANCH   8   9
ATOM      9  C   UNL     1       7.393 -12.298  35.487  1.00  0.00     0.053 C 
BRANCH   9  10
ATOM     10  C   UNL     1       8.028 -12.634  34.166  1.00  0.00     0.041 C 
ATOM     11  O   UNL     1       7.566 -13.546  33.430  1.00  0.00    -0.550 OA
ATOM     12  O   UNL     1       9.195 -11.982  33.790  1.00  0.00    -0.550 OA
ENDBRANCH   9  10
ENDBRANCH   8   9
ENDBRANCH   7   8
ENDBRANCH   6   7
ENDBRANCH   5   6
ENDBRANCH   4   5
ENDBRANCH   3   4
ENDBRANCH   1   3
BRANCH   2  13
ATOM     13  C   UNL     1      14.005 -12.512  34.778  1.00  0.00     0.027 C 
BRANCH  13  14
ATOM     14  C   UNL     1      13.739 -11.000  34.864  1.00  0.00     0.004 C 
BRANCH  14  15
ATOM     15  C   UNL     1      12.266 -10.599  34.641  1.00  0.00     0.000 C 
BRANCH  15  16
ATOM     16  C   UNL     1      11.597  -9.892  35.834  1.00  0.00     0.000 C 
BRANCH  16  17
ATOM     17  C   UNL     1      10.786 -10.852  36.720  1.00  0.00    -0.000 C 
BRANCH  17  18
ATOM     18  C   UNL     1      11.333 -10.944  38.156  1.00  0.00    -0.000 C 
BRANCH  18  19
ATOM     19  C   UNL     1      12.748 -10.367  38.344  1.00  0.00    -0.003 C 
ATOM     20  C   UNL     1      13.206 -10.365  39.803  1.00  0.00     0.004 C 
ENDBRANCH  18  19
ENDBRANCH  17  18
ENDBRANCH  16  17
ENDBRANCH  15  16
ENDBRANCH  14  15
ENDBRANCH  13  14
ENDBRANCH   2  13
TORSDOF 15
ENDMDL
MODEL 2
REMARK VINA RESULT:    -5.953      1.141      1.923
REMARK INTER + INTRA:         -13.794
REMARK INTER:                 -11.039
REMARK INTRA:                  -2.754
REMARK UNBOUND:                -2.620
REMARK SMILES CCCCCCCCC=CCCCCCCCC(=O)[O-]
REMARK SMILES IDX 10 1 9 2 11 3 12 4 13 5 14 6 15 7 16 8 17 9 18 10 19 11
REMARK SMILES IDX 20 12 8 13 7 14 6 15 5 16 4 17 3 18 2 19 1 20
REMARK H PARENT
REMARK Flexibility Score: inf
ROOT
ATOM      1  C   UNL     1      11.377 -15.002  36.566  1.00  0.00    -0.031 C 
ATOM      2  C   UNL     1      12.290 -14.206  37.141  1.00  0.00    -0.031 C 
ENDROOT
BRANCH   1   3
ATOM      3  C   UNL     1      10.270 -15.639  37.359  1.00  0.00     0.027 C 
BRANCH   3   4
ATOM      4  C   UNL     1       9.898 -14.849  38.626  1.00  0.00     0.004 C 
BRANCH   4   5
ATOM      5  C   UNL     1       8.441 -14.341  38.647  1.00  0.00     0.000 C 
BRANCH   5   6
ATOM      6  C   UNL     1       8.277 -12.809  38.597  1.00  0.00     0.000 C 
BRANCH   6   7
ATOM      7  C   UNL     1       9.437 -12.101  37.870  1.00  0.00     0.000 C 
BRANCH   7   8
ATOM      8  C   UNL     1       8.998 -11.439  36.553  1.00  0.00     0.006 C 
BRANCH   8   9
ATOM      9  C   UNL     1       9.255 -12.301  35.303  1.00  0.00     0.053 C 
BRANCH   9  10
ATOM     10  C   UNL     1       8.028 -12.988  34.771  1.00  0.00     0.041 C 
ATOM     11  O   UNL     1       7.134 -13.424  35.544  1.00  0.00    -0.550 OA
ATOM     12  O   UNL     1       7.918 -13.218  33.405  1.00  0.00    -0.550 OA
ENDBRANCH   9  10
ENDBRANCH   8   9
ENDBRANCH   7   8
ENDBRANCH   6   7
ENDBRANCH   5   6
ENDBRANCH   4   5
ENDBRANCH   3   4
ENDBRANCH   1   3
BRANCH   2  13
ATOM     13  C   UNL     1      13.372 -13.547  36.334  1.00  0.00     0.027 C 
BRANCH  13  14
ATOM     14  C   UNL     1      12.808 -12.649  35.221  1.00  0.00     0.004 C 
BRANCH  14  15
ATOM     15  C   UNL     1      13.675 -11.413  34.901  1.00  0.00     0.000 C 
BRANCH  15  16
ATOM     16  C   UNL     1      13.819 -10.404  36.055  1.00  0.00     0.000 C 
BRANCH  16  17
ATOM     17  C   UNL     1      12.506  -9.667  36.372  1.00  0.00    -0.000 C 
BRANCH  17  18
ATOM     18  C   UNL     1      12.150  -9.701  37.869  1.00  0.00    -0.000 C 
BRANCH  18  19
ATOM     19  C   UNL     1      12.895 -10.774  38.685  1.00  0.00    -0.003 C 
ATOM     20  C   UNL     1      13.301 -10.294  40.078  1.00  0.00     0.004 C 
ENDBRANCH  18  19
ENDBRANCH  17  18
ENDBRANCH  16  17
ENDBRANCH  15  16
ENDBRANCH  14  15
ENDBRANCH  13  14
ENDBRANCH   2  13
TORSDOF 15
ENDMDL
MODEL 3
REMARK VINA RESULT:    -5.934      2.401      5.783
REMARK INTER + INTRA:         -13.757
REMARK INTER:                 -11.375
REMARK INTRA:                  -2.382
REMARK UNBOUND:                -2.620
REMARK SMILES CCCCCCCCC=CCCCCCCCC(=O)[O-]
REMARK SMILES IDX 10 1 9 2 11 3 12 4 13 5 14 6 15 7 16 8 17 9 18 10 19 11
REMARK SMILES IDX 20 12 8 13 7 14 6 15 5 16 4 17 3 18 2 19 1 20
REMARK H PARENT
REMARK Flexibility Score: inf
ROOT
ATOM      1  C   UNL     1      11.496 -14.650  37.254  1.00  0.00    -0.031 C 
ATOM      2  C   UNL     1      10.591 -14.140  38.101  1.00  0.00    -0.031 C 
ENDROOT
BRANCH   1   3
ATOM      3  C   UNL     1      12.734 -13.890  36.867  1.00  0.00     0.027 C 
BRANCH   3   4
ATOM      4  C   UNL     1      12.727 -13.426  35.399  1.00  0.00     0.004 C 
BRANCH   4   5
ATOM      5  C   UNL     1      14.000 -12.663  34.975  1.00  0.00     0.000 C 
BRANCH   5   6
ATOM      6  C   UNL     1      13.794 -11.171  34.647  1.00  0.00     0.000 C 
BRANCH   6   7
ATOM      7  C   UNL     1      12.524 -10.581  35.290  1.00  0.00     0.000 C 
BRANCH   7   8
ATOM      8  C   UNL     1      12.829  -9.720  36.528  1.00  0.00     0.006 C 
BRANCH   8   9
ATOM      9  C   UNL     1      13.477 -10.498  37.688  1.00  0.00     0.053 C 
BRANCH   9  10
ATOM     10  C   UNL     1      12.689 -10.461  38.967  1.00  0.00     0.041 C 
ATOM     11  O   UNL     1      11.434 -10.577  38.967  1.00  0.00    -0.550 OA
ATOM     12  O   UNL     1      13.349 -10.212  40.164  1.00  0.00    -0.550 OA
ENDBRANCH   9  10
ENDBRANCH   8   9
ENDBRANCH   7   8
ENDBRANCH   6   7
ENDBRANCH   5   6
ENDBRANCH   4   5
ENDBRANCH   3   4
ENDBRANCH   1   3
BRANCH   2  13
ATOM     13  C   UNL     1       9.374 -14.922  38.507  1.00  0.00     0.027 C 
BRANCH  13  14
ATOM     14  C   UNL     1       8.121 -14.039  38.619  1.00  0.00     0.004 C 
BRANCH  14  15
ATOM     15  C   UNL     1       8.401 -12.524  38.531  1.00  0.00     0.000 C 
BRANCH  15  16
ATOM     16  C   UNL     1       7.947 -11.854  37.221  1.00  0.00     0.000 C 
BRANCH  16  17
ATOM     17  C   UNL     1       9.124 -11.453  36.315  1.00  0.00    -0.000 C 
BRANCH  17  18
ATOM     18  C   UNL     1       9.226 -12.323  35.049  1.00  0.00    -0.000 C 
BRANCH  18  19
ATOM     19  C   UNL     1       8.091 -13.350  34.880  1.00  0.00    -0.003 C 
ATOM     20  C   UNL     1       7.742 -13.624  33.417  1.00  0.00     0.004 C 
ENDBRANCH  18  19
ENDBRANCH  17  18
ENDBRANCH  16  17
ENDBRANCH  15  16
ENDBRANCH  14  15
ENDBRANCH  13  14
ENDBRANCH   2  13
TORSDOF 15
ENDMDL
MODEL 4
REMARK VINA RESULT:    -5.848      2.181      5.558
REMARK INTER + INTRA:         -13.597
REMARK INTER:                 -11.064
REMARK INTRA:                  -2.533
REMARK UNBOUND:                -2.620
REMARK SMILES CCCCCCCCC=CCCCCCCCC(=O)[O-]
REMARK SMILES IDX 10 1 9 2 11 3 12 4 13 5 14 6 15 7 16 8 17 9 18 10 19 11
REMARK SMILES IDX 20 12 8 13 7 14 6 15 5 16 4 17 3 18 2 19 1 20
REMARK H PARENT
REMARK Flexibility Score: inf
ROOT
ATOM      1  C   UNL     1      12.274 -14.258  37.343  1.00  0.00    -0.031 C 
ATOM      2  C   UNL     1      11.092 -14.433  36.736  1.00  0.00    -0.031 C 
ENDROOT
BRANCH   1   3
ATOM      3  C   UNL     1      13.284 -13.267  36.837  1.00  0.00     0.027 C 
BRANCH   3   4
ATOM      4  C   UNL     1      13.271 -13.113  35.306  1.00  0.00     0.004 C 
BRANCH   4   5
ATOM      5  C   UNL     1      14.046 -11.883  34.790  1.00  0.00     0.000 C 
BRANCH   5   6
ATOM      6  C   UNL     1      13.287 -10.544  34.878  1.00  0.00     0.000 C 
BRANCH   6   7
ATOM      7  C   UNL     1      11.759 -10.720  34.970  1.00  0.00     0.000 C 
BRANCH   7   8
ATOM      8  C   UNL     1      11.169 -10.137  36.265  1.00  0.00     0.006 C 
BRANCH   8   9
ATOM      9  C   UNL     1      12.227  -9.607  37.251  1.00  0.00     0.053 C 
BRANCH   9  10
ATOM     10  C   UNL     1      12.178 -10.252  38.608  1.00  0.00     0.041 C 
ATOM     11  O   UNL     1      13.099 -10.075  39.450  1.00  0.00    -0.550 OA
ATOM     12  O   UNL     1      11.140 -11.124  38.908  1.00  0.00    -0.550 OA
ENDBRANCH   9  10
ENDBRANCH   8   9
ENDBRANCH   7   8
ENDBRANCH   6   7
ENDBRANCH   5   6
ENDBRANCH   4   5
ENDBRANCH   3   4
ENDBRANCH   1   3
BRANCH   2  13
ATOM     13  C   UNL     1      10.075 -15.403  37.269  1.00  0.00     0.027 C 
BRANCH  13  14
ATOM     14  C   UNL     1       9.522 -14.978  38.639  1.00  0.00     0.004 C 
BRANCH  14  15
ATOM     15  C   UNL     1       8.163 -14.250  38.578  1.00  0.00     0.000 C 
BRANCH  15  16
ATOM     16  C   UNL     1       8.250 -12.716  38.476  1.00  0.00     0.000 C 
BRANCH  16  17
ATOM     17  C   UNL     1       8.056 -12.200  37.039  1.00  0.00    -0.000 C 
BRANCH  17  18
ATOM     18  C   UNL     1       7.241 -13.169  36.164  1.00  0.00    -0.000 C 
BRANCH  18  19
ATOM     19  C   UNL     1       7.887 -13.511  34.808  1.00  0.00    -0.003 C 
ATOM     20  C   UNL     1       8.491 -12.295  34.107  1.00  0.00     0.004 C 
ENDBRANCH  18  19
ENDBRANCH  17  18
ENDBRANCH  16  17
ENDBRANCH  15  16
ENDBRANCH  14  15
ENDBRANCH  13  14
ENDBRANCH   2  13
TORSDOF 15
ENDMDL
MODEL 5
REMARK VINA RESULT:    -5.563      2.398      5.647
REMARK INTER + INTRA:         -13.062
REMARK INTER:                 -10.820
REMARK INTRA:                  -2.242
REMARK UNBOUND:                -2.620
REMARK SMILES CCCCCCCCC=CCCCCCCCC(=O)[O-]
REMARK SMILES IDX 10 1 9 2 11 3 12 4 13 5 14 6 15 7 16 8 17 9 18 10 19 11
REMARK SMILES IDX 20 12 8 13 7 14 6 15 5 16 4 17 3 18 2 19 1 20
REMARK H PARENT
REMARK Flexibility Score: inf
ROOT
ATOM      1  C   UNL     1       7.964 -13.937  35.843  1.00  0.00    -0.031 C 
ATOM      2  C   UNL     1       7.744 -13.239  36.966  1.00  0.00    -0.031 C 
ENDROOT
BRANCH   1   3
ATOM      3  C   UNL     1       7.847 -13.306  34.483  1.00  0.00     0.027 C 
BRANCH   3   4
ATOM      4  C   UNL     1       8.421 -11.879  34.424  1.00  0.00     0.004 C 
BRANCH   4   5
ATOM      5  C   UNL     1       9.938 -11.799  34.698  1.00  0.00     0.000 C 
BRANCH   5   6
ATOM      6  C   UNL     1      10.340 -10.961  35.928  1.00  0.00     0.000 C 
BRANCH   6   7
ATOM      7  C   UNL     1      11.371  -9.863  35.599  1.00  0.00     0.000 C 
BRANCH   7   8
ATOM      8  C   UNL     1      11.984  -9.226  36.858  1.00  0.00     0.006 C 
BRANCH   8   9
ATOM      9  C   UNL     1      12.858 -10.188  37.683  1.00  0.00     0.053 C 
BRANCH   9  10
ATOM     10  C   UNL     1      12.433 -10.324  39.119  1.00  0.00     0.041 C 
ATOM     11  O   UNL     1      11.227 -10.516  39.430  1.00  0.00    -0.550 OA
ATOM     12  O   UNL     1      13.376 -10.153  40.125  1.00  0.00    -0.550 OA
ENDBRANCH   9  10
ENDBRANCH   8   9
ENDBRANCH   7   8
ENDBRANCH   6   7
ENDBRANCH   5   6
ENDBRANCH   4   5
ENDBRANCH   3   4
ENDBRANCH   1   3
BRANCH   2  13
ATOM     13  C   UNL     1       7.896 -13.870  38.321  1.00  0.00     0.027 C 
BRANCH  13  14
ATOM     14  C   UNL     1       9.241 -14.598  38.480  1.00  0.00     0.004 C 
BRANCH  14  15
ATOM     15  C   UNL     1      10.469 -13.764  38.061  1.00  0.00     0.000 C 
BRANCH  15  16
ATOM     16  C   UNL     1      11.397 -14.442  37.036  1.00  0.00     0.000 C 
BRANCH  16  17
ATOM     17  C   UNL     1      12.692 -13.650  36.786  1.00  0.00    -0.000 C 
BRANCH  17  18
ATOM     18  C   UNL     1      12.986 -13.446  35.289  1.00  0.00    -0.000 C 
BRANCH  18  19
ATOM     19  C   UNL     1      14.354 -12.810  34.982  1.00  0.00    -0.003 C 
ATOM     20  C   UNL     1      14.247 -11.367  34.488  1.00  0.00     0.004 C 
ENDBRANCH  18  19
ENDBRANCH  17  18
ENDBRANCH  16  17
ENDBRANCH  15  16
ENDBRANCH  14  15
ENDBRANCH  13  14
ENDBRANCH   2  13
TORSDOF 15
ENDMDL
MODEL 6
REMARK VINA RESULT:    -5.413      2.007      3.466
REMARK INTER + INTRA:         -12.779
REMARK INTER:                 -10.801
REMARK INTRA:                  -1.978
REMARK UNBOUND:                -2.620
REMARK SMILES CCCCCCCCC=CCCCCCCCC(=O)[O-]
REMARK SMILES IDX 10 1 9 2 11 3 12 4 13 5 14 6 15 7 16 8 17 9 18 10 19 11
REMARK SMILES IDX 20 12 8 13 7 14 6 15 5 16 4 17 3 18 2 19 1 20
REMARK H PARENT
REMARK Flexibility Score: inf
ROOT
ATOM      1  C   UNL     1       9.113 -12.116  33.944  1.00  0.00    -0.031 C 
ATOM      2  C   UNL     1      10.037 -11.938  34.898  1.00  0.00    -0.031 C 
ENDROOT
BRANCH   1   3
ATOM      3  C   UNL     1       7.830 -12.852  34.211  1.00  0.00     0.027 C 
BRANCH   3   4
ATOM      4  C   UNL     1       7.807 -13.554  35.581  1.00  0.00     0.004 C 
BRANCH   4   5
ATOM      5  C   UNL     1       7.253 -12.681  36.727  1.00  0.00     0.000 C 
BRANCH   5   6
ATOM      6  C   UNL     1       8.029 -12.771  38.055  1.00  0.00     0.000 C 
BRANCH   6   7
ATOM      7  C   UNL     1       7.992 -14.178  38.682  1.00  0.00     0.000 C 
BRANCH   7   8
ATOM      8  C   UNL     1       9.358 -14.884  38.640  1.00  0.00     0.006 C 
BRANCH   8   9
ATOM      9  C   UNL     1      10.505 -13.997  38.122  1.00  0.00     0.053 C 
BRANCH   9  10
ATOM     10  C   UNL     1      11.449 -14.700  37.186  1.00  0.00     0.041 C 
ATOM     11  O   UNL     1      11.024 -15.456  36.273  1.00  0.00    -0.550 OA
ATOM     12  O   UNL     1      12.818 -14.577  37.385  1.00  0.00    -0.550 OA
ENDBRANCH   9  10
ENDBRANCH   8   9
ENDBRANCH   7   8
ENDBRANCH   6   7
ENDBRANCH   5   6
ENDBRANCH   4   5
ENDBRANCH   3   4
ENDBRANCH   1   3
BRANCH   2  13
ATOM     13  C   UNL     1      11.301 -11.171  34.629  1.00  0.00     0.027 C 
BRANCH  13  14
ATOM     14  C   UNL     1      12.553 -11.918  35.115  1.00  0.00     0.004 C 
BRANCH  14  15
ATOM     15  C   UNL     1      13.334 -11.191  36.231  1.00  0.00     0.000 C 
BRANCH  15  16
ATOM     16  C   UNL     1      13.112  -9.669  36.295  1.00  0.00     0.000 C 
BRANCH  16  17
ATOM     17  C   UNL     1      12.113  -9.257  37.390  1.00  0.00    -0.000 C 
BRANCH  17  18
ATOM     18  C   UNL     1      11.567 -10.459  38.182  1.00  0.00    -0.000 C 
BRANCH  18  19
ATOM     19  C   UNL     1      11.876 -10.430  39.690  1.00  0.00    -0.003 C 
ATOM     20  C   UNL     1      13.372 -10.367  39.996  1.00  0.00     0.004 C 
ENDBRANCH  18  19
ENDBRANCH  17  18
ENDBRANCH  16  17
ENDBRANCH  15  16
ENDBRANCH  14  15
ENDBRANCH  13  14
ENDBRANCH   2  13
TORSDOF 15
ENDMDL
MODEL 7
REMARK VINA RESULT:    -5.324      1.123      2.605
REMARK INTER + INTRA:         -12.614
REMARK INTER:                 -10.739
REMARK INTRA:                  -1.875
REMARK UNBOUND:                -2.620
REMARK SMILES CCCCCCCCC=CCCCCCCCC(=O)[O-]
REMARK SMILES IDX 10 1 9 2 11 3 12 4 13 5 14 6 15 7 16 8 17 9 18 10 19 11
REMARK SMILES IDX 20 12 8 13 7 14 6 15 5 16 4 17 3 18 2 19 1 20
REMARK H PARENT
REMARK Flexibility Score: inf
ROOT
ATOM      1  C   UNL     1      10.257 -14.666  38.118  1.00  0.00    -0.031 C 
ATOM      2  C   UNL     1      10.590 -15.278  36.973  1.00  0.00    -0.031 C 
ENDROOT
BRANCH   1   3
ATOM      3  C   UNL     1       9.006 -15.022  38.872  1.00  0.00     0.027 C 
BRANCH   3   4
ATOM      4  C   UNL     1       7.895 -13.965  38.737  1.00  0.00     0.004 C 
BRANCH   4   5
ATOM      5  C   UNL     1       8.400 -12.508  38.818  1.00  0.00     0.000 C 
BRANCH   5   6
ATOM      6  C   UNL     1       8.683 -11.834  37.462  1.00  0.00     0.000 C 
BRANCH   6   7
ATOM      7  C   UNL     1       7.475 -11.051  36.912  1.00  0.00     0.000 C 
BRANCH   7   8
ATOM      8  C   UNL     1       6.873 -11.693  35.651  1.00  0.00     0.006 C 
BRANCH   8   9
ATOM      9  C   UNL     1       7.574 -12.993  35.215  1.00  0.00     0.053 C 
BRANCH   9  10
ATOM     10  C   UNL     1       8.114 -12.957  33.812  1.00  0.00     0.041 C 
ATOM     11  O   UNL     1       8.931 -12.070  33.448  1.00  0.00    -0.550 OA
ATOM     12  O   UNL     1       7.640 -13.871  32.880  1.00  0.00    -0.550 OA
ENDBRANCH   9  10
ENDBRANCH   8   9
ENDBRANCH   7   8
ENDBRANCH   6   7
ENDBRANCH   5   6
ENDBRANCH   4   5
ENDBRANCH   3   4
ENDBRANCH   1   3
BRANCH   2  13
ATOM     13  C   UNL     1      11.860 -14.939  36.246  1.00  0.00     0.027 C 
BRANCH  13  14
ATOM     14  C   UNL     1      12.310 -13.490  36.497  1.00  0.00     0.004 C 
BRANCH  14  15
ATOM     15  C   UNL     1      11.744 -12.466  35.491  1.00  0.00     0.000 C 
BRANCH  15  16
ATOM     16  C   UNL     1      12.620 -11.219  35.270  1.00  0.00     0.000 C 
BRANCH  16  17
ATOM     17  C   UNL     1      12.512 -10.201  36.419  1.00  0.00    -0.000 C 
BRANCH  17  18
ATOM     18  C   UNL     1      13.510 -10.479  37.557  1.00  0.00    -0.000 C 
BRANCH  18  19
ATOM     19  C   UNL     1      12.984 -10.159  38.968  1.00  0.00    -0.003 C 
ATOM     20  C   UNL     1      11.512 -10.528  39.158  1.00  0.00     0.004 C 
ENDBRANCH  18  19
ENDBRANCH  17  18
ENDBRANCH  16  17
ENDBRANCH  15  16
ENDBRANCH  14  15
ENDBRANCH  13  14
ENDBRANCH   2  13
TORSDOF 15
ENDMDL
MODEL 8
REMARK VINA RESULT:    -5.308      1.081      3.463
REMARK INTER + INTRA:         -12.584
REMARK INTER:                 -10.610
REMARK INTRA:                  -1.974
REMARK UNBOUND:                -2.620
REMARK SMILES CCCCCCCCC=CCCCCCCCC(=O)[O-]
REMARK SMILES IDX 10 1 9 2 11 3 12 4 13 5 14 6 15 7 16 8 17 9 18 10 19 11
REMARK SMILES IDX 20 12 8 13 7 14 6 15 5 16 4 17 3 18 2 19 1 20
REMARK H PARENT
REMARK Flexibility Score: inf
ROOT
ATOM      1  C   UNL     1      13.308 -10.716  38.151  1.00  0.00    -0.031 C 
ATOM      2  C   UNL     1      13.198 -10.043  36.997  1.00  0.00    -0.031 C 
ENDROOT
BRANCH   1   3
ATOM      3  C   UNL     1      12.569 -10.292  39.389  1.00  0.00     0.027 C 
BRANCH   3   4
ATOM      4  C   UNL     1      11.040 -10.383  39.244  1.00  0.00     0.004 C 
BRANCH   4   5
ATOM      5  C   UNL     1      10.554 -11.626  38.468  1.00  0.00     0.000 C 
BRANCH   5   6
ATOM      6  C   UNL     1       9.062 -11.969  38.644  1.00  0.00     0.000 C 
BRANCH   6   7
ATOM      7  C   UNL     1       8.221 -11.668  37.388  1.00  0.00     0.000 C 
BRANCH   7   8
ATOM      8  C   UNL     1       8.014 -12.906  36.498  1.00  0.00     0.006 C 
BRANCH   8   9
ATOM      9  C   UNL     1       7.286 -12.610  35.174  1.00  0.00     0.053 C 
BRANCH   9  10
ATOM     10  C   UNL     1       8.130 -12.830  33.949  1.00  0.00     0.041 C 
ATOM     11  O   UNL     1       9.123 -12.097  33.698  1.00  0.00    -0.550 OA
ATOM     12  O   UNL     1       7.759 -13.809  33.036  1.00  0.00    -0.550 OA
ENDBRANCH   9  10
ENDBRANCH   8   9
ENDBRANCH   7   8
ENDBRANCH   6   7
ENDBRANCH   5   6
ENDBRANCH   4   5
ENDBRANCH   3   4
ENDBRANCH   1   3
BRANCH   2  13
ATOM     13  C   UNL     1      13.915 -10.496  35.757  1.00  0.00     0.027 C 
BRANCH  13  14
ATOM     14  C   UNL     1      12.965 -11.134  34.731  1.00  0.00     0.004 C 
BRANCH  14  15
ATOM     15  C   UNL     1      12.324 -12.458  35.195  1.00  0.00     0.000 C 
BRANCH  15  16
ATOM     16  C   UNL     1      13.272 -13.412  35.946  1.00  0.00     0.000 C 
BRANCH  16  17
ATOM     17  C   UNL     1      12.541 -14.294  36.973  1.00  0.00    -0.000 C 
BRANCH  17  18
ATOM     18  C   UNL     1      11.106 -14.646  36.543  1.00  0.00    -0.000 C 
BRANCH  18  19
ATOM     19  C   UNL     1      10.459 -15.795  37.337  1.00  0.00    -0.003 C 
ATOM     20  C   UNL     1       9.876 -15.346  38.677  1.00  0.00     0.004 C 
ENDBRANCH  18  19
ENDBRANCH  17  18
ENDBRANCH  16  17
ENDBRANCH  15  16
ENDBRANCH  14  15
ENDBRANCH  13  14
ENDBRANCH   2  13
TORSDOF 15
ENDMDL
MODEL 9
REMARK VINA RESULT:    -5.261      2.226      5.083
REMARK INTER + INTRA:         -12.496
REMARK INTER:                  -9.842
REMARK INTRA:                  -2.653
REMARK UNBOUND:                -2.620
REMARK SMILES CCCCCCCCC=CCCCCCCCC(=O)[O-]
REMARK SMILES IDX 10 1 9 2 11 3 12 4 13 5 14 6 15 7 16 8 17 9 18 10 19 11
REMARK SMILES IDX 20 12 8 13 7 14 6 15 5 16 4 17 3 18 2 19 1 20
REMARK H PARENT
REMARK Flexibility Score: inf
ROOT
ATOM      1  C   UNL     1       8.223 -14.052  37.264  1.00  0.00    -0.031 C 
ATOM      2  C   UNL     1       8.819 -14.217  38.454  1.00  0.00    -0.031 C 
ENDROOT
BRANCH   1   3
ATOM      3  C   UNL     1       7.084 -13.090  37.076  1.00  0.00     0.027 C 
BRANCH   3   4
ATOM      4  C   UNL     1       6.968 -12.561  35.635  1.00  0.00     0.004 C 
BRANCH   4   5
ATOM      5  C   UNL     1       8.067 -13.080  34.684  1.00  0.00     0.000 C 
BRANCH   5   6
ATOM      6  C   UNL     1       9.079 -12.019  34.208  1.00  0.00     0.000 C 
BRANCH   6   7
ATOM      7  C   UNL     1      10.308 -11.901  35.130  1.00  0.00     0.000 C 
BRANCH   7   8
ATOM      8  C   UNL     1      10.062 -10.975  36.334  1.00  0.00     0.006 C 
BRANCH   8   9
ATOM      9  C   UNL     1      10.994 -11.244  37.530  1.00  0.00     0.053 C 
BRANCH   9  10
ATOM     10  C   UNL     1      11.962 -10.130  37.816  1.00  0.00     0.041 C 
ATOM     11  O   UNL     1      12.590 -10.072  38.907  1.00  0.00    -0.550 OA
ATOM     12  O   UNL     1      12.104  -9.101  36.893  1.00  0.00    -0.550 OA
ENDBRANCH   9  10
ENDBRANCH   8   9
ENDBRANCH   7   8
ENDBRANCH   6   7
ENDBRANCH   5   6
ENDBRANCH   4   5
ENDBRANCH   3   4
ENDBRANCH   1   3
BRANCH   2  13
ATOM     13  C   UNL     1       9.978 -15.158  38.623  1.00  0.00     0.027 C 
BRANCH  13  14
ATOM     14  C   UNL     1      10.454 -15.749  37.287  1.00  0.00     0.004 C 
BRANCH  14  15
ATOM     15  C   UNL     1      11.541 -14.916  36.574  1.00  0.00     0.000 C 
BRANCH  15  16
ATOM     16  C   UNL     1      12.790 -14.616  37.422  1.00  0.00     0.000 C 
BRANCH  16  17
ATOM     17  C   UNL     1      13.601 -13.421  36.890  1.00  0.00    -0.000 C 
BRANCH  17  18
ATOM     18  C   UNL     1      13.476 -13.248  35.365  1.00  0.00    -0.000 C 
BRANCH  18  19
ATOM     19  C   UNL     1      14.427 -12.203  34.755  1.00  0.00    -0.003 C 
ATOM     20  C   UNL     1      13.724 -10.898  34.380  1.00  0.00     0.004 C 
ENDBRANCH  18  19
ENDBRANCH  17  18
ENDBRANCH  16  17
ENDBRANCH  15  16
ENDBRANCH  14  15
ENDBRANCH  13  14
ENDBRANCH   2  13
TORSDOF 15
ENDMDL
