MODEL 1
REMARK VINA RESULT:    -3.170      0.000      0.000
REMARK INTER + INTRA:         -10.808
REMARK INTER:                  -6.877
REMARK INTRA:                  -3.931
REMARK UNBOUND:                -3.931
REMARK SMILES CCCCCCCCCCCCCCCCCCCCCC(=O)[O-]
REMARK SMILES IDX 12 1 11 2 10 3 9 4 8 5 7 6 6 7 5 8 4 9 3 10 2 11 1 12 13 13
REMARK SMILES IDX 14 14 15 15 16 16 17 17 18 18 19 19 20 20 21 21 22 22 23 23
REMARK SMILES IDX 24 24
REMARK H PARENT
REMARK Flexibility Score: inf
ROOT
ATOM      1  C   UNL     1      52.106  34.799  86.785  1.00  0.00     0.000 C 
ENDROOT
BRANCH   1   2
ATOM      2  C   UNL     1      53.239  33.791  87.056  1.00  0.00     0.000 C 
BRANCH   2   3
ATOM      3  C   UNL     1      52.879  32.353  86.649  1.00  0.00     0.000 C 
BRANCH   3   4
ATOM      4  C   UNL     1      52.443  31.488  87.844  1.00  0.00    -0.000 C 
BRANCH   4   5
ATOM      5  C   UNL     1      52.899  32.039  89.212  1.00  0.00    -0.000 C 
BRANCH   5   6
ATOM      6  C   UNL     1      51.725  32.200  90.191  1.00  0.00    -0.000 C 
BRANCH   6   7
ATOM      7  C   UNL     1      50.501  31.401  89.725  1.00  0.00    -0.000 C 
BRANCH   7   8
ATOM      8  C   UNL     1      49.752  30.802  90.924  1.00  0.00    -0.000 C 
BRANCH   8   9
ATOM      9  C   UNL     1      48.350  30.282  90.557  1.00  0.00    -0.000 C 
BRANCH   9  10
ATOM     10  C   UNL     1      47.199  31.278  90.805  1.00  0.00    -0.000 C 
BRANCH  10  11
ATOM     11  C   UNL     1      46.045  31.200  89.789  1.00  0.00    -0.003 C 
ATOM     12  C   UNL     1      46.506  30.791  88.391  1.00  0.00     0.004 C 
ENDBRANCH  10  11
ENDBRANCH   9  10
ENDBRANCH   8   9
ENDBRANCH   7   8
ENDBRANCH   6   7
ENDBRANCH   5   6
ENDBRANCH   4   5
ENDBRANCH   3   4
ENDBRANCH   2   3
ENDBRANCH   1   2
BRANCH   1  13
ATOM     13  C   UNL     1      51.352  35.293  88.034  1.00  0.00     0.000 C 
BRANCH  13  14
ATOM     14  C   UNL     1      49.837  35.434  87.805  1.00  0.00     0.000 C 
BRANCH  14  15
ATOM     15  C   UNL     1      49.076  34.122  88.069  1.00  0.00     0.000 C 
BRANCH  15  16
ATOM     16  C   UNL     1      48.436  33.557  86.789  1.00  0.00     0.000 C 
BRANCH  16  17
ATOM     17  C   UNL     1      49.184  32.335  86.229  1.00  0.00     0.000 C 
BRANCH  17  18
ATOM     18  C   UNL     1      49.638  32.463  84.763  1.00  0.00     0.000 C 
BRANCH  18  19
ATOM     19  C   UNL     1      49.617  33.914  84.253  1.00  0.00     0.000 C 
BRANCH  19  20
ATOM     20  C   UNL     1      50.501  34.121  83.012  1.00  0.00     0.006 C 
BRANCH  20  21
ATOM     21  C   UNL     1      51.852  33.403  83.122  1.00  0.00     0.053 C 
BRANCH  21  22
ATOM     22  C   UNL     1      52.969  34.335  82.778  1.00  0.00     0.041 C 
ATOM     23  O   UNL     1      53.808  34.671  83.656  1.00  0.00    -0.550 OA
ATOM     24  O   UNL     1      53.116  34.794  81.475  1.00  0.00    -0.550 OA
ENDBRANCH  21  22
ENDBRANCH  20  21
ENDBRANCH  19  20
ENDBRANCH  18  19
ENDBRANCH  17  18
ENDBRANCH  16  17
ENDBRANCH  15  16
ENDBRANCH  14  15
ENDBRANCH  13  14
ENDBRANCH   1  13
TORSDOF 20
ENDMDL
MODEL 2
REMARK VINA RESULT:    -3.119      4.029      7.385
REMARK INTER + INTRA:         -10.696
REMARK INTER:                  -6.791
REMARK INTRA:                  -3.904
REMARK UNBOUND:                -3.931
REMARK SMILES CCCCCCCCCCCCCCCCCCCCCC(=O)[O-]
REMARK SMILES IDX 12 1 11 2 10 3 9 4 8 5 7 6 6 7 5 8 4 9 3 10 2 11 1 12 13 13
REMARK SMILES IDX 14 14 15 15 16 16 17 17 18 18 19 19 20 20 21 21 22 22 23 23
REMARK SMILES IDX 24 24
REMARK H PARENT
REMARK Flexibility Score: inf
ROOT
ATOM      1  C   UNL     1      49.506  30.852  86.735  1.00  0.00     0.000 C 
ENDROOT
BRANCH   1   2
ATOM      2  C   UNL     1      48.508  31.894  86.195  1.00  0.00     0.000 C 
BRANCH   2   3
ATOM      3  C   UNL     1      48.243  33.044  87.180  1.00  0.00     0.000 C 
BRANCH   3   4
ATOM      4  C   UNL     1      48.528  34.427  86.570  1.00  0.00    -0.000 C 
BRANCH   4   5
ATOM      5  C   UNL     1      49.330  35.365  87.498  1.00  0.00    -0.000 C 
BRANCH   5   6
ATOM      6  C   UNL     1      50.458  34.624  88.233  1.00  0.00    -0.000 C 
BRANCH   6   7
ATOM      7  C   UNL     1      51.832  35.188  87.850  1.00  0.00    -0.000 C 
BRANCH   7   8
ATOM      8  C   UNL     1      52.909  34.095  87.918  1.00  0.00    -0.000 C 
BRANCH   8   9
ATOM      9  C   UNL     1      53.357  33.605  86.530  1.00  0.00    -0.000 C 
BRANCH   9  10
ATOM     10  C   UNL     1      52.604  34.235  85.340  1.00  0.00    -0.000 C 
BRANCH  10  11
ATOM     11  C   UNL     1      51.627  33.290  84.619  1.00  0.00    -0.003 C 
ATOM     12  C   UNL     1      50.686  34.020  83.660  1.00  0.00     0.004 C 
ENDBRANCH  10  11
ENDBRANCH   9  10
ENDBRANCH   8   9
ENDBRANCH   7   8
ENDBRANCH   6   7
ENDBRANCH   5   6
ENDBRANCH   4   5
ENDBRANCH   3   4
ENDBRANCH   2   3
ENDBRANCH   1   2
BRANCH   1  13
ATOM     13  C   UNL     1      50.486  31.371  87.804  1.00  0.00     0.000 C 
BRANCH  13  14
ATOM     14  C   UNL     1      51.558  30.338  88.190  1.00  0.00     0.000 C 
BRANCH  14  15
ATOM     15  C   UNL     1      52.012  30.476  89.655  1.00  0.00     0.000 C 
BRANCH  15  16
ATOM     16  C   UNL     1      51.156  31.492  90.432  1.00  0.00     0.000 C 
BRANCH  16  17
ATOM     17  C   UNL     1      50.302  30.843  91.535  1.00  0.00     0.000 C 
BRANCH  17  18
ATOM     18  C   UNL     1      48.977  30.224  91.056  1.00  0.00     0.000 C 
BRANCH  18  19
ATOM     19  C   UNL     1      47.988  31.268  90.510  1.00  0.00     0.000 C 
BRANCH  19  20
ATOM     20  C   UNL     1      46.889  30.646  89.634  1.00  0.00     0.006 C 
BRANCH  20  21
ATOM     21  C   UNL     1      45.482  31.113  90.031  1.00  0.00     0.053 C 
BRANCH  21  22
ATOM     22  C   UNL     1      45.215  30.800  91.469  1.00  0.00     0.041 C 
ATOM     23  O   UNL     1      44.851  31.713  92.258  1.00  0.00    -0.550 OA
ATOM     24  O   UNL     1      45.317  29.493  91.927  1.00  0.00    -0.550 OA
ENDBRANCH  21  22
ENDBRANCH  20  21
ENDBRANCH  19  20
ENDBRANCH  18  19
ENDBRANCH  17  18
ENDBRANCH  16  17
ENDBRANCH  15  16
ENDBRANCH  14  15
ENDBRANCH  13  14
ENDBRANCH   1  13
TORSDOF 20
ENDMDL
MODEL 3
REMARK VINA RESULT:    -3.066      4.346      7.724
REMARK INTER + INTRA:         -10.581
REMARK INTER:                  -6.975
REMARK INTRA:                  -3.606
REMARK UNBOUND:                -3.931
REMARK SMILES CCCCCCCCCCCCCCCCCCCCCC(=O)[O-]
REMARK SMILES IDX 12 1 11 2 10 3 9 4 8 5 7 6 6 7 5 8 4 9 3 10 2 11 1 12 13 13
REMARK SMILES IDX 14 14 15 15 16 16 17 17 18 18 19 19 20 20 21 21 22 22 23 23
REMARK SMILES IDX 24 24
REMARK H PARENT
REMARK Flexibility Score: inf
ROOT
ATOM      1  C   UNL     1      48.566  30.309  87.627  1.00  0.00     0.000 C 
ENDROOT
BRANCH   1   2
ATOM      2  C   UNL     1      47.614  31.494  87.376  1.00  0.00     0.000 C 
BRANCH   2   3
ATOM      3  C   UNL     1      48.034  32.774  88.117  1.00  0.00     0.000 C 
BRANCH   3   4
ATOM      4  C   UNL     1      48.401  33.922  87.161  1.00  0.00    -0.000 C 
BRANCH   4   5
ATOM      5  C   UNL     1      49.480  34.876  87.716  1.00  0.00    -0.000 C 
BRANCH   5   6
ATOM      6  C   UNL     1      50.882  34.531  87.191  1.00  0.00    -0.000 C 
BRANCH   6   7
ATOM      7  C   UNL     1      50.811  33.511  86.049  1.00  0.00    -0.000 C 
BRANCH   7   8
ATOM      8  C   UNL     1      50.943  34.206  84.686  1.00  0.00    -0.000 C 
BRANCH   8   9
ATOM      9  C   UNL     1      50.294  33.411  83.540  1.00  0.00    -0.000 C 
BRANCH   9  10
ATOM     10  C   UNL     1      49.286  32.331  83.984  1.00  0.00    -0.000 C 
BRANCH  10  11
ATOM     11  C   UNL     1      47.811  32.667  83.705  1.00  0.00    -0.003 C 
ATOM     12  C   UNL     1      46.895  31.445  83.774  1.00  0.00     0.004 C 
ENDBRANCH  10  11
ENDBRANCH   9  10
ENDBRANCH   8   9
ENDBRANCH   7   8
ENDBRANCH   6   7
ENDBRANCH   5   6
ENDBRANCH   4   5
ENDBRANCH   3   4
ENDBRANCH   2   3
ENDBRANCH   1   2
BRANCH   1  13
ATOM     13  C   UNL     1      50.032  30.545  87.218  1.00  0.00     0.000 C 
BRANCH  13  14
ATOM     14  C   UNL     1      51.023  30.321  88.374  1.00  0.00     0.000 C 
BRANCH  14  15
ATOM     15  C   UNL     1      50.961  31.438  89.430  1.00  0.00     0.000 C 
BRANCH  15  16
ATOM     16  C   UNL     1      50.768  30.881  90.851  1.00  0.00     0.000 C 
BRANCH  16  17
ATOM     17  C   UNL     1      49.296  30.867  91.299  1.00  0.00     0.000 C 
BRANCH  17  18
ATOM     18  C   UNL     1      48.574  29.518  91.125  1.00  0.00     0.000 C 
BRANCH  18  19
ATOM     19  C   UNL     1      47.045  29.661  91.041  1.00  0.00     0.000 C 
BRANCH  19  20
ATOM     20  C   UNL     1      46.586  31.128  91.014  1.00  0.00     0.006 C 
BRANCH  20  21
ATOM     21  C   UNL     1      45.083  31.272  90.738  1.00  0.00     0.053 C 
BRANCH  21  22
ATOM     22  C   UNL     1      44.297  31.038  91.988  1.00  0.00     0.041 C 
ATOM     23  O   UNL     1      43.646  29.969  92.137  1.00  0.00    -0.550 OA
ATOM     24  O   UNL     1      44.324  31.976  93.012  1.00  0.00    -0.550 OA
ENDBRANCH  21  22
ENDBRANCH  20  21
ENDBRANCH  19  20
ENDBRANCH  18  19
ENDBRANCH  17  18
ENDBRANCH  16  17
ENDBRANCH  15  16
ENDBRANCH  14  15
ENDBRANCH  13  14
ENDBRANCH   1  13
TORSDOF 20
ENDMDL
MODEL 4
REMARK VINA RESULT:    -3.063      4.363      7.537
REMARK INTER + INTRA:         -10.574
REMARK INTER:                  -7.087
REMARK INTRA:                  -3.487
REMARK UNBOUND:                -3.931
REMARK SMILES CCCCCCCCCCCCCCCCCCCCCC(=O)[O-]
REMARK SMILES IDX 12 1 11 2 10 3 9 4 8 5 7 6 6 7 5 8 4 9 3 10 2 11 1 12 13 13
REMARK SMILES IDX 14 14 15 15 16 16 17 17 18 18 19 19 20 20 21 21 22 22 23 23
REMARK SMILES IDX 24 24
REMARK H PARENT
REMARK Flexibility Score: inf
ROOT
ATOM      1  C   UNL     1      52.502  32.679  87.871  1.00  0.00     0.000 C 
ENDROOT
BRANCH   1   2
ATOM      2  C   UNL     1      52.051  34.114  88.203  1.00  0.00     0.000 C 
BRANCH   2   3
ATOM      3  C   UNL     1      51.134  34.724  87.129  1.00  0.00     0.000 C 
BRANCH   3   4
ATOM      4  C   UNL     1      49.864  35.357  87.722  1.00  0.00    -0.000 C 
BRANCH   4   5
ATOM      5  C   UNL     1      48.553  34.720  87.213  1.00  0.00    -0.000 C 
BRANCH   5   6
ATOM      6  C   UNL     1      48.282  33.356  87.867  1.00  0.00    -0.000 C 
BRANCH   6   7
ATOM      7  C   UNL     1      47.977  32.286  86.811  1.00  0.00    -0.000 C 
BRANCH   7   8
ATOM      8  C   UNL     1      49.268  31.601  86.338  1.00  0.00    -0.000 C 
BRANCH   8   9
ATOM      9  C   UNL     1      49.465  31.678  84.814  1.00  0.00    -0.000 C 
BRANCH   9  10
ATOM     10  C   UNL     1      48.290  32.302  84.034  1.00  0.00    -0.000 C 
BRANCH  10  11
ATOM     11  C   UNL     1      48.693  33.357  82.989  1.00  0.00    -0.003 C 
ATOM     12  C   UNL     1      49.457  34.535  83.593  1.00  0.00     0.004 C 
ENDBRANCH  10  11
ENDBRANCH   9  10
ENDBRANCH   8   9
ENDBRANCH   7   8
ENDBRANCH   6   7
ENDBRANCH   5   6
ENDBRANCH   4   5
ENDBRANCH   3   4
ENDBRANCH   2   3
ENDBRANCH   1   2
BRANCH   1  13
ATOM     13  C   UNL     1      51.945  31.583  88.798  1.00  0.00     0.000 C 
BRANCH  13  14
ATOM     14  C   UNL     1      51.165  32.148  89.998  1.00  0.00     0.000 C 
BRANCH  14  15
ATOM     15  C   UNL     1      50.414  31.056  90.781  1.00  0.00     0.000 C 
BRANCH  15  16
ATOM     16  C   UNL     1      48.894  31.124  90.556  1.00  0.00     0.000 C 
BRANCH  16  17
ATOM     17  C   UNL     1      48.326  29.862  89.882  1.00  0.00     0.000 C 
BRANCH  17  18
ATOM     18  C   UNL     1      46.804  29.876  89.648  1.00  0.00     0.000 C 
BRANCH  18  19
ATOM     19  C   UNL     1      46.171  31.256  89.894  1.00  0.00     0.000 C 
BRANCH  19  20
ATOM     20  C   UNL     1      44.774  31.166  90.529  1.00  0.00     0.006 C 
BRANCH  20  21
ATOM     21  C   UNL     1      44.804  31.350  92.051  1.00  0.00     0.053 C 
BRANCH  21  22
ATOM     22  C   UNL     1      44.404  30.084  92.739  1.00  0.00     0.041 C 
ATOM     23  O   UNL     1      43.318  30.024  93.375  1.00  0.00    -0.550 OA
ATOM     24  O   UNL     1      45.205  28.954  92.637  1.00  0.00    -0.550 OA
ENDBRANCH  21  22
ENDBRANCH  20  21
ENDBRANCH  19  20
ENDBRANCH  18  19
ENDBRANCH  17  18
ENDBRANCH  16  17
ENDBRANCH  15  16
ENDBRANCH  14  15
ENDBRANCH  13  14
ENDBRANCH   1  13
TORSDOF 20
ENDMDL
MODEL 5
REMARK VINA RESULT:    -3.063      3.902      7.519
REMARK INTER + INTRA:         -10.574
REMARK INTER:                  -7.527
REMARK INTRA:                  -3.047
REMARK UNBOUND:                -3.931
REMARK SMILES CCCCCCCCCCCCCCCCCCCCCC(=O)[O-]
REMARK SMILES IDX 12 1 11 2 10 3 9 4 8 5 7 6 6 7 5 8 4 9 3 10 2 11 1 12 13 13
REMARK SMILES IDX 14 14 15 15 16 16 17 17 18 18 19 19 20 20 21 21 22 22 23 23
REMARK SMILES IDX 24 24
REMARK H PARENT
REMARK Flexibility Score: inf
ROOT
ATOM      1  C   UNL     1      48.247  33.444  87.788  1.00  0.00     0.000 C 
ENDROOT
BRANCH   1   2
ATOM      2  C   UNL     1      48.637  34.732  87.039  1.00  0.00     0.000 C 
BRANCH   2   3
ATOM      3  C   UNL     1      49.547  35.658  87.863  1.00  0.00     0.000 C 
BRANCH   3   4
ATOM      4  C   UNL     1      51.018  35.209  87.853  1.00  0.00    -0.000 C 
BRANCH   4   5
ATOM      5  C   UNL     1      51.494  34.659  86.492  1.00  0.00    -0.000 C 
BRANCH   5   6
ATOM      6  C   UNL     1      52.696  33.712  86.638  1.00  0.00    -0.000 C 
BRANCH   6   7
ATOM      7  C   UNL     1      53.052  33.057  85.298  1.00  0.00    -0.000 C 
BRANCH   7   8
ATOM      8  C   UNL     1      52.490  33.873  84.125  1.00  0.00    -0.000 C 
BRANCH   8   9
ATOM      9  C   UNL     1      51.532  33.063  83.234  1.00  0.00    -0.000 C 
BRANCH   9  10
ATOM     10  C   UNL     1      50.113  32.869  83.808  1.00  0.00    -0.000 C 
BRANCH  10  11
ATOM     11  C   UNL     1      49.012  33.674  83.097  1.00  0.00    -0.003 C 
ATOM     12  C   UNL     1      49.543  34.527  81.944  1.00  0.00     0.004 C 
ENDBRANCH  10  11
ENDBRANCH   9  10
ENDBRANCH   8   9
ENDBRANCH   7   8
ENDBRANCH   6   7
ENDBRANCH   5   6
ENDBRANCH   4   5
ENDBRANCH   3   4
ENDBRANCH   2   3
ENDBRANCH   1   2
BRANCH   1  13
ATOM     13  C   UNL     1      48.412  32.139  86.986  1.00  0.00     0.000 C 
BRANCH  13  14
ATOM     14  C   UNL     1      49.585  31.274  87.478  1.00  0.00     0.000 C 
BRANCH  14  15
ATOM     15  C   UNL     1      50.237  31.834  88.755  1.00  0.00     0.000 C 
BRANCH  15  16
ATOM     16  C   UNL     1      50.465  30.742  89.815  1.00  0.00     0.000 C 
BRANCH  16  17
ATOM     17  C   UNL     1      49.414  30.761  90.938  1.00  0.00     0.000 C 
BRANCH  17  18
ATOM     18  C   UNL     1      48.607  29.460  91.100  1.00  0.00     0.000 C 
BRANCH  18  19
ATOM     19  C   UNL     1      47.225  29.522  90.429  1.00  0.00     0.000 C 
BRANCH  19  20
ATOM     20  C   UNL     1      46.712  30.962  90.255  1.00  0.00     0.006 C 
BRANCH  20  21
ATOM     21  C   UNL     1      45.781  31.398  91.393  1.00  0.00     0.053 C 
BRANCH  21  22
ATOM     22  C   UNL     1      44.356  31.110  91.042  1.00  0.00     0.041 C 
ATOM     23  O   UNL     1      43.624  30.466  91.841  1.00  0.00    -0.550 OA
ATOM     24  O   UNL     1      43.820  31.595  89.856  1.00  0.00    -0.550 OA
ENDBRANCH  21  22
ENDBRANCH  20  21
ENDBRANCH  19  20
ENDBRANCH  18  19
ENDBRANCH  17  18
ENDBRANCH  16  17
ENDBRANCH  15  16
ENDBRANCH  14  15
ENDBRANCH  13  14
ENDBRANCH   1  13
TORSDOF 20
ENDMDL
MODEL 6
REMARK VINA RESULT:    -3.049      3.161      5.619
REMARK INTER + INTRA:         -10.545
REMARK INTER:                  -7.236
REMARK INTRA:                  -3.309
REMARK UNBOUND:                -3.931
REMARK SMILES CCCCCCCCCCCCCCCCCCCCCC(=O)[O-]
REMARK SMILES IDX 12 1 11 2 10 3 9 4 8 5 7 6 6 7 5 8 4 9 3 10 2 11 1 12 13 13
REMARK SMILES IDX 14 14 15 15 16 16 17 17 18 18 19 19 20 20 21 21 22 22 23 23
REMARK SMILES IDX 24 24
REMARK H PARENT
REMARK Flexibility Score: inf
ROOT
ATOM      1  C   UNL     1      52.697  33.181  84.721  1.00  0.00     0.000 C 
ENDROOT
BRANCH   1   2
ATOM      2  C   UNL     1      51.294  32.783  84.225  1.00  0.00     0.000 C 
BRANCH   2   3
ATOM      3  C   UNL     1      50.265  33.918  84.347  1.00  0.00     0.000 C 
BRANCH   3   4
ATOM      4  C   UNL     1      49.122  33.583  85.320  1.00  0.00    -0.000 C 
BRANCH   4   5
ATOM      5  C   UNL     1      48.796  34.718  86.314  1.00  0.00    -0.000 C 
BRANCH   5   6
ATOM      6  C   UNL     1      48.267  34.180  87.653  1.00  0.00    -0.000 C 
BRANCH   6   7
ATOM      7  C   UNL     1      48.157  32.650  87.631  1.00  0.00    -0.000 C 
BRANCH   7   8
ATOM      8  C   UNL     1      47.518  32.130  88.926  1.00  0.00    -0.000 C 
BRANCH   8   9
ATOM      9  C   UNL     1      46.596  30.919  88.697  1.00  0.00    -0.000 C 
BRANCH   9  10
ATOM     10  C   UNL     1      46.365  30.030  89.936  1.00  0.00    -0.000 C 
BRANCH  10  11
ATOM     11  C   UNL     1      46.063  30.796  91.236  1.00  0.00    -0.003 C 
ATOM     12  C   UNL     1      44.609  31.255  91.337  1.00  0.00     0.004 C 
ENDBRANCH  10  11
ENDBRANCH   9  10
ENDBRANCH   8   9
ENDBRANCH   7   8
ENDBRANCH   6   7
ENDBRANCH   5   6
ENDBRANCH   4   5
ENDBRANCH   3   4
ENDBRANCH   2   3
ENDBRANCH   1   2
BRANCH   1  13
ATOM     13  C   UNL     1      52.777  34.535  85.451  1.00  0.00     0.000 C 
BRANCH  13  14
ATOM     14  C   UNL     1      53.175  34.398  86.931  1.00  0.00     0.000 C 
BRANCH  14  15
ATOM     15  C   UNL     1      51.998  34.667  87.886  1.00  0.00     0.000 C 
BRANCH  15  16
ATOM     16  C   UNL     1      51.715  33.467  88.807  1.00  0.00     0.000 C 
BRANCH  16  17
ATOM     17  C   UNL     1      52.629  32.262  88.527  1.00  0.00     0.000 C 
BRANCH  17  18
ATOM     18  C   UNL     1      51.898  30.966  88.131  1.00  0.00     0.000 C 
BRANCH  18  19
ATOM     19  C   UNL     1      50.664  30.681  89.004  1.00  0.00     0.000 C 
BRANCH  19  20
ATOM     20  C   UNL     1      51.034  30.226  90.426  1.00  0.00     0.006 C 
BRANCH  20  21
ATOM     21  C   UNL     1      50.172  30.896  91.503  1.00  0.00     0.053 C 
BRANCH  21  22
ATOM     22  C   UNL     1      51.011  31.782  92.368  1.00  0.00     0.041 C 
ATOM     23  O   UNL     1      50.521  32.303  93.406  1.00  0.00    -0.550 OA
ATOM     24  O   UNL     1      52.348  31.993  92.057  1.00  0.00    -0.550 OA
ENDBRANCH  21  22
ENDBRANCH  20  21
ENDBRANCH  19  20
ENDBRANCH  18  19
ENDBRANCH  17  18
ENDBRANCH  16  17
ENDBRANCH  15  16
ENDBRANCH  14  15
ENDBRANCH  13  14
ENDBRANCH   1  13
TORSDOF 20
ENDMDL
MODEL 7
REMARK VINA RESULT:    -3.041      2.257      4.093
REMARK INTER + INTRA:         -10.527
REMARK INTER:                  -7.409
REMARK INTRA:                  -3.118
REMARK UNBOUND:                -3.931
REMARK SMILES CCCCCCCCCCCCCCCCCCCCCC(=O)[O-]
REMARK SMILES IDX 12 1 11 2 10 3 9 4 8 5 7 6 6 7 5 8 4 9 3 10 2 11 1 12 13 13
REMARK SMILES IDX 14 14 15 15 16 16 17 17 18 18 19 19 20 20 21 21 22 22 23 23
REMARK SMILES IDX 24 24
REMARK H PARENT
REMARK Flexibility Score: inf
ROOT
ATOM      1  C   UNL     1      50.901  30.769  88.117  1.00  0.00     0.000 C 
ENDROOT
BRANCH   1   2
ATOM      2  C   UNL     1      51.335  31.371  89.467  1.00  0.00     0.000 C 
BRANCH   2   3
ATOM      3  C   UNL     1      51.365  30.339  90.606  1.00  0.00     0.000 C 
BRANCH   3   4
ATOM      4  C   UNL     1      50.089  30.364  91.465  1.00  0.00    -0.000 C 
BRANCH   4   5
ATOM      5  C   UNL     1      49.087  29.240  91.125  1.00  0.00    -0.000 C 
BRANCH   5   6
ATOM      6  C   UNL     1      47.898  29.757  90.299  1.00  0.00    -0.000 C 
BRANCH   6   7
ATOM      7  C   UNL     1      47.500  31.174  90.727  1.00  0.00    -0.000 C 
BRANCH   7   8
ATOM      8  C   UNL     1      46.223  31.626  90.003  1.00  0.00    -0.000 C 
BRANCH   8   9
ATOM      9  C   UNL     1      44.963  30.888  90.490  1.00  0.00    -0.000 C 
BRANCH   9  10
ATOM     10  C   UNL     1      44.507  31.249  91.919  1.00  0.00    -0.000 C 
BRANCH  10  11
ATOM     11  C   UNL     1      44.123  30.047  92.799  1.00  0.00    -0.003 C 
ATOM     12  C   UNL     1      45.082  28.865  92.649  1.00  0.00     0.004 C 
ENDBRANCH  10  11
ENDBRANCH   9  10
ENDBRANCH   8   9
ENDBRANCH   7   8
ENDBRANCH   6   7
ENDBRANCH   5   6
ENDBRANCH   4   5
ENDBRANCH   3   4
ENDBRANCH   2   3
ENDBRANCH   1   2
BRANCH   1  13
ATOM     13  C   UNL     1      49.694  31.454  87.448  1.00  0.00     0.000 C 
BRANCH  13  14
ATOM     14  C   UNL     1      49.275  32.757  88.152  1.00  0.00     0.000 C 
BRANCH  14  15
ATOM     15  C   UNL     1      48.675  33.787  87.179  1.00  0.00     0.000 C 
BRANCH  15  16
ATOM     16  C   UNL     1      48.871  33.377  85.709  1.00  0.00     0.000 C 
BRANCH  16  17
ATOM     17  C   UNL     1      50.020  34.132  85.019  1.00  0.00     0.000 C 
BRANCH  17  18
ATOM     18  C   UNL     1      51.184  33.249  84.534  1.00  0.00     0.000 C 
BRANCH  18  19
ATOM     19  C   UNL     1      52.562  33.888  84.770  1.00  0.00     0.000 C 
BRANCH  19  20
ATOM     20  C   UNL     1      52.654  34.623  86.118  1.00  0.00     0.006 C 
BRANCH  20  21
ATOM     21  C   UNL     1      53.334  33.780  87.205  1.00  0.00     0.053 C 
BRANCH  21  22
ATOM     22  C   UNL     1      53.490  34.575  88.462  1.00  0.00     0.041 C 
ATOM     23  O   UNL     1      53.768  33.997  89.547  1.00  0.00    -0.550 OA
ATOM     24  O   UNL     1      53.379  35.959  88.427  1.00  0.00    -0.550 OA
ENDBRANCH  21  22
ENDBRANCH  20  21
ENDBRANCH  19  20
ENDBRANCH  18  19
ENDBRANCH  17  18
ENDBRANCH  16  17
ENDBRANCH  15  16
ENDBRANCH  14  15
ENDBRANCH  13  14
ENDBRANCH   1  13
TORSDOF 20
ENDMDL
MODEL 8
REMARK VINA RESULT:    -3.010      2.628      5.707
REMARK INTER + INTRA:         -10.460
REMARK INTER:                  -7.326
REMARK INTRA:                  -3.134
REMARK UNBOUND:                -3.931
REMARK SMILES CCCCCCCCCCCCCCCCCCCCCC(=O)[O-]
REMARK SMILES IDX 12 1 11 2 10 3 9 4 8 5 7 6 6 7 5 8 4 9 3 10 2 11 1 12 13 13
REMARK SMILES IDX 14 14 15 15 16 16 17 17 18 18 19 19 20 20 21 21 22 22 23 23
REMARK SMILES IDX 24 24
REMARK H PARENT
REMARK Flexibility Score: inf
ROOT
ATOM      1  C   UNL     1      49.012  30.211  89.433  1.00  0.00     0.000 C 
ENDROOT
BRANCH   1   2
ATOM      2  C   UNL     1      48.669  30.279  90.933  1.00  0.00     0.000 C 
BRANCH   2   3
ATOM      3  C   UNL     1      47.388  31.079  91.224  1.00  0.00     0.000 C 
BRANCH   3   4
ATOM      4  C   UNL     1      46.630  31.475  89.945  1.00  0.00    -0.000 C 
BRANCH   4   5
ATOM      5  C   UNL     1      45.118  31.165  89.995  1.00  0.00    -0.000 C 
BRANCH   5   6
ATOM      6  C   UNL     1      44.546  31.305  91.415  1.00  0.00    -0.000 C 
BRANCH   6   7
ATOM      7  C   UNL     1      43.805  30.032  91.841  1.00  0.00    -0.000 C 
BRANCH   7   8
ATOM      8  C   UNL     1      44.533  29.338  93.001  1.00  0.00    -0.000 C 
BRANCH   8   9
ATOM      9  C   UNL     1      45.468  28.208  92.534  1.00  0.00    -0.000 C 
BRANCH   9  10
ATOM     10  C   UNL     1      45.150  27.633  91.139  1.00  0.00    -0.000 C 
BRANCH  10  11
ATOM     11  C   UNL     1      46.374  27.425  90.229  1.00  0.00    -0.003 C 
ATOM     12  C   UNL     1      46.132  27.877  88.789  1.00  0.00     0.004 C 
ENDBRANCH  10  11
ENDBRANCH   9  10
ENDBRANCH   8   9
ENDBRANCH   7   8
ENDBRANCH   6   7
ENDBRANCH   5   6
ENDBRANCH   4   5
ENDBRANCH   3   4
ENDBRANCH   2   3
ENDBRANCH   1   2
BRANCH   1  13
ATOM     13  C   UNL     1      50.444  30.641  89.064  1.00  0.00     0.000 C 
BRANCH  13  14
ATOM     14  C   UNL     1      50.821  32.023  89.626  1.00  0.00     0.000 C 
BRANCH  14  15
ATOM     15  C   UNL     1      52.046  31.968  90.556  1.00  0.00     0.000 C 
BRANCH  15  16
ATOM     16  C   UNL     1      53.343  32.362  89.829  1.00  0.00     0.000 C 
BRANCH  16  17
ATOM     17  C   UNL     1      53.809  33.792  90.156  1.00  0.00     0.000 C 
BRANCH  17  18
ATOM     18  C   UNL     1      53.590  34.822  89.033  1.00  0.00     0.000 C 
BRANCH  18  19
ATOM     19  C   UNL     1      53.435  34.176  87.646  1.00  0.00     0.000 C 
BRANCH  19  20
ATOM     20  C   UNL     1      52.232  34.728  86.864  1.00  0.00     0.006 C 
BRANCH  20  21
ATOM     21  C   UNL     1      51.096  35.198  87.781  1.00  0.00     0.053 C 
BRANCH  21  22
ATOM     22  C   UNL     1      49.768  34.869  87.179  1.00  0.00     0.041 C 
ATOM     23  O   UNL     1      48.710  35.049  87.840  1.00  0.00    -0.550 OA
ATOM     24  O   UNL     1      49.692  34.412  85.870  1.00  0.00    -0.550 OA
ENDBRANCH  21  22
ENDBRANCH  20  21
ENDBRANCH  19  20
ENDBRANCH  18  19
ENDBRANCH  17  18
ENDBRANCH  16  17
ENDBRANCH  15  16
ENDBRANCH  14  15
ENDBRANCH  13  14
ENDBRANCH   1  13
TORSDOF 20
ENDMDL
MODEL 9
REMARK VINA RESULT:    -2.972      4.301      7.404
REMARK INTER + INTRA:         -10.377
REMARK INTER:                  -7.209
REMARK INTRA:                  -3.168
REMARK UNBOUND:                -3.931
REMARK SMILES CCCCCCCCCCCCCCCCCCCCCC(=O)[O-]
REMARK SMILES IDX 12 1 11 2 10 3 9 4 8 5 7 6 6 7 5 8 4 9 3 10 2 11 1 12 13 13
REMARK SMILES IDX 14 14 15 15 16 16 17 17 18 18 19 19 20 20 21 21 22 22 23 23
REMARK SMILES IDX 24 24
REMARK H PARENT
REMARK Flexibility Score: inf
ROOT
ATOM      1  C   UNL     1      49.788  32.458  84.569  1.00  0.00     0.000 C 
ENDROOT
BRANCH   1   2
ATOM      2  C   UNL     1      49.799  33.998  84.541  1.00  0.00     0.000 C 
BRANCH   2   3
ATOM      3  C   UNL     1      48.627  34.626  85.313  1.00  0.00     0.000 C 
BRANCH   3   4
ATOM      4  C   UNL     1      48.678  34.324  86.821  1.00  0.00    -0.000 C 
BRANCH   4   5
ATOM      5  C   UNL     1      49.679  35.205  87.599  1.00  0.00    -0.000 C 
BRANCH   5   6
ATOM      6  C   UNL     1      50.919  34.414  88.044  1.00  0.00    -0.000 C 
BRANCH   6   7
ATOM      7  C   UNL     1      52.154  34.811  87.225  1.00  0.00    -0.000 C 
BRANCH   7   8
ATOM      8  C   UNL     1      53.413  34.116  87.764  1.00  0.00    -0.000 C 
BRANCH   8   9
ATOM      9  C   UNL     1      53.095  32.925  88.684  1.00  0.00    -0.000 C 
BRANCH   9  10
ATOM     10  C   UNL     1      53.457  33.132  90.169  1.00  0.00    -0.000 C 
BRANCH  10  11
ATOM     11  C   UNL     1      52.837  32.109  91.136  1.00  0.00    -0.003 C 
ATOM     12  C   UNL     1      51.329  31.944  90.946  1.00  0.00     0.004 C 
ENDBRANCH  10  11
ENDBRANCH   9  10
ENDBRANCH   8   9
ENDBRANCH   7   8
ENDBRANCH   6   7
ENDBRANCH   5   6
ENDBRANCH   4   5
ENDBRANCH   3   4
ENDBRANCH   2   3
ENDBRANCH   1   2
BRANCH   1  13
ATOM     13  C   UNL     1      51.065  31.801  85.125  1.00  0.00     0.000 C 
BRANCH  13  14
ATOM     14  C   UNL     1      50.847  31.117  86.486  1.00  0.00     0.000 C 
BRANCH  14  15
ATOM     15  C   UNL     1      49.395  30.648  86.685  1.00  0.00     0.000 C 
BRANCH  15  16
ATOM     16  C   UNL     1      48.904  30.879  88.124  1.00  0.00     0.000 C 
BRANCH  16  17
ATOM     17  C   UNL     1      47.408  31.234  88.203  1.00  0.00     0.000 C 
BRANCH  17  18
ATOM     18  C   UNL     1      46.948  31.825  89.548  1.00  0.00     0.000 C 
BRANCH  18  19
ATOM     19  C   UNL     1      47.313  30.937  90.750  1.00  0.00     0.000 C 
BRANCH  19  20
ATOM     20  C   UNL     1      46.164  30.010  91.177  1.00  0.00     0.006 C 
BRANCH  20  21
ATOM     21  C   UNL     1      44.793  30.693  91.096  1.00  0.00     0.053 C 
BRANCH  21  22
ATOM     22  C   UNL     1      44.293  31.025  92.466  1.00  0.00     0.041 C 
ATOM     23  O   UNL     1      43.800  30.123  93.196  1.00  0.00    -0.550 OA
ATOM     24  O   UNL     1      44.417  32.318  92.958  1.00  0.00    -0.550 OA
ENDBRANCH  21  22
ENDBRANCH  20  21
ENDBRANCH  19  20
ENDBRANCH  18  19
ENDBRANCH  17  18
ENDBRANCH  16  17
ENDBRANCH  15  16
ENDBRANCH  14  15
ENDBRANCH  13  14
ENDBRANCH   1  13
TORSDOF 20
ENDMDL
