MODEL 1
REMARK VINA RESULT:    -3.901      0.000      0.000
REMARK INTER + INTRA:          -7.305
REMARK INTER:                  -6.181
REMARK INTRA:                  -1.124
REMARK UNBOUND:                -1.124
REMARK SMILES CCCCCCCCCCCC(=O)[O-]
REMARK SMILES IDX 7 1 8 2 9 3 10 4 11 5 12 6 13 7 14 8 6 9 5 10 4 11 3 12 2 13
REMARK SMILES IDX 1 14
REMARK H PARENT
REMARK Flexibility Score: inf
ROOT
ATOM      1  C   UNL     1       4.960   0.058  -5.155  1.00  0.00     0.000 C 
ENDROOT
BRANCH   1   2
ATOM      2  C   UNL     1       6.350  -0.281  -5.730  1.00  0.00     0.000 C 
BRANCH   2   3
ATOM      3  C   UNL     1       6.532  -1.748  -6.170  1.00  0.00     0.000 C 
BRANCH   3   4
ATOM      4  C   UNL     1       5.643  -2.766  -5.427  1.00  0.00     0.006 C 
BRANCH   4   5
ATOM      5  C   UNL     1       5.877  -4.229  -5.835  1.00  0.00     0.053 C 
BRANCH   5   6
ATOM      6  C   UNL     1       7.068  -4.819  -5.144  1.00  0.00     0.041 C 
ATOM      7  O   UNL     1       7.060  -4.984  -3.896  1.00  0.00    -0.550 OA
ATOM      8  O   UNL     1       8.175  -5.216  -5.883  1.00  0.00    -0.550 OA
ENDBRANCH   5   6
ENDBRANCH   4   5
ENDBRANCH   3   4
ENDBRANCH   2   3
ENDBRANCH   1   2
BRANCH   1   9
ATOM      9  C   UNL     1       4.019   0.808  -6.119  1.00  0.00     0.000 C 
BRANCH   9  10
ATOM     10  C   UNL     1       4.573   2.132  -6.677  1.00  0.00    -0.000 C 
BRANCH  10  11
ATOM     11  C   UNL     1       4.582   2.175  -8.214  1.00  0.00    -0.000 C 
BRANCH  11  12
ATOM     12  C   UNL     1       3.997   0.900  -8.842  1.00  0.00    -0.000 C 
BRANCH  12  13
ATOM     13  C   UNL     1       5.076  -0.018  -9.436  1.00  0.00    -0.003 C 
ATOM     14  C   UNL     1       4.694  -1.487  -9.278  1.00  0.00     0.004 C 
ENDBRANCH  12  13
ENDBRANCH  11  12
ENDBRANCH  10  11
ENDBRANCH   9  10
ENDBRANCH   1   9
TORSDOF 10
ENDMDL
MODEL 2
REMARK VINA RESULT:    -3.890      1.297      1.981
REMARK INTER + INTRA:          -7.287
REMARK INTER:                  -6.115
REMARK INTRA:                  -1.172
REMARK UNBOUND:                -1.124
REMARK SMILES CCCCCCCCCCCC(=O)[O-]
REMARK SMILES IDX 7 1 8 2 9 3 10 4 11 5 12 6 13 7 14 8 6 9 5 10 4 11 3 12 2 13
REMARK SMILES IDX 1 14
REMARK H PARENT
REMARK Flexibility Score: inf
ROOT
ATOM      1  C   UNL     1       5.493   0.287  -5.154  1.00  0.00     0.000 C 
ENDROOT
BRANCH   1   2
ATOM      2  C   UNL     1       6.306  -0.960  -5.555  1.00  0.00     0.000 C 
BRANCH   2   3
ATOM      3  C   UNL     1       5.862  -1.631  -6.871  1.00  0.00     0.000 C 
BRANCH   3   4
ATOM      4  C   UNL     1       5.810  -3.172  -6.831  1.00  0.00     0.006 C 
BRANCH   4   5
ATOM      5  C   UNL     1       5.823  -3.771  -5.417  1.00  0.00     0.053 C 
BRANCH   5   6
ATOM      6  C   UNL     1       7.040  -4.610  -5.175  1.00  0.00     0.041 C 
ATOM      7  O   UNL     1       7.179  -5.227  -4.087  1.00  0.00    -0.550 OA
ATOM      8  O   UNL     1       8.006  -4.736  -6.166  1.00  0.00    -0.550 OA
ENDBRANCH   5   6
ENDBRANCH   4   5
ENDBRANCH   3   4
ENDBRANCH   2   3
ENDBRANCH   1   2
BRANCH   1   9
ATOM      9  C   UNL     1       4.240   0.554  -6.012  1.00  0.00     0.000 C 
BRANCH   9  10
ATOM     10  C   UNL     1       4.091   1.999  -6.521  1.00  0.00    -0.000 C 
BRANCH  10  11
ATOM     11  C   UNL     1       4.335   2.127  -8.034  1.00  0.00    -0.000 C 
BRANCH  11  12
ATOM     12  C   UNL     1       5.826   2.041  -8.400  1.00  0.00    -0.000 C 
BRANCH  12  13
ATOM     13  C   UNL     1       6.700   2.972  -7.548  1.00  0.00    -0.003 C 
ATOM     14  C   UNL     1       7.984   2.272  -7.112  1.00  0.00     0.004 C 
ENDBRANCH  12  13
ENDBRANCH  11  12
ENDBRANCH  10  11
ENDBRANCH   9  10
ENDBRANCH   1   9
TORSDOF 10
ENDMDL
MODEL 3
REMARK VINA RESULT:    -3.858      0.965      2.601
REMARK INTER + INTRA:          -7.236
REMARK INTER:                  -5.848
REMARK INTRA:                  -1.389
REMARK UNBOUND:                -1.124
REMARK SMILES CCCCCCCCCCCC(=O)[O-]
REMARK SMILES IDX 7 1 8 2 9 3 10 4 11 5 12 6 13 7 14 8 6 9 5 10 4 11 3 12 2 13
REMARK SMILES IDX 1 14
REMARK H PARENT
REMARK Flexibility Score: inf
ROOT
ATOM      1  C   UNL     1       5.958  -1.632  -8.478  1.00  0.00     0.000 C 
ENDROOT
BRANCH   1   2
ATOM      2  C   UNL     1       7.306  -1.681  -7.732  1.00  0.00     0.000 C 
BRANCH   2   3
ATOM      3  C   UNL     1       7.221  -2.145  -6.264  1.00  0.00     0.000 C 
BRANCH   3   4
ATOM      4  C   UNL     1       5.885  -2.804  -5.865  1.00  0.00     0.006 C 
BRANCH   4   5
ATOM      5  C   UNL     1       5.901  -4.340  -5.893  1.00  0.00     0.053 C 
BRANCH   5   6
ATOM      6  C   UNL     1       7.082  -4.901  -5.160  1.00  0.00     0.041 C 
ATOM      7  O   UNL     1       7.088  -4.935  -3.902  1.00  0.00    -0.550 OA
ATOM      8  O   UNL     1       8.160  -5.416  -5.868  1.00  0.00    -0.550 OA
ENDBRANCH   5   6
ENDBRANCH   4   5
ENDBRANCH   3   4
ENDBRANCH   2   3
ENDBRANCH   1   2
BRANCH   1   9
ATOM      9  C   UNL     1       5.519  -0.229  -8.945  1.00  0.00     0.000 C 
BRANCH   9  10
ATOM     10  C   UNL     1       4.133   0.221  -8.450  1.00  0.00    -0.000 C 
BRANCH  10  11
ATOM     11  C   UNL     1       4.211   1.217  -7.280  1.00  0.00    -0.000 C 
BRANCH  11  12
ATOM     12  C   UNL     1       4.248   0.517  -5.912  1.00  0.00    -0.000 C 
BRANCH  12  13
ATOM     13  C   UNL     1       5.499   0.877  -5.096  1.00  0.00    -0.003 C 
ATOM     14  C   UNL     1       6.584   1.472  -5.989  1.00  0.00     0.004 C 
ENDBRANCH  12  13
ENDBRANCH  11  12
ENDBRANCH  10  11
ENDBRANCH   9  10
ENDBRANCH   1   9
TORSDOF 10
ENDMDL
MODEL 4
REMARK VINA RESULT:    -3.728      1.354      3.269
REMARK INTER + INTRA:          -7.031
REMARK INTER:                  -5.887
REMARK INTRA:                  -1.144
REMARK UNBOUND:                -1.124
REMARK SMILES CCCCCCCCCCCC(=O)[O-]
REMARK SMILES IDX 7 1 8 2 9 3 10 4 11 5 12 6 13 7 14 8 6 9 5 10 4 11 3 12 2 13
REMARK SMILES IDX 1 14
REMARK H PARENT
REMARK Flexibility Score: inf
ROOT
ATOM      1  C   UNL     1       5.072  -1.549  -8.656  1.00  0.00     0.000 C 
ENDROOT
BRANCH   1   2
ATOM      2  C   UNL     1       5.433  -2.866  -9.371  1.00  0.00     0.000 C 
BRANCH   2   3
ATOM      3  C   UNL     1       5.260  -4.138  -8.517  1.00  0.00     0.000 C 
BRANCH   3   4
ATOM      4  C   UNL     1       6.319  -4.332  -7.412  1.00  0.00     0.006 C 
BRANCH   4   5
ATOM      5  C   UNL     1       5.749  -4.367  -5.986  1.00  0.00     0.053 C 
BRANCH   5   6
ATOM      6  C   UNL     1       6.826  -4.275  -4.950  1.00  0.00     0.041 C 
ATOM      7  O   UNL     1       7.372  -3.168  -4.701  1.00  0.00    -0.550 OA
ATOM      8  O   UNL     1       7.205  -5.405  -4.237  1.00  0.00    -0.550 OA
ENDBRANCH   5   6
ENDBRANCH   4   5
ENDBRANCH   3   4
ENDBRANCH   2   3
ENDBRANCH   1   2
BRANCH   1   9
ATOM      9  C   UNL     1       6.275  -0.670  -8.258  1.00  0.00     0.000 C 
BRANCH   9  10
ATOM     10  C   UNL     1       6.592  -0.639  -6.752  1.00  0.00    -0.000 C 
BRANCH  10  11
ATOM     11  C   UNL     1       5.328  -0.633  -5.875  1.00  0.00    -0.000 C 
BRANCH  11  12
ATOM     12  C   UNL     1       5.170   0.673  -5.080  1.00  0.00    -0.000 C 
BRANCH  12  13
ATOM     13  C   UNL     1       5.006   1.902  -5.985  1.00  0.00    -0.003 C 
ATOM     14  C   UNL     1       3.758   1.780  -6.855  1.00  0.00     0.004 C 
ENDBRANCH  12  13
ENDBRANCH  11  12
ENDBRANCH  10  11
ENDBRANCH   9  10
ENDBRANCH   1   9
TORSDOF 10
ENDMDL
MODEL 5
REMARK VINA RESULT:    -3.701      1.166      2.038
REMARK INTER + INTRA:          -6.989
REMARK INTER:                  -5.618
REMARK INTRA:                  -1.372
REMARK UNBOUND:                -1.124
REMARK SMILES CCCCCCCCCCCC(=O)[O-]
REMARK SMILES IDX 7 1 8 2 9 3 10 4 11 5 12 6 13 7 14 8 6 9 5 10 4 11 3 12 2 13
REMARK SMILES IDX 1 14
REMARK H PARENT
REMARK Flexibility Score: inf
ROOT
ATOM      1  C   UNL     1       7.602   0.583  -6.889  1.00  0.00     0.000 C 
ENDROOT
BRANCH   1   2
ATOM      2  C   UNL     1       7.706  -0.918  -6.557  1.00  0.00     0.000 C 
BRANCH   2   3
ATOM      3  C   UNL     1       7.109  -1.863  -7.619  1.00  0.00     0.000 C 
BRANCH   3   4
ATOM      4  C   UNL     1       5.947  -2.749  -7.124  1.00  0.00     0.006 C 
BRANCH   4   5
ATOM      5  C   UNL     1       6.011  -3.103  -5.631  1.00  0.00     0.053 C 
BRANCH   5   6
ATOM      6  C   UNL     1       6.717  -4.402  -5.393  1.00  0.00     0.041 C 
ATOM      7  O   UNL     1       7.282  -4.624  -4.291  1.00  0.00    -0.550 OA
ATOM      8  O   UNL     1       6.721  -5.382  -6.378  1.00  0.00    -0.550 OA
ENDBRANCH   5   6
ENDBRANCH   4   5
ENDBRANCH   3   4
ENDBRANCH   2   3
ENDBRANCH   1   2
BRANCH   1   9
ATOM      9  C   UNL     1       6.655   1.391  -5.978  1.00  0.00     0.000 C 
BRANCH   9  10
ATOM     10  C   UNL     1       5.587   0.559  -5.245  1.00  0.00    -0.000 C 
BRANCH  10  11
ATOM     11  C   UNL     1       4.239   0.532  -5.985  1.00  0.00    -0.000 C 
BRANCH  11  12
ATOM     12  C   UNL     1       3.947   1.848  -6.725  1.00  0.00    -0.000 C 
BRANCH  12  13
ATOM     13  C   UNL     1       4.115   1.723  -8.246  1.00  0.00    -0.003 C 
ATOM     14  C   UNL     1       4.129   0.260  -8.678  1.00  0.00     0.004 C 
ENDBRANCH  12  13
ENDBRANCH  11  12
ENDBRANCH  10  11
ENDBRANCH   9  10
ENDBRANCH   1   9
TORSDOF 10
ENDMDL
MODEL 6
REMARK VINA RESULT:    -3.639      1.594      2.806
REMARK INTER + INTRA:          -6.890
REMARK INTER:                  -5.370
REMARK INTRA:                  -1.520
REMARK UNBOUND:                -1.124
REMARK SMILES CCCCCCCCCCCC(=O)[O-]
REMARK SMILES IDX 7 1 8 2 9 3 10 4 11 5 12 6 13 7 14 8 6 9 5 10 4 11 3 12 2 13
REMARK SMILES IDX 1 14
REMARK H PARENT
REMARK Flexibility Score: inf
ROOT
ATOM      1  C   UNL     1       8.377   0.080  -6.967  1.00  0.00     0.000 C 
ENDROOT
BRANCH   1   2
ATOM      2  C   UNL     1       8.284  -1.453  -6.840  1.00  0.00     0.000 C 
BRANCH   2   3
ATOM      3  C   UNL     1       7.236  -2.120  -7.753  1.00  0.00     0.000 C 
BRANCH   3   4
ATOM      4  C   UNL     1       6.017  -2.715  -7.019  1.00  0.00     0.006 C 
BRANCH   4   5
ATOM      5  C   UNL     1       6.271  -3.064  -5.544  1.00  0.00     0.053 C 
BRANCH   5   6
ATOM      6  C   UNL     1       6.669  -4.497  -5.369  1.00  0.00     0.041 C 
ATOM      7  O   UNL     1       6.590  -5.300  -6.335  1.00  0.00    -0.550 OA
ATOM      8  O   UNL     1       7.157  -4.939  -4.146  1.00  0.00    -0.550 OA
ENDBRANCH   5   6
ENDBRANCH   4   5
ENDBRANCH   3   4
ENDBRANCH   2   3
ENDBRANCH   1   2
BRANCH   1   9
ATOM      9  C   UNL     1       7.427   0.708  -8.008  1.00  0.00     0.000 C 
BRANCH   9  10
ATOM     10  C   UNL     1       6.968   2.143  -7.691  1.00  0.00    -0.000 C 
BRANCH  10  11
ATOM     11  C   UNL     1       5.670   2.187  -6.868  1.00  0.00    -0.000 C 
BRANCH  11  12
ATOM     12  C   UNL     1       4.833   0.907  -7.020  1.00  0.00    -0.000 C 
BRANCH  12  13
ATOM     13  C   UNL     1       4.465   0.275  -5.669  1.00  0.00    -0.003 C 
ATOM     14  C   UNL     1       5.473   0.661  -4.591  1.00  0.00     0.004 C 
ENDBRANCH  12  13
ENDBRANCH  11  12
ENDBRANCH  10  11
ENDBRANCH   9  10
ENDBRANCH   1   9
TORSDOF 10
ENDMDL
MODEL 7
REMARK VINA RESULT:    -3.591      1.703      2.849
REMARK INTER + INTRA:          -6.815
REMARK INTER:                  -5.277
REMARK INTRA:                  -1.538
REMARK UNBOUND:                -1.124
REMARK SMILES CCCCCCCCCCCC(=O)[O-]
REMARK SMILES IDX 7 1 8 2 9 3 10 4 11 5 12 6 13 7 14 8 6 9 5 10 4 11 3 12 2 13
REMARK SMILES IDX 1 14
REMARK H PARENT
REMARK Flexibility Score: inf
ROOT
ATOM      1  C   UNL     1       4.113   2.097  -6.750  1.00  0.00     0.000 C 
ENDROOT
BRANCH   1   2
ATOM      2  C   UNL     1       4.149   0.788  -5.938  1.00  0.00     0.000 C 
BRANCH   2   3
ATOM      3  C   UNL     1       5.391   0.612  -5.042  1.00  0.00     0.000 C 
BRANCH   3   4
ATOM      4  C   UNL     1       6.300  -0.578  -5.415  1.00  0.00     0.006 C 
BRANCH   4   5
ATOM      5  C   UNL     1       5.554  -1.791  -5.989  1.00  0.00     0.053 C 
BRANCH   5   6
ATOM      6  C   UNL     1       6.147  -3.086  -5.524  1.00  0.00     0.041 C 
ATOM      7  O   UNL     1       5.402  -4.065  -5.261  1.00  0.00    -0.550 OA
ATOM      8  O   UNL     1       7.525  -3.219  -5.412  1.00  0.00    -0.550 OA
ENDBRANCH   5   6
ENDBRANCH   4   5
ENDBRANCH   3   4
ENDBRANCH   2   3
ENDBRANCH   1   2
BRANCH   1   9
ATOM      9  C   UNL     1       4.061   1.915  -8.281  1.00  0.00     0.000 C 
BRANCH   9  10
ATOM     10  C   UNL     1       4.410   0.503  -8.784  1.00  0.00    -0.000 C 
BRANCH  10  11
ATOM     11  C   UNL     1       5.724   0.460  -9.582  1.00  0.00    -0.000 C 
BRANCH  11  12
ATOM     12  C   UNL     1       6.670   1.616  -9.219  1.00  0.00    -0.000 C 
BRANCH  12  13
ATOM     13  C   UNL     1       7.742   1.206  -8.199  1.00  0.00    -0.003 C 
ATOM     14  C   UNL     1       7.977   2.313  -7.175  1.00  0.00     0.004 C 
ENDBRANCH  12  13
ENDBRANCH  11  12
ENDBRANCH  10  11
ENDBRANCH   9  10
ENDBRANCH   1   9
TORSDOF 10
ENDMDL
MODEL 8
REMARK VINA RESULT:    -3.536      1.363      2.141
REMARK INTER + INTRA:          -6.727
REMARK INTER:                  -5.961
REMARK INTRA:                  -0.766
REMARK UNBOUND:                -1.124
REMARK SMILES CCCCCCCCCCCC(=O)[O-]
REMARK SMILES IDX 7 1 8 2 9 3 10 4 11 5 12 6 13 7 14 8 6 9 5 10 4 11 3 12 2 13
REMARK SMILES IDX 1 14
REMARK H PARENT
REMARK Flexibility Score: inf
ROOT
ATOM      1  C   UNL     1       5.247  -1.387  -5.926  1.00  0.00     0.000 C 
ENDROOT
BRANCH   1   2
ATOM      2  C   UNL     1       6.092  -2.223  -6.907  1.00  0.00     0.000 C 
BRANCH   2   3
ATOM      3  C   UNL     1       6.113  -3.739  -6.620  1.00  0.00     0.000 C 
BRANCH   3   4
ATOM      4  C   UNL     1       6.603  -4.129  -5.211  1.00  0.00     0.006 C 
BRANCH   4   5
ATOM      5  C   UNL     1       7.300  -5.496  -5.137  1.00  0.00     0.053 C 
BRANCH   5   6
ATOM      6  C   UNL     1       8.107  -5.780  -6.367  1.00  0.00     0.041 C 
ATOM      7  O   UNL     1       9.260  -5.291  -6.495  1.00  0.00    -0.550 OA
ATOM      8  O   UNL     1       7.597  -6.611  -7.357  1.00  0.00    -0.550 OA
ENDBRANCH   5   6
ENDBRANCH   4   5
ENDBRANCH   3   4
ENDBRANCH   2   3
ENDBRANCH   1   2
BRANCH   1   9
ATOM      9  C   UNL     1       5.984  -0.197  -5.278  1.00  0.00     0.000 C 
BRANCH   9  10
ATOM     10  C   UNL     1       5.242   1.150  -5.352  1.00  0.00    -0.000 C 
BRANCH  10  11
ATOM     11  C   UNL     1       4.014   1.105  -6.277  1.00  0.00    -0.000 C 
BRANCH  11  12
ATOM     12  C   UNL     1       4.046   2.204  -7.351  1.00  0.00    -0.000 C 
BRANCH  12  13
ATOM     13  C   UNL     1       4.587   1.702  -8.698  1.00  0.00    -0.003 C 
ATOM     14  C   UNL     1       4.082   0.295  -9.002  1.00  0.00     0.004 C 
ENDBRANCH  12  13
ENDBRANCH  11  12
ENDBRANCH  10  11
ENDBRANCH   9  10
ENDBRANCH   1   9
TORSDOF 10
ENDMDL
MODEL 9
REMARK VINA RESULT:    -3.412      3.159      5.843
REMARK INTER + INTRA:          -6.530
REMARK INTER:                  -5.586
REMARK INTRA:                  -0.944
REMARK UNBOUND:                -1.124
REMARK SMILES CCCCCCCCCCCC(=O)[O-]
REMARK SMILES IDX 7 1 8 2 9 3 10 4 11 5 12 6 13 7 14 8 6 9 5 10 4 11 3 12 2 13
REMARK SMILES IDX 1 14
REMARK H PARENT
REMARK Flexibility Score: inf
ROOT
ATOM      1  C   UNL     1       5.997  -0.166  -5.267  1.00  0.00     0.000 C 
ENDROOT
BRANCH   1   2
ATOM      2  C   UNL     1       4.502  -0.080  -5.635  1.00  0.00     0.000 C 
BRANCH   2   3
ATOM      3  C   UNL     1       4.065   1.254  -6.273  1.00  0.00     0.000 C 
BRANCH   3   4
ATOM      4  C   UNL     1       4.588   1.495  -7.704  1.00  0.00     0.006 C 
BRANCH   4   5
ATOM      5  C   UNL     1       5.449   2.758  -7.860  1.00  0.00     0.053 C 
BRANCH   5   6
ATOM      6  C   UNL     1       6.913   2.438  -7.878  1.00  0.00     0.041 C 
ATOM      7  O   UNL     1       7.309   1.300  -8.242  1.00  0.00    -0.550 OA
ATOM      8  O   UNL     1       7.841   3.409  -7.524  1.00  0.00    -0.550 OA
ENDBRANCH   5   6
ENDBRANCH   4   5
ENDBRANCH   3   4
ENDBRANCH   2   3
ENDBRANCH   1   2
BRANCH   1   9
ATOM      9  C   UNL     1       6.784  -1.279  -5.987  1.00  0.00     0.000 C 
BRANCH   9  10
ATOM     10  C   UNL     1       6.051  -1.940  -7.169  1.00  0.00    -0.000 C 
BRANCH  10  11
ATOM     11  C   UNL     1       5.994  -3.472  -7.054  1.00  0.00    -0.000 C 
BRANCH  11  12
ATOM     12  C   UNL     1       5.622  -3.944  -5.639  1.00  0.00    -0.000 C 
BRANCH  12  13
ATOM     13  C   UNL     1       6.823  -4.511  -4.868  1.00  0.00    -0.003 C 
ATOM     14  C   UNL     1       7.501  -5.629  -5.655  1.00  0.00     0.004 C 
ENDBRANCH  12  13
ENDBRANCH  11  12
ENDBRANCH  10  11
ENDBRANCH   9  10
ENDBRANCH   1   9
TORSDOF 10
ENDMDL
