MODEL 1
REMARK VINA RESULT:    -4.626      0.000      0.000
REMARK INTER + INTRA:          -8.421
REMARK INTER:                  -6.654
REMARK INTRA:                  -1.767
REMARK UNBOUND:                -1.767
REMARK SMILES O=c1c(O[C@@H]2O[C@H](CO)[C@@H](O)[C@H](O)[C@@H]2O)c(-c2ccc(O)cc2)oc2cc(O)cc(O)c12
REMARK SMILES IDX 4 1 3 2 16 3 24 4 2 5 25 6 1 7 32 8 26 9 30 10 27 11 29 12
REMARK SMILES IDX 17 13 18 14 19 15 20 16 23 17 22 18 21 19 31 21 28 23 5 25
REMARK SMILES IDX 14 26 6 27 12 28 7 29 10 30 15 31 13 33 8 35 9 36 11 38
REMARK H PARENT 21 20 31 22 28 24 15 32 13 34 9 37 11 39
REMARK Flexibility Score: inf
ROOT
ATOM      1  O   UNL     1      20.997  -2.922  14.472  1.00  0.00    -0.454 OA
ENDROOT
BRANCH   1   2
ATOM      2  C   UNL     1      20.087  -2.042  13.851  1.00  0.00     0.214 A 
ATOM      3  C   UNL     1      19.605  -2.388  12.571  1.00  0.00     0.180 A 
ATOM      4  O   UNL     1      18.767  -1.580  11.931  1.00  0.00    -0.452 OA
ATOM      5  C   UNL     1      19.645  -0.827  14.425  1.00  0.00     0.239 A 
ATOM      6  C   UNL     1      18.315  -0.444  12.441  1.00  0.00     0.146 A 
ATOM      7  O   UNL     1      20.063  -0.465  15.558  1.00  0.00    -0.285 OA
ATOM      8  C   UNL     1      18.732  -0.015  13.722  1.00  0.00     0.111 A 
ATOM      9  C   UNL     1      17.415   0.323  11.698  1.00  0.00     0.094 A 
ATOM     10  C   UNL     1      18.219   1.201  14.239  1.00  0.00     0.134 A 
ATOM     11  C   UNL     1      16.907   1.518  12.215  1.00  0.00     0.123 A 
ATOM     12  C   UNL     1      17.313   1.953  13.478  1.00  0.00     0.093 A 
BRANCH   3  13
ATOM     13  C   UNL     1      20.023  -3.634  11.889  1.00  0.00     0.021 A 
ATOM     14  C   UNL     1      21.069  -3.591  10.952  1.00  0.00     0.016 A 
ATOM     15  C   UNL     1      21.481  -4.756  10.298  1.00  0.00     0.047 A 
ATOM     16  C   UNL     1      20.844  -5.973  10.559  1.00  0.00     0.115 A 
ATOM     17  C   UNL     1      19.372  -4.857  12.132  1.00  0.00     0.016 A 
ATOM     18  C   UNL     1      19.787  -6.020  11.476  1.00  0.00     0.047 A 
BRANCH  16  19
ATOM     19  O   UNL     1      21.267  -7.125   9.903  1.00  0.00    -0.508 OA
ATOM     20  H   UNL     1      22.171  -7.540  10.093  1.00  0.00     0.293 HD
ENDBRANCH  16  19
ENDBRANCH   3  13
BRANCH  10  21
ATOM     21  O   UNL     1      18.597   1.662  15.502  1.00  0.00    -0.507 OA
ATOM     22  H   UNL     1      17.978   1.595  16.302  1.00  0.00     0.293 HD
ENDBRANCH  10  21
BRANCH  11  23
ATOM     23  O   UNL     1      15.994   2.275  11.488  1.00  0.00    -0.508 OA
ATOM     24  H   UNL     1      16.251   2.715  10.611  1.00  0.00     0.293 HD
ENDBRANCH  11  23
ENDBRANCH   1   2
BRANCH   1  25
ATOM     25  C   UNL     1      20.715  -3.921  15.451  1.00  0.00     0.339 C 
ATOM     26  C   UNL     1      21.523  -3.633  16.744  1.00  0.00     0.214 C 
ATOM     27  O   UNL     1      19.328  -3.923  15.734  1.00  0.00    -0.332 OA
ATOM     28  C   UNL     1      20.758  -4.074  18.021  1.00  0.00     0.180 C 
ATOM     29  C   UNL     1      18.982  -5.098  16.451  1.00  0.00     0.179 C 
ATOM     30  C   UNL     1      19.834  -5.287  17.751  1.00  0.00     0.177 C 
BRANCH  26  31
ATOM     31  O   UNL     1      21.926  -2.287  16.840  1.00  0.00    -0.384 OA
ATOM     32  H   UNL     1      21.338  -1.832  17.499  1.00  0.00     0.211 HD
ENDBRANCH  26  31
BRANCH  28  33
ATOM     33  O   UNL     1      20.035  -3.015  18.603  1.00  0.00    -0.387 OA
ATOM     34  H   UNL     1      19.270  -2.801  18.009  1.00  0.00     0.211 HD
ENDBRANCH  28  33
BRANCH  29  35
ATOM     35  C   UNL     1      17.478  -5.070  16.758  1.00  0.00     0.191 C 
BRANCH  35  36
ATOM     36  O   UNL     1      17.190  -4.126  17.756  1.00  0.00    -0.394 OA
ATOM     37  H   UNL     1      18.052  -3.902  18.196  1.00  0.00     0.210 HD
ENDBRANCH  35  36
ENDBRANCH  29  35
BRANCH  30  38
ATOM     38  O   UNL     1      20.619  -6.446  17.613  1.00  0.00    -0.387 OA
ATOM     39  H   UNL     1      20.232  -7.136  18.213  1.00  0.00     0.211 HD
ENDBRANCH  30  38
ENDBRANCH   1  25
TORSDOF 11
ENDMDL
MODEL 2
REMARK VINA RESULT:    -4.182      3.197      7.310
REMARK INTER + INTRA:          -7.783
REMARK INTER:                  -6.425
REMARK INTRA:                  -1.358
REMARK UNBOUND:                -1.767
REMARK SMILES O=c1c(O[C@@H]2O[C@H](CO)[C@@H](O)[C@H](O)[C@@H]2O)c(-c2ccc(O)cc2)oc2cc(O)cc(O)c12
REMARK SMILES IDX 4 1 3 2 16 3 24 4 2 5 25 6 1 7 32 8 26 9 30 10 27 11 29 12
REMARK SMILES IDX 17 13 18 14 19 15 20 16 23 17 22 18 21 19 31 21 28 23 5 25
REMARK SMILES IDX 14 26 6 27 12 28 7 29 10 30 15 31 13 33 8 35 9 36 11 38
REMARK H PARENT 21 20 31 22 28 24 15 32 13 34 9 37 11 39
REMARK Flexibility Score: inf
ROOT
ATOM      1  O   UNL     1      20.147   1.803  12.562  1.00  0.00    -0.454 OA
ENDROOT
BRANCH   1   2
ATOM      2  C   UNL     1      20.365   0.998  13.699  1.00  0.00     0.214 A 
ATOM      3  C   UNL     1      19.622  -0.196  13.813  1.00  0.00     0.180 A 
ATOM      4  O   UNL     1      19.770  -0.978  14.877  1.00  0.00    -0.452 OA
ATOM      5  C   UNL     1      21.267   1.325  14.738  1.00  0.00     0.239 A 
ATOM      6  C   UNL     1      20.616  -0.716  15.862  1.00  0.00     0.146 A 
ATOM      7  O   UNL     1      21.937   2.391  14.692  1.00  0.00    -0.285 OA
ATOM      8  C   UNL     1      21.412   0.452  15.836  1.00  0.00     0.111 A 
ATOM      9  C   UNL     1      20.716  -1.615  16.927  1.00  0.00     0.094 A 
ATOM     10  C   UNL     1      22.314   0.692  16.903  1.00  0.00     0.134 A 
ATOM     11  C   UNL     1      21.611  -1.376  17.973  1.00  0.00     0.123 A 
ATOM     12  C   UNL     1      22.401  -0.225  17.960  1.00  0.00     0.093 A 
BRANCH   3  13
ATOM     13  C   UNL     1      18.648  -0.612  12.778  1.00  0.00     0.021 A 
ATOM     14  C   UNL     1      17.343  -0.093  12.810  1.00  0.00     0.016 A 
ATOM     15  C   UNL     1      16.407  -0.470  11.843  1.00  0.00     0.047 A 
ATOM     16  C   UNL     1      16.757  -1.380  10.841  1.00  0.00     0.115 A 
ATOM     17  C   UNL     1      18.989  -1.544  11.781  1.00  0.00     0.016 A 
ATOM     18  C   UNL     1      18.050  -1.918  10.814  1.00  0.00     0.047 A 
BRANCH  16  19
ATOM     19  O   UNL     1      15.817  -1.744   9.882  1.00  0.00    -0.508 OA
ATOM     20  H   UNL     1      15.654  -2.715   9.643  1.00  0.00     0.293 HD
ENDBRANCH  16  19
ENDBRANCH   3  13
BRANCH  10  21
ATOM     21  O   UNL     1      23.125   1.829  16.917  1.00  0.00    -0.507 OA
ATOM     22  H   UNL     1      23.421   2.285  16.061  1.00  0.00     0.293 HD
ENDBRANCH  10  21
BRANCH  11  23
ATOM     23  O   UNL     1      21.730  -2.278  19.026  1.00  0.00    -0.508 OA
ATOM     24  H   UNL     1      22.249  -2.046  19.866  1.00  0.00     0.293 HD
ENDBRANCH  11  23
ENDBRANCH   1   2
BRANCH   1  25
ATOM     25  C   UNL     1      19.369   2.995  12.473  1.00  0.00     0.339 C 
ATOM     26  C   UNL     1      18.773   3.130  11.046  1.00  0.00     0.214 C 
ATOM     27  O   UNL     1      18.329   2.949  13.432  1.00  0.00    -0.332 OA
ATOM     28  C   UNL     1      17.384   3.822  11.056  1.00  0.00     0.180 C 
ATOM     29  C   UNL     1      17.749   4.237  13.578  1.00  0.00     0.179 C 
ATOM     30  C   UNL     1      17.251   4.835  12.219  1.00  0.00     0.177 C 
BRANCH  26  31
ATOM     31  O   UNL     1      18.716   1.897  10.366  1.00  0.00    -0.384 OA
ATOM     32  H   UNL     1      18.743   1.169  11.042  1.00  0.00     0.211 HD
ENDBRANCH  26  31
BRANCH  28  33
ATOM     33  O   UNL     1      16.325   2.895  11.079  1.00  0.00    -0.387 OA
ATOM     34  H   UNL     1      15.494   3.367  10.818  1.00  0.00     0.211 HD
ENDBRANCH  28  33
BRANCH  29  35
ATOM     35  C   UNL     1      16.616   4.159  14.611  1.00  0.00     0.191 C 
BRANCH  35  36
ATOM     36  O   UNL     1      17.081   3.619  15.821  1.00  0.00    -0.394 OA
ATOM     37  H   UNL     1      18.002   3.288  15.653  1.00  0.00     0.210 HD
ENDBRANCH  35  36
ENDBRANCH  29  35
BRANCH  30  38
ATOM     38  O   UNL     1      18.011   5.982  11.925  1.00  0.00    -0.387 OA
ATOM     39  H   UNL     1      17.862   6.196  10.967  1.00  0.00     0.211 HD
ENDBRANCH  30  38
ENDBRANCH   1  25
TORSDOF 11
ENDMDL
MODEL 3
REMARK VINA RESULT:    -4.124      2.081      4.583
REMARK INTER + INTRA:          -7.699
REMARK INTER:                  -6.006
REMARK INTRA:                  -1.693
REMARK UNBOUND:                -1.767
REMARK SMILES O=c1c(O[C@@H]2O[C@H](CO)[C@@H](O)[C@H](O)[C@@H]2O)c(-c2ccc(O)cc2)oc2cc(O)cc(O)c12
REMARK SMILES IDX 4 1 3 2 16 3 24 4 2 5 25 6 1 7 32 8 26 9 30 10 27 11 29 12
REMARK SMILES IDX 17 13 18 14 19 15 20 16 23 17 22 18 21 19 31 21 28 23 5 25
REMARK SMILES IDX 14 26 6 27 12 28 7 29 10 30 15 31 13 33 8 35 9 36 11 38
REMARK H PARENT 21 20 31 22 28 24 15 32 13 34 9 37 11 39
REMARK Flexibility Score: inf
ROOT
ATOM      1  O   UNL     1      21.062  -2.516  14.417  1.00  0.00    -0.454 OA
ENDROOT
BRANCH   1   2
ATOM      2  C   UNL     1      20.161  -1.559  13.906  1.00  0.00     0.214 A 
ATOM      3  C   UNL     1      20.063  -0.322  14.578  1.00  0.00     0.180 A 
ATOM      4  O   UNL     1      19.211   0.604  14.153  1.00  0.00    -0.452 OA
ATOM      5  C   UNL     1      19.338  -1.772  12.776  1.00  0.00     0.239 A 
ATOM      6  C   UNL     1      18.436   0.450  13.089  1.00  0.00     0.146 A 
ATOM      7  O   UNL     1      19.375  -2.868  12.155  1.00  0.00    -0.285 OA
ATOM      8  C   UNL     1      18.469  -0.750  12.344  1.00  0.00     0.111 A 
ATOM      9  C   UNL     1      17.591   1.495  12.709  1.00  0.00     0.094 A 
ATOM     10  C   UNL     1      17.634  -0.874  11.204  1.00  0.00     0.134 A 
ATOM     11  C   UNL     1      16.775   1.371  11.581  1.00  0.00     0.123 A 
ATOM     12  C   UNL     1      16.796   0.189  10.838  1.00  0.00     0.093 A 
BRANCH   3  13
ATOM     13  C   UNL     1      20.877  -0.017  15.776  1.00  0.00     0.021 A 
ATOM     14  C   UNL     1      20.353  -0.278  17.052  1.00  0.00     0.016 A 
ATOM     15  C   UNL     1      21.104   0.000  18.198  1.00  0.00     0.047 A 
ATOM     16  C   UNL     1      22.381   0.557  18.083  1.00  0.00     0.115 A 
ATOM     17  C   UNL     1      22.154   0.563  15.667  1.00  0.00     0.016 A 
ATOM     18  C   UNL     1      22.904   0.840  16.815  1.00  0.00     0.047 A 
BRANCH  16  19
ATOM     19  O   UNL     1      23.120   0.826  19.231  1.00  0.00    -0.508 OA
ATOM     20  H   UNL     1      23.931   0.273  19.480  1.00  0.00     0.293 HD
ENDBRANCH  16  19
ENDBRANCH   3  13
BRANCH  10  21
ATOM     21  O   UNL     1      17.635  -2.038  10.434  1.00  0.00    -0.507 OA
ATOM     22  H   UNL     1      17.007  -2.809  10.630  1.00  0.00     0.293 HD
ENDBRANCH  10  21
BRANCH  11  23
ATOM     23  O   UNL     1      15.946   2.417  11.186  1.00  0.00    -0.508 OA
ATOM     24  H   UNL     1      15.968   3.316  11.653  1.00  0.00     0.293 HD
ENDBRANCH  11  23
ENDBRANCH   1   2
BRANCH   1  25
ATOM     25  C   UNL     1      20.752  -3.710  15.135  1.00  0.00     0.339 C 
ATOM     26  C   UNL     1      21.868  -4.005  16.172  1.00  0.00     0.214 C 
ATOM     27  O   UNL     1      19.507  -3.555  15.790  1.00  0.00    -0.332 OA
ATOM     28  C   UNL     1      21.312  -4.690  17.449  1.00  0.00     0.180 C 
ATOM     29  C   UNL     1      19.035  -4.816  16.237  1.00  0.00     0.179 C 
ATOM     30  C   UNL     1      20.071  -5.564  17.142  1.00  0.00     0.177 C 
BRANCH  26  31
ATOM     31  O   UNL     1      22.615  -2.857  16.503  1.00  0.00    -0.384 OA
ATOM     32  H   UNL     1      23.113  -3.042  17.342  1.00  0.00     0.211 HD
ENDBRANCH  26  31
BRANCH  28  33
ATOM     33  O   UNL     1      21.029  -3.765  18.472  1.00  0.00    -0.387 OA
ATOM     34  H   UNL     1      21.811  -3.163  18.570  1.00  0.00     0.211 HD
ENDBRANCH  28  33
BRANCH  29  35
ATOM     35  C   UNL     1      17.693  -4.620  16.956  1.00  0.00     0.191 C 
BRANCH  35  36
ATOM     36  O   UNL     1      17.889  -4.105  18.247  1.00  0.00    -0.394 OA
ATOM     37  H   UNL     1      16.993  -3.860  18.598  1.00  0.00     0.210 HD
ENDBRANCH  35  36
ENDBRANCH  29  35
BRANCH  30  38
ATOM     38  O   UNL     1      20.482  -6.738  16.484  1.00  0.00    -0.387 OA
ATOM     39  H   UNL     1      20.824  -6.470  15.591  1.00  0.00     0.211 HD
ENDBRANCH  30  38
ENDBRANCH   1  25
TORSDOF 11
ENDMDL
MODEL 4
REMARK VINA RESULT:    -4.098      3.405      7.133
REMARK INTER + INTRA:          -7.662
REMARK INTER:                  -6.030
REMARK INTRA:                  -1.631
REMARK UNBOUND:                -1.767
REMARK SMILES O=c1c(O[C@@H]2O[C@H](CO)[C@@H](O)[C@H](O)[C@@H]2O)c(-c2ccc(O)cc2)oc2cc(O)cc(O)c12
REMARK SMILES IDX 4 1 3 2 16 3 24 4 2 5 25 6 1 7 32 8 26 9 30 10 27 11 29 12
REMARK SMILES IDX 17 13 18 14 19 15 20 16 23 17 22 18 21 19 31 21 28 23 5 25
REMARK SMILES IDX 14 26 6 27 12 28 7 29 10 30 15 31 13 33 8 35 9 36 11 38
REMARK H PARENT 21 20 31 22 28 24 15 32 13 34 9 37 11 39
REMARK Flexibility Score: inf
ROOT
ATOM      1  O   UNL     1      20.387   0.478  10.778  1.00  0.00    -0.454 OA
ENDROOT
BRANCH   1   2
ATOM      2  C   UNL     1      19.848  -0.817  10.629  1.00  0.00     0.214 A 
ATOM      3  C   UNL     1      18.448  -0.964  10.730  1.00  0.00     0.180 A 
ATOM      4  O   UNL     1      17.892  -2.165  10.624  1.00  0.00    -0.452 OA
ATOM      5  C   UNL     1      20.626  -1.976  10.404  1.00  0.00     0.239 A 
ATOM      6  C   UNL     1      18.583  -3.272  10.396  1.00  0.00     0.146 A 
ATOM      7  O   UNL     1      21.881  -1.899  10.326  1.00  0.00    -0.285 OA
ATOM      8  C   UNL     1      19.990  -3.227  10.269  1.00  0.00     0.111 A 
ATOM      9  C   UNL     1      17.902  -4.485  10.275  1.00  0.00     0.094 A 
ATOM     10  C   UNL     1      20.696  -4.431  10.014  1.00  0.00     0.134 A 
ATOM     11  C   UNL     1      18.600  -5.667  10.017  1.00  0.00     0.123 A 
ATOM     12  C   UNL     1      19.991  -5.637   9.892  1.00  0.00     0.093 A 
BRANCH   3  13
ATOM     13  C   UNL     1      17.557   0.193  10.976  1.00  0.00     0.021 A 
ATOM     14  C   UNL     1      17.121   0.464  12.284  1.00  0.00     0.016 A 
ATOM     15  C   UNL     1      16.281   1.551  12.539  1.00  0.00     0.047 A 
ATOM     16  C   UNL     1      15.853   2.372  11.491  1.00  0.00     0.115 A 
ATOM     17  C   UNL     1      17.106   1.009   9.923  1.00  0.00     0.016 A 
ATOM     18  C   UNL     1      16.267   2.097  10.182  1.00  0.00     0.047 A 
BRANCH  16  19
ATOM     19  O   UNL     1      15.020   3.453  11.760  1.00  0.00    -0.508 OA
ATOM     20  H   UNL     1      14.384   3.817  11.061  1.00  0.00     0.293 HD
ENDBRANCH  16  19
ENDBRANCH   3  13
BRANCH  10  21
ATOM     21  O   UNL     1      22.085  -4.435   9.875  1.00  0.00    -0.507 OA
ATOM     22  H   UNL     1      22.688  -4.890  10.551  1.00  0.00     0.293 HD
ENDBRANCH  10  21
BRANCH  11  23
ATOM     23  O   UNL     1      17.925  -6.876   9.875  1.00  0.00    -0.508 OA
ATOM     24  H   UNL     1      18.410  -7.764   9.938  1.00  0.00     0.293 HD
ENDBRANCH  11  23
ENDBRANCH   1   2
BRANCH   1  25
ATOM     25  C   UNL     1      21.012   1.035  11.933  1.00  0.00     0.339 C 
ATOM     26  C   UNL     1      20.747   2.563  11.989  1.00  0.00     0.214 C 
ATOM     27  O   UNL     1      20.498   0.409  13.093  1.00  0.00    -0.332 OA
ATOM     28  C   UNL     1      20.638   3.084  13.448  1.00  0.00     0.180 C 
ATOM     29  C   UNL     1      21.319   0.712  14.211  1.00  0.00     0.179 C 
ATOM     30  C   UNL     1      21.506   2.252  14.424  1.00  0.00     0.177 C 
BRANCH  26  31
ATOM     31  O   UNL     1      19.620   2.944  11.235  1.00  0.00    -0.384 OA
ATOM     32  H   UNL     1      19.071   3.560  11.787  1.00  0.00     0.211 HD
ENDBRANCH  26  31
BRANCH  28  33
ATOM     33  O   UNL     1      19.305   3.145  13.895  1.00  0.00    -0.387 OA
ATOM     34  H   UNL     1      18.906   3.990  13.565  1.00  0.00     0.211 HD
ENDBRANCH  28  33
BRANCH  29  35
ATOM     35  C   UNL     1      20.734   0.034  15.458  1.00  0.00     0.191 C 
BRANCH  35  36
ATOM     36  O   UNL     1      19.386   0.386  15.631  1.00  0.00    -0.394 OA
ATOM     37  H   UNL     1      18.850  -0.424  15.425  1.00  0.00     0.210 HD
ENDBRANCH  35  36
ENDBRANCH  29  35
BRANCH  30  38
ATOM     38  O   UNL     1      22.862   2.574  14.229  1.00  0.00    -0.387 OA
ATOM     39  H   UNL     1      22.894   3.486  13.837  1.00  0.00     0.211 HD
ENDBRANCH  30  38
ENDBRANCH   1  25
TORSDOF 11
ENDMDL
MODEL 5
REMARK VINA RESULT:    -3.989      3.365      8.514
REMARK INTER + INTRA:          -7.505
REMARK INTER:                  -5.816
REMARK INTRA:                  -1.689
REMARK UNBOUND:                -1.767
REMARK SMILES O=c1c(O[C@@H]2O[C@H](CO)[C@@H](O)[C@H](O)[C@@H]2O)c(-c2ccc(O)cc2)oc2cc(O)cc(O)c12
REMARK SMILES IDX 4 1 3 2 16 3 24 4 2 5 25 6 1 7 32 8 26 9 30 10 27 11 29 12
REMARK SMILES IDX 17 13 18 14 19 15 20 16 23 17 22 18 21 19 31 21 28 23 5 25
REMARK SMILES IDX 14 26 6 27 12 28 7 29 10 30 15 31 13 33 8 35 9 36 11 38
REMARK H PARENT 21 20 31 22 28 24 15 32 13 34 9 37 11 39
REMARK Flexibility Score: inf
ROOT
ATOM      1  O   UNL     1      19.301   1.885  10.773  1.00  0.00    -0.454 OA
ENDROOT
BRANCH   1   2
ATOM      2  C   UNL     1      19.477   0.637  11.405  1.00  0.00     0.214 A 
ATOM      3  C   UNL     1      18.758   0.395  12.596  1.00  0.00     0.180 A 
ATOM      4  O   UNL     1      18.907  -0.754  13.246  1.00  0.00    -0.452 OA
ATOM      5  C   UNL     1      20.343  -0.376  10.931  1.00  0.00     0.239 A 
ATOM      6  C   UNL     1      19.695  -1.733  12.825  1.00  0.00     0.146 A 
ATOM      7  O   UNL     1      21.022  -0.198   9.884  1.00  0.00    -0.285 OA
ATOM      8  C   UNL     1      20.449  -1.590  11.638  1.00  0.00     0.111 A 
ATOM      9  C   UNL     1      19.764  -2.914  13.568  1.00  0.00     0.094 A 
ATOM     10  C   UNL     1      21.271  -2.664  11.214  1.00  0.00     0.134 A 
ATOM     11  C   UNL     1      20.571  -3.972  13.142  1.00  0.00     0.123 A 
ATOM     12  C   UNL     1      21.323  -3.843  11.973  1.00  0.00     0.093 A 
BRANCH   3  13
ATOM     13  C   UNL     1      17.838   1.401  13.171  1.00  0.00     0.021 A 
ATOM     14  C   UNL     1      18.314   2.298  14.142  1.00  0.00     0.016 A 
ATOM     15  C   UNL     1      17.464   3.258  14.698  1.00  0.00     0.047 A 
ATOM     16  C   UNL     1      16.124   3.325  14.303  1.00  0.00     0.115 A 
ATOM     17  C   UNL     1      16.484   1.460  12.793  1.00  0.00     0.016 A 
ATOM     18  C   UNL     1      15.636   2.422  13.350  1.00  0.00     0.047 A 
BRANCH  16  19
ATOM     19  O   UNL     1      15.290   4.288  14.862  1.00  0.00    -0.508 OA
ATOM     20  H   UNL     1      15.566   4.816  15.680  1.00  0.00     0.293 HD
ENDBRANCH  16  19
ENDBRANCH   3  13
BRANCH  10  21
ATOM     21  O   UNL     1      22.030  -2.572  10.046  1.00  0.00    -0.507 OA
ATOM     22  H   UNL     1      22.151  -3.363   9.423  1.00  0.00     0.293 HD
ENDBRANCH  10  21
BRANCH  11  23
ATOM     23  O   UNL     1      20.627  -5.159  13.867  1.00  0.00    -0.508 OA
ATOM     24  H   UNL     1      20.150  -5.996  13.550  1.00  0.00     0.293 HD
ENDBRANCH  11  23
ENDBRANCH   1   2
BRANCH   1  25
ATOM     25  C   UNL     1      20.192   2.999  10.777  1.00  0.00     0.339 C 
ATOM     26  C   UNL     1      19.383   4.321  10.707  1.00  0.00     0.214 C 
ATOM     27  O   UNL     1      20.975   2.969  11.956  1.00  0.00    -0.332 OA
ATOM     28  C   UNL     1      20.078   5.473  11.481  1.00  0.00     0.180 C 
ATOM     29  C   UNL     1      22.068   3.866  11.834  1.00  0.00     0.179 C 
ATOM     30  C   UNL     1      21.619   5.324  11.479  1.00  0.00     0.177 C 
BRANCH  26  31
ATOM     31  O   UNL     1      18.050   4.161  11.134  1.00  0.00    -0.384 OA
ATOM     32  H   UNL     1      18.041   4.152  12.127  1.00  0.00     0.211 HD
ENDBRANCH  26  31
BRANCH  28  33
ATOM     33  O   UNL     1      19.591   5.602  12.796  1.00  0.00    -0.387 OA
ATOM     34  H   UNL     1      20.242   6.140  13.315  1.00  0.00     0.211 HD
ENDBRANCH  28  33
BRANCH  29  35
ATOM     35  C   UNL     1      22.893   3.827  13.129  1.00  0.00     0.191 C 
BRANCH  35  36
ATOM     36  O   UNL     1      22.098   4.164  14.236  1.00  0.00    -0.394 OA
ATOM     37  H   UNL     1      21.488   4.890  13.942  1.00  0.00     0.210 HD
ENDBRANCH  35  36
ENDBRANCH  29  35
BRANCH  30  38
ATOM     38  O   UNL     1      22.115   5.652  10.204  1.00  0.00    -0.387 OA
ATOM     39  H   UNL     1      21.561   6.398   9.856  1.00  0.00     0.211 HD
ENDBRANCH  30  38
ENDBRANCH   1  25
TORSDOF 11
ENDMDL
MODEL 6
REMARK VINA RESULT:    -3.952      1.821      2.958
REMARK INTER + INTRA:          -7.452
REMARK INTER:                  -6.261
REMARK INTRA:                  -1.190
REMARK UNBOUND:                -1.767
REMARK SMILES O=c1c(O[C@@H]2O[C@H](CO)[C@@H](O)[C@H](O)[C@@H]2O)c(-c2ccc(O)cc2)oc2cc(O)cc(O)c12
REMARK SMILES IDX 4 1 3 2 16 3 24 4 2 5 25 6 1 7 32 8 26 9 30 10 27 11 29 12
REMARK SMILES IDX 17 13 18 14 19 15 20 16 23 17 22 18 21 19 31 21 28 23 5 25
REMARK SMILES IDX 14 26 6 27 12 28 7 29 10 30 15 31 13 33 8 35 9 36 11 38
REMARK H PARENT 21 20 31 22 28 24 15 32 13 34 9 37 11 39
REMARK Flexibility Score: inf
ROOT
ATOM      1  O   UNL     1      20.370  -0.635  14.538  1.00  0.00    -0.454 OA
ENDROOT
BRANCH   1   2
ATOM      2  C   UNL     1      19.306   0.063  13.930  1.00  0.00     0.214 A 
ATOM      3  C   UNL     1      18.904  -0.344  12.640  1.00  0.00     0.180 A 
ATOM      4  O   UNL     1      17.925   0.296  12.011  1.00  0.00    -0.452 OA
ATOM      5  C   UNL     1      18.633   1.155  14.525  1.00  0.00     0.239 A 
ATOM      6  C   UNL     1      17.258   1.311  12.541  1.00  0.00     0.146 A 
ATOM      7  O   UNL     1      18.969   1.568  15.667  1.00  0.00    -0.285 OA
ATOM      8  C   UNL     1      17.580   1.786  13.833  1.00  0.00     0.111 A 
ATOM      9  C   UNL     1      16.226   1.902  11.808  1.00  0.00     0.094 A 
ATOM     10  C   UNL     1      16.837   2.867  14.372  1.00  0.00     0.134 A 
ATOM     11  C   UNL     1      15.493   2.963  12.346  1.00  0.00     0.123 A 
ATOM     12  C   UNL     1      15.803   3.443  13.620  1.00  0.00     0.093 A 
BRANCH   3  13
ATOM     13  C   UNL     1      19.559  -1.470  11.936  1.00  0.00     0.021 A 
ATOM     14  C   UNL     1      20.749  -1.241  11.225  1.00  0.00     0.016 A 
ATOM     15  C   UNL     1      21.387  -2.289  10.555  1.00  0.00     0.047 A 
ATOM     16  C   UNL     1      20.836  -3.574  10.572  1.00  0.00     0.115 A 
ATOM     17  C   UNL     1      18.999  -2.760  11.932  1.00  0.00     0.016 A 
ATOM     18  C   UNL     1      19.639  -3.806  11.262  1.00  0.00     0.047 A 
BRANCH  16  19
ATOM     19  O   UNL     1      21.483  -4.609   9.903  1.00  0.00    -0.508 OA
ATOM     20  H   UNL     1      21.576  -5.528  10.317  1.00  0.00     0.293 HD
ENDBRANCH  16  19
ENDBRANCH   3  13
BRANCH  10  21
ATOM     21  O   UNL     1      17.115   3.367  15.645  1.00  0.00    -0.507 OA
ATOM     22  H   UNL     1      17.995   3.822  15.861  1.00  0.00     0.293 HD
ENDBRANCH  10  21
BRANCH  11  23
ATOM     23  O   UNL     1      14.450   3.542  11.629  1.00  0.00    -0.508 OA
ATOM     24  H   UNL     1      14.309   3.340  10.645  1.00  0.00     0.293 HD
ENDBRANCH  11  23
ENDBRANCH   1   2
BRANCH   1  25
ATOM     25  C   UNL     1      20.347  -1.364  15.764  1.00  0.00     0.339 C 
ATOM     26  C   UNL     1      20.760  -2.838  15.508  1.00  0.00     0.214 C 
ATOM     27  O   UNL     1      21.238  -0.762  16.685  1.00  0.00    -0.332 OA
ATOM     28  C   UNL     1      21.523  -3.449  16.714  1.00  0.00     0.180 C 
ATOM     29  C   UNL     1      20.998  -1.266  17.990  1.00  0.00     0.179 C 
ATOM     30  C   UNL     1      21.070  -2.829  18.059  1.00  0.00     0.177 C 
BRANCH  26  31
ATOM     31  O   UNL     1      21.495  -2.993  14.317  1.00  0.00    -0.384 OA
ATOM     32  H   UNL     1      20.947  -3.526  13.682  1.00  0.00     0.211 HD
ENDBRANCH  26  31
BRANCH  28  33
ATOM     33  O   UNL     1      22.919  -3.353  16.566  1.00  0.00    -0.387 OA
ATOM     34  H   UNL     1      23.339  -3.576  17.436  1.00  0.00     0.211 HD
ENDBRANCH  28  33
BRANCH  29  35
ATOM     35  C   UNL     1      21.985  -0.610  18.967  1.00  0.00     0.191 C 
BRANCH  35  36
ATOM     36  O   UNL     1      21.620   0.721  19.226  1.00  0.00    -0.394 OA
ATOM     37  H   UNL     1      20.996   0.703  19.998  1.00  0.00     0.210 HD
ENDBRANCH  35  36
ENDBRANCH  29  35
BRANCH  30  38
ATOM     38  O   UNL     1      19.797  -3.325  18.393  1.00  0.00    -0.387 OA
ATOM     39  H   UNL     1      19.895  -3.845  19.233  1.00  0.00     0.211 HD
ENDBRANCH  30  38
ENDBRANCH   1  25
TORSDOF 11
ENDMDL
MODEL 7
REMARK VINA RESULT:    -3.872      2.826      5.803
REMARK INTER + INTRA:          -7.337
REMARK INTER:                  -5.837
REMARK INTRA:                  -1.499
REMARK UNBOUND:                -1.767
REMARK SMILES O=c1c(O[C@@H]2O[C@H](CO)[C@@H](O)[C@H](O)[C@@H]2O)c(-c2ccc(O)cc2)oc2cc(O)cc(O)c12
REMARK SMILES IDX 4 1 3 2 16 3 24 4 2 5 25 6 1 7 32 8 26 9 30 10 27 11 29 12
REMARK SMILES IDX 17 13 18 14 19 15 20 16 23 17 22 18 21 19 31 21 28 23 5 25
REMARK SMILES IDX 14 26 6 27 12 28 7 29 10 30 15 31 13 33 8 35 9 36 11 38
REMARK H PARENT 21 20 31 22 28 24 15 32 13 34 9 37 11 39
REMARK Flexibility Score: inf
ROOT
ATOM      1  O   UNL     1      18.594  -0.729  13.226  1.00  0.00    -0.454 OA
ENDROOT
BRANCH   1   2
ATOM      2  C   UNL     1      18.256   0.639  13.172  1.00  0.00     0.214 A 
ATOM      3  C   UNL     1      18.901   1.513  14.074  1.00  0.00     0.180 A 
ATOM      4  O   UNL     1      18.600   2.806  14.083  1.00  0.00    -0.452 OA
ATOM      5  C   UNL     1      17.299   1.183  12.284  1.00  0.00     0.239 A 
ATOM      6  C   UNL     1      17.723   3.357  13.256  1.00  0.00     0.146 A 
ATOM      7  O   UNL     1      16.683   0.440  11.475  1.00  0.00    -0.285 OA
ATOM      8  C   UNL     1      17.033   2.567  12.309  1.00  0.00     0.111 A 
ATOM      9  C   UNL     1      17.495   4.734  13.328  1.00  0.00     0.094 A 
ATOM     10  C   UNL     1      16.110   3.194  11.434  1.00  0.00     0.134 A 
ATOM     11  C   UNL     1      16.590   5.348  12.459  1.00  0.00     0.123 A 
ATOM     12  C   UNL     1      15.899   4.578  11.521  1.00  0.00     0.093 A 
BRANCH   3  13
ATOM     13  C   UNL     1      19.908   1.029  15.045  1.00  0.00     0.021 A 
ATOM     14  C   UNL     1      21.273   1.120  14.728  1.00  0.00     0.016 A 
ATOM     15  C   UNL     1      22.242   0.671  15.630  1.00  0.00     0.047 A 
ATOM     16  C   UNL     1      21.859   0.113  16.854  1.00  0.00     0.115 A 
ATOM     17  C   UNL     1      19.528   0.447  16.268  1.00  0.00     0.016 A 
ATOM     18  C   UNL     1      20.499  -0.000  17.169  1.00  0.00     0.047 A 
BRANCH  16  19
ATOM     19  O   UNL     1      22.833  -0.327  17.744  1.00  0.00    -0.508 OA
ATOM     20  H   UNL     1      23.770   0.057  17.734  1.00  0.00     0.293 HD
ENDBRANCH  16  19
ENDBRANCH   3  13
BRANCH  10  21
ATOM     21  O   UNL     1      15.409   2.456  10.479  1.00  0.00    -0.507 OA
ATOM     22  H   UNL     1      15.500   2.643   9.487  1.00  0.00     0.293 HD
ENDBRANCH  10  21
BRANCH  11  23
ATOM     23  O   UNL     1      16.374   6.721  12.512  1.00  0.00    -0.508 OA
ATOM     24  H   UNL     1      16.486   7.242  13.375  1.00  0.00     0.293 HD
ENDBRANCH  11  23
ENDBRANCH   1   2
BRANCH   1  25
ATOM     25  C   UNL     1      19.397  -1.466  12.305  1.00  0.00     0.339 C 
ATOM     26  C   UNL     1      20.575  -2.141  13.057  1.00  0.00     0.214 C 
ATOM     27  O   UNL     1      18.600  -2.447  11.668  1.00  0.00    -0.332 OA
ATOM     28  C   UNL     1      20.972  -3.501  12.420  1.00  0.00     0.180 C 
ATOM     29  C   UNL     1      19.284  -2.969  10.540  1.00  0.00     0.179 C 
ATOM     30  C   UNL     1      20.704  -3.525  10.896  1.00  0.00     0.177 C 
BRANCH  26  31
ATOM     31  O   UNL     1      20.323  -2.286  14.435  1.00  0.00    -0.384 OA
ATOM     32  H   UNL     1      20.608  -1.451  14.892  1.00  0.00     0.211 HD
ENDBRANCH  26  31
BRANCH  28  33
ATOM     33  O   UNL     1      20.344  -4.590  13.054  1.00  0.00    -0.387 OA
ATOM     34  H   UNL     1      19.385  -4.582  12.804  1.00  0.00     0.211 HD
ENDBRANCH  28  33
BRANCH  29  35
ATOM     35  C   UNL     1      18.407  -4.040   9.875  1.00  0.00     0.191 C 
BRANCH  35  36
ATOM     36  O   UNL     1      18.500  -5.259  10.565  1.00  0.00    -0.394 OA
ATOM     37  H   UNL     1      19.166  -5.128  11.290  1.00  0.00     0.210 HD
ENDBRANCH  35  36
ENDBRANCH  29  35
BRANCH  30  38
ATOM     38  O   UNL     1      21.673  -2.741  10.242  1.00  0.00    -0.387 OA
ATOM     39  H   UNL     1      22.339  -3.364   9.850  1.00  0.00     0.211 HD
ENDBRANCH  30  38
ENDBRANCH   1  25
TORSDOF 11
ENDMDL
MODEL 8
REMARK VINA RESULT:    -3.826      3.489      8.376
REMARK INTER + INTRA:          -7.271
REMARK INTER:                  -5.837
REMARK INTRA:                  -1.434
REMARK UNBOUND:                -1.767
REMARK SMILES O=c1c(O[C@@H]2O[C@H](CO)[C@@H](O)[C@H](O)[C@@H]2O)c(-c2ccc(O)cc2)oc2cc(O)cc(O)c12
REMARK SMILES IDX 4 1 3 2 16 3 24 4 2 5 25 6 1 7 32 8 26 9 30 10 27 11 29 12
REMARK SMILES IDX 17 13 18 14 19 15 20 16 23 17 22 18 21 19 31 21 28 23 5 25
REMARK SMILES IDX 14 26 6 27 12 28 7 29 10 30 15 31 13 33 8 35 9 36 11 38
REMARK H PARENT 21 20 31 22 28 24 15 32 13 34 9 37 11 39
REMARK Flexibility Score: inf
ROOT
ATOM      1  O   UNL     1      19.185   2.750  14.087  1.00  0.00    -0.454 OA
ENDROOT
BRANCH   1   2
ATOM      2  C   UNL     1      19.955   1.572  13.985  1.00  0.00     0.214 A 
ATOM      3  C   UNL     1      21.014   1.557  13.052  1.00  0.00     0.180 A 
ATOM      4  O   UNL     1      21.753   0.464  12.897  1.00  0.00    -0.452 OA
ATOM      5  C   UNL     1      19.717   0.403  14.745  1.00  0.00     0.239 A 
ATOM      6  C   UNL     1      21.574  -0.644  13.601  1.00  0.00     0.146 A 
ATOM      7  O   UNL     1      18.771   0.362  15.575  1.00  0.00    -0.285 OA
ATOM      8  C   UNL     1      20.545  -0.724  14.567  1.00  0.00     0.111 A 
ATOM      9  C   UNL     1      22.422  -1.732  13.381  1.00  0.00     0.094 A 
ATOM     10  C   UNL     1      20.391  -1.922  15.310  1.00  0.00     0.134 A 
ATOM     11  C   UNL     1      22.270  -2.908  14.120  1.00  0.00     0.123 A 
ATOM     12  C   UNL     1      21.256  -3.001  15.075  1.00  0.00     0.093 A 
BRANCH   3  13
ATOM     13  C   UNL     1      21.327   2.730  12.206  1.00  0.00     0.021 A 
ATOM     14  C   UNL     1      22.147   3.751  12.718  1.00  0.00     0.016 A 
ATOM     15  C   UNL     1      22.458   4.868  11.937  1.00  0.00     0.047 A 
ATOM     16  C   UNL     1      21.943   4.987  10.642  1.00  0.00     0.115 A 
ATOM     17  C   UNL     1      20.795   2.866  10.911  1.00  0.00     0.016 A 
ATOM     18  C   UNL     1      21.109   3.984  10.132  1.00  0.00     0.047 A 
BRANCH  16  19
ATOM     19  O   UNL     1      22.263   6.103   9.875  1.00  0.00    -0.508 OA
ATOM     20  H   UNL     1      22.997   6.072   9.178  1.00  0.00     0.293 HD
ENDBRANCH  16  19
ENDBRANCH   3  13
BRANCH  10  21
ATOM     21  O   UNL     1      19.394  -2.045  16.278  1.00  0.00    -0.507 OA
ATOM     22  H   UNL     1      18.827  -1.255  16.565  1.00  0.00     0.293 HD
ENDBRANCH  10  21
BRANCH  11  23
ATOM     23  O   UNL     1      23.125  -3.988  13.920  1.00  0.00    -0.508 OA
ATOM     24  H   UNL     1      22.832  -4.806  13.395  1.00  0.00     0.293 HD
ENDBRANCH  11  23
ENDBRANCH   1   2
BRANCH   1  25
ATOM     25  C   UNL     1      18.038   3.111  13.321  1.00  0.00     0.339 C 
ATOM     26  C   UNL     1      16.797   3.212  14.247  1.00  0.00     0.214 C 
ATOM     27  O   UNL     1      18.271   4.352  12.682  1.00  0.00    -0.332 OA
ATOM     28  C   UNL     1      15.797   4.300  13.768  1.00  0.00     0.180 C 
ATOM     29  C   UNL     1      17.291   4.573  11.679  1.00  0.00     0.179 C 
ATOM     30  C   UNL     1      15.828   4.476  12.230  1.00  0.00     0.177 C 
BRANCH  26  31
ATOM     31  O   UNL     1      17.145   3.410  15.597  1.00  0.00    -0.384 OA
ATOM     32  H   UNL     1      17.653   4.261  15.665  1.00  0.00     0.211 HD
ENDBRANCH  26  31
BRANCH  28  33
ATOM     33  O   UNL     1      16.001   5.533  14.415  1.00  0.00    -0.387 OA
ATOM     34  H   UNL     1      15.435   5.552  15.229  1.00  0.00     0.211 HD
ENDBRANCH  28  33
BRANCH  29  35
ATOM     35  C   UNL     1      17.556   5.930  11.012  1.00  0.00     0.191 C 
BRANCH  35  36
ATOM     36  O   UNL     1      16.734   6.926  11.563  1.00  0.00    -0.394 OA
ATOM     37  H   UNL     1      16.107   6.470  12.184  1.00  0.00     0.210 HD
ENDBRANCH  35  36
ENDBRANCH  29  35
BRANCH  30  38
ATOM     38  O   UNL     1      15.189   3.379  11.624  1.00  0.00    -0.387 OA
ATOM     39  H   UNL     1      14.671   3.729  10.853  1.00  0.00     0.211 HD
ENDBRANCH  30  38
ENDBRANCH   1  25
TORSDOF 11
ENDMDL
