MODEL 1
REMARK VINA RESULT:    -4.022      0.000      0.000
REMARK INTER + INTRA:         -16.118
REMARK INTER:                 -10.606
REMARK INTRA:                  -5.511
REMARK UNBOUND:                -5.511
REMARK SMILES CCCCCCCCCCCCCCCCCCCCCCCCCCCCCC(=O)[O-]
REMARK SMILES IDX 16 1 17 2 18 3 19 4 20 5 21 6 22 7 23 8 24 9 25 10 26 11
REMARK SMILES IDX 27 12 28 13 29 14 30 15 31 16 32 17 15 18 14 19 13 20 12 21
REMARK SMILES IDX 11 22 10 23 9 24 8 25 7 26 6 27 5 28 4 29 3 30 2 31 1 32
REMARK H PARENT
REMARK Flexibility Score: inf
ROOT
ATOM      1  C   UNL     1     -24.564  33.787 -37.136  1.00  0.00     0.000 C 
ENDROOT
BRANCH   1   2
ATOM      2  C   UNL     1     -25.922  33.654 -37.853  1.00  0.00     0.000 C 
BRANCH   2   3
ATOM      3  C   UNL     1     -27.160  33.832 -36.958  1.00  0.00     0.000 C 
BRANCH   3   4
ATOM      4  C   UNL     1     -28.219  34.761 -37.576  1.00  0.00     0.000 C 
BRANCH   4   5
ATOM      5  C   UNL     1     -29.110  34.044 -38.604  1.00  0.00     0.000 C 
BRANCH   5   6
ATOM      6  C   UNL     1     -28.859  34.520 -40.046  1.00  0.00     0.000 C 
BRANCH   6   7
ATOM      7  C   UNL     1     -28.838  33.356 -41.052  1.00  0.00     0.000 C 
BRANCH   7   8
ATOM      8  C   UNL     1     -27.909  32.207 -40.618  1.00  0.00     0.000 C 
BRANCH   8   9
ATOM      9  C   UNL     1     -28.568  30.821 -40.771  1.00  0.00     0.000 C 
BRANCH   9  10
ATOM     10  C   UNL     1     -28.315  29.879 -39.579  1.00  0.00     0.000 C 
BRANCH  10  11
ATOM     11  C   UNL     1     -27.997  30.594 -38.250  1.00  0.00     0.000 C 
BRANCH  11  12
ATOM     12  C   UNL     1     -27.994  29.704 -36.991  1.00  0.00     0.000 C 
BRANCH  12  13
ATOM     13  C   UNL     1     -29.268  29.840 -36.142  1.00  0.00     0.006 C 
BRANCH  13  14
ATOM     14  C   UNL     1     -29.312  31.198 -35.436  1.00  0.00     0.053 C 
BRANCH  14  15
ATOM     15  C   UNL     1     -29.671  31.030 -33.991  1.00  0.00     0.041 C 
ATOM     16  O   UNL     1     -30.563  30.210 -33.651  1.00  0.00    -0.550 OA
ATOM     17  O   UNL     1     -29.025  31.791 -33.022  1.00  0.00    -0.550 OA
ENDBRANCH  14  15
ENDBRANCH  13  14
ENDBRANCH  12  13
ENDBRANCH  11  12
ENDBRANCH  10  11
ENDBRANCH   9  10
ENDBRANCH   8   9
ENDBRANCH   7   8
ENDBRANCH   6   7
ENDBRANCH   5   6
ENDBRANCH   4   5
ENDBRANCH   3   4
ENDBRANCH   2   3
ENDBRANCH   1   2
BRANCH   1  18
ATOM     18  C   UNL     1     -23.419  34.164 -38.092  1.00  0.00     0.000 C 
BRANCH  18  19
ATOM     19  C   UNL     1     -22.048  33.668 -37.601  1.00  0.00     0.000 C 
BRANCH  19  20
ATOM     20  C   UNL     1     -20.942  33.840 -38.660  1.00  0.00     0.000 C 
BRANCH  20  21
ATOM     21  C   UNL     1     -21.219  33.057 -39.961  1.00  0.00     0.000 C 
BRANCH  21  22
ATOM     22  C   UNL     1     -19.984  32.397 -40.612  1.00  0.00     0.000 C 
BRANCH  22  23
ATOM     23  C   UNL     1     -19.721  30.952 -40.152  1.00  0.00     0.000 C 
BRANCH  23  24
ATOM     24  C   UNL     1     -20.620  29.933 -40.872  1.00  0.00    -0.000 C 
BRANCH  24  25
ATOM     25  C   UNL     1     -21.251  28.923 -39.899  1.00  0.00    -0.000 C 
BRANCH  25  26
ATOM     26  C   UNL     1     -21.244  29.376 -38.425  1.00  0.00    -0.000 C 
BRANCH  26  27
ATOM     27  C   UNL     1     -22.499  30.145 -37.961  1.00  0.00    -0.000 C 
BRANCH  27  28
ATOM     28  C   UNL     1     -23.808  29.336 -37.961  1.00  0.00    -0.000 C 
BRANCH  28  29
ATOM     29  C   UNL     1     -24.743  29.713 -39.120  1.00  0.00    -0.000 C 
BRANCH  29  30
ATOM     30  C   UNL     1     -24.325  31.010 -39.830  1.00  0.00    -0.000 C 
BRANCH  30  31
ATOM     31  C   UNL     1     -24.426  30.920 -41.359  1.00  0.00    -0.003 C 
ATOM     32  C   UNL     1     -24.392  29.468 -41.825  1.00  0.00     0.004 C 
ENDBRANCH  30  31
ENDBRANCH  29  30
ENDBRANCH  28  29
ENDBRANCH  27  28
ENDBRANCH  26  27
ENDBRANCH  25  26
ENDBRANCH  24  25
ENDBRANCH  23  24
ENDBRANCH  22  23
ENDBRANCH  21  22
ENDBRANCH  20  21
ENDBRANCH  19  20
ENDBRANCH  18  19
ENDBRANCH   1  18
TORSDOF 28
ENDMDL
MODEL 2
REMARK VINA RESULT:    -4.008      1.830      4.370
REMARK INTER + INTRA:         -16.081
REMARK INTER:                 -10.562
REMARK INTRA:                  -5.519
REMARK UNBOUND:                -5.511
REMARK SMILES CCCCCCCCCCCCCCCCCCCCCCCCCCCCCC(=O)[O-]
REMARK SMILES IDX 16 1 17 2 18 3 19 4 20 5 21 6 22 7 23 8 24 9 25 10 26 11
REMARK SMILES IDX 27 12 28 13 29 14 30 15 31 16 32 17 15 18 14 19 13 20 12 21
REMARK SMILES IDX 11 22 10 23 9 24 8 25 7 26 6 27 5 28 4 29 3 30 2 31 1 32
REMARK H PARENT
REMARK Flexibility Score: inf
ROOT
ATOM      1  C   UNL     1     -23.104  28.877 -42.023  1.00  0.00     0.000 C 
ENDROOT
BRANCH   1   2
ATOM      2  C   UNL     1     -24.582  28.578 -41.706  1.00  0.00     0.000 C 
BRANCH   2   3
ATOM      3  C   UNL     1     -25.497  29.810 -41.611  1.00  0.00     0.000 C 
BRANCH   3   4
ATOM      4  C   UNL     1     -24.716  31.131 -41.501  1.00  0.00     0.000 C 
BRANCH   4   5
ATOM      5  C   UNL     1     -24.543  31.598 -40.046  1.00  0.00     0.000 C 
BRANCH   5   6
ATOM      6  C   UNL     1     -25.552  30.943 -39.085  1.00  0.00     0.000 C 
BRANCH   6   7
ATOM      7  C   UNL     1     -26.653  31.920 -38.638  1.00  0.00     0.000 C 
BRANCH   7   8
ATOM      8  C   UNL     1     -27.725  32.149 -39.720  1.00  0.00     0.000 C 
BRANCH   8   9
ATOM      9  C   UNL     1     -28.973  31.265 -39.515  1.00  0.00     0.000 C 
BRANCH   9  10
ATOM     10  C   UNL     1     -29.078  30.099 -40.515  1.00  0.00     0.000 C 
BRANCH  10  11
ATOM     11  C   UNL     1     -29.128  28.699 -39.870  1.00  0.00     0.000 C 
BRANCH  11  12
ATOM     12  C   UNL     1     -27.794  28.168 -39.309  1.00  0.00     0.000 C 
BRANCH  12  13
ATOM     13  C   UNL     1     -27.838  27.876 -37.801  1.00  0.00     0.006 C 
BRANCH  13  14
ATOM     14  C   UNL     1     -29.227  28.172 -37.228  1.00  0.00     0.053 C 
BRANCH  14  15
ATOM     15  C   UNL     1     -29.126  29.085 -36.045  1.00  0.00     0.041 C 
ATOM     16  O   UNL     1     -29.521  28.703 -34.913  1.00  0.00    -0.550 OA
ATOM     17  O   UNL     1     -28.605  30.366 -36.199  1.00  0.00    -0.550 OA
ENDBRANCH  14  15
ENDBRANCH  13  14
ENDBRANCH  12  13
ENDBRANCH  11  12
ENDBRANCH  10  11
ENDBRANCH   9  10
ENDBRANCH   8   9
ENDBRANCH   7   8
ENDBRANCH   6   7
ENDBRANCH   5   6
ENDBRANCH   4   5
ENDBRANCH   3   4
ENDBRANCH   2   3
ENDBRANCH   1   2
BRANCH   1  18
ATOM     18  C   UNL     1     -22.190  28.739 -40.792  1.00  0.00     0.000 C 
BRANCH  18  19
ATOM     19  C   UNL     1     -21.145  29.863 -40.699  1.00  0.00     0.000 C 
BRANCH  19  20
ATOM     20  C   UNL     1     -21.014  30.661 -42.011  1.00  0.00     0.000 C 
BRANCH  20  21
ATOM     21  C   UNL     1     -19.569  30.712 -42.550  1.00  0.00     0.000 C 
BRANCH  21  22
ATOM     22  C   UNL     1     -18.500  30.071 -41.640  1.00  0.00     0.000 C 
BRANCH  22  23
ATOM     23  C   UNL     1     -17.674  31.080 -40.823  1.00  0.00     0.000 C 
BRANCH  23  24
ATOM     24  C   UNL     1     -17.906  30.942 -39.308  1.00  0.00    -0.000 C 
BRANCH  24  25
ATOM     25  C   UNL     1     -18.880  32.003 -38.770  1.00  0.00    -0.000 C 
BRANCH  25  26
ATOM     26  C   UNL     1     -19.212  33.124 -39.774  1.00  0.00    -0.000 C 
BRANCH  26  27
ATOM     27  C   UNL     1     -20.682  33.596 -39.780  1.00  0.00    -0.000 C 
BRANCH  27  28
ATOM     28  C   UNL     1     -21.184  34.215 -38.464  1.00  0.00    -0.000 C 
BRANCH  28  29
ATOM     29  C   UNL     1     -22.704  34.085 -38.283  1.00  0.00    -0.000 C 
BRANCH  29  30
ATOM     30  C   UNL     1     -23.091  33.271 -37.038  1.00  0.00    -0.000 C 
BRANCH  30  31
ATOM     31  C   UNL     1     -22.028  32.238 -36.639  1.00  0.00    -0.003 C 
ATOM     32  C   UNL     1     -22.330  30.875 -37.254  1.00  0.00     0.004 C 
ENDBRANCH  30  31
ENDBRANCH  29  30
ENDBRANCH  28  29
ENDBRANCH  27  28
ENDBRANCH  26  27
ENDBRANCH  25  26
ENDBRANCH  24  25
ENDBRANCH  23  24
ENDBRANCH  22  23
ENDBRANCH  21  22
ENDBRANCH  20  21
ENDBRANCH  19  20
ENDBRANCH  18  19
ENDBRANCH   1  18
TORSDOF 28
ENDMDL
MODEL 3
REMARK VINA RESULT:    -4.005      1.355      2.442
REMARK INTER + INTRA:         -16.071
REMARK INTER:                 -10.271
REMARK INTRA:                  -5.800
REMARK UNBOUND:                -5.511
REMARK SMILES CCCCCCCCCCCCCCCCCCCCCCCCCCCCCC(=O)[O-]
REMARK SMILES IDX 16 1 17 2 18 3 19 4 20 5 21 6 22 7 23 8 24 9 25 10 26 11
REMARK SMILES IDX 27 12 28 13 29 14 30 15 31 16 32 17 15 18 14 19 13 20 12 21
REMARK SMILES IDX 11 22 10 23 9 24 8 25 7 26 6 27 5 28 4 29 3 30 2 31 1 32
REMARK H PARENT
REMARK Flexibility Score: inf
ROOT
ATOM      1  C   UNL     1     -23.292  33.768 -36.713  1.00  0.00     0.000 C 
ENDROOT
BRANCH   1   2
ATOM      2  C   UNL     1     -24.387  34.124 -37.738  1.00  0.00     0.000 C 
BRANCH   2   3
ATOM      3  C   UNL     1     -25.825  33.786 -37.309  1.00  0.00     0.000 C 
BRANCH   3   4
ATOM      4  C   UNL     1     -26.656  33.156 -38.440  1.00  0.00     0.000 C 
BRANCH   4   5
ATOM      5  C   UNL     1     -27.638  32.088 -37.929  1.00  0.00     0.000 C 
BRANCH   5   6
ATOM      6  C   UNL     1     -28.524  31.509 -39.047  1.00  0.00     0.000 C 
BRANCH   6   7
ATOM      7  C   UNL     1     -27.700  31.008 -40.246  1.00  0.00     0.000 C 
BRANCH   7   8
ATOM      8  C   UNL     1     -28.016  29.547 -40.620  1.00  0.00     0.000 C 
BRANCH   8   9
ATOM      9  C   UNL     1     -27.107  28.538 -39.889  1.00  0.00     0.000 C 
BRANCH   9  10
ATOM     10  C   UNL     1     -27.705  28.006 -38.573  1.00  0.00     0.000 C 
BRANCH  10  11
ATOM     11  C   UNL     1     -26.886  28.342 -37.311  1.00  0.00     0.000 C 
BRANCH  11  12
ATOM     12  C   UNL     1     -27.695  28.821 -36.089  1.00  0.00     0.000 C 
BRANCH  12  13
ATOM     13  C   UNL     1     -29.177  29.086 -36.404  1.00  0.00     0.006 C 
BRANCH  13  14
ATOM     14  C   UNL     1     -30.008  29.132 -35.119  1.00  0.00     0.053 C 
BRANCH  14  15
ATOM     15  C   UNL     1     -30.098  30.534 -34.598  1.00  0.00     0.041 C 
ATOM     16  O   UNL     1     -29.313  30.927 -33.697  1.00  0.00    -0.550 OA
ATOM     17  O   UNL     1     -31.059  31.404 -35.105  1.00  0.00    -0.550 OA
ENDBRANCH  14  15
ENDBRANCH  13  14
ENDBRANCH  12  13
ENDBRANCH  11  12
ENDBRANCH  10  11
ENDBRANCH   9  10
ENDBRANCH   8   9
ENDBRANCH   7   8
ENDBRANCH   6   7
ENDBRANCH   5   6
ENDBRANCH   4   5
ENDBRANCH   3   4
ENDBRANCH   2   3
ENDBRANCH   1   2
BRANCH   1  18
ATOM     18  C   UNL     1     -21.938  33.452 -37.373  1.00  0.00     0.000 C 
BRANCH  18  19
ATOM     19  C   UNL     1     -21.738  34.196 -38.704  1.00  0.00     0.000 C 
BRANCH  19  20
ATOM     20  C   UNL     1     -20.798  33.446 -39.667  1.00  0.00     0.000 C 
BRANCH  20  21
ATOM     21  C   UNL     1     -20.008  32.310 -38.983  1.00  0.00     0.000 C 
BRANCH  21  22
ATOM     22  C   UNL     1     -19.495  31.200 -39.925  1.00  0.00     0.000 C 
BRANCH  22  23
ATOM     23  C   UNL     1     -19.200  31.671 -41.360  1.00  0.00     0.000 C 
BRANCH  23  24
ATOM     24  C   UNL     1     -19.982  30.871 -42.415  1.00  0.00    -0.000 C 
BRANCH  24  25
ATOM     25  C   UNL     1     -20.982  29.891 -41.779  1.00  0.00    -0.000 C 
BRANCH  25  26
ATOM     26  C   UNL     1     -22.253  29.651 -42.619  1.00  0.00    -0.000 C 
BRANCH  26  27
ATOM     27  C   UNL     1     -23.576  29.616 -41.825  1.00  0.00    -0.000 C 
BRANCH  27  28
ATOM     28  C   UNL     1     -24.175  30.990 -41.477  1.00  0.00    -0.000 C 
BRANCH  28  29
ATOM     29  C   UNL     1     -23.843  31.442 -40.047  1.00  0.00    -0.000 C 
BRANCH  29  30
ATOM     30  C   UNL     1     -24.244  30.407 -38.984  1.00  0.00    -0.000 C 
BRANCH  30  31
ATOM     31  C   UNL     1     -23.165  30.193 -37.913  1.00  0.00    -0.003 C 
ATOM     32  C   UNL     1     -22.183  29.105 -38.334  1.00  0.00     0.004 C 
ENDBRANCH  30  31
ENDBRANCH  29  30
ENDBRANCH  28  29
ENDBRANCH  27  28
ENDBRANCH  26  27
ENDBRANCH  25  26
ENDBRANCH  24  25
ENDBRANCH  23  24
ENDBRANCH  22  23
ENDBRANCH  21  22
ENDBRANCH  20  21
ENDBRANCH  19  20
ENDBRANCH  18  19
ENDBRANCH   1  18
TORSDOF 28
ENDMDL
MODEL 4
REMARK VINA RESULT:    -3.945      2.301      4.710
REMARK INTER + INTRA:         -15.913
REMARK INTER:                 -10.328
REMARK INTRA:                  -5.585
REMARK UNBOUND:                -5.511
REMARK SMILES CCCCCCCCCCCCCCCCCCCCCCCCCCCCCC(=O)[O-]
REMARK SMILES IDX 16 1 17 2 18 3 19 4 20 5 21 6 22 7 23 8 24 9 25 10 26 11
REMARK SMILES IDX 27 12 28 13 29 14 30 15 31 16 32 17 15 18 14 19 13 20 12 21
REMARK SMILES IDX 11 22 10 23 9 24 8 25 7 26 6 27 5 28 4 29 3 30 2 31 1 32
REMARK H PARENT
REMARK Flexibility Score: inf
ROOT
ATOM      1  C   UNL     1     -23.801  29.029 -42.056  1.00  0.00     0.000 C 
ENDROOT
BRANCH   1   2
ATOM      2  C   UNL     1     -25.145  28.398 -41.642  1.00  0.00     0.000 C 
BRANCH   2   3
ATOM      3  C   UNL     1     -26.321  29.379 -41.510  1.00  0.00     0.000 C 
BRANCH   3   4
ATOM      4  C   UNL     1     -26.640  29.740 -40.049  1.00  0.00     0.000 C 
BRANCH   4   5
ATOM      5  C   UNL     1     -26.528  28.534 -39.102  1.00  0.00     0.000 C 
BRANCH   5   6
ATOM      6  C   UNL     1     -27.859  28.197 -38.405  1.00  0.00     0.000 C 
BRANCH   6   7
ATOM      7  C   UNL     1     -28.905  27.632 -39.381  1.00  0.00     0.000 C 
BRANCH   7   8
ATOM      8  C   UNL     1     -30.279  28.315 -39.246  1.00  0.00     0.000 C 
BRANCH   8   9
ATOM      9  C   UNL     1     -30.166  29.841 -39.058  1.00  0.00     0.000 C 
BRANCH   9  10
ATOM     10  C   UNL     1     -30.755  30.347 -37.728  1.00  0.00     0.000 C 
BRANCH  10  11
ATOM     11  C   UNL     1     -30.120  31.648 -37.196  1.00  0.00     0.000 C 
BRANCH  11  12
ATOM     12  C   UNL     1     -28.615  31.579 -36.869  1.00  0.00     0.000 C 
BRANCH  12  13
ATOM     13  C   UNL     1     -27.740  32.384 -37.843  1.00  0.00     0.006 C 
BRANCH  13  14
ATOM     14  C   UNL     1     -27.582  33.831 -37.366  1.00  0.00     0.053 C 
BRANCH  14  15
ATOM     15  C   UNL     1     -28.357  34.764 -38.244  1.00  0.00     0.041 C 
ATOM     16  O   UNL     1     -28.456  34.539 -39.478  1.00  0.00    -0.550 OA
ATOM     17  O   UNL     1     -28.962  35.892 -37.697  1.00  0.00    -0.550 OA
ENDBRANCH  14  15
ENDBRANCH  13  14
ENDBRANCH  12  13
ENDBRANCH  11  12
ENDBRANCH  10  11
ENDBRANCH   9  10
ENDBRANCH   8   9
ENDBRANCH   7   8
ENDBRANCH   6   7
ENDBRANCH   5   6
ENDBRANCH   4   5
ENDBRANCH   3   4
ENDBRANCH   2   3
ENDBRANCH   1   2
BRANCH   1  18
ATOM     18  C   UNL     1     -23.780  30.557 -41.876  1.00  0.00     0.000 C 
BRANCH  18  19
ATOM     19  C   UNL     1     -22.381  31.161 -42.088  1.00  0.00     0.000 C 
BRANCH  19  20
ATOM     20  C   UNL     1     -21.290  30.086 -42.252  1.00  0.00     0.000 C 
BRANCH  20  21
ATOM     21  C   UNL     1     -19.879  30.588 -41.879  1.00  0.00     0.000 C 
BRANCH  21  22
ATOM     22  C   UNL     1     -19.830  31.966 -41.185  1.00  0.00     0.000 C 
BRANCH  22  23
ATOM     23  C   UNL     1     -19.589  31.903 -39.666  1.00  0.00     0.000 C 
BRANCH  23  24
ATOM     24  C   UNL     1     -19.917  33.230 -38.962  1.00  0.00    -0.000 C 
BRANCH  24  25
ATOM     25  C   UNL     1     -21.326  33.741 -39.310  1.00  0.00    -0.000 C 
BRANCH  25  26
ATOM     26  C   UNL     1     -22.103  34.317 -38.110  1.00  0.00    -0.000 C 
BRANCH  26  27
ATOM     27  C   UNL     1     -23.498  33.703 -37.866  1.00  0.00    -0.000 C 
BRANCH  27  28
ATOM     28  C   UNL     1     -23.900  32.572 -38.829  1.00  0.00    -0.000 C 
BRANCH  28  29
ATOM     29  C   UNL     1     -23.869  31.185 -38.169  1.00  0.00    -0.000 C 
BRANCH  29  30
ATOM     30  C   UNL     1     -22.568  30.417 -38.453  1.00  0.00    -0.000 C 
BRANCH  30  31
ATOM     31  C   UNL     1     -22.772  28.897 -38.534  1.00  0.00    -0.003 C 
ATOM     32  C   UNL     1     -21.552  28.213 -39.141  1.00  0.00     0.004 C 
ENDBRANCH  30  31
ENDBRANCH  29  30
ENDBRANCH  28  29
ENDBRANCH  27  28
ENDBRANCH  26  27
ENDBRANCH  25  26
ENDBRANCH  24  25
ENDBRANCH  23  24
ENDBRANCH  22  23
ENDBRANCH  21  22
ENDBRANCH  20  21
ENDBRANCH  19  20
ENDBRANCH  18  19
ENDBRANCH   1  18
TORSDOF 28
ENDMDL
MODEL 5
REMARK VINA RESULT:    -3.937      2.123      3.911
REMARK INTER + INTRA:         -15.892
REMARK INTER:                 -10.388
REMARK INTRA:                  -5.504
REMARK UNBOUND:                -5.511
REMARK SMILES CCCCCCCCCCCCCCCCCCCCCCCCCCCCCC(=O)[O-]
REMARK SMILES IDX 16 1 17 2 18 3 19 4 20 5 21 6 22 7 23 8 24 9 25 10 26 11
REMARK SMILES IDX 27 12 28 13 29 14 30 15 31 16 32 17 15 18 14 19 13 20 12 21
REMARK SMILES IDX 11 22 10 23 9 24 8 25 7 26 6 27 5 28 4 29 3 30 2 31 1 32
REMARK H PARENT
REMARK Flexibility Score: inf
ROOT
ATOM      1  C   UNL     1     -25.438  30.270 -38.391  1.00  0.00     0.000 C 
ENDROOT
BRANCH   1   2
ATOM      2  C   UNL     1     -26.318  31.535 -38.382  1.00  0.00     0.000 C 
BRANCH   2   3
ATOM      3  C   UNL     1     -27.769  31.324 -37.916  1.00  0.00     0.000 C 
BRANCH   3   4
ATOM      4  C   UNL     1     -28.804  31.896 -38.900  1.00  0.00     0.000 C 
BRANCH   4   5
ATOM      5  C   UNL     1     -28.217  32.989 -39.808  1.00  0.00     0.000 C 
BRANCH   5   6
ATOM      6  C   UNL     1     -28.552  32.772 -41.295  1.00  0.00     0.000 C 
BRANCH   6   7
ATOM      7  C   UNL     1     -29.177  31.391 -41.559  1.00  0.00     0.000 C 
BRANCH   7   8
ATOM      8  C   UNL     1     -28.326  30.520 -42.502  1.00  0.00     0.000 C 
BRANCH   8   9
ATOM      9  C   UNL     1     -27.000  30.068 -41.857  1.00  0.00     0.000 C 
BRANCH   9  10
ATOM     10  C   UNL     1     -26.836  28.538 -41.785  1.00  0.00     0.000 C 
BRANCH  10  11
ATOM     11  C   UNL     1     -28.018  27.793 -41.132  1.00  0.00     0.000 C 
BRANCH  11  12
ATOM     12  C   UNL     1     -28.283  28.119 -39.649  1.00  0.00     0.000 C 
BRANCH  12  13
ATOM     13  C   UNL     1     -29.728  27.831 -39.209  1.00  0.00     0.006 C 
BRANCH  13  14
ATOM     14  C   UNL     1     -29.944  28.231 -37.747  1.00  0.00     0.053 C 
BRANCH  14  15
ATOM     15  C   UNL     1     -31.405  28.348 -37.442  1.00  0.00     0.041 C 
ATOM     16  O   UNL     1     -31.813  28.284 -36.253  1.00  0.00    -0.550 OA
ATOM     17  O   UNL     1     -32.320  28.517 -38.477  1.00  0.00    -0.550 OA
ENDBRANCH  14  15
ENDBRANCH  13  14
ENDBRANCH  12  13
ENDBRANCH  11  12
ENDBRANCH  10  11
ENDBRANCH   9  10
ENDBRANCH   8   9
ENDBRANCH   7   8
ENDBRANCH   6   7
ENDBRANCH   5   6
ENDBRANCH   4   5
ENDBRANCH   3   4
ENDBRANCH   2   3
ENDBRANCH   1   2
BRANCH   1  18
ATOM     18  C   UNL     1     -24.263  30.368 -39.380  1.00  0.00     0.000 C 
BRANCH  18  19
ATOM     19  C   UNL     1     -24.228  31.712 -40.129  1.00  0.00     0.000 C 
BRANCH  19  20
ATOM     20  C   UNL     1     -23.606  31.591 -41.534  1.00  0.00     0.000 C 
BRANCH  20  21
ATOM     21  C   UNL     1     -23.139  30.159 -41.870  1.00  0.00     0.000 C 
BRANCH  21  22
ATOM     22  C   UNL     1     -21.871  30.065 -42.746  1.00  0.00     0.000 C 
BRANCH  22  23
ATOM     23  C   UNL     1     -20.550  30.133 -41.960  1.00  0.00     0.000 C 
BRANCH  23  24
ATOM     24  C   UNL     1     -19.676  31.327 -42.379  1.00  0.00    -0.000 C 
BRANCH  24  25
ATOM     25  C   UNL     1     -19.084  32.069 -41.169  1.00  0.00    -0.000 C 
BRANCH  25  26
ATOM     26  C   UNL     1     -20.026  32.144 -39.951  1.00  0.00    -0.000 C 
BRANCH  26  27
ATOM     27  C   UNL     1     -20.881  33.426 -39.850  1.00  0.00    -0.000 C 
BRANCH  27  28
ATOM     28  C   UNL     1     -20.806  34.165 -38.503  1.00  0.00    -0.000 C 
BRANCH  28  29
ATOM     29  C   UNL     1     -22.184  34.362 -37.853  1.00  0.00    -0.000 C 
BRANCH  29  30
ATOM     30  C   UNL     1     -22.735  33.076 -37.216  1.00  0.00    -0.000 C 
BRANCH  30  31
ATOM     31  C   UNL     1     -21.686  32.311 -36.398  1.00  0.00    -0.003 C 
ATOM     32  C   UNL     1     -21.638  30.842 -36.804  1.00  0.00     0.004 C 
ENDBRANCH  30  31
ENDBRANCH  29  30
ENDBRANCH  28  29
ENDBRANCH  27  28
ENDBRANCH  26  27
ENDBRANCH  25  26
ENDBRANCH  24  25
ENDBRANCH  23  24
ENDBRANCH  22  23
ENDBRANCH  21  22
ENDBRANCH  20  21
ENDBRANCH  19  20
ENDBRANCH  18  19
ENDBRANCH   1  18
TORSDOF 28
ENDMDL
MODEL 6
REMARK VINA RESULT:    -3.898      1.879      4.317
REMARK INTER + INTRA:         -15.791
REMARK INTER:                 -11.415
REMARK INTRA:                  -4.376
REMARK UNBOUND:                -5.511
REMARK SMILES CCCCCCCCCCCCCCCCCCCCCCCCCCCCCC(=O)[O-]
REMARK SMILES IDX 16 1 17 2 18 3 19 4 20 5 21 6 22 7 23 8 24 9 25 10 26 11
REMARK SMILES IDX 27 12 28 13 29 14 30 15 31 16 32 17 15 18 14 19 13 20 12 21
REMARK SMILES IDX 11 22 10 23 9 24 8 25 7 26 6 27 5 28 4 29 3 30 2 31 1 32
REMARK H PARENT
REMARK Flexibility Score: inf
ROOT
ATOM      1  C   UNL     1     -22.056  30.124 -42.631  1.00  0.00     0.000 C 
ENDROOT
BRANCH   1   2
ATOM      2  C   UNL     1     -23.392  29.947 -41.884  1.00  0.00     0.000 C 
BRANCH   2   3
ATOM      3  C   UNL     1     -23.956  28.517 -41.873  1.00  0.00     0.000 C 
BRANCH   3   4
ATOM      4  C   UNL     1     -25.485  28.476 -41.702  1.00  0.00     0.000 C 
BRANCH   4   5
ATOM      5  C   UNL     1     -26.111  29.879 -41.636  1.00  0.00     0.000 C 
BRANCH   5   6
ATOM      6  C   UNL     1     -27.631  29.865 -41.878  1.00  0.00     0.000 C 
BRANCH   6   7
ATOM      7  C   UNL     1     -28.250  28.477 -41.639  1.00  0.00     0.000 C 
BRANCH   7   8
ATOM      8  C   UNL     1     -29.013  28.383 -40.304  1.00  0.00     0.000 C 
BRANCH   8   9
ATOM      9  C   UNL     1     -28.178  27.720 -39.190  1.00  0.00     0.000 C 
BRANCH   9  10
ATOM     10  C   UNL     1     -27.680  28.708 -38.117  1.00  0.00     0.000 C 
BRANCH  10  11
ATOM     11  C   UNL     1     -28.285  30.123 -38.215  1.00  0.00     0.000 C 
BRANCH  11  12
ATOM     12  C   UNL     1     -29.289  30.504 -37.109  1.00  0.00     0.000 C 
BRANCH  12  13
ATOM     13  C   UNL     1     -29.879  29.290 -36.374  1.00  0.00     0.006 C 
BRANCH  13  14
ATOM     14  C   UNL     1     -29.429  29.266 -34.910  1.00  0.00     0.053 C 
BRANCH  14  15
ATOM     15  C   UNL     1     -30.278  30.180 -34.081  1.00  0.00     0.041 C 
ATOM     16  O   UNL     1     -31.527  30.031 -34.051  1.00  0.00    -0.550 OA
ATOM     17  O   UNL     1     -29.686  31.205 -33.350  1.00  0.00    -0.550 OA
ENDBRANCH  14  15
ENDBRANCH  13  14
ENDBRANCH  12  13
ENDBRANCH  11  12
ENDBRANCH  10  11
ENDBRANCH   9  10
ENDBRANCH   8   9
ENDBRANCH   7   8
ENDBRANCH   6   7
ENDBRANCH   5   6
ENDBRANCH   4   5
ENDBRANCH   3   4
ENDBRANCH   2   3
ENDBRANCH   1   2
BRANCH   1  18
ATOM     18  C   UNL     1     -20.867  30.356 -41.681  1.00  0.00     0.000 C 
BRANCH  18  19
ATOM     19  C   UNL     1     -19.537  30.546 -42.430  1.00  0.00     0.000 C 
BRANCH  19  20
ATOM     20  C   UNL     1     -18.349  30.779 -41.477  1.00  0.00     0.000 C 
BRANCH  20  21
ATOM     21  C   UNL     1     -17.960  32.266 -41.343  1.00  0.00     0.000 C 
BRANCH  21  22
ATOM     22  C   UNL     1     -18.385  32.945 -40.023  1.00  0.00     0.000 C 
BRANCH  22  23
ATOM     23  C   UNL     1     -19.840  33.446 -40.008  1.00  0.00     0.000 C 
BRANCH  23  24
ATOM     24  C   UNL     1     -20.739  32.616 -39.076  1.00  0.00    -0.000 C 
BRANCH  24  25
ATOM     25  C   UNL     1     -20.800  33.199 -37.654  1.00  0.00    -0.000 C 
BRANCH  25  26
ATOM     26  C   UNL     1     -21.952  34.199 -37.429  1.00  0.00    -0.000 C 
BRANCH  26  27
ATOM     27  C   UNL     1     -23.182  34.010 -38.343  1.00  0.00    -0.000 C 
BRANCH  27  28
ATOM     28  C   UNL     1     -24.535  33.916 -37.618  1.00  0.00    -0.000 C 
BRANCH  28  29
ATOM     29  C   UNL     1     -25.440  32.810 -38.181  1.00  0.00    -0.000 C 
BRANCH  29  30
ATOM     30  C   UNL     1     -24.665  31.754 -38.985  1.00  0.00    -0.000 C 
BRANCH  30  31
ATOM     31  C   UNL     1     -24.473  30.437 -38.221  1.00  0.00    -0.003 C 
ATOM     32  C   UNL     1     -22.996  30.065 -38.134  1.00  0.00     0.004 C 
ENDBRANCH  30  31
ENDBRANCH  29  30
ENDBRANCH  28  29
ENDBRANCH  27  28
ENDBRANCH  26  27
ENDBRANCH  25  26
ENDBRANCH  24  25
ENDBRANCH  23  24
ENDBRANCH  22  23
ENDBRANCH  21  22
ENDBRANCH  20  21
ENDBRANCH  19  20
ENDBRANCH  18  19
ENDBRANCH   1  18
TORSDOF 28
ENDMDL
MODEL 7
REMARK VINA RESULT:    -3.880      2.239      4.384
REMARK INTER + INTRA:         -15.743
REMARK INTER:                 -10.962
REMARK INTRA:                  -4.781
REMARK UNBOUND:                -5.511
REMARK SMILES CCCCCCCCCCCCCCCCCCCCCCCCCCCCCC(=O)[O-]
REMARK SMILES IDX 16 1 17 2 18 3 19 4 20 5 21 6 22 7 23 8 24 9 25 10 26 11
REMARK SMILES IDX 27 12 28 13 29 14 30 15 31 16 32 17 15 18 14 19 13 20 12 21
REMARK SMILES IDX 11 22 10 23 9 24 8 25 7 26 6 27 5 28 4 29 3 30 2 31 1 32
REMARK H PARENT
REMARK Flexibility Score: inf
ROOT
ATOM      1  C   UNL     1     -22.275  28.865 -40.727  1.00  0.00     0.000 C 
ENDROOT
BRANCH   1   2
ATOM      2  C   UNL     1     -23.197  29.202 -41.915  1.00  0.00     0.000 C 
BRANCH   2   3
ATOM      3  C   UNL     1     -24.583  28.535 -41.883  1.00  0.00     0.000 C 
BRANCH   3   4
ATOM      4  C   UNL     1     -25.736  29.552 -41.821  1.00  0.00     0.000 C 
BRANCH   4   5
ATOM      5  C   UNL     1     -27.115  28.879 -41.717  1.00  0.00     0.000 C 
BRANCH   5   6
ATOM      6  C   UNL     1     -27.795  29.120 -40.357  1.00  0.00     0.000 C 
BRANCH   6   7
ATOM      7  C   UNL     1     -27.260  30.377 -39.649  1.00  0.00     0.000 C 
BRANCH   7   8
ATOM      8  C   UNL     1     -26.748  30.089 -38.225  1.00  0.00     0.000 C 
BRANCH   8   9
ATOM      9  C   UNL     1     -25.861  28.829 -38.158  1.00  0.00     0.000 C 
BRANCH   9  10
ATOM     10  C   UNL     1     -26.248  27.859 -37.026  1.00  0.00     0.000 C 
BRANCH  10  11
ATOM     11  C   UNL     1     -27.760  27.584 -36.902  1.00  0.00     0.000 C 
BRANCH  11  12
ATOM     12  C   UNL     1     -28.361  27.745 -35.491  1.00  0.00     0.000 C 
BRANCH  12  13
ATOM     13  C   UNL     1     -29.548  28.720 -35.440  1.00  0.00     0.006 C 
BRANCH  13  14
ATOM     14  C   UNL     1     -29.064  30.172 -35.469  1.00  0.00     0.053 C 
BRANCH  14  15
ATOM     15  C   UNL     1     -29.863  31.014 -34.522  1.00  0.00     0.041 C 
ATOM     16  O   UNL     1     -29.474  31.179 -33.337  1.00  0.00    -0.550 OA
ATOM     17  O   UNL     1     -31.047  31.608 -34.950  1.00  0.00    -0.550 OA
ENDBRANCH  14  15
ENDBRANCH  13  14
ENDBRANCH  12  13
ENDBRANCH  11  12
ENDBRANCH  10  11
ENDBRANCH   9  10
ENDBRANCH   8   9
ENDBRANCH   7   8
ENDBRANCH   6   7
ENDBRANCH   5   6
ENDBRANCH   4   5
ENDBRANCH   3   4
ENDBRANCH   2   3
ENDBRANCH   1   2
BRANCH   1  18
ATOM     18  C   UNL     1     -20.971  29.683 -40.733  1.00  0.00     0.000 C 
BRANCH  18  19
ATOM     19  C   UNL     1     -20.794  30.507 -42.020  1.00  0.00     0.000 C 
BRANCH  19  20
ATOM     20  C   UNL     1     -19.368  30.407 -42.596  1.00  0.00     0.000 C 
BRANCH  20  21
ATOM     21  C   UNL     1     -18.808  31.764 -43.072  1.00  0.00     0.000 C 
BRANCH  21  22
ATOM     22  C   UNL     1     -17.579  32.282 -42.295  1.00  0.00     0.000 C 
BRANCH  22  23
ATOM     23  C   UNL     1     -17.161  31.399 -41.106  1.00  0.00     0.000 C 
BRANCH  23  24
ATOM     24  C   UNL     1     -17.638  31.963 -39.757  1.00  0.00    -0.000 C 
BRANCH  24  25
ATOM     25  C   UNL     1     -18.443  33.264 -39.922  1.00  0.00    -0.000 C 
BRANCH  25  26
ATOM     26  C   UNL     1     -19.934  33.135 -39.556  1.00  0.00    -0.000 C 
BRANCH  26  27
ATOM     27  C   UNL     1     -20.241  33.027 -38.047  1.00  0.00    -0.000 C 
BRANCH  27  28
ATOM     28  C   UNL     1     -20.508  31.604 -37.526  1.00  0.00    -0.000 C 
BRANCH  28  29
ATOM     29  C   UNL     1     -21.883  31.460 -36.858  1.00  0.00    -0.000 C 
BRANCH  29  30
ATOM     30  C   UNL     1     -22.973  30.978 -37.829  1.00  0.00    -0.000 C 
BRANCH  30  31
ATOM     31  C   UNL     1     -23.809  32.125 -38.414  1.00  0.00    -0.003 C 
ATOM     32  C   UNL     1     -23.648  32.203 -39.929  1.00  0.00     0.004 C 
ENDBRANCH  30  31
ENDBRANCH  29  30
ENDBRANCH  28  29
ENDBRANCH  27  28
ENDBRANCH  26  27
ENDBRANCH  25  26
ENDBRANCH  24  25
ENDBRANCH  23  24
ENDBRANCH  22  23
ENDBRANCH  21  22
ENDBRANCH  20  21
ENDBRANCH  19  20
ENDBRANCH  18  19
ENDBRANCH   1  18
TORSDOF 28
ENDMDL
MODEL 8
REMARK VINA RESULT:    -3.879      1.700      4.186
REMARK INTER + INTRA:         -15.739
REMARK INTER:                 -11.052
REMARK INTRA:                  -4.687
REMARK UNBOUND:                -5.511
REMARK SMILES CCCCCCCCCCCCCCCCCCCCCCCCCCCCCC(=O)[O-]
REMARK SMILES IDX 16 1 17 2 18 3 19 4 20 5 21 6 22 7 23 8 24 9 25 10 26 11
REMARK SMILES IDX 27 12 28 13 29 14 30 15 31 16 32 17 15 18 14 19 13 20 12 21
REMARK SMILES IDX 11 22 10 23 9 24 8 25 7 26 6 27 5 28 4 29 3 30 2 31 1 32
REMARK H PARENT
REMARK Flexibility Score: inf
ROOT
ATOM      1  C   UNL     1     -26.312  28.901 -38.518  1.00  0.00     0.000 C 
ENDROOT
BRANCH   1   2
ATOM      2  C   UNL     1     -26.737  28.668 -39.981  1.00  0.00     0.000 C 
BRANCH   2   3
ATOM      3  C   UNL     1     -27.874  29.570 -40.489  1.00  0.00     0.000 C 
BRANCH   3   4
ATOM      4  C   UNL     1     -27.562  30.220 -41.848  1.00  0.00     0.000 C 
BRANCH   4   5
ATOM      5  C   UNL     1     -27.663  31.754 -41.809  1.00  0.00     0.000 C 
BRANCH   5   6
ATOM      6  C   UNL     1     -27.852  32.303 -40.383  1.00  0.00     0.000 C 
BRANCH   6   7
ATOM      7  C   UNL     1     -28.898  33.430 -40.324  1.00  0.00     0.000 C 
BRANCH   7   8
ATOM      8  C   UNL     1     -29.112  33.973 -38.898  1.00  0.00     0.000 C 
BRANCH   8   9
ATOM      9  C   UNL     1     -27.925  33.665 -37.963  1.00  0.00     0.000 C 
BRANCH   9  10
ATOM     10  C   UNL     1     -28.328  32.920 -36.676  1.00  0.00     0.000 C 
BRANCH  10  11
ATOM     11  C   UNL     1     -28.820  31.475 -36.895  1.00  0.00     0.000 C 
BRANCH  11  12
ATOM     12  C   UNL     1     -30.219  31.148 -36.335  1.00  0.00     0.000 C 
BRANCH  12  13
ATOM     13  C   UNL     1     -30.347  31.400 -34.823  1.00  0.00     0.006 C 
BRANCH  13  14
ATOM     14  C   UNL     1     -30.832  30.142 -34.099  1.00  0.00     0.053 C 
BRANCH  14  15
ATOM     15  C   UNL     1     -32.119  29.656 -34.691  1.00  0.00     0.041 C 
ATOM     16  O   UNL     1     -32.173  28.534 -35.259  1.00  0.00    -0.550 OA
ATOM     17  O   UNL     1     -33.260  30.451 -34.623  1.00  0.00    -0.550 OA
ENDBRANCH  14  15
ENDBRANCH  13  14
ENDBRANCH  12  13
ENDBRANCH  11  12
ENDBRANCH  10  11
ENDBRANCH   9  10
ENDBRANCH   8   9
ENDBRANCH   7   8
ENDBRANCH   6   7
ENDBRANCH   5   6
ENDBRANCH   4   5
ENDBRANCH   3   4
ENDBRANCH   2   3
ENDBRANCH   1   2
BRANCH   1  18
ATOM     18  C   UNL     1     -25.644  30.271 -38.302  1.00  0.00     0.000 C 
BRANCH  18  19
ATOM     19  C   UNL     1     -24.343  30.431 -39.108  1.00  0.00     0.000 C 
BRANCH  19  20
ATOM     20  C   UNL     1     -24.373  31.656 -40.043  1.00  0.00     0.000 C 
BRANCH  20  21
ATOM     21  C   UNL     1     -23.894  31.339 -41.475  1.00  0.00     0.000 C 
BRANCH  21  22
ATOM     22  C   UNL     1     -23.796  29.838 -41.824  1.00  0.00     0.000 C 
BRANCH  22  23
ATOM     23  C   UNL     1     -22.362  29.334 -42.060  1.00  0.00     0.000 C 
BRANCH  23  24
ATOM     24  C   UNL     1     -21.459  30.404 -42.697  1.00  0.00    -0.000 C 
BRANCH  24  25
ATOM     25  C   UNL     1     -20.006  30.310 -42.201  1.00  0.00    -0.000 C 
BRANCH  25  26
ATOM     26  C   UNL     1     -19.249  31.653 -42.204  1.00  0.00    -0.000 C 
BRANCH  26  27
ATOM     27  C   UNL     1     -18.940  32.244 -40.811  1.00  0.00    -0.000 C 
BRANCH  27  28
ATOM     28  C   UNL     1     -20.033  32.039 -39.749  1.00  0.00    -0.000 C 
BRANCH  28  29
ATOM     29  C   UNL     1     -21.122  33.122 -39.794  1.00  0.00    -0.000 C 
BRANCH  29  30
ATOM     30  C   UNL     1     -20.982  34.158 -38.667  1.00  0.00    -0.000 C 
BRANCH  30  31
ATOM     31  C   UNL     1     -22.255  34.303 -37.821  1.00  0.00    -0.003 C 
ATOM     32  C   UNL     1     -22.574  33.006 -37.084  1.00  0.00     0.004 C 
ENDBRANCH  30  31
ENDBRANCH  29  30
ENDBRANCH  28  29
ENDBRANCH  27  28
ENDBRANCH  26  27
ENDBRANCH  25  26
ENDBRANCH  24  25
ENDBRANCH  23  24
ENDBRANCH  22  23
ENDBRANCH  21  22
ENDBRANCH  20  21
ENDBRANCH  19  20
ENDBRANCH  18  19
ENDBRANCH   1  18
TORSDOF 28
ENDMDL
MODEL 9
REMARK VINA RESULT:    -3.846      2.573      7.226
REMARK INTER + INTRA:         -15.652
REMARK INTER:                  -9.901
REMARK INTRA:                  -5.751
REMARK UNBOUND:                -5.511
REMARK SMILES CCCCCCCCCCCCCCCCCCCCCCCCCCCCCC(=O)[O-]
REMARK SMILES IDX 16 1 17 2 18 3 19 4 20 5 21 6 22 7 23 8 24 9 25 10 26 11
REMARK SMILES IDX 27 12 28 13 29 14 30 15 31 16 32 17 15 18 14 19 13 20 12 21
REMARK SMILES IDX 11 22 10 23 9 24 8 25 7 26 6 27 5 28 4 29 3 30 2 31 1 32
REMARK H PARENT
REMARK Flexibility Score: inf
ROOT
ATOM      1  C   UNL     1     -28.085  34.454 -37.411  1.00  0.00     0.000 C 
ENDROOT
BRANCH   1   2
ATOM      2  C   UNL     1     -26.692  33.797 -37.440  1.00  0.00     0.000 C 
BRANCH   2   3
ATOM      3  C   UNL     1     -26.622  32.429 -38.139  1.00  0.00     0.000 C 
BRANCH   3   4
ATOM      4  C   UNL     1     -25.394  32.284 -39.054  1.00  0.00     0.000 C 
BRANCH   4   5
ATOM      5  C   UNL     1     -25.106  30.821 -39.432  1.00  0.00     0.000 C 
BRANCH   5   6
ATOM      6  C   UNL     1     -24.732  30.652 -40.916  1.00  0.00     0.000 C 
BRANCH   6   7
ATOM      7  C   UNL     1     -24.516  29.178 -41.300  1.00  0.00     0.000 C 
BRANCH   7   8
ATOM      8  C   UNL     1     -23.342  28.981 -42.278  1.00  0.00     0.000 C 
BRANCH   8   9
ATOM      9  C   UNL     1     -22.532  30.275 -42.500  1.00  0.00     0.000 C 
BRANCH   9  10
ATOM     10  C   UNL     1     -21.026  30.121 -42.217  1.00  0.00     0.000 C 
BRANCH  10  11
ATOM     11  C   UNL     1     -20.544  30.790 -40.914  1.00  0.00     0.000 C 
BRANCH  11  12
ATOM     12  C   UNL     1     -21.239  30.323 -39.619  1.00  0.00     0.000 C 
BRANCH  12  13
ATOM     13  C   UNL     1     -21.561  31.472 -38.650  1.00  0.00     0.006 C 
BRANCH  13  14
ATOM     14  C   UNL     1     -21.693  32.800 -39.402  1.00  0.00     0.053 C 
BRANCH  14  15
ATOM     15  C   UNL     1     -21.761  33.946 -38.440  1.00  0.00     0.041 C 
ATOM     16  O   UNL     1     -20.733  34.629 -38.193  1.00  0.00    -0.550 OA
ATOM     17  O   UNL     1     -22.962  34.252 -37.807  1.00  0.00    -0.550 OA
ENDBRANCH  14  15
ENDBRANCH  13  14
ENDBRANCH  12  13
ENDBRANCH  11  12
ENDBRANCH  10  11
ENDBRANCH   9  10
ENDBRANCH   8   9
ENDBRANCH   7   8
ENDBRANCH   6   7
ENDBRANCH   5   6
ENDBRANCH   4   5
ENDBRANCH   3   4
ENDBRANCH   2   3
ENDBRANCH   1   2
BRANCH   1  18
ATOM     18  C   UNL     1     -28.679  34.653 -38.817  1.00  0.00     0.000 C 
BRANCH  18  19
ATOM     19  C   UNL     1     -30.060  33.993 -38.977  1.00  0.00     0.000 C 
BRANCH  19  20
ATOM     20  C   UNL     1     -30.159  33.126 -40.246  1.00  0.00     0.000 C 
BRANCH  20  21
ATOM     21  C   UNL     1     -28.855  33.104 -41.071  1.00  0.00     0.000 C 
BRANCH  21  22
ATOM     22  C   UNL     1     -28.279  31.702 -41.363  1.00  0.00     0.000 C 
BRANCH  22  23
ATOM     23  C   UNL     1     -28.898  30.574 -40.518  1.00  0.00     0.000 C 
BRANCH  23  24
ATOM     24  C   UNL     1     -28.240  29.210 -40.785  1.00  0.00    -0.000 C 
BRANCH  24  25
ATOM     25  C   UNL     1     -28.472  28.216 -39.635  1.00  0.00    -0.000 C 
BRANCH  25  26
ATOM     26  C   UNL     1     -27.380  28.242 -38.547  1.00  0.00    -0.000 C 
BRANCH  26  27
ATOM     27  C   UNL     1     -27.750  28.999 -37.253  1.00  0.00    -0.000 C 
BRANCH  27  28
ATOM     28  C   UNL     1     -29.257  29.176 -36.999  1.00  0.00    -0.000 C 
BRANCH  28  29
ATOM     29  C   UNL     1     -29.696  30.648 -37.009  1.00  0.00    -0.000 C 
BRANCH  29  30
ATOM     30  C   UNL     1     -29.195  31.430 -35.784  1.00  0.00    -0.000 C 
BRANCH  30  31
ATOM     31  C   UNL     1     -29.511  30.734 -34.453  1.00  0.00    -0.003 C 
ATOM     32  C   UNL     1     -29.393  31.707 -33.284  1.00  0.00     0.004 C 
ENDBRANCH  30  31
ENDBRANCH  29  30
ENDBRANCH  28  29
ENDBRANCH  27  28
ENDBRANCH  26  27
ENDBRANCH  25  26
ENDBRANCH  24  25
ENDBRANCH  23  24
ENDBRANCH  22  23
ENDBRANCH  21  22
ENDBRANCH  20  21
ENDBRANCH  19  20
ENDBRANCH  18  19
ENDBRANCH   1  18
TORSDOF 28
ENDMDL
