MODEL 1
REMARK VINA RESULT:    -2.992      0.000      0.000
REMARK INTER + INTRA:         -11.348
REMARK INTER:                  -6.840
REMARK INTRA:                  -4.509
REMARK UNBOUND:                -4.509
REMARK SMILES CCCCCCCCCCCCCCCCCCCCCCCC(=O)[O-]
REMARK SMILES IDX 13 1 14 2 15 3 16 4 17 5 18 6 19 7 20 8 21 9 22 10 23 11
REMARK SMILES IDX 24 12 25 13 26 14 12 15 11 16 10 17 9 18 8 19 7 20 6 21 5 22
REMARK SMILES IDX 4 23 3 24 2 25 1 26
REMARK H PARENT
REMARK Flexibility Score: inf
ROOT
ATOM      1  C   UNL     1      65.196  28.639  59.590  1.00  0.00     0.000 C 
ENDROOT
BRANCH   1   2
ATOM      2  C   UNL     1      65.806  29.930  60.166  1.00  0.00     0.000 C 
BRANCH   2   3
ATOM      3  C   UNL     1      64.790  31.077  60.266  1.00  0.00     0.000 C 
BRANCH   3   4
ATOM      4  C   UNL     1      64.853  32.035  59.064  1.00  0.00     0.000 C 
BRANCH   4   5
ATOM      5  C   UNL     1      64.460  33.477  59.430  1.00  0.00     0.000 C 
BRANCH   5   6
ATOM      6  C   UNL     1      64.305  33.715  60.950  1.00  0.00     0.000 C 
BRANCH   6   7
ATOM      7  C   UNL     1      64.331  35.203  61.339  1.00  0.00     0.000 C 
BRANCH   7   8
ATOM      8  C   UNL     1      63.327  36.036  60.520  1.00  0.00     0.000 C 
BRANCH   8   9
ATOM      9  C   UNL     1      61.874  35.852  60.994  1.00  0.00     0.000 C 
BRANCH   9  10
ATOM     10  C   UNL     1      60.814  36.032  59.889  1.00  0.00     0.006 C 
BRANCH  10  11
ATOM     11  C   UNL     1      61.264  35.462  58.537  1.00  0.00     0.053 C 
BRANCH  11  12
ATOM     12  C   UNL     1      60.131  35.489  57.558  1.00  0.00     0.041 C 
ATOM     13  O   UNL     1      60.108  36.354  56.641  1.00  0.00    -0.550 OA
ATOM     14  O   UNL     1      59.065  34.609  57.704  1.00  0.00    -0.550 OA
ENDBRANCH  11  12
ENDBRANCH  10  11
ENDBRANCH   9  10
ENDBRANCH   8   9
ENDBRANCH   7   8
ENDBRANCH   6   7
ENDBRANCH   5   6
ENDBRANCH   4   5
ENDBRANCH   3   4
ENDBRANCH   2   3
ENDBRANCH   1   2
BRANCH   1  15
ATOM     15  C   UNL     1      64.952  27.566  60.664  1.00  0.00     0.000 C 
BRANCH  15  16
ATOM     16  C   UNL     1      63.473  27.170  60.786  1.00  0.00     0.000 C 
BRANCH  16  17
ATOM     17  C   UNL     1      62.645  28.317  61.381  1.00  0.00     0.000 C 
BRANCH  17  18
ATOM     18  C   UNL     1      61.165  28.281  60.950  1.00  0.00    -0.000 C 
BRANCH  18  19
ATOM     19  C   UNL     1      60.417  29.626  61.048  1.00  0.00    -0.000 C 
BRANCH  19  20
ATOM     20  C   UNL     1      61.293  30.763  61.601  1.00  0.00    -0.000 C 
BRANCH  20  21
ATOM     21  C   UNL     1      61.286  32.012  60.703  1.00  0.00    -0.000 C 
BRANCH  21  22
ATOM     22  C   UNL     1      60.456  31.846  59.411  1.00  0.00    -0.000 C 
BRANCH  22  23
ATOM     23  C   UNL     1      61.341  31.807  58.157  1.00  0.00    -0.000 C 
BRANCH  23  24
ATOM     24  C   UNL     1      61.213  30.458  57.433  1.00  0.00    -0.000 C 
BRANCH  24  25
ATOM     25  C   UNL     1      62.435  29.552  57.647  1.00  0.00    -0.003 C 
ATOM     26  C   UNL     1      62.136  28.077  57.378  1.00  0.00     0.004 C 
ENDBRANCH  24  25
ENDBRANCH  23  24
ENDBRANCH  22  23
ENDBRANCH  21  22
ENDBRANCH  20  21
ENDBRANCH  19  20
ENDBRANCH  18  19
ENDBRANCH  17  18
ENDBRANCH  16  17
ENDBRANCH  15  16
ENDBRANCH   1  15
TORSDOF 22
ENDMDL
MODEL 2
REMARK VINA RESULT:    -2.972      4.041      7.476
REMARK INTER + INTRA:         -11.302
REMARK INTER:                  -8.231
REMARK INTRA:                  -3.072
REMARK UNBOUND:                -4.509
REMARK SMILES CCCCCCCCCCCCCCCCCCCCCCCC(=O)[O-]
REMARK SMILES IDX 13 1 14 2 15 3 16 4 17 5 18 6 19 7 20 8 21 9 22 10 23 11
REMARK SMILES IDX 24 12 25 13 26 14 12 15 11 16 10 17 9 18 8 19 7 20 6 21 5 22
REMARK SMILES IDX 4 23 3 24 2 25 1 26
REMARK H PARENT
REMARK Flexibility Score: inf
ROOT
ATOM      1  C   UNL     1      62.443  32.207  59.427  1.00  0.00     0.000 C 
ENDROOT
BRANCH   1   2
ATOM      2  C   UNL     1      61.528  32.390  60.652  1.00  0.00     0.000 C 
BRANCH   2   3
ATOM      3  C   UNL     1      60.796  31.099  61.048  1.00  0.00     0.000 C 
BRANCH   3   4
ATOM      4  C   UNL     1      61.687  30.130  61.845  1.00  0.00     0.000 C 
BRANCH   4   5
ATOM      5  C   UNL     1      61.949  28.811  61.098  1.00  0.00     0.000 C 
BRANCH   5   6
ATOM      6  C   UNL     1      63.446  28.436  61.001  1.00  0.00     0.000 C 
BRANCH   6   7
ATOM      7  C   UNL     1      64.389  29.622  61.267  1.00  0.00     0.000 C 
BRANCH   7   8
ATOM      8  C   UNL     1      65.696  29.518  60.459  1.00  0.00     0.000 C 
BRANCH   8   9
ATOM      9  C   UNL     1      66.701  28.528  61.077  1.00  0.00     0.000 C 
BRANCH   9  10
ATOM     10  C   UNL     1      68.127  28.623  60.501  1.00  0.00     0.006 C 
BRANCH  10  11
ATOM     11  C   UNL     1      69.182  28.932  61.573  1.00  0.00     0.053 C 
BRANCH  11  12
ATOM     12  C   UNL     1      70.421  29.485  60.941  1.00  0.00     0.041 C 
ATOM     13  O   UNL     1      71.544  29.302  61.483  1.00  0.00    -0.550 OA
ATOM     14  O   UNL     1      70.328  30.267  59.796  1.00  0.00    -0.550 OA
ENDBRANCH  11  12
ENDBRANCH  10  11
ENDBRANCH   9  10
ENDBRANCH   8   9
ENDBRANCH   7   8
ENDBRANCH   6   7
ENDBRANCH   5   6
ENDBRANCH   4   5
ENDBRANCH   3   4
ENDBRANCH   2   3
ENDBRANCH   1   2
BRANCH   1  15
ATOM     15  C   UNL     1      63.770  32.972  59.557  1.00  0.00     0.000 C 
BRANCH  15  16
ATOM     16  C   UNL     1      64.140  33.282  61.014  1.00  0.00     0.000 C 
BRANCH  16  17
ATOM     17  C   UNL     1      64.462  34.773  61.195  1.00  0.00     0.000 C 
BRANCH  17  18
ATOM     18  C   UNL     1      64.330  35.582  59.890  1.00  0.00    -0.000 C 
BRANCH  18  19
ATOM     19  C   UNL     1      63.319  36.744  59.933  1.00  0.00    -0.000 C 
BRANCH  19  20
ATOM     20  C   UNL     1      62.311  36.622  61.090  1.00  0.00    -0.000 C 
BRANCH  20  21
ATOM     21  C   UNL     1      61.012  35.911  60.676  1.00  0.00    -0.000 C 
BRANCH  21  22
ATOM     22  C   UNL     1      60.856  35.736  59.149  1.00  0.00    -0.000 C 
BRANCH  22  23
ATOM     23  C   UNL     1      59.392  35.853  58.701  1.00  0.00    -0.000 C 
BRANCH  23  24
ATOM     24  C   UNL     1      59.223  35.392  57.245  1.00  0.00    -0.000 C 
BRANCH  24  25
ATOM     25  C   UNL     1      58.413  34.092  57.124  1.00  0.00    -0.003 C 
ATOM     26  C   UNL     1      59.118  32.893  57.758  1.00  0.00     0.004 C 
ENDBRANCH  24  25
ENDBRANCH  23  24
ENDBRANCH  22  23
ENDBRANCH  21  22
ENDBRANCH  20  21
ENDBRANCH  19  20
ENDBRANCH  18  19
ENDBRANCH  17  18
ENDBRANCH  16  17
ENDBRANCH  15  16
ENDBRANCH   1  15
TORSDOF 22
ENDMDL
MODEL 3
REMARK VINA RESULT:    -2.952      3.952      7.368
REMARK INTER + INTRA:         -11.258
REMARK INTER:                  -7.807
REMARK INTRA:                  -3.451
REMARK UNBOUND:                -4.509
REMARK SMILES CCCCCCCCCCCCCCCCCCCCCCCC(=O)[O-]
REMARK SMILES IDX 13 1 14 2 15 3 16 4 17 5 18 6 19 7 20 8 21 9 22 10 23 11
REMARK SMILES IDX 24 12 25 13 26 14 12 15 11 16 10 17 9 18 8 19 7 20 6 21 5 22
REMARK SMILES IDX 4 23 3 24 2 25 1 26
REMARK H PARENT
REMARK Flexibility Score: inf
ROOT
ATOM      1  C   UNL     1      61.057  32.038  59.313  1.00  0.00     0.000 C 
ENDROOT
BRANCH   1   2
ATOM      2  C   UNL     1      60.530  30.790  60.046  1.00  0.00     0.000 C 
BRANCH   2   3
ATOM      3  C   UNL     1      60.873  30.789  61.544  1.00  0.00     0.000 C 
BRANCH   3   4
ATOM      4  C   UNL     1      62.249  30.169  61.840  1.00  0.00     0.000 C 
BRANCH   4   5
ATOM      5  C   UNL     1      62.453  28.812  61.143  1.00  0.00     0.000 C 
BRANCH   5   6
ATOM      6  C   UNL     1      63.928  28.352  61.094  1.00  0.00     0.000 C 
BRANCH   6   7
ATOM      7  C   UNL     1      64.712  28.948  59.911  1.00  0.00     0.000 C 
BRANCH   7   8
ATOM      8  C   UNL     1      66.122  29.410  60.321  1.00  0.00     0.000 C 
BRANCH   8   9
ATOM      9  C   UNL     1      66.872  28.360  61.162  1.00  0.00     0.000 C 
BRANCH   9  10
ATOM     10  C   UNL     1      68.371  28.656  61.364  1.00  0.00     0.006 C 
BRANCH  10  11
ATOM     11  C   UNL     1      69.066  29.108  60.072  1.00  0.00     0.053 C 
BRANCH  11  12
ATOM     12  C   UNL     1      70.366  29.781  60.388  1.00  0.00     0.041 C 
ATOM     13  O   UNL     1      70.895  30.560  59.549  1.00  0.00    -0.550 OA
ATOM     14  O   UNL     1      71.030  29.489  61.573  1.00  0.00    -0.550 OA
ENDBRANCH  11  12
ENDBRANCH  10  11
ENDBRANCH   9  10
ENDBRANCH   8   9
ENDBRANCH   7   8
ENDBRANCH   6   7
ENDBRANCH   5   6
ENDBRANCH   4   5
ENDBRANCH   3   4
ENDBRANCH   2   3
ENDBRANCH   1   2
BRANCH   1  15
ATOM     15  C   UNL     1      62.273  31.735  58.423  1.00  0.00     0.000 C 
BRANCH  15  16
ATOM     16  C   UNL     1      63.130  32.978  58.141  1.00  0.00     0.000 C 
BRANCH  16  17
ATOM     17  C   UNL     1      64.530  32.831  58.755  1.00  0.00     0.000 C 
BRANCH  17  18
ATOM     18  C   UNL     1      64.499  32.572  60.274  1.00  0.00    -0.000 C 
BRANCH  18  19
ATOM     19  C   UNL     1      64.009  33.753  61.135  1.00  0.00    -0.000 C 
BRANCH  19  20
ATOM     20  C   UNL     1      64.607  35.103  60.702  1.00  0.00    -0.000 C 
BRANCH  20  21
ATOM     21  C   UNL     1      63.541  36.102  60.225  1.00  0.00    -0.000 C 
BRANCH  21  22
ATOM     22  C   UNL     1      62.288  36.156  61.126  1.00  0.00    -0.000 C 
BRANCH  22  23
ATOM     23  C   UNL     1      61.042  35.605  60.417  1.00  0.00    -0.000 C 
BRANCH  23  24
ATOM     24  C   UNL     1      61.043  35.983  58.928  1.00  0.00    -0.000 C 
BRANCH  24  25
ATOM     25  C   UNL     1      59.770  35.529  58.199  1.00  0.00    -0.003 C 
ATOM     26  C   UNL     1      60.061  34.648  56.985  1.00  0.00     0.004 C 
ENDBRANCH  24  25
ENDBRANCH  23  24
ENDBRANCH  22  23
ENDBRANCH  21  22
ENDBRANCH  20  21
ENDBRANCH  19  20
ENDBRANCH  18  19
ENDBRANCH  17  18
ENDBRANCH  16  17
ENDBRANCH  15  16
ENDBRANCH   1  15
TORSDOF 22
ENDMDL
MODEL 4
REMARK VINA RESULT:    -2.915      4.328      7.205
REMARK INTER + INTRA:         -11.174
REMARK INTER:                  -8.399
REMARK INTRA:                  -2.775
REMARK UNBOUND:                -4.509
REMARK SMILES CCCCCCCCCCCCCCCCCCCCCCCC(=O)[O-]
REMARK SMILES IDX 13 1 14 2 15 3 16 4 17 5 18 6 19 7 20 8 21 9 22 10 23 11
REMARK SMILES IDX 24 12 25 13 26 14 12 15 11 16 10 17 9 18 8 19 7 20 6 21 5 22
REMARK SMILES IDX 4 23 3 24 2 25 1 26
REMARK H PARENT
REMARK Flexibility Score: inf
ROOT
ATOM      1  C   UNL     1      64.322  29.112  59.311  1.00  0.00     0.000 C 
ENDROOT
BRANCH   1   2
ATOM      2  C   UNL     1      65.385  30.007  59.974  1.00  0.00     0.000 C 
BRANCH   2   3
ATOM      3  C   UNL     1      66.795  29.400  59.920  1.00  0.00     0.000 C 
BRANCH   3   4
ATOM      4  C   UNL     1      67.049  28.383  61.046  1.00  0.00     0.000 C 
BRANCH   4   5
ATOM      5  C   UNL     1      68.529  28.312  61.463  1.00  0.00     0.000 C 
BRANCH   5   6
ATOM      6  C   UNL     1      69.467  29.166  60.579  1.00  0.00     0.000 C 
BRANCH   6   7
ATOM      7  C   UNL     1      70.631  29.799  61.362  1.00  0.00     0.000 C 
BRANCH   7   8
ATOM      8  C   UNL     1      71.720  30.362  60.431  1.00  0.00     0.000 C 
BRANCH   8   9
ATOM      9  C   UNL     1      71.506  29.968  58.958  1.00  0.00     0.000 C 
BRANCH   9  10
ATOM     10  C   UNL     1      71.084  31.132  58.040  1.00  0.00     0.006 C 
BRANCH  10  11
ATOM     11  C   UNL     1      71.234  32.504  58.714  1.00  0.00     0.053 C 
BRANCH  11  12
ATOM     12  C   UNL     1      70.790  33.591  57.786  1.00  0.00     0.041 C 
ATOM     13  O   UNL     1      69.563  33.845  57.649  1.00  0.00    -0.550 OA
ATOM     14  O   UNL     1      71.725  34.272  57.014  1.00  0.00    -0.550 OA
ENDBRANCH  11  12
ENDBRANCH  10  11
ENDBRANCH   9  10
ENDBRANCH   8   9
ENDBRANCH   7   8
ENDBRANCH   6   7
ENDBRANCH   5   6
ENDBRANCH   4   5
ENDBRANCH   3   4
ENDBRANCH   2   3
ENDBRANCH   1   2
BRANCH   1  15
ATOM     15  C   UNL     1      62.983  29.123  60.065  1.00  0.00     0.000 C 
BRANCH  15  16
ATOM     16  C   UNL     1      63.089  29.750  61.463  1.00  0.00     0.000 C 
BRANCH  16  17
ATOM     17  C   UNL     1      61.750  30.366  61.892  1.00  0.00     0.000 C 
BRANCH  17  18
ATOM     18  C   UNL     1      61.075  31.184  60.773  1.00  0.00    -0.000 C 
BRANCH  18  19
ATOM     19  C   UNL     1      61.631  32.607  60.569  1.00  0.00    -0.000 C 
BRANCH  19  20
ATOM     20  C   UNL     1      62.402  32.768  59.247  1.00  0.00    -0.000 C 
BRANCH  20  21
ATOM     21  C   UNL     1      63.851  33.239  59.456  1.00  0.00    -0.000 C 
BRANCH  21  22
ATOM     22  C   UNL     1      64.173  33.639  60.912  1.00  0.00    -0.000 C 
BRANCH  22  23
ATOM     23  C   UNL     1      64.864  35.008  60.996  1.00  0.00    -0.000 C 
BRANCH  23  24
ATOM     24  C   UNL     1      63.947  36.048  61.658  1.00  0.00    -0.000 C 
BRANCH  24  25
ATOM     25  C   UNL     1      62.987  36.713  60.660  1.00  0.00    -0.003 C 
ATOM     26  C   UNL     1      61.535  36.271  60.847  1.00  0.00     0.004 C 
ENDBRANCH  24  25
ENDBRANCH  23  24
ENDBRANCH  22  23
ENDBRANCH  21  22
ENDBRANCH  20  21
ENDBRANCH  19  20
ENDBRANCH  18  19
ENDBRANCH  17  18
ENDBRANCH  16  17
ENDBRANCH  15  16
ENDBRANCH   1  15
TORSDOF 22
ENDMDL
MODEL 5
REMARK VINA RESULT:    -2.889      9.166     12.489
REMARK INTER + INTRA:         -11.113
REMARK INTER:                  -7.463
REMARK INTRA:                  -3.650
REMARK UNBOUND:                -4.509
REMARK SMILES CCCCCCCCCCCCCCCCCCCCCCCC(=O)[O-]
REMARK SMILES IDX 13 1 14 2 15 3 16 4 17 5 18 6 19 7 20 8 21 9 22 10 23 11
REMARK SMILES IDX 24 12 25 13 26 14 12 15 11 16 10 17 9 18 8 19 7 20 6 21 5 22
REMARK SMILES IDX 4 23 3 24 2 25 1 26
REMARK H PARENT
REMARK Flexibility Score: inf
ROOT
ATOM      1  C   UNL     1      57.809  28.521  51.566  1.00  0.00     0.000 C 
ENDROOT
BRANCH   1   2
ATOM      2  C   UNL     1      57.573  28.914  50.096  1.00  0.00     0.000 C 
BRANCH   2   3
ATOM      3  C   UNL     1      58.879  29.175  49.331  1.00  0.00     0.000 C 
BRANCH   3   4
ATOM      4  C   UNL     1      59.779  27.931  49.248  1.00  0.00     0.000 C 
BRANCH   4   5
ATOM      5  C   UNL     1      61.149  28.140  49.918  1.00  0.00     0.000 C 
BRANCH   5   6
ATOM      6  C   UNL     1      62.305  27.386  49.222  1.00  0.00     0.000 C 
BRANCH   6   7
ATOM      7  C   UNL     1      63.245  26.670  50.208  1.00  0.00     0.000 C 
BRANCH   7   8
ATOM      8  C   UNL     1      62.510  25.609  51.047  1.00  0.00     0.000 C 
BRANCH   8   9
ATOM      9  C   UNL     1      62.177  24.340  50.241  1.00  0.00     0.000 C 
BRANCH   9  10
ATOM     10  C   UNL     1      60.669  24.092  50.035  1.00  0.00     0.006 C 
BRANCH  10  11
ATOM     11  C   UNL     1      59.811  24.685  51.162  1.00  0.00     0.053 C 
BRANCH  11  12
ATOM     12  C   UNL     1      59.217  23.592  51.994  1.00  0.00     0.041 C 
ATOM     13  O   UNL     1      58.263  23.842  52.780  1.00  0.00    -0.550 OA
ATOM     14  O   UNL     1      59.766  22.315  51.961  1.00  0.00    -0.550 OA
ENDBRANCH  11  12
ENDBRANCH  10  11
ENDBRANCH   9  10
ENDBRANCH   8   9
ENDBRANCH   7   8
ENDBRANCH   6   7
ENDBRANCH   5   6
ENDBRANCH   4   5
ENDBRANCH   3   4
ENDBRANCH   2   3
ENDBRANCH   1   2
BRANCH   1  15
ATOM     15  C   UNL     1      57.063  27.237  51.964  1.00  0.00     0.000 C 
BRANCH  15  16
ATOM     16  C   UNL     1      56.763  26.325  50.766  1.00  0.00     0.000 C 
BRANCH  16  17
ATOM     17  C   UNL     1      55.304  25.845  50.793  1.00  0.00     0.000 C 
BRANCH  17  18
ATOM     18  C   UNL     1      54.632  25.877  49.407  1.00  0.00    -0.000 C 
BRANCH  18  19
ATOM     19  C   UNL     1      53.410  26.809  49.288  1.00  0.00    -0.000 C 
BRANCH  19  20
ATOM     20  C   UNL     1      53.295  27.804  50.456  1.00  0.00    -0.000 C 
BRANCH  20  21
ATOM     21  C   UNL     1      53.781  29.215  50.087  1.00  0.00    -0.000 C 
BRANCH  21  22
ATOM     22  C   UNL     1      53.920  30.163  51.298  1.00  0.00    -0.000 C 
BRANCH  22  23
ATOM     23  C   UNL     1      54.237  29.403  52.593  1.00  0.00    -0.000 C 
BRANCH  23  24
ATOM     24  C   UNL     1      54.575  30.375  53.735  1.00  0.00    -0.000 C 
BRANCH  24  25
ATOM     25  C   UNL     1      56.017  30.219  54.239  1.00  0.00    -0.003 C 
ATOM     26  C   UNL     1      56.867  31.469  54.004  1.00  0.00     0.004 C 
ENDBRANCH  24  25
ENDBRANCH  23  24
ENDBRANCH  22  23
ENDBRANCH  21  22
ENDBRANCH  20  21
ENDBRANCH  19  20
ENDBRANCH  18  19
ENDBRANCH  17  18
ENDBRANCH  16  17
ENDBRANCH  15  16
ENDBRANCH   1  15
TORSDOF 22
ENDMDL
MODEL 6
REMARK VINA RESULT:    -2.881      8.181     11.746
REMARK INTER + INTRA:         -11.096
REMARK INTER:                  -6.929
REMARK INTRA:                  -4.167
REMARK UNBOUND:                -4.509
REMARK SMILES CCCCCCCCCCCCCCCCCCCCCCCC(=O)[O-]
REMARK SMILES IDX 13 1 14 2 15 3 16 4 17 5 18 6 19 7 20 8 21 9 22 10 23 11
REMARK SMILES IDX 24 12 25 13 26 14 12 15 11 16 10 17 9 18 8 19 7 20 6 21 5 22
REMARK SMILES IDX 4 23 3 24 2 25 1 26
REMARK H PARENT
REMARK Flexibility Score: inf
ROOT
ATOM      1  C   UNL     1      56.321  26.364  51.352  1.00  0.00     0.000 C 
ENDROOT
BRANCH   1   2
ATOM      2  C   UNL     1      55.859  26.209  49.892  1.00  0.00     0.000 C 
BRANCH   2   3
ATOM      3  C   UNL     1      54.419  25.688  49.773  1.00  0.00     0.000 C 
BRANCH   3   4
ATOM      4  C   UNL     1      53.424  26.781  49.347  1.00  0.00     0.000 C 
BRANCH   4   5
ATOM      5  C   UNL     1      53.150  27.805  50.463  1.00  0.00     0.000 C 
BRANCH   5   6
ATOM      6  C   UNL     1      53.508  29.259  50.077  1.00  0.00     0.000 C 
BRANCH   6   7
ATOM      7  C   UNL     1      53.897  30.130  51.284  1.00  0.00     0.000 C 
BRANCH   7   8
ATOM      8  C   UNL     1      53.800  29.359  52.613  1.00  0.00     0.000 C 
BRANCH   8   9
ATOM      9  C   UNL     1      54.830  29.835  53.654  1.00  0.00     0.000 C 
BRANCH   9  10
ATOM     10  C   UNL     1      55.748  30.975  53.169  1.00  0.00     0.006 C 
BRANCH  10  11
ATOM     11  C   UNL     1      57.221  30.748  53.537  1.00  0.00     0.053 C 
BRANCH  11  12
ATOM     12  C   UNL     1      58.037  31.952  53.182  1.00  0.00     0.041 C 
ATOM     13  O   UNL     1      57.500  33.092  53.140  1.00  0.00    -0.550 OA
ATOM     14  O   UNL     1      59.372  31.805  52.822  1.00  0.00    -0.550 OA
ENDBRANCH  11  12
ENDBRANCH  10  11
ENDBRANCH   9  10
ENDBRANCH   8   9
ENDBRANCH   7   8
ENDBRANCH   6   7
ENDBRANCH   5   6
ENDBRANCH   4   5
ENDBRANCH   3   4
ENDBRANCH   2   3
ENDBRANCH   1   2
BRANCH   1  15
ATOM     15  C   UNL     1      57.009  27.712  51.619  1.00  0.00     0.000 C 
BRANCH  15  16
ATOM     16  C   UNL     1      57.115  28.587  50.361  1.00  0.00     0.000 C 
BRANCH  16  17
ATOM     17  C   UNL     1      58.503  29.236  50.260  1.00  0.00     0.000 C 
BRANCH  17  18
ATOM     18  C   UNL     1      59.528  28.627  51.237  1.00  0.00    -0.000 C 
BRANCH  18  19
ATOM     19  C   UNL     1      60.732  27.925  50.578  1.00  0.00    -0.000 C 
BRANCH  19  20
ATOM     20  C   UNL     1      60.342  27.096  49.342  1.00  0.00    -0.000 C 
BRANCH  20  21
ATOM     21  C   UNL     1      59.586  25.807  49.704  1.00  0.00    -0.000 C 
BRANCH  21  22
ATOM     22  C   UNL     1      60.344  24.895  50.694  1.00  0.00    -0.000 C 
BRANCH  22  23
ATOM     23  C   UNL     1      61.496  24.139  50.016  1.00  0.00    -0.000 C 
BRANCH  23  24
ATOM     24  C   UNL     1      62.753  24.142  50.900  1.00  0.00    -0.000 C 
BRANCH  24  25
ATOM     25  C   UNL     1      62.571  24.961  52.187  1.00  0.00    -0.003 C 
ATOM     26  C   UNL     1      63.482  26.187  52.244  1.00  0.00     0.004 C 
ENDBRANCH  24  25
ENDBRANCH  23  24
ENDBRANCH  22  23
ENDBRANCH  21  22
ENDBRANCH  20  21
ENDBRANCH  19  20
ENDBRANCH  18  19
ENDBRANCH  17  18
ENDBRANCH  16  17
ENDBRANCH  15  16
ENDBRANCH   1  15
TORSDOF 22
ENDMDL
MODEL 7
REMARK VINA RESULT:    -2.869      3.165      6.880
REMARK INTER + INTRA:         -11.068
REMARK INTER:                  -7.570
REMARK INTRA:                  -3.498
REMARK UNBOUND:                -4.509
REMARK SMILES CCCCCCCCCCCCCCCCCCCCCCCC(=O)[O-]
REMARK SMILES IDX 13 1 14 2 15 3 16 4 17 5 18 6 19 7 20 8 21 9 22 10 23 11
REMARK SMILES IDX 24 12 25 13 26 14 12 15 11 16 10 17 9 18 8 19 7 20 6 21 5 22
REMARK SMILES IDX 4 23 3 24 2 25 1 26
REMARK H PARENT
REMARK Flexibility Score: inf
ROOT
ATOM      1  C   UNL     1      63.426  30.448  61.414  1.00  0.00     0.000 C 
ENDROOT
BRANCH   1   2
ATOM      2  C   UNL     1      64.331  29.250  61.072  1.00  0.00     0.000 C 
BRANCH   2   3
ATOM      3  C   UNL     1      63.884  28.508  59.803  1.00  0.00     0.000 C 
BRANCH   3   4
ATOM      4  C   UNL     1      64.327  27.035  59.788  1.00  0.00     0.000 C 
BRANCH   4   5
ATOM      5  C   UNL     1      63.155  26.059  59.994  1.00  0.00     0.000 C 
BRANCH   5   6
ATOM      6  C   UNL     1      63.069  25.482  61.425  1.00  0.00     0.000 C 
BRANCH   6   7
ATOM      7  C   UNL     1      61.948  26.113  62.269  1.00  0.00     0.000 C 
BRANCH   7   8
ATOM      8  C   UNL     1      60.944  26.900  61.407  1.00  0.00     0.000 C 
BRANCH   8   9
ATOM      9  C   UNL     1      59.577  26.199  61.296  1.00  0.00     0.000 C 
BRANCH   9  10
ATOM     10  C   UNL     1      58.364  27.133  61.477  1.00  0.00     0.006 C 
BRANCH  10  11
ATOM     11  C   UNL     1      57.081  26.374  61.843  1.00  0.00     0.053 C 
BRANCH  11  12
ATOM     12  C   UNL     1      55.894  27.280  61.743  1.00  0.00     0.041 C 
ATOM     13  O   UNL     1      55.730  28.205  62.584  1.00  0.00    -0.550 OA
ATOM     14  O   UNL     1      54.929  27.057  60.768  1.00  0.00    -0.550 OA
ENDBRANCH  11  12
ENDBRANCH  10  11
ENDBRANCH   9  10
ENDBRANCH   8   9
ENDBRANCH   7   8
ENDBRANCH   6   7
ENDBRANCH   5   6
ENDBRANCH   4   5
ENDBRANCH   3   4
ENDBRANCH   2   3
ENDBRANCH   1   2
BRANCH   1  15
ATOM     15  C   UNL     1      62.010  30.022  61.834  1.00  0.00     0.000 C 
BRANCH  15  16
ATOM     16  C   UNL     1      60.911  30.849  61.151  1.00  0.00     0.000 C 
BRANCH  16  17
ATOM     17  C   UNL     1      60.507  30.223  59.809  1.00  0.00     0.000 C 
BRANCH  17  18
ATOM     18  C   UNL     1      59.963  31.254  58.800  1.00  0.00    -0.000 C 
BRANCH  18  19
ATOM     19  C   UNL     1      61.004  32.244  58.242  1.00  0.00    -0.000 C 
BRANCH  19  20
ATOM     20  C   UNL     1      62.188  31.546  57.549  1.00  0.00    -0.000 C 
BRANCH  20  21
ATOM     21  C   UNL     1      63.548  31.950  58.142  1.00  0.00    -0.000 C 
BRANCH  21  22
ATOM     22  C   UNL     1      63.601  33.410  58.643  1.00  0.00    -0.000 C 
BRANCH  22  23
ATOM     23  C   UNL     1      64.312  33.529  59.999  1.00  0.00    -0.000 C 
BRANCH  23  24
ATOM     24  C   UNL     1      63.572  34.507  60.925  1.00  0.00    -0.000 C 
BRANCH  24  25
ATOM     25  C   UNL     1      62.048  34.461  60.740  1.00  0.00    -0.003 C 
ATOM     26  C   UNL     1      61.425  35.850  60.595  1.00  0.00     0.004 C 
ENDBRANCH  24  25
ENDBRANCH  23  24
ENDBRANCH  22  23
ENDBRANCH  21  22
ENDBRANCH  20  21
ENDBRANCH  19  20
ENDBRANCH  18  19
ENDBRANCH  17  18
ENDBRANCH  16  17
ENDBRANCH  15  16
ENDBRANCH   1  15
TORSDOF 22
ENDMDL
MODEL 8
REMARK VINA RESULT:    -2.854      1.584      3.198
REMARK INTER + INTRA:         -11.033
REMARK INTER:                  -6.355
REMARK INTRA:                  -4.678
REMARK UNBOUND:                -4.509
REMARK SMILES CCCCCCCCCCCCCCCCCCCCCCCC(=O)[O-]
REMARK SMILES IDX 13 1 14 2 15 3 16 4 17 5 18 6 19 7 20 8 21 9 22 10 23 11
REMARK SMILES IDX 24 12 25 13 26 14 12 15 11 16 10 17 9 18 8 19 7 20 6 21 5 22
REMARK SMILES IDX 4 23 3 24 2 25 1 26
REMARK H PARENT
REMARK Flexibility Score: inf
ROOT
ATOM      1  C   UNL     1      64.306  31.900  59.507  1.00  0.00     0.000 C 
ENDROOT
BRANCH   1   2
ATOM      2  C   UNL     1      64.444  33.420  59.706  1.00  0.00     0.000 C 
BRANCH   2   3
ATOM      3  C   UNL     1      63.715  33.927  60.960  1.00  0.00     0.000 C 
BRANCH   3   4
ATOM      4  C   UNL     1      63.819  35.452  61.134  1.00  0.00     0.000 C 
BRANCH   4   5
ATOM      5  C   UNL     1      62.448  36.149  61.113  1.00  0.00     0.000 C 
BRANCH   5   6
ATOM      6  C   UNL     1      61.318  35.286  60.506  1.00  0.00     0.000 C 
BRANCH   6   7
ATOM      7  C   UNL     1      60.883  35.751  59.105  1.00  0.00     0.000 C 
BRANCH   7   8
ATOM      8  C   UNL     1      61.704  35.080  57.988  1.00  0.00     0.000 C 
BRANCH   8   9
ATOM      9  C   UNL     1      60.820  34.395  56.929  1.00  0.00     0.000 C 
BRANCH   9  10
ATOM     10  C   UNL     1      59.305  34.505  57.195  1.00  0.00     0.006 C 
BRANCH  10  11
ATOM     11  C   UNL     1      58.521  33.297  56.663  1.00  0.00     0.053 C 
BRANCH  11  12
ATOM     12  C   UNL     1      57.360  32.994  57.559  1.00  0.00     0.041 C 
ATOM     13  O   UNL     1      56.654  33.932  58.019  1.00  0.00    -0.550 OA
ATOM     14  O   UNL     1      57.105  31.685  57.948  1.00  0.00    -0.550 OA
ENDBRANCH  11  12
ENDBRANCH  10  11
ENDBRANCH   9  10
ENDBRANCH   8   9
ENDBRANCH   7   8
ENDBRANCH   6   7
ENDBRANCH   5   6
ENDBRANCH   4   5
ENDBRANCH   3   4
ENDBRANCH   2   3
ENDBRANCH   1   2
BRANCH   1  15
ATOM     15  C   UNL     1      64.535  31.108  60.805  1.00  0.00     0.000 C 
BRANCH  15  16
ATOM     16  C   UNL     1      63.874  29.722  60.783  1.00  0.00     0.000 C 
BRANCH  16  17
ATOM     17  C   UNL     1      62.729  29.644  61.803  1.00  0.00     0.000 C 
BRANCH  17  18
ATOM     18  C   UNL     1      61.340  29.862  61.171  1.00  0.00    -0.000 C 
BRANCH  18  19
ATOM     19  C   UNL     1      60.852  31.324  61.140  1.00  0.00    -0.000 C 
BRANCH  19  20
ATOM     20  C   UNL     1      60.685  31.873  59.712  1.00  0.00    -0.000 C 
BRANCH  20  21
ATOM     21  C   UNL     1      60.455  30.764  58.671  1.00  0.00    -0.000 C 
BRANCH  21  22
ATOM     22  C   UNL     1      61.524  30.725  57.556  1.00  0.00    -0.000 C 
BRANCH  22  23
ATOM     23  C   UNL     1      61.977  29.292  57.242  1.00  0.00    -0.000 C 
BRANCH  23  24
ATOM     24  C   UNL     1      60.981  28.263  57.800  1.00  0.00    -0.000 C 
BRANCH  24  25
ATOM     25  C   UNL     1      61.665  27.160  58.622  1.00  0.00    -0.003 C 
ATOM     26  C   UNL     1      63.180  27.121  58.419  1.00  0.00     0.004 C 
ENDBRANCH  24  25
ENDBRANCH  23  24
ENDBRANCH  22  23
ENDBRANCH  21  22
ENDBRANCH  20  21
ENDBRANCH  19  20
ENDBRANCH  18  19
ENDBRANCH  17  18
ENDBRANCH  16  17
ENDBRANCH  15  16
ENDBRANCH   1  15
TORSDOF 22
ENDMDL
MODEL 9
REMARK VINA RESULT:    -2.836      3.184      6.931
REMARK INTER + INTRA:         -10.993
REMARK INTER:                  -7.114
REMARK INTRA:                  -3.879
REMARK UNBOUND:                -4.509
REMARK SMILES CCCCCCCCCCCCCCCCCCCCCCCC(=O)[O-]
REMARK SMILES IDX 13 1 14 2 15 3 16 4 17 5 18 6 19 7 20 8 21 9 22 10 23 11
REMARK SMILES IDX 24 12 25 13 26 14 12 15 11 16 10 17 9 18 8 19 7 20 6 21 5 22
REMARK SMILES IDX 4 23 3 24 2 25 1 26
REMARK H PARENT
REMARK Flexibility Score: inf
ROOT
ATOM      1  C   UNL     1      63.838  33.602  59.279  1.00  0.00     0.000 C 
ENDROOT
BRANCH   1   2
ATOM      2  C   UNL     1      62.488  32.935  58.961  1.00  0.00     0.000 C 
BRANCH   2   3
ATOM      3  C   UNL     1      61.564  32.844  60.185  1.00  0.00     0.000 C 
BRANCH   3   4
ATOM      4  C   UNL     1      60.818  31.501  60.269  1.00  0.00     0.000 C 
BRANCH   4   5
ATOM      5  C   UNL     1      60.988  30.809  61.632  1.00  0.00     0.000 C 
BRANCH   5   6
ATOM      6  C   UNL     1      61.985  29.627  61.612  1.00  0.00     0.000 C 
BRANCH   6   7
ATOM      7  C   UNL     1      63.456  30.071  61.685  1.00  0.00     0.000 C 
BRANCH   7   8
ATOM      8  C   UNL     1      64.283  29.539  60.500  1.00  0.00     0.000 C 
BRANCH   8   9
ATOM      9  C   UNL     1      63.404  29.023  59.345  1.00  0.00     0.000 C 
BRANCH   9  10
ATOM     10  C   UNL     1      63.498  27.504  59.101  1.00  0.00     0.006 C 
BRANCH  10  11
ATOM     11  C   UNL     1      64.038  26.740  60.318  1.00  0.00     0.053 C 
BRANCH  11  12
ATOM     12  C   UNL     1      62.946  25.941  60.958  1.00  0.00     0.041 C 
ATOM     13  O   UNL     1      63.229  24.955  61.692  1.00  0.00    -0.550 OA
ATOM     14  O   UNL     1      61.616  26.237  60.684  1.00  0.00    -0.550 OA
ENDBRANCH  11  12
ENDBRANCH  10  11
ENDBRANCH   9  10
ENDBRANCH   8   9
ENDBRANCH   7   8
ENDBRANCH   6   7
ENDBRANCH   5   6
ENDBRANCH   4   5
ENDBRANCH   3   4
ENDBRANCH   2   3
ENDBRANCH   1   2
BRANCH   1  15
ATOM     15  C   UNL     1      64.210  33.511  60.768  1.00  0.00     0.000 C 
BRANCH  15  16
ATOM     16  C   UNL     1      64.363  34.888  61.430  1.00  0.00     0.000 C 
BRANCH  16  17
ATOM     17  C   UNL     1      64.437  36.001  60.375  1.00  0.00     0.000 C 
BRANCH  17  18
ATOM     18  C   UNL     1      63.245  36.975  60.439  1.00  0.00    -0.000 C 
BRANCH  18  19
ATOM     19  C   UNL     1      61.971  36.416  61.102  1.00  0.00    -0.000 C 
BRANCH  19  20
ATOM     20  C   UNL     1      60.774  36.340  60.137  1.00  0.00    -0.000 C 
BRANCH  20  21
ATOM     21  C   UNL     1      61.176  36.568  58.670  1.00  0.00    -0.000 C 
BRANCH  21  22
ATOM     22  C   UNL     1      60.048  36.264  57.660  1.00  0.00    -0.000 C 
BRANCH  22  23
ATOM     23  C   UNL     1      59.655  34.779  57.663  1.00  0.00    -0.000 C 
BRANCH  23  24
ATOM     24  C   UNL     1      58.128  34.613  57.638  1.00  0.00    -0.000 C 
BRANCH  24  25
ATOM     25  C   UNL     1      57.692  33.140  57.616  1.00  0.00    -0.003 C 
ATOM     26  C   UNL     1      58.814  32.194  57.189  1.00  0.00     0.004 C 
ENDBRANCH  24  25
ENDBRANCH  23  24
ENDBRANCH  22  23
ENDBRANCH  21  22
ENDBRANCH  20  21
ENDBRANCH  19  20
ENDBRANCH  18  19
ENDBRANCH  17  18
ENDBRANCH  16  17
ENDBRANCH  15  16
ENDBRANCH   1  15
TORSDOF 22
ENDMDL
