MODEL 1
REMARK VINA RESULT:    -5.987      0.000      0.000
REMARK INTER + INTRA:          -7.324
REMARK INTER:                  -7.037
REMARK INTRA:                  -0.288
REMARK UNBOUND:                -0.288
REMARK SMILES O=c1c(O)c(-c2ccc(O)cc2)oc2cc(O)cc(O)c12
REMARK SMILES IDX 5 1 3 2 2 3 1 4 21 5 19 6 18 7 16 8 15 9 14 10 13 11 6 12
REMARK SMILES IDX 7 13 8 14 9 15 12 16 11 17 10 18 4 20 20 22 17 24
REMARK H PARENT 10 19 4 21 20 23 17 25
REMARK Flexibility Score: inf
ROOT
ATOM      1  C   UNL     1     137.331 143.045 123.324  1.00  0.00     0.180 A 
ATOM      2  C   UNL     1     138.054 142.820 124.507  1.00  0.00     0.208 A 
ATOM      3  C   UNL     1     139.422 142.515 124.421  1.00  0.00     0.238 A 
ATOM      4  O   UNL     1     140.053 142.261 125.480  1.00  0.00    -0.285 OA
ATOM      5  C   UNL     1     140.051 142.453 123.154  1.00  0.00     0.111 A 
ATOM      6  C   UNL     1     141.440 142.192 122.951  1.00  0.00     0.134 A 
ATOM      7  C   UNL     1     141.928 142.025 121.649  1.00  0.00     0.093 A 
ATOM      8  C   UNL     1     141.094 142.174 120.542  1.00  0.00     0.123 A 
ATOM      9  C   UNL     1     139.747 142.489 120.727  1.00  0.00     0.094 A 
ATOM     10  C   UNL     1     139.223 142.625 122.015  1.00  0.00     0.146 A 
ATOM     11  O   UNL     1     137.934 142.916 122.148  1.00  0.00    -0.452 OA
ENDROOT
BRANCH   1  12
ATOM     12  C   UNL     1     135.891 143.397 123.335  1.00  0.00     0.021 A 
ATOM     13  C   UNL     1     135.509 144.741 123.482  1.00  0.00     0.016 A 
ATOM     14  C   UNL     1     134.156 145.091 123.516  1.00  0.00     0.047 A 
ATOM     15  C   UNL     1     133.169 144.103 123.420  1.00  0.00     0.115 A 
ATOM     16  C   UNL     1     134.895 142.407 123.258  1.00  0.00     0.016 A 
ATOM     17  C   UNL     1     133.542 142.761 123.294  1.00  0.00     0.047 A 
BRANCH  15  18
ATOM     18  O   UNL     1     131.818 144.440 123.453  1.00  0.00    -0.508 OA
ATOM     19  H   UNL     1     131.504 145.386 123.268  1.00  0.00     0.293 HD
ENDBRANCH  15  18
ENDBRANCH   1  12
BRANCH   2  20
ATOM     20  O   UNL     1     137.408 142.864 125.746  1.00  0.00    -0.502 OA
ATOM     21  H   UNL     1     137.522 143.636 126.391  1.00  0.00     0.293 HD
ENDBRANCH   2  20
BRANCH   6  22
ATOM     22  O   UNL     1     142.378 142.114 123.984  1.00  0.00    -0.507 OA
ATOM     23  H   UNL     1     142.498 142.809 124.705  1.00  0.00     0.293 HD
ENDBRANCH   6  22
BRANCH   8  24
ATOM     24  O   UNL     1     141.617 142.017 119.260  1.00  0.00    -0.508 OA
ATOM     25  H   UNL     1     141.125 141.490 118.548  1.00  0.00     0.293 HD
ENDBRANCH   8  24
TORSDOF 5
ENDMDL
MODEL 2
REMARK VINA RESULT:    -5.841      8.946     10.377
REMARK INTER + INTRA:          -7.153
REMARK INTER:                  -6.880
REMARK INTRA:                  -0.274
REMARK UNBOUND:                -0.288
REMARK SMILES O=c1c(O)c(-c2ccc(O)cc2)oc2cc(O)cc(O)c12
REMARK SMILES IDX 5 1 3 2 2 3 1 4 21 5 19 6 18 7 16 8 15 9 14 10 13 11 6 12
REMARK SMILES IDX 7 13 8 14 9 15 12 16 11 17 10 18 4 20 20 22 17 24
REMARK H PARENT 10 19 4 21 20 23 17 25
REMARK Flexibility Score: inf
ROOT
ATOM      1  C   UNL     1     132.892 135.698 126.413  1.00  0.00     0.180 A 
ATOM      2  C   UNL     1     132.983 135.315 127.762  1.00  0.00     0.208 A 
ATOM      3  C   UNL     1     133.413 134.015 128.073  1.00  0.00     0.238 A 
ATOM      4  O   UNL     1     133.441 133.660 129.280  1.00  0.00    -0.285 OA
ATOM      5  C   UNL     1     133.760 133.120 127.032  1.00  0.00     0.111 A 
ATOM      6  C   UNL     1     134.245 131.792 127.233  1.00  0.00     0.134 A 
ATOM      7  C   UNL     1     134.433 130.951 126.130  1.00  0.00     0.093 A 
ATOM      8  C   UNL     1     134.216 131.408 124.830  1.00  0.00     0.123 A 
ATOM      9  C   UNL     1     133.799 132.723 124.619  1.00  0.00     0.094 A 
ATOM     10  C   UNL     1     133.568 133.575 125.702  1.00  0.00     0.146 A 
ATOM     11  O   UNL     1     133.162 134.815 125.458  1.00  0.00    -0.452 OA
ENDROOT
BRANCH   1  12
ATOM     12  C   UNL     1     132.472 137.059 126.006  1.00  0.00     0.021 A 
ATOM     13  C   UNL     1     131.103 137.357 125.898  1.00  0.00     0.016 A 
ATOM     14  C   UNL     1     130.686 138.629 125.495  1.00  0.00     0.047 A 
ATOM     15  C   UNL     1     131.631 139.613 125.180  1.00  0.00     0.115 A 
ATOM     16  C   UNL     1     133.416 138.047 125.670  1.00  0.00     0.016 A 
ATOM     17  C   UNL     1     132.994 139.318 125.266  1.00  0.00     0.047 A 
BRANCH  15  18
ATOM     18  O   UNL     1     131.227 140.885 124.777  1.00  0.00    -0.508 OA
ATOM     19  H   UNL     1     131.718 141.390 124.049  1.00  0.00     0.293 HD
ENDBRANCH  15  18
ENDBRANCH   1  12
BRANCH   2  20
ATOM     20  O   UNL     1     132.614 136.207 128.773  1.00  0.00    -0.502 OA
ATOM     21  H   UNL     1     131.914 136.925 128.635  1.00  0.00     0.293 HD
ENDBRANCH   2  20
BRANCH   6  22
ATOM     22  O   UNL     1     134.581 131.266 128.484  1.00  0.00    -0.507 OA
ATOM     23  H   UNL     1     135.262 130.538 128.637  1.00  0.00     0.293 HD
ENDBRANCH   6  22
BRANCH   8  24
ATOM     24  O   UNL     1     134.429 130.548 123.755  1.00  0.00    -0.508 OA
ATOM     25  H   UNL     1     133.792 130.517 122.967  1.00  0.00     0.293 HD
ENDBRANCH   8  24
TORSDOF 5
ENDMDL
MODEL 3
REMARK VINA RESULT:    -5.795     10.293     11.809
REMARK INTER + INTRA:          -7.099
REMARK INTER:                  -6.997
REMARK INTRA:                  -0.102
REMARK UNBOUND:                -0.288
REMARK SMILES O=c1c(O)c(-c2ccc(O)cc2)oc2cc(O)cc(O)c12
REMARK SMILES IDX 5 1 3 2 2 3 1 4 21 5 19 6 18 7 16 8 15 9 14 10 13 11 6 12
REMARK SMILES IDX 7 13 8 14 9 15 12 16 11 17 10 18 4 20 20 22 17 24
REMARK H PARENT 10 19 4 21 20 23 17 25
REMARK Flexibility Score: inf
ROOT
ATOM      1  C   UNL     1     131.762 134.406 126.566  1.00  0.00     0.180 A 
ATOM      2  C   UNL     1     131.004 133.476 127.298  1.00  0.00     0.208 A 
ATOM      3  C   UNL     1     131.326 132.113 127.207  1.00  0.00     0.238 A 
ATOM      4  O   UNL     1     130.610 131.280 127.822  1.00  0.00    -0.285 OA
ATOM      5  C   UNL     1     132.410 131.698 126.396  1.00  0.00     0.111 A 
ATOM      6  C   UNL     1     132.850 130.347 126.260  1.00  0.00     0.134 A 
ATOM      7  C   UNL     1     133.849 130.035 125.330  1.00  0.00     0.093 A 
ATOM      8  C   UNL     1     134.470 131.033 124.579  1.00  0.00     0.123 A 
ATOM      9  C   UNL     1     134.090 132.365 124.747  1.00  0.00     0.094 A 
ATOM     10  C   UNL     1     133.069 132.702 125.641  1.00  0.00     0.146 A 
ATOM     11  O   UNL     1     132.731 133.979 125.764  1.00  0.00    -0.452 OA
ENDROOT
BRANCH   1  12
ATOM     12  C   UNL     1     131.500 135.863 126.631  1.00  0.00     0.021 A 
ATOM     13  C   UNL     1     131.237 136.572 125.447  1.00  0.00     0.016 A 
ATOM     14  C   UNL     1     131.009 137.951 125.484  1.00  0.00     0.047 A 
ATOM     15  C   UNL     1     131.056 138.640 126.702  1.00  0.00     0.115 A 
ATOM     16  C   UNL     1     131.564 136.565 127.849  1.00  0.00     0.016 A 
ATOM     17  C   UNL     1     131.337 137.944 127.882  1.00  0.00     0.047 A 
BRANCH  15  18
ATOM     18  O   UNL     1     130.830 140.014 126.751  1.00  0.00    -0.508 OA
ATOM     19  H   UNL     1     130.292 140.488 126.034  1.00  0.00     0.293 HD
ENDBRANCH  15  18
ENDBRANCH   1  12
BRANCH   2  20
ATOM     20  O   UNL     1     129.923 133.905 128.075  1.00  0.00    -0.502 OA
ATOM     21  H   UNL     1     129.416 133.282 128.691  1.00  0.00     0.293 HD
ENDBRANCH   2  20
BRANCH   6  22
ATOM     22  O   UNL     1     132.360 129.286 127.028  1.00  0.00    -0.507 OA
ATOM     23  H   UNL     1     131.861 129.389 127.899  1.00  0.00     0.293 HD
ENDBRANCH   6  22
BRANCH   8  24
ATOM     24  O   UNL     1     135.473 130.689 123.675  1.00  0.00    -0.508 OA
ATOM     25  H   UNL     1     135.302 130.671 122.676  1.00  0.00     0.293 HD
ENDBRANCH   8  24
TORSDOF 5
ENDMDL
MODEL 4
REMARK VINA RESULT:    -5.768     10.257     11.743
REMARK INTER + INTRA:          -7.067
REMARK INTER:                  -6.862
REMARK INTRA:                  -0.205
REMARK UNBOUND:                -0.288
REMARK SMILES O=c1c(O)c(-c2ccc(O)cc2)oc2cc(O)cc(O)c12
REMARK SMILES IDX 5 1 3 2 2 3 1 4 21 5 19 6 18 7 16 8 15 9 14 10 13 11 6 12
REMARK SMILES IDX 7 13 8 14 9 15 12 16 11 17 10 18 4 20 20 22 17 24
REMARK H PARENT 10 19 4 21 20 23 17 25
REMARK Flexibility Score: inf
ROOT
ATOM      1  C   UNL     1     134.360 134.140 128.041  1.00  0.00     0.180 A 
ATOM      2  C   UNL     1     133.175 134.480 128.715  1.00  0.00     0.208 A 
ATOM      3  C   UNL     1     133.233 135.404 129.770  1.00  0.00     0.238 A 
ATOM      4  O   UNL     1     132.177 135.664 130.405  1.00  0.00    -0.285 OA
ATOM      5  C   UNL     1     134.472 135.987 130.128  1.00  0.00     0.111 A 
ATOM      6  C   UNL     1     134.641 136.964 131.155  1.00  0.00     0.134 A 
ATOM      7  C   UNL     1     135.932 137.375 131.512  1.00  0.00     0.093 A 
ATOM      8  C   UNL     1     137.053 136.894 130.837  1.00  0.00     0.123 A 
ATOM      9  C   UNL     1     136.895 135.984 129.792  1.00  0.00     0.094 A 
ATOM     10  C   UNL     1     135.623 135.528 129.437  1.00  0.00     0.146 A 
ATOM     11  O   UNL     1     135.516 134.654 128.443  1.00  0.00    -0.452 OA
ENDROOT
BRANCH   1  12
ATOM     12  C   UNL     1     134.375 133.193 126.901  1.00  0.00     0.021 A 
ATOM     13  C   UNL     1     133.826 133.585 125.669  1.00  0.00     0.016 A 
ATOM     14  C   UNL     1     133.811 132.699 124.588  1.00  0.00     0.047 A 
ATOM     15  C   UNL     1     134.330 131.406 124.729  1.00  0.00     0.115 A 
ATOM     16  C   UNL     1     134.878 131.887 127.042  1.00  0.00     0.016 A 
ATOM     17  C   UNL     1     134.860 131.003 125.958  1.00  0.00     0.047 A 
BRANCH  15  18
ATOM     18  O   UNL     1     134.321 130.514 123.658  1.00  0.00    -0.508 OA
ATOM     19  H   UNL     1     134.007 130.797 122.737  1.00  0.00     0.293 HD
ENDBRANCH  15  18
ENDBRANCH   1  12
BRANCH   2  20
ATOM     20  O   UNL     1     131.965 133.876 128.359  1.00  0.00    -0.502 OA
ATOM     21  H   UNL     1     131.769 133.569 127.414  1.00  0.00     0.293 HD
ENDBRANCH   2  20
BRANCH   6  22
ATOM     22  O   UNL     1     133.582 137.577 131.831  1.00  0.00    -0.507 OA
ATOM     23  H   UNL     1     133.149 137.216 132.668  1.00  0.00     0.293 HD
ENDBRANCH   6  22
BRANCH   8  24
ATOM     24  O   UNL     1     138.321 137.337 131.208  1.00  0.00    -0.508 OA
ATOM     25  H   UNL     1     138.518 137.648 132.152  1.00  0.00     0.293 HD
ENDBRANCH   8  24
TORSDOF 5
ENDMDL
MODEL 5
REMARK VINA RESULT:    -5.730      9.908     12.101
REMARK INTER + INTRA:          -7.023
REMARK INTER:                  -6.814
REMARK INTRA:                  -0.209
REMARK UNBOUND:                -0.288
REMARK SMILES O=c1c(O)c(-c2ccc(O)cc2)oc2cc(O)cc(O)c12
REMARK SMILES IDX 5 1 3 2 2 3 1 4 21 5 19 6 18 7 16 8 15 9 14 10 13 11 6 12
REMARK SMILES IDX 7 13 8 14 9 15 12 16 11 17 10 18 4 20 20 22 17 24
REMARK H PARENT 10 19 4 21 20 23 17 25
REMARK Flexibility Score: inf
ROOT
ATOM      1  C   UNL     1     131.492 135.420 126.612  1.00  0.00     0.180 A 
ATOM      2  C   UNL     1     132.513 134.893 125.802  1.00  0.00     0.208 A 
ATOM      3  C   UNL     1     132.664 133.500 125.718  1.00  0.00     0.238 A 
ATOM      4  O   UNL     1     133.613 133.035 125.034  1.00  0.00    -0.285 OA
ATOM      5  C   UNL     1     131.785 132.651 126.433  1.00  0.00     0.111 A 
ATOM      6  C   UNL     1     131.822 131.225 126.390  1.00  0.00     0.134 A 
ATOM      7  C   UNL     1     130.989 130.486 127.239  1.00  0.00     0.093 A 
ATOM      8  C   UNL     1     130.075 131.119 128.081  1.00  0.00     0.123 A 
ATOM      9  C   UNL     1     129.989 132.512 128.088  1.00  0.00     0.094 A 
ATOM     10  C   UNL     1     130.833 133.277 127.278  1.00  0.00     0.146 A 
ATOM     11  O   UNL     1     130.726 134.599 127.322  1.00  0.00    -0.452 OA
ENDROOT
BRANCH   1  12
ATOM     12  C   UNL     1     131.253 136.877 126.732  1.00  0.00     0.021 A 
ATOM     13  C   UNL     1     131.497 137.520 127.957  1.00  0.00     0.016 A 
ATOM     14  C   UNL     1     131.257 138.890 128.098  1.00  0.00     0.047 A 
ATOM     15  C   UNL     1     130.757 139.631 127.020  1.00  0.00     0.115 A 
ATOM     16  C   UNL     1     130.732 137.624 125.660  1.00  0.00     0.016 A 
ATOM     17  C   UNL     1     130.492 138.994 125.804  1.00  0.00     0.047 A 
BRANCH  15  18
ATOM     18  O   UNL     1     130.514 140.997 127.148  1.00  0.00    -0.508 OA
ATOM     19  H   UNL     1     129.591 141.387 126.995  1.00  0.00     0.293 HD
ENDBRANCH  15  18
ENDBRANCH   1  12
BRANCH   2  20
ATOM     20  O   UNL     1     133.384 135.750 125.122  1.00  0.00    -0.502 OA
ATOM     21  H   UNL     1     133.483 136.728 125.365  1.00  0.00     0.293 HD
ENDBRANCH   2  20
BRANCH   6  22
ATOM     22  O   UNL     1     132.633 130.491 125.519  1.00  0.00    -0.507 OA
ATOM     23  H   UNL     1     133.635 130.583 125.452  1.00  0.00     0.293 HD
ENDBRANCH   6  22
BRANCH   8  24
ATOM     24  O   UNL     1     129.250 130.352 128.901  1.00  0.00    -0.508 OA
ATOM     25  H   UNL     1     128.718 130.769 129.656  1.00  0.00     0.293 HD
ENDBRANCH   8  24
TORSDOF 5
ENDMDL
MODEL 6
REMARK VINA RESULT:    -5.724     10.695     13.218
REMARK INTER + INTRA:          -7.016
REMARK INTER:                  -6.738
REMARK INTRA:                  -0.277
REMARK UNBOUND:                -0.288
REMARK SMILES O=c1c(O)c(-c2ccc(O)cc2)oc2cc(O)cc(O)c12
REMARK SMILES IDX 5 1 3 2 2 3 1 4 21 5 19 6 18 7 16 8 15 9 14 10 13 11 6 12
REMARK SMILES IDX 7 13 8 14 9 15 12 16 11 17 10 18 4 20 20 22 17 24
REMARK H PARENT 10 19 4 21 20 23 17 25
REMARK Flexibility Score: inf
ROOT
ATOM      1  C   UNL     1     131.548 134.573 126.950  1.00  0.00     0.180 A 
ATOM      2  C   UNL     1     131.294 133.418 126.192  1.00  0.00     0.208 A 
ATOM      3  C   UNL     1     130.751 132.291 126.830  1.00  0.00     0.238 A 
ATOM      4  O   UNL     1     130.575 131.242 126.158  1.00  0.00    -0.285 OA
ATOM      5  C   UNL     1     130.456 132.339 128.214  1.00  0.00     0.111 A 
ATOM      6  C   UNL     1     129.868 131.270 128.955  1.00  0.00     0.134 A 
ATOM      7  C   UNL     1     129.742 131.380 130.345  1.00  0.00     0.093 A 
ATOM      8  C   UNL     1     130.121 132.544 131.013  1.00  0.00     0.123 A 
ATOM      9  C   UNL     1     130.642 133.619 130.291  1.00  0.00     0.094 A 
ATOM     10  C   UNL     1     130.814 133.524 128.907  1.00  0.00     0.146 A 
ATOM     11  O   UNL     1     131.322 134.565 128.259  1.00  0.00    -0.452 OA
ENDROOT
BRANCH   1  12
ATOM     12  C   UNL     1     132.096 135.810 126.344  1.00  0.00     0.021 A 
ATOM     13  C   UNL     1     133.486 135.950 126.195  1.00  0.00     0.016 A 
ATOM     14  C   UNL     1     134.024 137.118 125.646  1.00  0.00     0.047 A 
ATOM     15  C   UNL     1     133.181 138.165 125.252  1.00  0.00     0.115 A 
ATOM     16  C   UNL     1     131.256 136.873 125.965  1.00  0.00     0.016 A 
ATOM     17  C   UNL     1     131.798 138.040 125.416  1.00  0.00     0.047 A 
BRANCH  15  18
ATOM     18  O   UNL     1     133.705 139.333 124.703  1.00  0.00    -0.508 OA
ATOM     19  H   UNL     1     134.558 139.323 124.155  1.00  0.00     0.293 HD
ENDBRANCH  15  18
ENDBRANCH   1  12
BRANCH   2  20
ATOM     20  O   UNL     1     131.613 133.385 124.831  1.00  0.00    -0.502 OA
ATOM     21  H   UNL     1     132.540 133.154 124.496  1.00  0.00     0.293 HD
ENDBRANCH   2  20
BRANCH   6  22
ATOM     22  O   UNL     1     129.371 130.099 128.374  1.00  0.00    -0.507 OA
ATOM     23  H   UNL     1     129.156 129.990 127.395  1.00  0.00     0.293 HD
ENDBRANCH   6  22
BRANCH   8  24
ATOM     24  O   UNL     1     129.966 132.625 132.395  1.00  0.00    -0.508 OA
ATOM     25  H   UNL     1     130.715 132.954 132.994  1.00  0.00     0.293 HD
ENDBRANCH   8  24
TORSDOF 5
ENDMDL
MODEL 7
REMARK VINA RESULT:    -5.706      9.711     12.178
REMARK INTER + INTRA:          -6.994
REMARK INTER:                  -6.696
REMARK INTRA:                  -0.298
REMARK UNBOUND:                -0.288
REMARK SMILES O=c1c(O)c(-c2ccc(O)cc2)oc2cc(O)cc(O)c12
REMARK SMILES IDX 5 1 3 2 2 3 1 4 21 5 19 6 18 7 16 8 15 9 14 10 13 11 6 12
REMARK SMILES IDX 7 13 8 14 9 15 12 16 11 17 10 18 4 20 20 22 17 24
REMARK H PARENT 10 19 4 21 20 23 17 25
REMARK Flexibility Score: inf
ROOT
ATOM      1  C   UNL     1     131.067 136.074 127.021  1.00  0.00     0.180 A 
ATOM      2  C   UNL     1     131.807 135.464 125.994  1.00  0.00     0.208 A 
ATOM      3  C   UNL     1     131.788 134.065 125.880  1.00  0.00     0.238 A 
ATOM      4  O   UNL     1     132.496 133.521 124.992  1.00  0.00    -0.285 OA
ATOM      5  C   UNL     1     131.020 133.294 126.786  1.00  0.00     0.111 A 
ATOM      6  C   UNL     1     130.897 131.873 126.739  1.00  0.00     0.134 A 
ATOM      7  C   UNL     1     130.216 131.204 127.764  1.00  0.00     0.093 A 
ATOM      8  C   UNL     1     129.598 131.909 128.797  1.00  0.00     0.123 A 
ATOM      9  C   UNL     1     129.661 133.302 128.820  1.00  0.00     0.094 A 
ATOM     10  C   UNL     1     130.365 133.995 127.831  1.00  0.00     0.146 A 
ATOM     11  O   UNL     1     130.409 135.320 127.895  1.00  0.00    -0.452 OA
ENDROOT
BRANCH   1  12
ATOM     12  C   UNL     1     131.016 137.545 127.190  1.00  0.00     0.021 A 
ATOM     13  C   UNL     1     131.886 138.167 128.100  1.00  0.00     0.016 A 
ATOM     14  C   UNL     1     131.839 139.552 128.290  1.00  0.00     0.047 A 
ATOM     15  C   UNL     1     130.912 140.328 127.585  1.00  0.00     0.115 A 
ATOM     16  C   UNL     1     130.074 138.329 126.499  1.00  0.00     0.016 A 
ATOM     17  C   UNL     1     130.029 139.713 126.692  1.00  0.00     0.047 A 
BRANCH  15  18
ATOM     18  O   UNL     1     130.855 141.709 127.766  1.00  0.00    -0.508 OA
ATOM     19  H   UNL     1     130.425 142.117 128.587  1.00  0.00     0.293 HD
ENDBRANCH  15  18
ENDBRANCH   1  12
BRANCH   2  20
ATOM     20  O   UNL     1     132.576 136.242 125.124  1.00  0.00    -0.502 OA
ATOM     21  H   UNL     1     133.141 135.837 124.388  1.00  0.00     0.293 HD
ENDBRANCH   2  20
BRANCH   6  22
ATOM     22  O   UNL     1     131.399 131.080 125.703  1.00  0.00    -0.507 OA
ATOM     23  H   UNL     1     131.661 130.111 125.797  1.00  0.00     0.293 HD
ENDBRANCH   6  22
BRANCH   8  24
ATOM     24  O   UNL     1     128.915 131.212 129.791  1.00  0.00    -0.508 OA
ATOM     25  H   UNL     1     128.191 131.654 130.346  1.00  0.00     0.293 HD
ENDBRANCH   8  24
TORSDOF 5
ENDMDL
MODEL 8
REMARK VINA RESULT:    -5.668      7.145      9.370
REMARK INTER + INTRA:          -6.950
REMARK INTER:                  -6.782
REMARK INTRA:                  -0.167
REMARK UNBOUND:                -0.288
REMARK SMILES O=c1c(O)c(-c2ccc(O)cc2)oc2cc(O)cc(O)c12
REMARK SMILES IDX 5 1 3 2 2 3 1 4 21 5 19 6 18 7 16 8 15 9 14 10 13 11 6 12
REMARK SMILES IDX 7 13 8 14 9 15 12 16 11 17 10 18 4 20 20 22 17 24
REMARK H PARENT 10 19 4 21 20 23 17 25
REMARK Flexibility Score: inf
ROOT
ATOM      1  C   UNL     1     132.393 136.853 126.515  1.00  0.00     0.180 A 
ATOM      2  C   UNL     1     133.795 136.856 126.602  1.00  0.00     0.208 A 
ATOM      3  C   UNL     1     134.503 137.975 126.137  1.00  0.00     0.238 A 
ATOM      4  O   UNL     1     135.761 137.951 126.167  1.00  0.00    -0.285 OA
ATOM      5  C   UNL     1     133.799 139.083 125.605  1.00  0.00     0.111 A 
ATOM      6  C   UNL     1     134.412 140.286 125.141  1.00  0.00     0.134 A 
ATOM      7  C   UNL     1     133.629 141.263 124.514  1.00  0.00     0.093 A 
ATOM      8  C   UNL     1     132.248 141.111 124.393  1.00  0.00     0.123 A 
ATOM      9  C   UNL     1     131.631 139.966 124.897  1.00  0.00     0.094 A 
ATOM     10  C   UNL     1     132.391 138.957 125.495  1.00  0.00     0.146 A 
ATOM     11  O   UNL     1     131.765 137.879 125.952  1.00  0.00    -0.452 OA
ENDROOT
BRANCH   1  12
ATOM     12  C   UNL     1     131.575 135.720 127.009  1.00  0.00     0.021 A 
ATOM     13  C   UNL     1     130.798 135.881 128.168  1.00  0.00     0.016 A 
ATOM     14  C   UNL     1     130.036 134.817 128.663  1.00  0.00     0.047 A 
ATOM     15  C   UNL     1     130.053 133.577 128.013  1.00  0.00     0.115 A 
ATOM     16  C   UNL     1     131.602 134.465 126.372  1.00  0.00     0.016 A 
ATOM     17  C   UNL     1     130.839 133.404 126.870  1.00  0.00     0.047 A 
BRANCH  15  18
ATOM     18  O   UNL     1     129.298 132.510 128.496  1.00  0.00    -0.508 OA
ATOM     19  H   UNL     1     128.414 132.660 128.970  1.00  0.00     0.293 HD
ENDBRANCH  15  18
ENDBRANCH   1  12
BRANCH   2  20
ATOM     20  O   UNL     1     134.471 135.743 127.111  1.00  0.00    -0.502 OA
ATOM     21  H   UNL     1     135.144 135.813 127.863  1.00  0.00     0.293 HD
ENDBRANCH   2  20
BRANCH   6  22
ATOM     22  O   UNL     1     135.770 140.579 125.295  1.00  0.00    -0.507 OA
ATOM     23  H   UNL     1     136.139 141.301 125.895  1.00  0.00     0.293 HD
ENDBRANCH   6  22
BRANCH   8  24
ATOM     24  O   UNL     1     131.498 142.111 123.779  1.00  0.00    -0.508 OA
ATOM     25  H   UNL     1     131.102 141.984 122.854  1.00  0.00     0.293 HD
ENDBRANCH   8  24
TORSDOF 5
ENDMDL
MODEL 9
REMARK VINA RESULT:    -5.665      7.036     10.214
REMARK INTER + INTRA:          -6.946
REMARK INTER:                  -6.795
REMARK INTRA:                  -0.151
REMARK UNBOUND:                -0.288
REMARK SMILES O=c1c(O)c(-c2ccc(O)cc2)oc2cc(O)cc(O)c12
REMARK SMILES IDX 5 1 3 2 2 3 1 4 21 5 19 6 18 7 16 8 15 9 14 10 13 11 6 12
REMARK SMILES IDX 7 13 8 14 9 15 12 16 11 17 10 18 4 20 20 22 17 24
REMARK H PARENT 10 19 4 21 20 23 17 25
REMARK Flexibility Score: inf
ROOT
ATOM      1  C   UNL     1     131.772 139.141 125.619  1.00  0.00     0.180 A 
ATOM      2  C   UNL     1     132.309 140.122 124.768  1.00  0.00     0.208 A 
ATOM      3  C   UNL     1     131.740 141.405 124.763  1.00  0.00     0.238 A 
ATOM      4  O   UNL     1     132.190 142.264 123.960  1.00  0.00    -0.285 OA
ATOM      5  C   UNL     1     130.649 141.695 125.618  1.00  0.00     0.111 A 
ATOM      6  C   UNL     1     130.019 142.972 125.725  1.00  0.00     0.134 A 
ATOM      7  C   UNL     1     128.866 143.110 126.507  1.00  0.00     0.093 A 
ATOM      8  C   UNL     1     128.358 142.037 127.237  1.00  0.00     0.123 A 
ATOM      9  C   UNL     1     129.001 140.799 127.188  1.00  0.00     0.094 A 
ATOM     10  C   UNL     1     130.132 140.621 126.387  1.00  0.00     0.146 A 
ATOM     11  O   UNL     1     130.708 139.425 126.361  1.00  0.00    -0.452 OA
ENDROOT
BRANCH   1  12
ATOM     12  C   UNL     1     132.335 137.773 125.699  1.00  0.00     0.021 A 
ATOM     13  C   UNL     1     131.529 136.673 125.360  1.00  0.00     0.016 A 
ATOM     14  C   UNL     1     132.034 135.372 125.450  1.00  0.00     0.047 A 
ATOM     15  C   UNL     1     133.344 135.154 125.895  1.00  0.00     0.115 A 
ATOM     16  C   UNL     1     133.643 137.546 126.163  1.00  0.00     0.016 A 
ATOM     17  C   UNL     1     134.145 136.243 126.253  1.00  0.00     0.047 A 
BRANCH  15  18
ATOM     18  O   UNL     1     133.858 133.863 125.988  1.00  0.00    -0.508 OA
ATOM     19  H   UNL     1     133.950 133.393 126.882  1.00  0.00     0.293 HD
ENDBRANCH  15  18
ENDBRANCH   1  12
BRANCH   2  20
ATOM     20  O   UNL     1     133.372 139.808 123.915  1.00  0.00    -0.502 OA
ATOM     21  H   UNL     1     133.357 140.025 122.926  1.00  0.00     0.293 HD
ENDBRANCH   2  20
BRANCH   6  22
ATOM     22  O   UNL     1     130.498 144.131 125.108  1.00  0.00    -0.507 OA
ATOM     23  H   UNL     1     130.230 144.446 124.188  1.00  0.00     0.293 HD
ENDBRANCH   6  22
BRANCH   8  24
ATOM     24  O   UNL     1     127.219 142.215 128.018  1.00  0.00    -0.508 OA
ATOM     25  H   UNL     1     127.199 141.949 128.996  1.00  0.00     0.293 HD
ENDBRANCH   8  24
TORSDOF 5
ENDMDL
