MODEL 1
REMARK VINA RESULT:    33.953      0.000      0.000
REMARK INTER + INTRA:          40.576
REMARK INTER:                  40.900
REMARK INTRA:                  -0.325
REMARK UNBOUND:                -0.325
REMARK SMILES Oc1cc(O)c2cc(O)c(-c3ccc(O)c(O)c3)[o+]c2c1
REMARK SMILES IDX 10 1 19 2 20 3 21 4 2 5 3 6 4 7 6 8 7 9 8 10 11 11 12 12
REMARK SMILES IDX 13 13 14 14 18 15 16 16 15 17 17 19 9 21 1 23 5 25
REMARK H PARENT 15 18 17 20 9 22 1 24 5 26
REMARK Flexibility Score: inf
ROOT
ATOM      1  C   UNL     1      10.799   1.582  18.854  1.00  0.00     0.402 A 
ATOM      2  O   UNL     1      11.245   1.857  17.631  1.00  0.00    -0.202 OA
ATOM      3  C   UNL     1      10.897   1.160  16.553  1.00  0.00     0.368 A 
ATOM      4  C   UNL     1      11.421   1.524  15.310  1.00  0.00     0.162 A 
ATOM      5  C   UNL     1      11.074   0.807  14.162  1.00  0.00     0.128 A 
ATOM      6  C   UNL     1      10.201  -0.278  14.257  1.00  0.00     0.093 A 
ATOM      7  C   UNL     1       9.661  -0.663  15.491  1.00  0.00     0.136 A 
ATOM      8  C   UNL     1      10.009   0.063  16.659  1.00  0.00     0.125 A 
ATOM      9  C   UNL     1       9.507  -0.242  17.936  1.00  0.00     0.078 A 
ATOM     10  C   UNL     1       9.892   0.522  19.041  1.00  0.00     0.223 A 
ENDROOT
BRANCH   1  11
ATOM     11  C   UNL     1      11.267   2.426  19.976  1.00  0.00     0.087 A 
ATOM     12  C   UNL     1      12.261   1.980  20.862  1.00  0.00     0.022 A 
ATOM     13  C   UNL     1      12.703   2.804  21.899  1.00  0.00     0.051 A 
ATOM     14  C   UNL     1      12.176   4.088  22.065  1.00  0.00     0.157 A 
ATOM     15  C   UNL     1      10.752   3.722  20.128  1.00  0.00     0.068 A 
ATOM     16  C   UNL     1      11.189   4.556  21.165  1.00  0.00     0.158 A 
BRANCH  14  17
ATOM     17  O   UNL     1      12.658   4.860  23.125  1.00  0.00    -0.504 OA
ATOM     18  H   UNL     1      13.195   5.707  23.008  1.00  0.00     0.293 HD
ENDBRANCH  14  17
BRANCH  16  19
ATOM     19  O   UNL     1      10.622   5.829  21.262  1.00  0.00    -0.504 OA
ATOM     20  H   UNL     1      10.741   6.552  20.568  1.00  0.00     0.293 HD
ENDBRANCH  16  19
ENDBRANCH   1  11
BRANCH  10  21
ATOM     21  O   UNL     1       9.355   0.251  20.300  1.00  0.00    -0.500 OA
ATOM     22  H   UNL     1       8.793   0.933  20.797  1.00  0.00     0.294 HD
ENDBRANCH  10  21
BRANCH   5  23
ATOM     23  O   UNL     1      11.592   1.165  12.918  1.00  0.00    -0.507 OA
ATOM     24  H   UNL     1      12.582   1.332  12.786  1.00  0.00     0.293 HD
ENDBRANCH   5  23
BRANCH   7  25
ATOM     25  O   UNL     1       8.798  -1.762  15.502  1.00  0.00    -0.507 OA
ATOM     26  H   UNL     1       8.398  -2.181  14.676  1.00  0.00     0.293 HD
ENDBRANCH   7  25
TORSDOF 6
ENDMDL
MODEL 2
REMARK VINA RESULT:    34.565      0.726      1.537
REMARK INTER + INTRA:          41.312
REMARK INTER:                  41.442
REMARK INTRA:                  -0.130
REMARK UNBOUND:                -0.325
REMARK SMILES Oc1cc(O)c2cc(O)c(-c3ccc(O)c(O)c3)[o+]c2c1
REMARK SMILES IDX 10 1 19 2 20 3 21 4 2 5 3 6 4 7 6 8 7 9 8 10 11 11 12 12
REMARK SMILES IDX 13 13 14 14 18 15 16 16 15 17 17 19 9 21 1 23 5 25
REMARK H PARENT 15 18 17 20 9 22 1 24 5 26
REMARK Flexibility Score: inf
ROOT
ATOM      1  C   UNL     1      10.827   1.545  18.722  1.00  0.00     0.402 A 
ATOM      2  O   UNL     1      11.261   1.835  17.498  1.00  0.00    -0.202 OA
ATOM      3  C   UNL     1      10.880   1.169  16.412  1.00  0.00     0.368 A 
ATOM      4  C   UNL     1      11.393   1.547  15.169  1.00  0.00     0.162 A 
ATOM      5  C   UNL     1      11.012   0.862  14.011  1.00  0.00     0.128 A 
ATOM      6  C   UNL     1      10.117  -0.205  14.098  1.00  0.00     0.093 A 
ATOM      7  C   UNL     1       9.588  -0.604  15.332  1.00  0.00     0.136 A 
ATOM      8  C   UNL     1       9.970   0.090  16.510  1.00  0.00     0.125 A 
ATOM      9  C   UNL     1       9.481  -0.230  17.788  1.00  0.00     0.078 A 
ATOM     10  C   UNL     1       9.900   0.502  18.902  1.00  0.00     0.223 A 
ENDROOT
BRANCH   1  11
ATOM     11  C   UNL     1      11.332   2.354  19.854  1.00  0.00     0.087 A 
ATOM     12  C   UNL     1      11.115   3.739  19.919  1.00  0.00     0.022 A 
ATOM     13  C   UNL     1      11.581   4.477  21.008  1.00  0.00     0.051 A 
ATOM     14  C   UNL     1      12.259   3.850  22.058  1.00  0.00     0.157 A 
ATOM     15  C   UNL     1      11.994   1.719  20.917  1.00  0.00     0.068 A 
ATOM     16  C   UNL     1      12.465   2.451  22.014  1.00  0.00     0.158 A 
BRANCH  14  17
ATOM     17  O   UNL     1      12.703   4.646  23.116  1.00  0.00    -0.504 OA
ATOM     18  H   UNL     1      12.542   4.432  24.090  1.00  0.00     0.293 HD
ENDBRANCH  14  17
BRANCH  16  19
ATOM     19  O   UNL     1      13.125   1.753  23.029  1.00  0.00    -0.504 OA
ATOM     20  H   UNL     1      13.367   2.154  23.923  1.00  0.00     0.293 HD
ENDBRANCH  16  19
ENDBRANCH   1  11
BRANCH  10  21
ATOM     21  O   UNL     1       9.377   0.216  20.164  1.00  0.00    -0.500 OA
ATOM     22  H   UNL     1       9.757  -0.524  20.742  1.00  0.00     0.294 HD
ENDBRANCH  10  21
BRANCH   5  23
ATOM     23  O   UNL     1      11.519   1.234  12.767  1.00  0.00    -0.507 OA
ATOM     24  H   UNL     1      12.093   2.061  12.656  1.00  0.00     0.293 HD
ENDBRANCH   5  23
BRANCH   7  25
ATOM     25  O   UNL     1       8.700  -1.683  15.334  1.00  0.00    -0.507 OA
ATOM     26  H   UNL     1       8.559  -2.304  16.117  1.00  0.00     0.293 HD
ENDBRANCH   7  25
TORSDOF 6
ENDMDL
