MODEL 1
REMARK VINA RESULT:    -6.164      0.000      0.000
REMARK INTER + INTRA:         -10.985
REMARK INTER:                  -8.506
REMARK INTRA:                  -2.479
REMARK UNBOUND:                -2.479
REMARK SMILES CC[C@H](CC[C@@H](C)[C@@H]1CC[C@H]2[C@@H]3CC=C4C[C@H](O)CC[C@]4(C)[C@H]3CC[C@]21C)C(C)C
REMARK SMILES IDX 5 1 4 2 3 3 2 4 1 5 28 6 29 7 30 8 6 9 7 10 8 11 9 12 26 13
REMARK SMILES IDX 10 14 11 15 25 16 27 17 12 18 24 19 23 20 13 21 21 22 14 23
REMARK SMILES IDX 15 24 20 25 22 26 16 27 19 28 17 29 18 30
REMARK H PARENT 18 31
REMARK Flexibility Score: inf
ROOT
ATOM      1  C   UNL     1     173.146 161.498 149.754  1.00  0.00     0.004 C 
ENDROOT
BRANCH   1   2
ATOM      2  C   UNL     1     174.413 160.800 150.284  1.00  0.00     0.004 C 
BRANCH   2   3
ATOM      3  C   UNL     1     175.306 161.696 151.193  1.00  0.00    -0.009 C 
BRANCH   3   4
ATOM      4  C   UNL     1     174.617 163.064 151.500  1.00  0.00     0.000 C 
ATOM      5  C   UNL     1     175.353 164.315 150.998  1.00  0.00     0.004 C 
ENDBRANCH   3   4
BRANCH   3   6
ATOM      6  C   UNL     1     175.895 161.024 152.489  1.00  0.00    -0.014 C 
ATOM      7  C   UNL     1     175.424 159.571 152.699  1.00  0.00     0.007 C 
ATOM      8  C   UNL     1     175.701 161.832 153.783  1.00  0.00     0.007 C 
ENDBRANCH   3   6
ENDBRANCH   2   3
ENDBRANCH   1   2
BRANCH   1   9
ATOM      9  C   UNL     1     171.817 160.978 150.363  1.00  0.00    -0.011 C 
ATOM     10  C   UNL     1     170.782 160.679 149.262  1.00  0.00     0.008 C 
BRANCH   9  11
ATOM     11  C   UNL     1     172.029 159.821 151.409  1.00  0.00    -0.002 C 
ATOM     12  C   UNL     1     171.641 158.412 150.964  1.00  0.00     0.005 C 
ATOM     13  C   UNL     1     171.332 159.989 152.791  1.00  0.00    -0.026 C 
ATOM     14  C   UNL     1     171.695 157.589 152.239  1.00  0.00     0.005 C 
ATOM     15  C   UNL     1     171.375 158.550 153.408  1.00  0.00    -0.001 C 
ATOM     16  C   UNL     1     172.095 161.033 153.659  1.00  0.00     0.007 C 
ATOM     17  C   UNL     1     169.844 160.423 152.645  1.00  0.00     0.012 C 
ATOM     18  C   UNL     1     172.394 158.417 154.577  1.00  0.00     0.000 C 
ATOM     19  C   UNL     1     171.783 160.879 155.150  1.00  0.00     0.005 C 
ATOM     20  C   UNL     1     172.098 159.451 155.699  1.00  0.00     0.003 C 
ATOM     21  C   UNL     1     172.362 157.004 155.191  1.00  0.00     0.031 C 
ATOM     22  C   UNL     1     173.206 159.407 156.819  1.00  0.00    -0.008 C 
ATOM     23  C   UNL     1     173.188 156.899 156.443  1.00  0.00    -0.027 C 
ATOM     24  C   UNL     1     173.483 157.952 157.238  1.00  0.00    -0.065 C 
ATOM     25  C   UNL     1     172.695 160.194 158.070  1.00  0.00     0.014 C 
ATOM     26  C   UNL     1     174.542 160.025 156.319  1.00  0.00     0.016 C 
ATOM     27  C   UNL     1     174.249 157.695 158.523  1.00  0.00     0.063 C 
ATOM     28  C   UNL     1     173.539 159.973 159.336  1.00  0.00     0.033 C 
ATOM     29  C   UNL     1     173.650 158.483 159.690  1.00  0.00     0.118 C 
BRANCH  29  30
ATOM     30  O   UNL     1     172.387 157.957 160.011  1.00  0.00    -0.393 OA
ATOM     31  H   UNL     1     172.479 156.967 160.011  1.00  0.00     0.210 HD
ENDBRANCH  29  30
ENDBRANCH   9  11
ENDBRANCH   1   9
TORSDOF 7
ENDMDL
MODEL 2
REMARK VINA RESULT:    -5.983      2.965      7.042
REMARK INTER + INTRA:         -10.735
REMARK INTER:                  -8.553
REMARK INTRA:                  -2.182
REMARK UNBOUND:                -2.479
REMARK SMILES CC[C@H](CC[C@@H](C)[C@@H]1CC[C@H]2[C@@H]3CC=C4C[C@H](O)CC[C@]4(C)[C@H]3CC[C@]21C)C(C)C
REMARK SMILES IDX 5 1 4 2 3 3 2 4 1 5 28 6 29 7 30 8 6 9 7 10 8 11 9 12 26 13
REMARK SMILES IDX 10 14 11 15 25 16 27 17 12 18 24 19 23 20 13 21 21 22 14 23
REMARK SMILES IDX 15 24 20 25 22 26 16 27 19 28 17 29 18 30
REMARK H PARENT 18 31
REMARK Flexibility Score: inf
ROOT
ATOM      1  C   UNL     1     171.675 157.649 153.915  1.00  0.00     0.004 C 
ENDROOT
BRANCH   1   2
ATOM      2  C   UNL     1     170.874 158.582 152.987  1.00  0.00     0.004 C 
BRANCH   2   3
ATOM      3  C   UNL     1     171.144 158.363 151.469  1.00  0.00    -0.009 C 
BRANCH   3   4
ATOM      4  C   UNL     1     170.058 159.060 150.589  1.00  0.00     0.000 C 
ATOM      5  C   UNL     1     169.513 158.236 149.415  1.00  0.00     0.004 C 
ENDBRANCH   3   4
BRANCH   3   6
ATOM      6  C   UNL     1     172.603 158.664 150.959  1.00  0.00    -0.014 C 
ATOM      7  C   UNL     1     172.804 160.119 150.489  1.00  0.00     0.007 C 
ATOM      8  C   UNL     1     173.131 157.690 149.893  1.00  0.00     0.007 C 
ENDBRANCH   3   6
ENDBRANCH   2   3
ENDBRANCH   1   2
BRANCH   1   9
ATOM      9  C   UNL     1     172.710 158.369 154.822  1.00  0.00    -0.011 C 
ATOM     10  C   UNL     1     173.415 157.370 155.758  1.00  0.00     0.008 C 
BRANCH   9  11
ATOM     11  C   UNL     1     173.671 159.325 154.021  1.00  0.00    -0.002 C 
ATOM     12  C   UNL     1     175.118 158.864 153.857  1.00  0.00     0.005 C 
ATOM     13  C   UNL     1     173.793 160.789 154.539  1.00  0.00    -0.026 C 
ATOM     14  C   UNL     1     175.837 160.083 153.306  1.00  0.00     0.005 C 
ATOM     15  C   UNL     1     175.084 161.326 153.832  1.00  0.00    -0.001 C 
ATOM     16  C   UNL     1     172.522 161.605 154.160  1.00  0.00     0.007 C 
ATOM     17  C   UNL     1     174.009 160.846 156.079  1.00  0.00     0.012 C 
ATOM     18  C   UNL     1     174.780 162.354 152.705  1.00  0.00     0.000 C 
ATOM     19  C   UNL     1     172.781 163.114 154.183  1.00  0.00     0.005 C 
ATOM     20  C   UNL     1     173.950 163.551 153.246  1.00  0.00     0.003 C 
ATOM     21  C   UNL     1     176.078 162.900 152.078  1.00  0.00     0.031 C 
ATOM     22  C   UNL     1     173.529 164.524 152.079  1.00  0.00    -0.008 C 
ATOM     23  C   UNL     1     175.827 164.034 151.123  1.00  0.00    -0.027 C 
ATOM     24  C   UNL     1     174.740 164.837 151.182  1.00  0.00    -0.065 C 
ATOM     25  C   UNL     1     173.012 165.864 152.697  1.00  0.00     0.014 C 
ATOM     26  C   UNL     1     172.421 163.894 151.189  1.00  0.00     0.016 C 
ATOM     27  C   UNL     1     174.651 166.004 150.216  1.00  0.00     0.063 C 
ATOM     28  C   UNL     1     172.859 167.005 151.678  1.00  0.00     0.033 C 
ATOM     29  C   UNL     1     174.170 167.272 150.925  1.00  0.00     0.118 C 
BRANCH  29  30
ATOM     30  O   UNL     1     175.165 167.720 151.810  1.00  0.00    -0.393 OA
ATOM     31  H   UNL     1     175.103 167.153 152.624  1.00  0.00     0.210 HD
ENDBRANCH  29  30
ENDBRANCH   9  11
ENDBRANCH   1   9
TORSDOF 7
ENDMDL
MODEL 3
REMARK VINA RESULT:    -5.952      9.264     11.622
REMARK INTER + INTRA:         -10.693
REMARK INTER:                  -8.141
REMARK INTRA:                  -2.552
REMARK UNBOUND:                -2.479
REMARK SMILES CC[C@H](CC[C@@H](C)[C@@H]1CC[C@H]2[C@@H]3CC=C4C[C@H](O)CC[C@]4(C)[C@H]3CC[C@]21C)C(C)C
REMARK SMILES IDX 5 1 4 2 3 3 2 4 1 5 28 6 29 7 30 8 6 9 7 10 8 11 9 12 26 13
REMARK SMILES IDX 10 14 11 15 25 16 27 17 12 18 24 19 23 20 13 21 21 22 14 23
REMARK SMILES IDX 15 24 20 25 22 26 16 27 19 28 17 29 18 30
REMARK H PARENT 18 31
REMARK Flexibility Score: inf
ROOT
ATOM      1  C   UNL     1     174.826 171.205 150.143  1.00  0.00     0.004 C 
ENDROOT
BRANCH   1   2
ATOM      2  C   UNL     1     175.463 170.209 151.130  1.00  0.00     0.004 C 
BRANCH   2   3
ATOM      3  C   UNL     1     175.000 168.734 150.942  1.00  0.00    -0.009 C 
BRANCH   3   4
ATOM      4  C   UNL     1     174.504 168.114 152.287  1.00  0.00     0.000 C 
ATOM      5  C   UNL     1     174.927 168.853 153.565  1.00  0.00     0.004 C 
ENDBRANCH   3   4
BRANCH   3   6
ATOM      6  C   UNL     1     174.003 168.451 149.756  1.00  0.00    -0.014 C 
ATOM      7  C   UNL     1     172.590 168.045 150.222  1.00  0.00     0.007 C 
ATOM      8  C   UNL     1     174.515 167.456 148.702  1.00  0.00     0.007 C 
ENDBRANCH   3   6
ENDBRANCH   2   3
ENDBRANCH   1   2
BRANCH   1   9
ATOM      9  C   UNL     1     173.758 172.144 150.768  1.00  0.00    -0.011 C 
ATOM     10  C   UNL     1     172.737 172.602 149.709  1.00  0.00     0.008 C 
BRANCH   9  11
ATOM     11  C   UNL     1     173.132 171.569 152.093  1.00  0.00    -0.002 C 
ATOM     12  C   UNL     1     171.715 171.005 151.995  1.00  0.00     0.005 C 
ATOM     13  C   UNL     1     173.076 172.531 153.316  1.00  0.00    -0.026 C 
ATOM     14  C   UNL     1     171.298 170.793 153.441  1.00  0.00     0.005 C 
ATOM     15  C   UNL     1     172.058 171.841 154.286  1.00  0.00    -0.001 C 
ATOM     16  C   UNL     1     174.491 172.687 153.947  1.00  0.00     0.007 C 
ATOM     17  C   UNL     1     172.522 173.933 152.929  1.00  0.00     0.012 C 
ATOM     18  C   UNL     1     172.738 171.210 155.536  1.00  0.00     0.000 C 
ATOM     19  C   UNL     1     174.423 173.186 155.393  1.00  0.00     0.005 C 
ATOM     20  C   UNL     1     173.564 172.269 156.320  1.00  0.00     0.003 C 
ATOM     21  C   UNL     1     171.696 170.595 156.490  1.00  0.00     0.031 C 
ATOM     22  C   UNL     1     174.358 171.604 157.508  1.00  0.00    -0.008 C 
ATOM     23  C   UNL     1     172.298 170.152 157.795  1.00  0.00    -0.027 C 
ATOM     24  C   UNL     1     173.434 170.674 158.313  1.00  0.00    -0.065 C 
ATOM     25  C   UNL     1     174.881 172.728 158.460  1.00  0.00     0.014 C 
ATOM     26  C   UNL     1     175.554 170.759 156.986  1.00  0.00     0.016 C 
ATOM     27  C   UNL     1     173.885 170.203 159.684  1.00  0.00     0.063 C 
ATOM     28  C   UNL     1     175.404 172.211 159.811  1.00  0.00     0.033 C 
ATOM     29  C   UNL     1     174.344 171.380 160.548  1.00  0.00     0.118 C 
BRANCH  29  30
ATOM     30  O   UNL     1     173.235 172.177 160.880  1.00  0.00    -0.393 OA
ATOM     31  H   UNL     1     173.130 172.125 161.867  1.00  0.00     0.210 HD
ENDBRANCH  29  30
ENDBRANCH   9  11
ENDBRANCH   1   9
TORSDOF 7
ENDMDL
MODEL 4
REMARK VINA RESULT:    -5.935      1.566      4.237
REMARK INTER + INTRA:         -10.669
REMARK INTER:                  -8.085
REMARK INTRA:                  -2.584
REMARK UNBOUND:                -2.479
REMARK SMILES CC[C@H](CC[C@@H](C)[C@@H]1CC[C@H]2[C@@H]3CC=C4C[C@H](O)CC[C@]4(C)[C@H]3CC[C@]21C)C(C)C
REMARK SMILES IDX 5 1 4 2 3 3 2 4 1 5 28 6 29 7 30 8 6 9 7 10 8 11 9 12 26 13
REMARK SMILES IDX 10 14 11 15 25 16 27 17 12 18 24 19 23 20 13 21 21 22 14 23
REMARK SMILES IDX 15 24 20 25 22 26 16 27 19 28 17 29 18 30
REMARK H PARENT 18 31
REMARK Flexibility Score: inf
ROOT
ATOM      1  C   UNL     1     173.742 159.069 150.119  1.00  0.00     0.004 C 
ENDROOT
BRANCH   1   2
ATOM      2  C   UNL     1     173.014 158.126 151.094  1.00  0.00     0.004 C 
BRANCH   2   3
ATOM      3  C   UNL     1     171.463 158.138 150.960  1.00  0.00    -0.009 C 
BRANCH   3   4
ATOM      4  C   UNL     1     170.774 158.488 152.318  1.00  0.00     0.000 C 
ATOM      5  C   UNL     1     171.567 158.139 153.585  1.00  0.00     0.004 C 
ENDBRANCH   3   4
BRANCH   3   6
ATOM      6  C   UNL     1     170.862 158.962 149.760  1.00  0.00    -0.014 C 
ATOM      7  C   UNL     1     170.010 160.167 150.207  1.00  0.00     0.007 C 
ATOM      8  C   UNL     1     170.091 158.129 148.723  1.00  0.00     0.007 C 
ENDBRANCH   3   6
ENDBRANCH   2   3
ENDBRANCH   1   2
BRANCH   1   9
ATOM      9  C   UNL     1     174.336 160.346 150.773  1.00  0.00    -0.011 C 
ATOM     10  C   UNL     1     174.509 161.471 149.735  1.00  0.00     0.008 C 
BRANCH   9  11
ATOM     11  C   UNL     1     173.589 160.767 152.093  1.00  0.00    -0.002 C 
ATOM     12  C   UNL     1     172.667 161.982 152.003  1.00  0.00     0.005 C 
ATOM     13  C   UNL     1     174.476 161.052 153.340  1.00  0.00    -0.026 C 
ATOM     14  C   UNL     1     172.322 162.295 153.449  1.00  0.00     0.005 C 
ATOM     15  C   UNL     1     173.519 161.827 154.309  1.00  0.00    -0.001 C 
ATOM     16  C   UNL     1     174.993 159.718 153.954  1.00  0.00     0.007 C 
ATOM     17  C   UNL     1     175.685 161.970 152.997  1.00  0.00     0.012 C 
ATOM     18  C   UNL     1     173.069 160.976 155.532  1.00  0.00     0.000 C 
ATOM     19  C   UNL     1     175.427 159.886 155.413  1.00  0.00     0.005 C 
ATOM     20  C   UNL     1     174.295 160.448 156.329  1.00  0.00     0.003 C 
ATOM     21  C   UNL     1     172.178 161.794 156.486  1.00  0.00     0.031 C 
ATOM     22  C   UNL     1     173.844 159.479 157.488  1.00  0.00    -0.008 C 
ATOM     23  C   UNL     1     171.887 161.067 157.771  1.00  0.00    -0.027 C 
ATOM     24  C   UNL     1     172.684 160.103 158.284  1.00  0.00    -0.065 C 
ATOM     25  C   UNL     1     175.048 159.256 158.460  1.00  0.00     0.014 C 
ATOM     26  C   UNL     1     173.362 158.112 156.927  1.00  0.00     0.016 C 
ATOM     27  C   UNL     1     172.325 159.513 159.636  1.00  0.00     0.063 C 
ATOM     28  C   UNL     1     174.664 158.586 159.789  1.00  0.00     0.033 C 
ATOM     29  C   UNL     1     173.565 159.368 160.521  1.00  0.00     0.118 C 
BRANCH  29  30
ATOM     30  O   UNL     1     174.028 160.642 160.890  1.00  0.00    -0.393 OA
ATOM     31  H   UNL     1     174.073 161.184 160.058  1.00  0.00     0.210 HD
ENDBRANCH  29  30
ENDBRANCH   9  11
ENDBRANCH   1   9
TORSDOF 7
ENDMDL
MODEL 5
REMARK VINA RESULT:    -5.884      4.319      7.672
REMARK INTER + INTRA:         -10.599
REMARK INTER:                  -7.948
REMARK INTRA:                  -2.651
REMARK UNBOUND:                -2.479
REMARK SMILES CC[C@H](CC[C@@H](C)[C@@H]1CC[C@H]2[C@@H]3CC=C4C[C@H](O)CC[C@]4(C)[C@H]3CC[C@]21C)C(C)C
REMARK SMILES IDX 5 1 4 2 3 3 2 4 1 5 28 6 29 7 30 8 6 9 7 10 8 11 9 12 26 13
REMARK SMILES IDX 10 14 11 15 25 16 27 17 12 18 24 19 23 20 13 21 21 22 14 23
REMARK SMILES IDX 15 24 20 25 22 26 16 27 19 28 17 29 18 30
REMARK H PARENT 18 31
REMARK Flexibility Score: inf
ROOT
ATOM      1  C   UNL     1     174.209 169.312 153.064  1.00  0.00     0.004 C 
ENDROOT
BRANCH   1   2
ATOM      2  C   UNL     1     174.930 168.624 151.889  1.00  0.00     0.004 C 
BRANCH   2   3
ATOM      3  C   UNL     1     174.664 169.280 150.502  1.00  0.00    -0.009 C 
BRANCH   3   4
ATOM      4  C   UNL     1     174.346 168.207 149.412  1.00  0.00     0.000 C 
ATOM      5  C   UNL     1     174.530 166.743 149.836  1.00  0.00     0.004 C 
ENDBRANCH   3   4
BRANCH   3   6
ATOM      6  C   UNL     1     173.642 170.478 150.469  1.00  0.00    -0.014 C 
ATOM      7  C   UNL     1     172.397 170.202 149.603  1.00  0.00     0.007 C 
ATOM      8  C   UNL     1     174.251 171.840 150.095  1.00  0.00     0.007 C 
ENDBRANCH   3   6
ENDBRANCH   2   3
ENDBRANCH   1   2
BRANCH   1   9
ATOM      9  C   UNL     1     172.854 168.666 153.461  1.00  0.00    -0.011 C 
ATOM     10  C   UNL     1     171.738 169.725 153.536  1.00  0.00     0.008 C 
BRANCH   9  11
ATOM     11  C   UNL     1     172.506 167.390 152.607  1.00  0.00    -0.002 C 
ATOM     12  C   UNL     1     171.138 167.372 151.926  1.00  0.00     0.005 C 
ATOM     13  C   UNL     1     172.588 166.016 153.336  1.00  0.00    -0.026 C 
ATOM     14  C   UNL     1     170.989 165.944 151.429  1.00  0.00     0.005 C 
ATOM     15  C   UNL     1     171.803 165.046 152.389  1.00  0.00    -0.001 C 
ATOM     16  C   UNL     1     174.074 165.592 153.525  1.00  0.00     0.007 C 
ATOM     17  C   UNL     1     171.875 166.046 154.719  1.00  0.00     0.012 C 
ATOM     18  C   UNL     1     172.729 164.054 151.627  1.00  0.00     0.000 C 
ATOM     19  C   UNL     1     174.216 164.086 153.760  1.00  0.00     0.005 C 
ATOM     20  C   UNL     1     173.596 163.224 152.615  1.00  0.00     0.003 C 
ATOM     21  C   UNL     1     171.912 163.082 150.754  1.00  0.00     0.031 C 
ATOM     22  C   UNL     1     174.627 162.316 151.842  1.00  0.00    -0.008 C 
ATOM     23  C   UNL     1     172.758 161.990 150.158  1.00  0.00    -0.027 C 
ATOM     24  C   UNL     1     173.923 161.565 150.698  1.00  0.00    -0.065 C 
ATOM     25  C   UNL     1     175.220 161.264 152.834  1.00  0.00     0.014 C 
ATOM     26  C   UNL     1     175.776 163.163 151.226  1.00  0.00     0.016 C 
ATOM     27  C   UNL     1     174.634 160.391 150.048  1.00  0.00     0.063 C 
ATOM     28  C   UNL     1     176.001 160.129 152.150  1.00  0.00     0.033 C 
ATOM     29  C   UNL     1     175.145 159.405 151.101  1.00  0.00     0.118 C 
BRANCH  29  30
ATOM     30  O   UNL     1     174.053 158.764 151.712  1.00  0.00    -0.393 OA
ATOM     31  H   UNL     1     174.194 157.787 151.599  1.00  0.00     0.210 HD
ENDBRANCH  29  30
ENDBRANCH   9  11
ENDBRANCH   1   9
TORSDOF 7
ENDMDL
MODEL 6
REMARK VINA RESULT:    -5.882      5.971     10.175
REMARK INTER + INTRA:         -10.597
REMARK INTER:                  -9.243
REMARK INTRA:                  -1.354
REMARK UNBOUND:                -2.479
REMARK SMILES CC[C@H](CC[C@@H](C)[C@@H]1CC[C@H]2[C@@H]3CC=C4C[C@H](O)CC[C@]4(C)[C@H]3CC[C@]21C)C(C)C
REMARK SMILES IDX 5 1 4 2 3 3 2 4 1 5 28 6 29 7 30 8 6 9 7 10 8 11 9 12 26 13
REMARK SMILES IDX 10 14 11 15 25 16 27 17 12 18 24 19 23 20 13 21 21 22 14 23
REMARK SMILES IDX 15 24 20 25 22 26 16 27 19 28 17 29 18 30
REMARK H PARENT 18 31
REMARK Flexibility Score: inf
ROOT
ATOM      1  C   UNL     1     175.145 163.451 150.902  1.00  0.00     0.004 C 
ENDROOT
BRANCH   1   2
ATOM      2  C   UNL     1     175.891 162.821 152.093  1.00  0.00     0.004 C 
BRANCH   2   3
ATOM      3  C   UNL     1     176.084 161.279 151.985  1.00  0.00    -0.009 C 
BRANCH   3   4
ATOM      4  C   UNL     1     175.928 160.584 153.375  1.00  0.00     0.000 C 
ATOM      5  C   UNL     1     175.281 161.429 154.481  1.00  0.00     0.004 C 
ENDBRANCH   3   4
BRANCH   3   6
ATOM      6  C   UNL     1     175.269 160.540 150.858  1.00  0.00    -0.014 C 
ATOM      7  C   UNL     1     174.289 159.481 151.401  1.00  0.00     0.007 C 
ATOM      8  C   UNL     1     176.122 159.937 149.730  1.00  0.00     0.007 C 
ENDBRANCH   3   6
ENDBRANCH   2   3
ENDBRANCH   1   2
BRANCH   1   9
ATOM      9  C   UNL     1     173.761 164.060 151.254  1.00  0.00    -0.011 C 
ATOM     10  C   UNL     1     172.817 162.991 151.836  1.00  0.00     0.008 C 
BRANCH   9  11
ATOM     11  C   UNL     1     173.867 165.385 152.098  1.00  0.00    -0.002 C 
ATOM     12  C   UNL     1     173.641 165.261 153.604  1.00  0.00     0.005 C 
ATOM     13  C   UNL     1     172.946 166.565 151.670  1.00  0.00    -0.026 C 
ATOM     14  C   UNL     1     173.535 166.698 154.084  1.00  0.00     0.005 C 
ATOM     15  C   UNL     1     172.973 167.526 152.906  1.00  0.00    -0.001 C 
ATOM     16  C   UNL     1     173.494 167.239 150.378  1.00  0.00     0.007 C 
ATOM     17  C   UNL     1     171.479 166.101 151.432  1.00  0.00     0.012 C 
ATOM     18  C   UNL     1     173.793 168.824 152.653  1.00  0.00     0.000 C 
ATOM     19  C   UNL     1     172.953 168.660 150.197  1.00  0.00     0.005 C 
ATOM     20  C   UNL     1     173.258 169.592 151.411  1.00  0.00     0.003 C 
ATOM     21  C   UNL     1     173.744 169.766 153.871  1.00  0.00     0.031 C 
ATOM     22  C   UNL     1     174.169 170.834 151.076  1.00  0.00    -0.008 C 
ATOM     23  C   UNL     1     174.361 171.108 153.590  1.00  0.00    -0.027 C 
ATOM     24  C   UNL     1     174.459 171.644 152.352  1.00  0.00    -0.065 C 
ATOM     25  C   UNL     1     173.416 171.757 150.064  1.00  0.00     0.014 C 
ATOM     26  C   UNL     1     175.530 170.390 150.469  1.00  0.00     0.016 C 
ATOM     27  C   UNL     1     175.019 173.048 152.215  1.00  0.00     0.063 C 
ATOM     28  C   UNL     1     174.053 173.145 149.888  1.00  0.00     0.033 C 
ATOM     29  C   UNL     1     174.192 173.878 151.231  1.00  0.00     0.118 C 
BRANCH  29  30
ATOM     30  O   UNL     1     172.927 174.138 151.784  1.00  0.00    -0.393 OA
ATOM     31  H   UNL     1     173.028 174.935 152.369  1.00  0.00     0.210 HD
ENDBRANCH  29  30
ENDBRANCH   9  11
ENDBRANCH   1   9
TORSDOF 7
ENDMDL
MODEL 7
REMARK VINA RESULT:    -5.838      9.366     13.427
REMARK INTER + INTRA:         -10.535
REMARK INTER:                  -8.357
REMARK INTRA:                  -2.178
REMARK UNBOUND:                -2.479
REMARK SMILES CC[C@H](CC[C@@H](C)[C@@H]1CC[C@H]2[C@@H]3CC=C4C[C@H](O)CC[C@]4(C)[C@H]3CC[C@]21C)C(C)C
REMARK SMILES IDX 5 1 4 2 3 3 2 4 1 5 28 6 29 7 30 8 6 9 7 10 8 11 9 12 26 13
REMARK SMILES IDX 10 14 11 15 25 16 27 17 12 18 24 19 23 20 13 21 21 22 14 23
REMARK SMILES IDX 15 24 20 25 22 26 16 27 19 28 17 29 18 30
REMARK H PARENT 18 31
REMARK Flexibility Score: inf
ROOT
ATOM      1  C   UNL     1     174.765 168.359 153.720  1.00  0.00     0.004 C 
ENDROOT
BRANCH   1   2
ATOM      2  C   UNL     1     175.375 168.610 152.328  1.00  0.00     0.004 C 
BRANCH   2   3
ATOM      3  C   UNL     1     174.354 168.526 151.156  1.00  0.00    -0.009 C 
BRANCH   3   4
ATOM      4  C   UNL     1     174.382 169.819 150.279  1.00  0.00     0.000 C 
ATOM      5  C   UNL     1     173.092 170.651 150.266  1.00  0.00     0.004 C 
ENDBRANCH   3   4
BRANCH   3   6
ATOM      6  C   UNL     1     174.385 167.217 150.282  1.00  0.00    -0.014 C 
ATOM      7  C   UNL     1     174.550 167.487 148.772  1.00  0.00     0.007 C 
ATOM      8  C   UNL     1     173.211 166.252 150.517  1.00  0.00     0.007 C 
ENDBRANCH   3   6
ENDBRANCH   2   3
ENDBRANCH   1   2
BRANCH   1   9
ATOM      9  C   UNL     1     174.679 169.616 154.627  1.00  0.00    -0.011 C 
ATOM     10  C   UNL     1     175.990 169.826 155.408  1.00  0.00     0.008 C 
BRANCH   9  11
ATOM     11  C   UNL     1     174.144 170.888 153.868  1.00  0.00    -0.002 C 
ATOM     12  C   UNL     1     175.098 172.076 153.763  1.00  0.00     0.005 C 
ATOM     13  C   UNL     1     172.816 171.509 154.392  1.00  0.00    -0.026 C 
ATOM     14  C   UNL     1     174.227 173.208 153.243  1.00  0.00     0.005 C 
ATOM     15  C   UNL     1     172.789 172.933 153.740  1.00  0.00    -0.001 C 
ATOM     16  C   UNL     1     171.602 170.634 153.962  1.00  0.00     0.007 C 
ATOM     17  C   UNL     1     172.819 171.670 155.940  1.00  0.00     0.012 C 
ATOM     18  C   UNL     1     171.736 173.065 152.602  1.00  0.00     0.000 C 
ATOM     19  C   UNL     1     170.287 171.417 153.999  1.00  0.00     0.005 C 
ATOM     20  C   UNL     1     170.313 172.701 153.110  1.00  0.00     0.003 C 
ATOM     21  C   UNL     1     171.704 174.495 152.030  1.00  0.00     0.031 C 
ATOM     22  C   UNL     1     169.270 172.705 151.928  1.00  0.00    -0.008 C 
ATOM     23  C   UNL     1     170.568 174.707 151.068  1.00  0.00    -0.027 C 
ATOM     24  C   UNL     1     169.426 173.981 151.083  1.00  0.00    -0.065 C 
ATOM     25  C   UNL     1     167.825 172.682 152.527  1.00  0.00     0.014 C 
ATOM     26  C   UNL     1     169.470 171.480 150.993  1.00  0.00     0.016 C 
ATOM     27  C   UNL     1     168.319 174.357 150.115  1.00  0.00     0.063 C 
ATOM     28  C   UNL     1     166.719 172.990 151.504  1.00  0.00     0.033 C 
ATOM     29  C   UNL     1     166.953 174.338 150.806  1.00  0.00     0.118 C 
BRANCH  29  30
ATOM     30  O   UNL     1     166.882 175.392 151.732  1.00  0.00    -0.393 OA
ATOM     31  H   UNL     1     165.918 175.539 151.927  1.00  0.00     0.210 HD
ENDBRANCH  29  30
ENDBRANCH   9  11
ENDBRANCH   1   9
TORSDOF 7
ENDMDL
MODEL 8
REMARK VINA RESULT:    -5.830      6.491     10.387
REMARK INTER + INTRA:         -10.524
REMARK INTER:                  -8.026
REMARK INTRA:                  -2.498
REMARK UNBOUND:                -2.479
REMARK SMILES CC[C@H](CC[C@@H](C)[C@@H]1CC[C@H]2[C@@H]3CC=C4C[C@H](O)CC[C@]4(C)[C@H]3CC[C@]21C)C(C)C
REMARK SMILES IDX 5 1 4 2 3 3 2 4 1 5 28 6 29 7 30 8 6 9 7 10 8 11 9 12 26 13
REMARK SMILES IDX 10 14 11 15 25 16 27 17 12 18 24 19 23 20 13 21 21 22 14 23
REMARK SMILES IDX 15 24 20 25 22 26 16 27 19 28 17 29 18 30
REMARK H PARENT 18 31
REMARK Flexibility Score: inf
ROOT
ATOM      1  C   UNL     1     174.096 172.948 153.305  1.00  0.00     0.004 C 
ENDROOT
BRANCH   1   2
ATOM      2  C   UNL     1     175.232 172.155 153.979  1.00  0.00     0.004 C 
BRANCH   2   3
ATOM      3  C   UNL     1     174.779 171.293 155.194  1.00  0.00    -0.009 C 
BRANCH   3   4
ATOM      4  C   UNL     1     173.675 172.016 156.030  1.00  0.00     0.000 C 
ATOM      5  C   UNL     1     174.162 172.777 157.271  1.00  0.00     0.004 C 
ENDBRANCH   3   4
BRANCH   3   6
ATOM      6  C   UNL     1     174.408 169.791 154.897  1.00  0.00    -0.014 C 
ATOM      7  C   UNL     1     174.065 168.980 156.163  1.00  0.00     0.007 C 
ATOM      8  C   UNL     1     175.433 169.026 154.045  1.00  0.00     0.007 C 
ENDBRANCH   3   6
ENDBRANCH   2   3
ENDBRANCH   1   2
BRANCH   1   9
ATOM      9  C   UNL     1     173.954 172.705 151.778  1.00  0.00    -0.011 C 
ATOM     10  C   UNL     1     174.607 173.845 150.974  1.00  0.00     0.008 C 
BRANCH   9  11
ATOM     11  C   UNL     1     174.379 171.253 151.342  1.00  0.00    -0.002 C 
ATOM     12  C   UNL     1     175.495 171.147 150.305  1.00  0.00     0.005 C 
ATOM     13  C   UNL     1     173.253 170.331 150.789  1.00  0.00    -0.026 C 
ATOM     14  C   UNL     1     175.485 169.683 149.897  1.00  0.00     0.005 C 
ATOM     15  C   UNL     1     174.036 169.175 150.077  1.00  0.00    -0.001 C 
ATOM     16  C   UNL     1     172.356 169.814 151.952  1.00  0.00     0.007 C 
ATOM     17  C   UNL     1     172.370 171.058 149.734  1.00  0.00     0.012 C 
ATOM     18  C   UNL     1     173.975 167.828 150.852  1.00  0.00     0.000 C 
ATOM     19  C   UNL     1     171.581 168.553 151.562  1.00  0.00     0.005 C 
ATOM     20  C   UNL     1     172.504 167.385 151.092  1.00  0.00     0.003 C 
ATOM     21  C   UNL     1     174.707 166.708 150.088  1.00  0.00     0.031 C 
ATOM     22  C   UNL     1     172.440 166.091 151.990  1.00  0.00    -0.008 C 
ATOM     23  C   UNL     1     174.501 165.354 150.710  1.00  0.00    -0.027 C 
ATOM     24  C   UNL     1     173.433 165.035 151.476  1.00  0.00    -0.065 C 
ATOM     25  C   UNL     1     170.998 165.493 151.915  1.00  0.00     0.014 C 
ATOM     26  C   UNL     1     172.799 166.411 153.469  1.00  0.00     0.016 C 
ATOM     27  C   UNL     1     173.299 163.605 151.968  1.00  0.00     0.063 C 
ATOM     28  C   UNL     1     170.878 164.073 152.493  1.00  0.00     0.033 C 
ATOM     29  C   UNL     1     171.861 163.104 151.820  1.00  0.00     0.118 C 
BRANCH  29  30
ATOM     30  O   UNL     1     171.554 162.957 150.457  1.00  0.00    -0.393 OA
ATOM     31  H   UNL     1     172.101 163.625 149.965  1.00  0.00     0.210 HD
ENDBRANCH  29  30
ENDBRANCH   9  11
ENDBRANCH   1   9
TORSDOF 7
ENDMDL
MODEL 9
REMARK VINA RESULT:    -5.737      3.125      6.337
REMARK INTER + INTRA:         -10.396
REMARK INTER:                  -7.971
REMARK INTRA:                  -2.425
REMARK UNBOUND:                -2.479
REMARK SMILES CC[C@H](CC[C@@H](C)[C@@H]1CC[C@H]2[C@@H]3CC=C4C[C@H](O)CC[C@]4(C)[C@H]3CC[C@]21C)C(C)C
REMARK SMILES IDX 5 1 4 2 3 3 2 4 1 5 28 6 29 7 30 8 6 9 7 10 8 11 9 12 26 13
REMARK SMILES IDX 10 14 11 15 25 16 27 17 12 18 24 19 23 20 13 21 21 22 14 23
REMARK SMILES IDX 15 24 20 25 22 26 16 27 19 28 17 29 18 30
REMARK H PARENT 18 31
REMARK Flexibility Score: inf
ROOT
ATOM      1  C   UNL     1     175.163 160.258 153.394  1.00  0.00     0.004 C 
ENDROOT
BRANCH   1   2
ATOM      2  C   UNL     1     174.787 158.887 153.987  1.00  0.00     0.004 C 
BRANCH   2   3
ATOM      3  C   UNL     1     174.076 158.960 155.370  1.00  0.00    -0.009 C 
BRANCH   3   4
ATOM      4  C   UNL     1     174.503 160.234 156.166  1.00  0.00     0.000 C 
ATOM      5  C   UNL     1     174.976 160.000 157.607  1.00  0.00     0.004 C 
ENDBRANCH   3   4
BRANCH   3   6
ATOM      6  C   UNL     1     172.515 158.753 155.376  1.00  0.00    -0.014 C 
ATOM      7  C   UNL     1     171.998 157.928 154.180  1.00  0.00     0.007 C 
ATOM      8  C   UNL     1     171.690 160.042 155.521  1.00  0.00     0.007 C 
ENDBRANCH   3   6
ENDBRANCH   2   3
ENDBRANCH   1   2
BRANCH   1   9
ATOM      9  C   UNL     1     174.851 160.418 151.882  1.00  0.00    -0.011 C 
ATOM     10  C   UNL     1     176.125 160.251 151.032  1.00  0.00     0.008 C 
BRANCH   9  11
ATOM     11  C   UNL     1     173.620 159.557 151.412  1.00  0.00    -0.002 C 
ATOM     12  C   UNL     1     173.887 158.504 150.337  1.00  0.00     0.005 C 
ATOM     13  C   UNL     1     172.380 160.336 150.882  1.00  0.00    -0.026 C 
ATOM     14  C   UNL     1     172.503 158.048 149.909  1.00  0.00     0.005 C 
ATOM     15  C   UNL     1     171.548 159.244 150.128  1.00  0.00    -0.001 C 
ATOM     16  C   UNL     1     171.595 160.974 152.065  1.00  0.00     0.007 C 
ATOM     17  C   UNL     1     172.781 161.445 149.866  1.00  0.00     0.012 C 
ATOM     18  C   UNL     1     170.252 158.833 150.886  1.00  0.00     0.000 C 
ATOM     19  C   UNL     1     170.150 161.306 151.684  1.00  0.00     0.005 C 
ATOM     20  C   UNL     1     169.351 160.068 151.167  1.00  0.00     0.003 C 
ATOM     21  C   UNL     1     169.436 157.802 150.083  1.00  0.00     0.031 C 
ATOM     22  C   UNL     1     168.105 159.674 152.049  1.00  0.00    -0.008 C 
ATOM     23  C   UNL     1     168.088 157.531 150.692  1.00  0.00    -0.027 C 
ATOM     24  C   UNL     1     167.434 158.407 151.488  1.00  0.00    -0.065 C 
ATOM     25  C   UNL     1     167.067 160.842 152.012  1.00  0.00     0.014 C 
ATOM     26  C   UNL     1     168.521 159.387 153.519  1.00  0.00     0.016 C 
ATOM     27  C   UNL     1     166.038 158.049 151.964  1.00  0.00     0.063 C 
ATOM     28  C   UNL     1     165.685 160.469 152.572  1.00  0.00     0.033 C 
ATOM     29  C   UNL     1     165.093 159.247 151.855  1.00  0.00     0.118 C 
BRANCH  29  30
ATOM     30  O   UNL     1     164.858 159.537 150.500  1.00  0.00    -0.393 OA
ATOM     31  H   UNL     1     165.729 159.815 150.110  1.00  0.00     0.210 HD
ENDBRANCH  29  30
ENDBRANCH   9  11
ENDBRANCH   1   9
TORSDOF 7
ENDMDL
