MODEL 1
REMARK VINA RESULT:    -6.237      0.000      0.000
REMARK INTER + INTRA:         -16.637
REMARK INTER:                 -13.528
REMARK INTRA:                  -3.108
REMARK UNBOUND:                -3.108
REMARK SMILES CCCCCCCCCCCCCCCCCCCCCC(=O)[O-]
REMARK SMILES IDX 12 1 11 2 10 3 9 4 8 5 7 6 6 7 5 8 4 9 3 10 2 11 1 12 13 13
REMARK SMILES IDX 14 14 15 15 16 16 17 17 18 18 19 19 20 20 21 21 22 22 23 23
REMARK SMILES IDX 24 24
REMARK H PARENT
REMARK Flexibility Score: inf
ROOT
ATOM      1  C   UNL     1      19.152  -2.770  15.948  1.00  0.00     0.000 C 
ENDROOT
BRANCH   1   2
ATOM      2  C   UNL     1      18.180  -3.776  16.585  1.00  0.00     0.000 C 
BRANCH   2   3
ATOM      3  C   UNL     1      17.324  -3.151  17.698  1.00  0.00     0.000 C 
BRANCH   3   4
ATOM      4  C   UNL     1      17.643  -1.662  17.919  1.00  0.00    -0.000 C 
BRANCH   4   5
ATOM      5  C   UNL     1      16.752  -1.022  18.996  1.00  0.00    -0.000 C 
BRANCH   5   6
ATOM      6  C   UNL     1      15.650  -1.976  19.489  1.00  0.00    -0.000 C 
BRANCH   6   7
ATOM      7  C   UNL     1      14.858  -1.403  20.677  1.00  0.00    -0.000 C 
BRANCH   7   8
ATOM      8  C   UNL     1      13.567  -0.693  20.243  1.00  0.00    -0.000 C 
BRANCH   8   9
ATOM      9  C   UNL     1      13.168  -1.103  18.819  1.00  0.00    -0.000 C 
BRANCH   9  10
ATOM     10  C   UNL     1      13.292   0.048  17.807  1.00  0.00    -0.000 C 
BRANCH  10  11
ATOM     11  C   UNL     1      13.652   1.403  18.452  1.00  0.00    -0.003 C 
ATOM     12  C   UNL     1      14.214   2.400  17.439  1.00  0.00     0.004 C 
ENDBRANCH  10  11
ENDBRANCH   9  10
ENDBRANCH   8   9
ENDBRANCH   7   8
ENDBRANCH   6   7
ENDBRANCH   5   6
ENDBRANCH   4   5
ENDBRANCH   3   4
ENDBRANCH   2   3
ENDBRANCH   1   2
BRANCH   1  13
ATOM     13  C   UNL     1      18.874  -2.562  14.442  1.00  0.00     0.000 C 
BRANCH  13  14
ATOM     14  C   UNL     1      17.955  -1.363  14.140  1.00  0.00     0.000 C 
BRANCH  14  15
ATOM     15  C   UNL     1      16.450  -1.661  14.247  1.00  0.00     0.000 C 
BRANCH  15  16
ATOM     16  C   UNL     1      15.694  -0.607  15.076  1.00  0.00     0.000 C 
BRANCH  16  17
ATOM     17  C   UNL     1      14.704   0.211  14.232  1.00  0.00     0.000 C 
BRANCH  17  18
ATOM     18  C   UNL     1      15.289   1.563  13.786  1.00  0.00     0.000 C 
BRANCH  18  19
ATOM     19  C   UNL     1      15.181   1.782  12.268  1.00  0.00     0.000 C 
BRANCH  19  20
ATOM     20  C   UNL     1      15.534   0.520  11.461  1.00  0.00     0.006 C 
BRANCH  20  21
ATOM     21  C   UNL     1      17.006   0.503  11.031  1.00  0.00     0.053 C 
BRANCH  21  22
ATOM     22  C   UNL     1      17.344  -0.730  10.249  1.00  0.00     0.041 C 
ATOM     23  O   UNL     1      17.909  -0.634   9.127  1.00  0.00    -0.550 OA
ATOM     24  O   UNL     1      17.011  -1.982  10.747  1.00  0.00    -0.550 OA
ENDBRANCH  21  22
ENDBRANCH  20  21
ENDBRANCH  19  20
ENDBRANCH  18  19
ENDBRANCH  17  18
ENDBRANCH  16  17
ENDBRANCH  15  16
ENDBRANCH  14  15
ENDBRANCH  13  14
ENDBRANCH   1  13
TORSDOF 20
ENDMDL
MODEL 2
REMARK VINA RESULT:    -6.183      2.024      4.550
REMARK INTER + INTRA:         -16.521
REMARK INTER:                 -12.870
REMARK INTRA:                  -3.651
REMARK UNBOUND:                -3.108
REMARK SMILES CCCCCCCCCCCCCCCCCCCCCC(=O)[O-]
REMARK SMILES IDX 12 1 11 2 10 3 9 4 8 5 7 6 6 7 5 8 4 9 3 10 2 11 1 12 13 13
REMARK SMILES IDX 14 14 15 15 16 16 17 17 18 18 19 19 20 20 21 21 22 22 23 23
REMARK SMILES IDX 24 24
REMARK H PARENT
REMARK Flexibility Score: inf
ROOT
ATOM      1  C   UNL     1      12.930   1.956  15.656  1.00  0.00     0.000 C 
ENDROOT
BRANCH   1   2
ATOM      2  C   UNL     1      12.878   2.445  17.113  1.00  0.00     0.000 C 
BRANCH   2   3
ATOM      3  C   UNL     1      13.335   1.373  18.115  1.00  0.00     0.000 C 
BRANCH   3   4
ATOM      4  C   UNL     1      13.917   1.983  19.402  1.00  0.00    -0.000 C 
BRANCH   4   5
ATOM      5  C   UNL     1      14.389   0.912  20.400  1.00  0.00    -0.000 C 
BRANCH   5   6
ATOM      6  C   UNL     1      13.950  -0.505  19.992  1.00  0.00    -0.000 C 
BRANCH   6   7
ATOM      7  C   UNL     1      14.880  -1.597  20.547  1.00  0.00    -0.000 C 
BRANCH   7   8
ATOM      8  C   UNL     1      15.476  -2.485  19.445  1.00  0.00    -0.000 C 
BRANCH   8   9
ATOM      9  C   UNL     1      14.858  -2.155  18.080  1.00  0.00    -0.000 C 
BRANCH   9  10
ATOM     10  C   UNL     1      15.899  -1.697  17.045  1.00  0.00    -0.000 C 
BRANCH  10  11
ATOM     11  C   UNL     1      16.995  -0.786  17.633  1.00  0.00    -0.003 C 
ATOM     12  C   UNL     1      16.773   0.689  17.294  1.00  0.00     0.004 C 
ENDBRANCH  10  11
ENDBRANCH   9  10
ENDBRANCH   8   9
ENDBRANCH   7   8
ENDBRANCH   6   7
ENDBRANCH   5   6
ENDBRANCH   4   5
ENDBRANCH   3   4
ENDBRANCH   2   3
ENDBRANCH   1   2
BRANCH   1  13
ATOM     13  C   UNL     1      13.432   0.499  15.546  1.00  0.00     0.000 C 
BRANCH  13  14
ATOM     14  C   UNL     1      14.369   0.253  14.348  1.00  0.00     0.000 C 
BRANCH  14  15
ATOM     15  C   UNL     1      15.282   1.438  13.989  1.00  0.00     0.000 C 
BRANCH  15  16
ATOM     16  C   UNL     1      15.183   1.833  12.505  1.00  0.00     0.000 C 
BRANCH  16  17
ATOM     17  C   UNL     1      15.389   0.639  11.559  1.00  0.00     0.000 C 
BRANCH  17  18
ATOM     18  C   UNL     1      16.853   0.492  11.108  1.00  0.00     0.000 C 
BRANCH  18  19
ATOM     19  C   UNL     1      17.474  -0.847  11.537  1.00  0.00     0.000 C 
BRANCH  19  20
ATOM     20  C   UNL     1      18.154  -0.768  12.916  1.00  0.00     0.006 C 
BRANCH  20  21
ATOM     21  C   UNL     1      17.780  -1.955  13.812  1.00  0.00     0.053 C 
BRANCH  21  22
ATOM     22  C   UNL     1      18.813  -2.202  14.869  1.00  0.00     0.041 C 
ATOM     23  O   UNL     1      18.912  -3.337  15.405  1.00  0.00    -0.550 OA
ATOM     24  O   UNL     1      19.648  -1.172  15.280  1.00  0.00    -0.550 OA
ENDBRANCH  21  22
ENDBRANCH  20  21
ENDBRANCH  19  20
ENDBRANCH  18  19
ENDBRANCH  17  18
ENDBRANCH  16  17
ENDBRANCH  15  16
ENDBRANCH  14  15
ENDBRANCH  13  14
ENDBRANCH   1  13
TORSDOF 20
ENDMDL
MODEL 3
REMARK VINA RESULT:    -5.976      2.561      6.675
REMARK INTER + INTRA:         -16.071
REMARK INTER:                 -13.263
REMARK INTRA:                  -2.808
REMARK UNBOUND:                -3.108
REMARK SMILES CCCCCCCCCCCCCCCCCCCCCC(=O)[O-]
REMARK SMILES IDX 12 1 11 2 10 3 9 4 8 5 7 6 6 7 5 8 4 9 3 10 2 11 1 12 13 13
REMARK SMILES IDX 14 14 15 15 16 16 17 17 18 18 19 19 20 20 21 21 22 22 23 23
REMARK SMILES IDX 24 24
REMARK H PARENT
REMARK Flexibility Score: inf
ROOT
ATOM      1  C   UNL     1      19.130  -2.882  15.017  1.00  0.00     0.000 C 
ENDROOT
BRANCH   1   2
ATOM      2  C   UNL     1      18.528  -2.151  13.806  1.00  0.00     0.000 C 
BRANCH   2   3
ATOM      3  C   UNL     1      17.545  -1.041  14.212  1.00  0.00     0.000 C 
BRANCH   3   4
ATOM      4  C   UNL     1      16.107  -1.561  14.377  1.00  0.00    -0.000 C 
BRANCH   4   5
ATOM      5  C   UNL     1      15.175  -0.523  15.023  1.00  0.00    -0.000 C 
BRANCH   5   6
ATOM      6  C   UNL     1      14.412   0.311  13.979  1.00  0.00    -0.000 C 
BRANCH   6   7
ATOM      7  C   UNL     1      15.112   1.643  13.658  1.00  0.00    -0.000 C 
BRANCH   7   8
ATOM      8  C   UNL     1      15.299   1.867  12.150  1.00  0.00    -0.000 C 
BRANCH   8   9
ATOM      9  C   UNL     1      15.559   0.540  11.426  1.00  0.00    -0.000 C 
BRANCH   9  10
ATOM     10  C   UNL     1      17.027   0.362  11.006  1.00  0.00    -0.000 C 
BRANCH  10  11
ATOM     11  C   UNL     1      17.311  -0.983  10.306  1.00  0.00    -0.003 C 
ATOM     12  C   UNL     1      17.884  -0.799   8.900  1.00  0.00     0.004 C 
ENDBRANCH  10  11
ENDBRANCH   9  10
ENDBRANCH   8   9
ENDBRANCH   7   8
ENDBRANCH   6   7
ENDBRANCH   5   6
ENDBRANCH   4   5
ENDBRANCH   3   4
ENDBRANCH   2   3
ENDBRANCH   1   2
BRANCH   1  13
ATOM     13  C   UNL     1      19.079  -2.026  16.302  1.00  0.00     0.000 C 
BRANCH  13  14
ATOM     14  C   UNL     1      18.088  -2.550  17.360  1.00  0.00     0.000 C 
BRANCH  14  15
ATOM     15  C   UNL     1      17.234  -1.465  18.038  1.00  0.00     0.000 C 
BRANCH  15  16
ATOM     16  C   UNL     1      16.069  -2.052  18.855  1.00  0.00     0.000 C 
BRANCH  16  17
ATOM     17  C   UNL     1      15.066  -2.826  17.982  1.00  0.00     0.000 C 
BRANCH  17  18
ATOM     18  C   UNL     1      13.607  -2.583  18.408  1.00  0.00     0.000 C 
BRANCH  18  19
ATOM     19  C   UNL     1      13.413  -1.229  19.110  1.00  0.00     0.000 C 
BRANCH  19  20
ATOM     20  C   UNL     1      13.226  -0.069  18.116  1.00  0.00     0.006 C 
BRANCH  20  21
ATOM     21  C   UNL     1      13.528   1.292  18.754  1.00  0.00     0.053 C 
BRANCH  21  22
ATOM     22  C   UNL     1      14.186   2.227  17.786  1.00  0.00     0.041 C 
ATOM     23  O   UNL     1      13.650   3.333  17.510  1.00  0.00    -0.550 OA
ATOM     24  O   UNL     1      15.377   1.867  17.171  1.00  0.00    -0.550 OA
ENDBRANCH  21  22
ENDBRANCH  20  21
ENDBRANCH  19  20
ENDBRANCH  18  19
ENDBRANCH  17  18
ENDBRANCH  16  17
ENDBRANCH  15  16
ENDBRANCH  14  15
ENDBRANCH  13  14
ENDBRANCH   1  13
TORSDOF 20
ENDMDL
MODEL 4
REMARK VINA RESULT:    -5.923      1.835      4.864
REMARK INTER + INTRA:         -15.957
REMARK INTER:                 -13.714
REMARK INTRA:                  -2.243
REMARK UNBOUND:                -3.108
REMARK SMILES CCCCCCCCCCCCCCCCCCCCCC(=O)[O-]
REMARK SMILES IDX 12 1 11 2 10 3 9 4 8 5 7 6 6 7 5 8 4 9 3 10 2 11 1 12 13 13
REMARK SMILES IDX 14 14 15 15 16 16 17 17 18 18 19 19 20 20 21 21 22 22 23 23
REMARK SMILES IDX 24 24
REMARK H PARENT
REMARK Flexibility Score: inf
ROOT
ATOM      1  C   UNL     1      13.417   1.385  15.753  1.00  0.00     0.000 C 
ENDROOT
BRANCH   1   2
ATOM      2  C   UNL     1      13.043   2.566  16.664  1.00  0.00     0.000 C 
BRANCH   2   3
ATOM      3  C   UNL     1      12.885   2.152  18.136  1.00  0.00     0.000 C 
BRANCH   3   4
ATOM      4  C   UNL     1      13.217   0.668  18.368  1.00  0.00    -0.000 C 
BRANCH   4   5
ATOM      5  C   UNL     1      14.421   0.473  19.306  1.00  0.00    -0.000 C 
BRANCH   5   6
ATOM      6  C   UNL     1      15.644  -0.110  18.577  1.00  0.00    -0.000 C 
BRANCH   6   7
ATOM      7  C   UNL     1      15.310  -1.389  17.789  1.00  0.00    -0.000 C 
BRANCH   7   8
ATOM      8  C   UNL     1      16.416  -2.451  17.884  1.00  0.00    -0.000 C 
BRANCH   8   9
ATOM      9  C   UNL     1      16.808  -2.961  16.491  1.00  0.00    -0.000 C 
BRANCH   9  10
ATOM     10  C   UNL     1      16.681  -1.884  15.400  1.00  0.00    -0.000 C 
BRANCH  10  11
ATOM     11  C   UNL     1      18.026  -1.508  14.745  1.00  0.00    -0.003 C 
ATOM     12  C   UNL     1      19.185  -1.518  15.743  1.00  0.00     0.004 C 
ENDBRANCH  10  11
ENDBRANCH   9  10
ENDBRANCH   8   9
ENDBRANCH   7   8
ENDBRANCH   6   7
ENDBRANCH   5   6
ENDBRANCH   4   5
ENDBRANCH   3   4
ENDBRANCH   2   3
ENDBRANCH   1   2
BRANCH   1  13
ATOM     13  C   UNL     1      14.895   1.437  15.306  1.00  0.00     0.000 C 
BRANCH  13  14
ATOM     14  C   UNL     1      15.080   1.684  13.796  1.00  0.00     0.000 C 
BRANCH  14  15
ATOM     15  C   UNL     1      14.866   0.445  12.909  1.00  0.00     0.000 C 
BRANCH  15  16
ATOM     16  C   UNL     1      15.427   0.630  11.488  1.00  0.00     0.000 C 
BRANCH  16  17
ATOM     17  C   UNL     1      16.958   0.775  11.470  1.00  0.00     0.000 C 
BRANCH  17  18
ATOM     18  C   UNL     1      17.672  -0.569  11.238  1.00  0.00     0.000 C 
BRANCH  18  19
ATOM     19  C   UNL     1      17.289  -1.219   9.899  1.00  0.00     0.000 C 
BRANCH  19  20
ATOM     20  C   UNL     1      17.813  -0.429   8.686  1.00  0.00     0.006 C 
BRANCH  20  21
ATOM     21  C   UNL     1      18.857  -1.221   7.889  1.00  0.00     0.053 C 
BRANCH  21  22
ATOM     22  C   UNL     1      19.699  -0.326   7.031  1.00  0.00     0.041 C 
ATOM     23  O   UNL     1      20.732  -0.777   6.469  1.00  0.00    -0.550 OA
ATOM     24  O   UNL     1      19.357   1.010   6.874  1.00  0.00    -0.550 OA
ENDBRANCH  21  22
ENDBRANCH  20  21
ENDBRANCH  19  20
ENDBRANCH  18  19
ENDBRANCH  17  18
ENDBRANCH  16  17
ENDBRANCH  15  16
ENDBRANCH  14  15
ENDBRANCH  13  14
ENDBRANCH   1  13
TORSDOF 20
ENDMDL
MODEL 5
REMARK VINA RESULT:    -5.859      2.130      4.476
REMARK INTER + INTRA:         -15.818
REMARK INTER:                 -13.752
REMARK INTRA:                  -2.066
REMARK UNBOUND:                -3.108
REMARK SMILES CCCCCCCCCCCCCCCCCCCCCC(=O)[O-]
REMARK SMILES IDX 12 1 11 2 10 3 9 4 8 5 7 6 6 7 5 8 4 9 3 10 2 11 1 12 13 13
REMARK SMILES IDX 14 14 15 15 16 16 17 17 18 18 19 19 20 20 21 21 22 22 23 23
REMARK SMILES IDX 24 24
REMARK H PARENT
REMARK Flexibility Score: inf
ROOT
ATOM      1  C   UNL     1      13.727   0.802  15.920  1.00  0.00     0.000 C 
ENDROOT
BRANCH   1   2
ATOM      2  C   UNL     1      12.899   1.982  16.455  1.00  0.00     0.000 C 
BRANCH   2   3
ATOM      3  C   UNL     1      13.042   2.168  17.973  1.00  0.00     0.000 C 
BRANCH   3   4
ATOM      4  C   UNL     1      13.364   0.850  18.699  1.00  0.00    -0.000 C 
BRANCH   4   5
ATOM      5  C   UNL     1      14.463   1.015  19.761  1.00  0.00    -0.000 C 
BRANCH   5   6
ATOM      6  C   UNL     1      14.326   0.001  20.910  1.00  0.00    -0.000 C 
BRANCH   6   7
ATOM      7  C   UNL     1      14.141  -1.441  20.410  1.00  0.00    -0.000 C 
BRANCH   7   8
ATOM      8  C   UNL     1      15.402  -2.004  19.738  1.00  0.00    -0.000 C 
BRANCH   8   9
ATOM      9  C   UNL     1      15.093  -2.503  18.321  1.00  0.00    -0.000 C 
BRANCH   9  10
ATOM     10  C   UNL     1      16.014  -1.888  17.253  1.00  0.00    -0.000 C 
BRANCH  10  11
ATOM     11  C   UNL     1      17.418  -1.528  17.782  1.00  0.00    -0.003 C 
ATOM     12  C   UNL     1      17.857  -0.125  17.362  1.00  0.00     0.004 C 
ENDBRANCH  10  11
ENDBRANCH   9  10
ENDBRANCH   8   9
ENDBRANCH   7   8
ENDBRANCH   6   7
ENDBRANCH   5   6
ENDBRANCH   4   5
ENDBRANCH   3   4
ENDBRANCH   2   3
ENDBRANCH   1   2
BRANCH   1  13
ATOM     13  C   UNL     1      15.082   1.259  15.333  1.00  0.00     0.000 C 
BRANCH  13  14
ATOM     14  C   UNL     1      15.461   0.550  14.018  1.00  0.00     0.000 C 
BRANCH  14  15
ATOM     15  C   UNL     1      15.265   1.399  12.749  1.00  0.00     0.000 C 
BRANCH  15  16
ATOM     16  C   UNL     1      16.076   0.870  11.553  1.00  0.00     0.000 C 
BRANCH  16  17
ATOM     17  C   UNL     1      17.072  -0.231  11.953  1.00  0.00     0.000 C 
BRANCH  17  18
ATOM     18  C   UNL     1      17.416  -1.167  10.781  1.00  0.00     0.000 C 
BRANCH  18  19
ATOM     19  C   UNL     1      17.314  -0.468   9.416  1.00  0.00     0.000 C 
BRANCH  19  20
ATOM     20  C   UNL     1      18.372  -0.966   8.416  1.00  0.00     0.006 C 
BRANCH  20  21
ATOM     21  C   UNL     1      18.469  -0.062   7.180  1.00  0.00     0.053 C 
BRANCH  21  22
ATOM     22  C   UNL     1      19.891   0.169   6.769  1.00  0.00     0.041 C 
ATOM     23  O   UNL     1      20.286   1.329   6.479  1.00  0.00    -0.550 OA
ATOM     24  O   UNL     1      20.773  -0.900   6.682  1.00  0.00    -0.550 OA
ENDBRANCH  21  22
ENDBRANCH  20  21
ENDBRANCH  19  20
ENDBRANCH  18  19
ENDBRANCH  17  18
ENDBRANCH  16  17
ENDBRANCH  15  16
ENDBRANCH  14  15
ENDBRANCH  13  14
ENDBRANCH   1  13
TORSDOF 20
ENDMDL
MODEL 6
REMARK VINA RESULT:    -5.839      2.803      7.092
REMARK INTER + INTRA:         -15.775
REMARK INTER:                 -12.947
REMARK INTRA:                  -2.828
REMARK UNBOUND:                -3.108
REMARK SMILES CCCCCCCCCCCCCCCCCCCCCC(=O)[O-]
REMARK SMILES IDX 12 1 11 2 10 3 9 4 8 5 7 6 6 7 5 8 4 9 3 10 2 11 1 12 13 13
REMARK SMILES IDX 14 14 15 15 16 16 17 17 18 18 19 19 20 20 21 21 22 22 23 23
REMARK SMILES IDX 24 24
REMARK H PARENT
REMARK Flexibility Score: inf
ROOT
ATOM      1  C   UNL     1      15.691   0.101  16.214  1.00  0.00     0.000 C 
ENDROOT
BRANCH   1   2
ATOM      2  C   UNL     1      16.638   0.440  17.377  1.00  0.00     0.000 C 
BRANCH   2   3
ATOM      3  C   UNL     1      18.038  -0.167  17.198  1.00  0.00     0.000 C 
BRANCH   3   4
ATOM      4  C   UNL     1      18.005  -1.510  16.448  1.00  0.00    -0.000 C 
BRANCH   4   5
ATOM      5  C   UNL     1      19.194  -1.678  15.487  1.00  0.00    -0.000 C 
BRANCH   5   6
ATOM      6  C   UNL     1      18.756  -2.149  14.089  1.00  0.00    -0.000 C 
BRANCH   6   7
ATOM      7  C   UNL     1      17.234  -2.067  13.885  1.00  0.00    -0.000 C 
BRANCH   7   8
ATOM      8  C   UNL     1      16.817  -0.894  12.985  1.00  0.00    -0.000 C 
BRANCH   8   9
ATOM      9  C   UNL     1      17.876  -0.628  11.907  1.00  0.00    -0.000 C 
BRANCH   9  10
ATOM     10  C   UNL     1      17.272  -0.124  10.585  1.00  0.00    -0.000 C 
BRANCH  10  11
ATOM     11  C   UNL     1      17.324  -1.163   9.446  1.00  0.00    -0.003 C 
ATOM     12  C   UNL     1      18.289  -0.758   8.331  1.00  0.00     0.004 C 
ENDBRANCH  10  11
ENDBRANCH   9  10
ENDBRANCH   8   9
ENDBRANCH   7   8
ENDBRANCH   6   7
ENDBRANCH   5   6
ENDBRANCH   4   5
ENDBRANCH   3   4
ENDBRANCH   2   3
ENDBRANCH   1   2
BRANCH   1  13
ATOM     13  C   UNL     1      15.264   1.358  15.423  1.00  0.00     0.000 C 
BRANCH  13  14
ATOM     14  C   UNL     1      13.743   1.464  15.197  1.00  0.00     0.000 C 
BRANCH  14  15
ATOM     15  C   UNL     1      12.915   1.684  16.474  1.00  0.00     0.000 C 
BRANCH  15  16
ATOM     16  C   UNL     1      13.485   2.804  17.363  1.00  0.00     0.000 C 
BRANCH  16  17
ATOM     17  C   UNL     1      13.505   2.424  18.853  1.00  0.00     0.000 C 
BRANCH  17  18
ATOM     18  C   UNL     1      13.628   0.906  19.070  1.00  0.00     0.000 C 
BRANCH  18  19
ATOM     19  C   UNL     1      14.414   0.551  20.343  1.00  0.00     0.000 C 
BRANCH  19  20
ATOM     20  C   UNL     1      14.915  -0.904  20.342  1.00  0.00     0.006 C 
BRANCH  20  21
ATOM     21  C   UNL     1      14.186  -1.765  19.302  1.00  0.00     0.053 C 
BRANCH  21  22
ATOM     22  C   UNL     1      15.123  -2.695  18.594  1.00  0.00     0.041 C 
ATOM     23  O   UNL     1      16.253  -2.953  19.088  1.00  0.00    -0.550 OA
ATOM     24  O   UNL     1      14.759  -3.257  17.378  1.00  0.00    -0.550 OA
ENDBRANCH  21  22
ENDBRANCH  20  21
ENDBRANCH  19  20
ENDBRANCH  18  19
ENDBRANCH  17  18
ENDBRANCH  16  17
ENDBRANCH  15  16
ENDBRANCH  14  15
ENDBRANCH  13  14
ENDBRANCH   1  13
TORSDOF 20
ENDMDL
MODEL 7
REMARK VINA RESULT:    -5.819      1.774      3.646
REMARK INTER + INTRA:         -15.730
REMARK INTER:                 -13.464
REMARK INTRA:                  -2.266
REMARK UNBOUND:                -3.108
REMARK SMILES CCCCCCCCCCCCCCCCCCCCCC(=O)[O-]
REMARK SMILES IDX 12 1 11 2 10 3 9 4 8 5 7 6 6 7 5 8 4 9 3 10 2 11 1 12 13 13
REMARK SMILES IDX 14 14 15 15 16 16 17 17 18 18 19 19 20 20 21 21 22 22 23 23
REMARK SMILES IDX 24 24
REMARK H PARENT
REMARK Flexibility Score: inf
ROOT
ATOM      1  C   UNL     1      17.211  -0.990  19.006  1.00  0.00     0.000 C 
ENDROOT
BRANCH   1   2
ATOM      2  C   UNL     1      16.629  -2.393  18.768  1.00  0.00     0.000 C 
BRANCH   2   3
ATOM      3  C   UNL     1      15.161  -2.509  19.210  1.00  0.00     0.000 C 
BRANCH   3   4
ATOM      4  C   UNL     1      14.746  -1.382  20.171  1.00  0.00    -0.000 C 
BRANCH   4   5
ATOM      5  C   UNL     1      13.335  -0.847  19.877  1.00  0.00    -0.000 C 
BRANCH   5   6
ATOM      6  C   UNL     1      13.240  -0.167  18.500  1.00  0.00    -0.000 C 
BRANCH   6   7
ATOM      7  C   UNL     1      13.961   1.191  18.459  1.00  0.00    -0.000 C 
BRANCH   7   8
ATOM      8  C   UNL     1      13.214   2.235  17.615  1.00  0.00    -0.000 C 
BRANCH   8   9
ATOM      9  C   UNL     1      13.085   1.771  16.158  1.00  0.00    -0.000 C 
BRANCH   9  10
ATOM     10  C   UNL     1      14.444   1.628  15.451  1.00  0.00    -0.000 C 
BRANCH  10  11
ATOM     11  C   UNL     1      14.355   0.937  14.075  1.00  0.00    -0.003 C 
ATOM     12  C   UNL     1      15.096   1.711  12.984  1.00  0.00     0.004 C 
ENDBRANCH  10  11
ENDBRANCH   9  10
ENDBRANCH   8   9
ENDBRANCH   7   8
ENDBRANCH   6   7
ENDBRANCH   5   6
ENDBRANCH   4   5
ENDBRANCH   3   4
ENDBRANCH   2   3
ENDBRANCH   1   2
BRANCH   1  13
ATOM     13  C   UNL     1      17.339  -0.181  17.696  1.00  0.00     0.000 C 
BRANCH  13  14
ATOM     14  C   UNL     1      16.700  -0.870  16.474  1.00  0.00     0.000 C 
BRANCH  14  15
ATOM     15  C   UNL     1      17.635  -1.032  15.264  1.00  0.00     0.000 C 
BRANCH  15  16
ATOM     16  C   UNL     1      16.882  -1.441  13.984  1.00  0.00     0.000 C 
BRANCH  16  17
ATOM     17  C   UNL     1      17.828  -1.715  12.804  1.00  0.00     0.000 C 
BRANCH  17  18
ATOM     18  C   UNL     1      17.705  -0.656  11.694  1.00  0.00     0.000 C 
BRANCH  18  19
ATOM     19  C   UNL     1      17.338  -1.266  10.331  1.00  0.00     0.000 C 
BRANCH  19  20
ATOM     20  C   UNL     1      17.781  -0.385   9.150  1.00  0.00     0.006 C 
BRANCH  20  21
ATOM     21  C   UNL     1      18.350  -1.215   7.992  1.00  0.00     0.053 C 
BRANCH  21  22
ATOM     22  C   UNL     1      19.374  -0.451   7.210  1.00  0.00     0.041 C 
ATOM     23  O   UNL     1      19.181   0.761   6.927  1.00  0.00    -0.550 OA
ATOM     24  O   UNL     1      20.530  -1.084   6.772  1.00  0.00    -0.550 OA
ENDBRANCH  21  22
ENDBRANCH  20  21
ENDBRANCH  19  20
ENDBRANCH  18  19
ENDBRANCH  17  18
ENDBRANCH  16  17
ENDBRANCH  15  16
ENDBRANCH  14  15
ENDBRANCH  13  14
ENDBRANCH   1  13
TORSDOF 20
ENDMDL
MODEL 8
REMARK VINA RESULT:    -5.762      1.843      5.593
REMARK INTER + INTRA:         -15.607
REMARK INTER:                 -12.835
REMARK INTRA:                  -2.772
REMARK UNBOUND:                -3.108
REMARK SMILES CCCCCCCCCCCCCCCCCCCCCC(=O)[O-]
REMARK SMILES IDX 12 1 11 2 10 3 9 4 8 5 7 6 6 7 5 8 4 9 3 10 2 11 1 12 13 13
REMARK SMILES IDX 14 14 15 15 16 16 17 17 18 18 19 19 20 20 21 21 22 22 23 23
REMARK SMILES IDX 24 24
REMARK H PARENT
REMARK Flexibility Score: inf
ROOT
ATOM      1  C   UNL     1      16.717   0.120  17.747  1.00  0.00     0.000 C 
ENDROOT
BRANCH   1   2
ATOM      2  C   UNL     1      16.171  -0.653  16.535  1.00  0.00     0.000 C 
BRANCH   2   3
ATOM      3  C   UNL     1      15.454  -1.953  16.933  1.00  0.00     0.000 C 
BRANCH   3   4
ATOM      4  C   UNL     1      16.089  -3.196  16.288  1.00  0.00    -0.000 C 
BRANCH   4   5
ATOM      5  C   UNL     1      17.383  -3.632  16.996  1.00  0.00    -0.000 C 
BRANCH   5   6
ATOM      6  C   UNL     1      18.598  -3.630  16.052  1.00  0.00    -0.000 C 
BRANCH   6   7
ATOM      7  C   UNL     1      19.410  -2.327  16.134  1.00  0.00    -0.000 C 
BRANCH   7   8
ATOM      8  C   UNL     1      19.116  -1.369  14.970  1.00  0.00    -0.000 C 
BRANCH   8   9
ATOM      9  C   UNL     1      18.491  -2.120  13.786  1.00  0.00    -0.000 C 
BRANCH   9  10
ATOM     10  C   UNL     1      17.359  -1.332  13.106  1.00  0.00    -0.000 C 
BRANCH  10  11
ATOM     11  C   UNL     1      17.731  -0.798  11.707  1.00  0.00    -0.003 C 
ATOM     12  C   UNL     1      16.885   0.408  11.299  1.00  0.00     0.004 C 
ENDBRANCH  10  11
ENDBRANCH   9  10
ENDBRANCH   8   9
ENDBRANCH   7   8
ENDBRANCH   6   7
ENDBRANCH   5   6
ENDBRANCH   4   5
ENDBRANCH   3   4
ENDBRANCH   2   3
ENDBRANCH   1   2
BRANCH   1  13
ATOM     13  C   UNL     1      17.189  -0.824  18.876  1.00  0.00     0.000 C 
BRANCH  13  14
ATOM     14  C   UNL     1      16.038  -1.423  19.709  1.00  0.00     0.000 C 
BRANCH  14  15
ATOM     15  C   UNL     1      15.112  -0.386  20.368  1.00  0.00     0.000 C 
BRANCH  15  16
ATOM     16  C   UNL     1      13.630  -0.610  20.019  1.00  0.00     0.000 C 
BRANCH  16  17
ATOM     17  C   UNL     1      13.209   0.119  18.733  1.00  0.00     0.000 C 
BRANCH  17  18
ATOM     18  C   UNL     1      13.504   1.628  18.789  1.00  0.00     0.000 C 
BRANCH  18  19
ATOM     19  C   UNL     1      12.969   2.383  17.561  1.00  0.00     0.000 C 
BRANCH  19  20
ATOM     20  C   UNL     1      13.877   2.226  16.329  1.00  0.00     0.006 C 
BRANCH  20  21
ATOM     21  C   UNL     1      13.203   1.415  15.215  1.00  0.00     0.053 C 
BRANCH  21  22
ATOM     22  C   UNL     1      14.153   1.108  14.097  1.00  0.00     0.041 C 
ATOM     23  O   UNL     1      14.927   2.001  13.661  1.00  0.00    -0.550 OA
ATOM     24  O   UNL     1      14.164  -0.154  13.520  1.00  0.00    -0.550 OA
ENDBRANCH  21  22
ENDBRANCH  20  21
ENDBRANCH  19  20
ENDBRANCH  18  19
ENDBRANCH  17  18
ENDBRANCH  16  17
ENDBRANCH  15  16
ENDBRANCH  14  15
ENDBRANCH  13  14
ENDBRANCH   1  13
TORSDOF 20
ENDMDL
MODEL 9
REMARK VINA RESULT:    -5.757      1.665      5.265
REMARK INTER + INTRA:         -15.598
REMARK INTER:                 -13.065
REMARK INTRA:                  -2.532
REMARK UNBOUND:                -3.108
REMARK SMILES CCCCCCCCCCCCCCCCCCCCCC(=O)[O-]
REMARK SMILES IDX 12 1 11 2 10 3 9 4 8 5 7 6 6 7 5 8 4 9 3 10 2 11 1 12 13 13
REMARK SMILES IDX 14 14 15 15 16 16 17 17 18 18 19 19 20 20 21 21 22 22 23 23
REMARK SMILES IDX 24 24
REMARK H PARENT
REMARK Flexibility Score: inf
ROOT
ATOM      1  C   UNL     1      15.236  -0.411  19.854  1.00  0.00     0.000 C 
ENDROOT
BRANCH   1   2
ATOM      2  C   UNL     1      16.373  -1.253  19.252  1.00  0.00     0.000 C 
BRANCH   2   3
ATOM      3  C   UNL     1      15.916  -2.662  18.842  1.00  0.00     0.000 C 
BRANCH   3   4
ATOM      4  C   UNL     1      16.504  -3.100  17.489  1.00  0.00    -0.000 C 
BRANCH   4   5
ATOM      5  C   UNL     1      15.846  -2.381  16.300  1.00  0.00    -0.000 C 
BRANCH   5   6
ATOM      6  C   UNL     1      16.879  -1.797  15.322  1.00  0.00    -0.000 C 
BRANCH   6   7
ATOM      7  C   UNL     1      17.984  -0.998  16.034  1.00  0.00    -0.000 C 
BRANCH   7   8
ATOM      8  C   UNL     1      19.380  -1.267  15.453  1.00  0.00    -0.000 C 
BRANCH   8   9
ATOM      9  C   UNL     1      19.721  -2.762  15.512  1.00  0.00    -0.000 C 
BRANCH   9  10
ATOM     10  C   UNL     1      21.133  -3.035  16.056  1.00  0.00    -0.000 C 
BRANCH  10  11
ATOM     11  C   UNL     1      22.017  -1.773  16.141  1.00  0.00    -0.003 C 
ATOM     12  C   UNL     1      23.505  -2.109  16.235  1.00  0.00     0.004 C 
ENDBRANCH  10  11
ENDBRANCH   9  10
ENDBRANCH   8   9
ENDBRANCH   7   8
ENDBRANCH   6   7
ENDBRANCH   5   6
ENDBRANCH   4   5
ENDBRANCH   3   4
ENDBRANCH   2   3
ENDBRANCH   1   2
BRANCH   1  13
ATOM     13  C   UNL     1      13.843  -0.900  19.396  1.00  0.00     0.000 C 
BRANCH  13  14
ATOM     14  C   UNL     1      13.254  -0.090  18.224  1.00  0.00     0.000 C 
BRANCH  14  15
ATOM     15  C   UNL     1      13.697   1.382  18.171  1.00  0.00     0.000 C 
BRANCH  15  16
ATOM     16  C   UNL     1      13.326   2.064  16.841  1.00  0.00     0.000 C 
BRANCH  16  17
ATOM     17  C   UNL     1      13.548   1.149  15.626  1.00  0.00     0.000 C 
BRANCH  17  18
ATOM     18  C   UNL     1      14.948   1.318  15.010  1.00  0.00     0.000 C 
BRANCH  18  19
ATOM     19  C   UNL     1      14.900   1.629  13.506  1.00  0.00     0.000 C 
BRANCH  19  20
ATOM     20  C   UNL     1      15.252   0.407  12.638  1.00  0.00     0.006 C 
BRANCH  20  21
ATOM     21  C   UNL     1      16.168   0.776  11.465  1.00  0.00     0.053 C 
BRANCH  21  22
ATOM     22  C   UNL     1      17.240  -0.249  11.251  1.00  0.00     0.041 C 
ATOM     23  O   UNL     1      18.014  -0.562  12.194  1.00  0.00    -0.550 OA
ATOM     24  O   UNL     1      17.398  -0.839  10.005  1.00  0.00    -0.550 OA
ENDBRANCH  21  22
ENDBRANCH  20  21
ENDBRANCH  19  20
ENDBRANCH  18  19
ENDBRANCH  17  18
ENDBRANCH  16  17
ENDBRANCH  15  16
ENDBRANCH  14  15
ENDBRANCH  13  14
ENDBRANCH   1  13
TORSDOF 20
ENDMDL
