MODEL 1
REMARK VINA RESULT:    -7.158      0.000      0.000
REMARK INTER + INTRA:          -8.926
REMARK INTER:                  -8.623
REMARK INTRA:                  -0.303
REMARK UNBOUND:                -0.303
REMARK SMILES O=c1c(O)c(-c2ccc(O)c(O)c2)oc2cc(O)cc(O)c12
REMARK SMILES IDX 5 1 3 2 2 3 1 4 22 5 20 6 19 7 17 8 16 9 15 10 14 11 6 12
REMARK SMILES IDX 7 13 8 14 9 15 13 16 11 17 10 18 12 20 4 22 21 24 18 26
REMARK H PARENT 10 19 12 21 4 23 21 25 18 27
REMARK Flexibility Score: inf
ROOT
ATOM      1  C   UNL     1     167.814 149.141 148.338  1.00  0.00     0.180 A 
ATOM      2  C   UNL     1     168.389 148.554 147.194  1.00  0.00     0.208 A 
ATOM      3  C   UNL     1     168.177 147.187 146.954  1.00  0.00     0.238 A 
ATOM      4  O   UNL     1     168.678 146.653 145.928  1.00  0.00    -0.285 OA
ATOM      5  C   UNL     1     167.415 146.429 147.867  1.00  0.00     0.111 A 
ATOM      6  C   UNL     1     167.158 145.047 147.700  1.00  0.00     0.134 A 
ATOM      7  C   UNL     1     166.397 144.361 148.659  1.00  0.00     0.093 A 
ATOM      8  C   UNL     1     165.890 145.029 149.779  1.00  0.00     0.123 A 
ATOM      9  C   UNL     1     166.140 146.392 149.946  1.00  0.00     0.094 A 
ATOM     10  C   UNL     1     166.894 147.094 149.002  1.00  0.00     0.146 A 
ATOM     11  O   UNL     1     167.113 148.391 149.185  1.00  0.00    -0.452 OA
ENDROOT
BRANCH   1  12
ATOM     12  C   UNL     1     167.975 150.579 148.650  1.00  0.00     0.025 A 
ATOM     13  C   UNL     1     166.959 151.507 148.371  1.00  0.00     0.016 A 
ATOM     14  C   UNL     1     167.125 152.855 148.696  1.00  0.00     0.051 A 
ATOM     15  C   UNL     1     168.298 153.301 149.315  1.00  0.00     0.157 A 
ATOM     16  C   UNL     1     169.143 151.021 149.291  1.00  0.00     0.062 A 
ATOM     17  C   UNL     1     169.318 152.370 149.621  1.00  0.00     0.158 A 
BRANCH  15  18
ATOM     18  O   UNL     1     168.403 154.662 149.609  1.00  0.00    -0.504 OA
ATOM     19  H   UNL     1     167.935 155.389 149.088  1.00  0.00     0.293 HD
ENDBRANCH  15  18
BRANCH  17  20
ATOM     20  O   UNL     1     170.512 152.739 150.246  1.00  0.00    -0.504 OA
ATOM     21  H   UNL     1     170.676 153.645 150.659  1.00  0.00     0.293 HD
ENDBRANCH  17  20
ENDBRANCH   1  12
BRANCH   2  22
ATOM     22  O   UNL     1     169.180 149.316 146.332  1.00  0.00    -0.502 OA
ATOM     23  H   UNL     1     170.124 149.047 146.081  1.00  0.00     0.293 HD
ENDBRANCH   2  22
BRANCH   6  24
ATOM     24  O   UNL     1     167.651 144.353 146.595  1.00  0.00    -0.507 OA
ATOM     25  H   UNL     1     168.425 143.704 146.675  1.00  0.00     0.293 HD
ENDBRANCH   6  24
BRANCH   8  26
ATOM     26  O   UNL     1     165.135 144.348 150.731  1.00  0.00    -0.508 OA
ATOM     27  H   UNL     1     164.339 144.781 151.184  1.00  0.00     0.293 HD
ENDBRANCH   8  26
TORSDOF 6
ENDMDL
MODEL 2
REMARK VINA RESULT:    -6.997      1.132      1.178
REMARK INTER + INTRA:          -8.731
REMARK INTER:                  -8.428
REMARK INTRA:                  -0.303
REMARK UNBOUND:                -0.303
REMARK SMILES O=c1c(O)c(-c2ccc(O)c(O)c2)oc2cc(O)cc(O)c12
REMARK SMILES IDX 5 1 3 2 2 3 1 4 22 5 20 6 19 7 17 8 16 9 15 10 14 11 6 12
REMARK SMILES IDX 7 13 8 14 9 15 13 16 11 17 10 18 12 20 4 22 21 24 18 26
REMARK H PARENT 10 19 12 21 4 23 21 25 18 27
REMARK Flexibility Score: inf
ROOT
ATOM      1  C   UNL     1     166.856 148.714 148.342  1.00  0.00     0.180 A 
ATOM      2  C   UNL     1     167.085 148.068 147.111  1.00  0.00     0.208 A 
ATOM      3  C   UNL     1     166.722 146.719 146.975  1.00  0.00     0.238 A 
ATOM      4  O   UNL     1     166.912 146.134 145.875  1.00  0.00    -0.285 OA
ATOM      5  C   UNL     1     166.157 146.035 148.071  1.00  0.00     0.111 A 
ATOM      6  C   UNL     1     165.767 144.675 148.018  1.00  0.00     0.134 A 
ATOM      7  C   UNL     1     165.220 144.064 149.156  1.00  0.00     0.093 A 
ATOM      8  C   UNL     1     165.057 144.785 150.344  1.00  0.00     0.123 A 
ATOM      9  C   UNL     1     165.438 146.125 150.401  1.00  0.00     0.094 A 
ATOM     10  C   UNL     1     165.984 146.754 149.278  1.00  0.00     0.146 A 
ATOM     11  O   UNL     1     166.334 148.032 149.359  1.00  0.00    -0.452 OA
ENDROOT
BRANCH   1  12
ATOM     12  C   UNL     1     167.194 150.139 148.558  1.00  0.00     0.025 A 
ATOM     13  C   UNL     1     166.212 151.141 148.500  1.00  0.00     0.016 A 
ATOM     14  C   UNL     1     166.551 152.475 148.731  1.00  0.00     0.051 A 
ATOM     15  C   UNL     1     167.868 152.835 149.035  1.00  0.00     0.157 A 
ATOM     16  C   UNL     1     168.511 150.496 148.885  1.00  0.00     0.062 A 
ATOM     17  C   UNL     1     168.861 151.831 149.118  1.00  0.00     0.158 A 
BRANCH  15  18
ATOM     18  O   UNL     1     168.141 154.188 149.250  1.00  0.00    -0.504 OA
ATOM     19  H   UNL     1     168.045 154.648 150.143  1.00  0.00     0.293 HD
ENDBRANCH  15  18
BRANCH  17  20
ATOM     20  O   UNL     1     170.194 152.112 149.425  1.00  0.00    -0.504 OA
ATOM     21  H   UNL     1     170.960 151.991 148.778  1.00  0.00     0.293 HD
ENDBRANCH  17  20
ENDBRANCH   1  12
BRANCH   2  22
ATOM     22  O   UNL     1     167.691 148.755 146.057  1.00  0.00    -0.502 OA
ATOM     23  H   UNL     1     167.166 149.111 145.267  1.00  0.00     0.293 HD
ENDBRANCH   2  22
BRANCH   6  24
ATOM     24  O   UNL     1     165.919 143.930 146.848  1.00  0.00    -0.507 OA
ATOM     25  H   UNL     1     165.122 143.641 146.293  1.00  0.00     0.293 HD
ENDBRANCH   6  24
BRANCH   8  26
ATOM     26  O   UNL     1     164.514 144.177 151.474  1.00  0.00    -0.508 OA
ATOM     27  H   UNL     1     165.099 143.872 152.243  1.00  0.00     0.293 HD
ENDBRANCH   8  26
TORSDOF 6
ENDMDL
MODEL 3
REMARK VINA RESULT:    -6.860      1.874      3.112
REMARK INTER + INTRA:          -8.566
REMARK INTER:                  -8.337
REMARK INTRA:                  -0.229
REMARK UNBOUND:                -0.303
REMARK SMILES O=c1c(O)c(-c2ccc(O)c(O)c2)oc2cc(O)cc(O)c12
REMARK SMILES IDX 5 1 3 2 2 3 1 4 22 5 20 6 19 7 17 8 16 9 15 10 14 11 6 12
REMARK SMILES IDX 7 13 8 14 9 15 13 16 11 17 10 18 12 20 4 22 21 24 18 26
REMARK H PARENT 10 19 12 21 4 23 21 25 18 27
REMARK Flexibility Score: inf
ROOT
ATOM      1  C   UNL     1     166.655 146.990 148.910  1.00  0.00     0.180 A 
ATOM      2  C   UNL     1     167.028 146.046 147.934  1.00  0.00     0.208 A 
ATOM      3  C   UNL     1     166.566 144.726 148.057  1.00  0.00     0.238 A 
ATOM      4  O   UNL     1     166.884 143.874 147.184  1.00  0.00    -0.285 OA
ATOM      5  C   UNL     1     165.759 144.369 149.157  1.00  0.00     0.111 A 
ATOM      6  C   UNL     1     165.256 143.060 149.356  1.00  0.00     0.134 A 
ATOM      7  C   UNL     1     164.467 142.783 150.482  1.00  0.00     0.093 A 
ATOM      8  C   UNL     1     164.173 143.786 151.413  1.00  0.00     0.123 A 
ATOM      9  C   UNL     1     164.666 145.077 151.220  1.00  0.00     0.094 A 
ATOM     10  C   UNL     1     165.453 145.375 150.103  1.00  0.00     0.146 A 
ATOM     11  O   UNL     1     165.905 146.613 149.943  1.00  0.00    -0.452 OA
ENDROOT
BRANCH   1  12
ATOM     12  C   UNL     1     167.086 148.405 148.841  1.00  0.00     0.025 A 
ATOM     13  C   UNL     1     168.421 148.775 149.066  1.00  0.00     0.016 A 
ATOM     14  C   UNL     1     168.809 150.113 148.972  1.00  0.00     0.051 A 
ATOM     15  C   UNL     1     167.878 151.104 148.640  1.00  0.00     0.157 A 
ATOM     16  C   UNL     1     166.156 149.395 148.487  1.00  0.00     0.062 A 
ATOM     17  C   UNL     1     166.535 150.739 148.390  1.00  0.00     0.158 A 
BRANCH  15  18
ATOM     18  O   UNL     1     168.329 152.424 148.567  1.00  0.00    -0.504 OA
ATOM     19  H   UNL     1     169.125 152.777 149.078  1.00  0.00     0.293 HD
ENDBRANCH  15  18
BRANCH  17  20
ATOM     20  O   UNL     1     165.552 151.670 148.045  1.00  0.00    -0.504 OA
ATOM     21  H   UNL     1     165.640 152.665 148.194  1.00  0.00     0.293 HD
ENDBRANCH  17  20
ENDBRANCH   1  12
BRANCH   2  22
ATOM     22  O   UNL     1     167.868 146.414 146.881  1.00  0.00    -0.502 OA
ATOM     23  H   UNL     1     168.820 146.078 146.803  1.00  0.00     0.293 HD
ENDBRANCH   2  22
BRANCH   6  24
ATOM     24  O   UNL     1     165.533 142.039 148.447  1.00  0.00    -0.507 OA
ATOM     25  H   UNL     1     164.807 141.427 148.094  1.00  0.00     0.293 HD
ENDBRANCH   6  24
BRANCH   8  26
ATOM     26  O   UNL     1     163.391 143.510 152.531  1.00  0.00    -0.508 OA
ATOM     27  H   UNL     1     163.808 143.290 153.428  1.00  0.00     0.293 HD
ENDBRANCH   8  26
TORSDOF 6
ENDMDL
MODEL 4
REMARK VINA RESULT:    -6.808      9.149     11.332
REMARK INTER + INTRA:          -8.503
REMARK INTER:                  -8.202
REMARK INTRA:                  -0.301
REMARK UNBOUND:                -0.303
REMARK SMILES O=c1c(O)c(-c2ccc(O)c(O)c2)oc2cc(O)cc(O)c12
REMARK SMILES IDX 5 1 3 2 2 3 1 4 22 5 20 6 19 7 17 8 16 9 15 10 14 11 6 12
REMARK SMILES IDX 7 13 8 14 9 15 13 16 11 17 10 18 12 20 4 22 21 24 18 26
REMARK H PARENT 10 19 12 21 4 23 21 25 18 27
REMARK Flexibility Score: inf
ROOT
ATOM      1  C   UNL     1     173.242 144.933 155.215  1.00  0.00     0.180 A 
ATOM      2  C   UNL     1     174.470 145.608 155.358  1.00  0.00     0.208 A 
ATOM      3  C   UNL     1     174.596 146.579 156.365  1.00  0.00     0.238 A 
ATOM      4  O   UNL     1     175.694 147.182 156.510  1.00  0.00    -0.285 OA
ATOM      5  C   UNL     1     173.493 146.872 157.193  1.00  0.00     0.111 A 
ATOM      6  C   UNL     1     173.537 147.838 158.227  1.00  0.00     0.134 A 
ATOM      7  C   UNL     1     172.393 148.078 159.003  1.00  0.00     0.093 A 
ATOM      8  C   UNL     1     171.208 147.372 158.764  1.00  0.00     0.123 A 
ATOM      9  C   UNL     1     171.161 146.418 157.747  1.00  0.00     0.094 A 
ATOM     10  C   UNL     1     172.291 146.163 156.963  1.00  0.00     0.146 A 
ATOM     11  O   UNL     1     172.218 145.247 156.005  1.00  0.00    -0.452 OA
ENDROOT
BRANCH   1  12
ATOM     12  C   UNL     1     173.036 143.884 154.191  1.00  0.00     0.025 A 
ATOM     13  C   UNL     1     173.527 142.581 154.369  1.00  0.00     0.016 A 
ATOM     14  C   UNL     1     173.300 141.602 153.400  1.00  0.00     0.051 A 
ATOM     15  C   UNL     1     172.570 141.898 152.243  1.00  0.00     0.157 A 
ATOM     16  C   UNL     1     172.285 144.176 153.042  1.00  0.00     0.062 A 
ATOM     17  C   UNL     1     172.052 143.202 152.064  1.00  0.00     0.158 A 
BRANCH  15  18
ATOM     18  O   UNL     1     172.383 140.875 151.311  1.00  0.00    -0.504 OA
ATOM     19  H   UNL     1     171.487 140.628 150.917  1.00  0.00     0.293 HD
ENDBRANCH  15  18
BRANCH  17  20
ATOM     20  O   UNL     1     171.307 143.569 150.942  1.00  0.00    -0.504 OA
ATOM     21  H   UNL     1     171.710 143.947 150.096  1.00  0.00     0.293 HD
ENDBRANCH  17  20
ENDBRANCH   1  12
BRANCH   2  22
ATOM     22  O   UNL     1     175.531 145.334 154.493  1.00  0.00    -0.502 OA
ATOM     23  H   UNL     1     176.465 145.129 154.827  1.00  0.00     0.293 HD
ENDBRANCH   2  22
BRANCH   6  24
ATOM     24  O   UNL     1     174.703 148.559 158.488  1.00  0.00    -0.507 OA
ATOM     25  H   UNL     1     175.470 148.589 157.827  1.00  0.00     0.293 HD
ENDBRANCH   6  24
BRANCH   8  26
ATOM     26  O   UNL     1     170.072 147.611 159.534  1.00  0.00    -0.508 OA
ATOM     27  H   UNL     1     170.006 147.293 160.494  1.00  0.00     0.293 HD
ENDBRANCH   8  26
TORSDOF 6
ENDMDL
MODEL 5
REMARK VINA RESULT:    -6.791      1.923      7.019
REMARK INTER + INTRA:          -8.483
REMARK INTER:                  -8.190
REMARK INTRA:                  -0.294
REMARK UNBOUND:                -0.303
REMARK SMILES O=c1c(O)c(-c2ccc(O)c(O)c2)oc2cc(O)cc(O)c12
REMARK SMILES IDX 5 1 3 2 2 3 1 4 22 5 20 6 19 7 17 8 16 9 15 10 14 11 6 12
REMARK SMILES IDX 7 13 8 14 9 15 13 16 11 17 10 18 12 20 4 22 21 24 18 26
REMARK H PARENT 10 19 12 21 4 23 21 25 18 27
REMARK Flexibility Score: inf
ROOT
ATOM      1  C   UNL     1     166.853 148.735 148.233  1.00  0.00     0.180 A 
ATOM      2  C   UNL     1     166.111 149.896 148.524  1.00  0.00     0.208 A 
ATOM      3  C   UNL     1     166.760 151.140 148.501  1.00  0.00     0.238 A 
ATOM      4  O   UNL     1     166.104 152.187 148.749  1.00  0.00    -0.285 OA
ATOM      5  C   UNL     1     168.138 151.201 148.207  1.00  0.00     0.111 A 
ATOM      6  C   UNL     1     168.868 152.414 148.167  1.00  0.00     0.134 A 
ATOM      7  C   UNL     1     170.240 152.390 147.876  1.00  0.00     0.093 A 
ATOM      8  C   UNL     1     170.896 151.180 147.627  1.00  0.00     0.123 A 
ATOM      9  C   UNL     1     170.180 149.982 147.664  1.00  0.00     0.094 A 
ATOM     10  C   UNL     1     168.812 149.984 147.951  1.00  0.00     0.146 A 
ATOM     11  O   UNL     1     168.155 148.830 147.976  1.00  0.00    -0.452 OA
ENDROOT
BRANCH   1  12
ATOM     12  C   UNL     1     166.236 147.389 148.219  1.00  0.00     0.025 A 
ATOM     13  C   UNL     1     165.904 146.749 147.015  1.00  0.00     0.016 A 
ATOM     14  C   UNL     1     165.345 145.470 147.026  1.00  0.00     0.051 A 
ATOM     15  C   UNL     1     165.118 144.800 148.234  1.00  0.00     0.157 A 
ATOM     16  C   UNL     1     166.030 146.710 149.430  1.00  0.00     0.062 A 
ATOM     17  C   UNL     1     165.470 145.427 149.452  1.00  0.00     0.158 A 
BRANCH  15  18
ATOM     18  O   UNL     1     164.552 143.525 148.176  1.00  0.00    -0.504 OA
ATOM     19  H   UNL     1     163.858 143.186 148.826  1.00  0.00     0.293 HD
ENDBRANCH  15  18
BRANCH  17  20
ATOM     20  O   UNL     1     165.283 144.819 150.695  1.00  0.00    -0.504 OA
ATOM     21  H   UNL     1     165.942 144.180 151.116  1.00  0.00     0.293 HD
ENDBRANCH  17  20
ENDBRANCH   1  12
BRANCH   2  22
ATOM     22  O   UNL     1     164.758 149.803 148.860  1.00  0.00    -0.502 OA
ATOM     23  H   UNL     1     164.411 150.030 149.784  1.00  0.00     0.293 HD
ENDBRANCH   2  22
BRANCH   6  24
ATOM     24  O   UNL     1     168.243 153.637 148.413  1.00  0.00    -0.507 OA
ATOM     25  H   UNL     1     167.329 153.854 148.033  1.00  0.00     0.293 HD
ENDBRANCH   6  24
BRANCH   8  26
ATOM     26  O   UNL     1     172.259 151.156 147.339  1.00  0.00    -0.508 OA
ATOM     27  H   UNL     1     172.944 150.911 148.044  1.00  0.00     0.293 HD
ENDBRANCH   8  26
TORSDOF 6
ENDMDL
MODEL 6
REMARK VINA RESULT:    -6.762      1.384      2.044
REMARK INTER + INTRA:          -8.448
REMARK INTER:                  -8.141
REMARK INTRA:                  -0.307
REMARK UNBOUND:                -0.303
REMARK SMILES O=c1c(O)c(-c2ccc(O)c(O)c2)oc2cc(O)cc(O)c12
REMARK SMILES IDX 5 1 3 2 2 3 1 4 22 5 20 6 19 7 17 8 16 9 15 10 14 11 6 12
REMARK SMILES IDX 7 13 8 14 9 15 13 16 11 17 10 18 12 20 4 22 21 24 18 26
REMARK H PARENT 10 19 12 21 4 23 21 25 18 27
REMARK Flexibility Score: inf
ROOT
ATOM      1  C   UNL     1     167.153 148.244 148.188  1.00  0.00     0.180 A 
ATOM      2  C   UNL     1     167.322 147.483 147.015  1.00  0.00     0.208 A 
ATOM      3  C   UNL     1     166.814 146.175 146.976  1.00  0.00     0.238 A 
ATOM      4  O   UNL     1     166.950 145.488 145.928  1.00  0.00    -0.285 OA
ATOM      5  C   UNL     1     166.168 145.644 148.111  1.00  0.00     0.111 A 
ATOM      6  C   UNL     1     165.632 144.334 148.156  1.00  0.00     0.134 A 
ATOM      7  C   UNL     1     165.010 143.877 149.327  1.00  0.00     0.093 A 
ATOM      8  C   UNL     1     164.915 144.702 150.453  1.00  0.00     0.123 A 
ATOM      9  C   UNL     1     165.441 145.994 150.414  1.00  0.00     0.094 A 
ATOM     10  C   UNL     1     166.063 146.470 149.256  1.00  0.00     0.146 A 
ATOM     11  O   UNL     1     166.550 147.705 149.245  1.00  0.00    -0.452 OA
ENDROOT
BRANCH   1  12
ATOM     12  C   UNL     1     167.643 149.636 148.300  1.00  0.00     0.025 A 
ATOM     13  C   UNL     1     168.888 149.930 148.879  1.00  0.00     0.016 A 
ATOM     14  C   UNL     1     169.339 151.249 148.952  1.00  0.00     0.051 A 
ATOM     15  C   UNL     1     168.567 152.297 148.439  1.00  0.00     0.157 A 
ATOM     16  C   UNL     1     166.877 150.684 147.766  1.00  0.00     0.062 A 
ATOM     17  C   UNL     1     167.321 152.010 147.834  1.00  0.00     0.158 A 
BRANCH  15  18
ATOM     18  O   UNL     1     169.073 153.594 148.549  1.00  0.00    -0.504 OA
ATOM     19  H   UNL     1     169.771 153.981 147.930  1.00  0.00     0.293 HD
ENDBRANCH  15  18
BRANCH  17  20
ATOM     20  O   UNL     1     166.499 153.001 147.293  1.00  0.00    -0.504 OA
ATOM     21  H   UNL     1     165.973 153.662 147.847  1.00  0.00     0.293 HD
ENDBRANCH  17  20
ENDBRANCH   1  12
BRANCH   2  22
ATOM     22  O   UNL     1     168.010 148.015 145.922  1.00  0.00    -0.502 OA
ATOM     23  H   UNL     1     167.551 148.570 145.209  1.00  0.00     0.293 HD
ENDBRANCH   2  22
BRANCH   6  24
ATOM     24  O   UNL     1     165.712 143.488 147.049  1.00  0.00    -0.507 OA
ATOM     25  H   UNL     1     165.794 142.483 147.151  1.00  0.00     0.293 HD
ENDBRANCH   6  24
BRANCH   8  26
ATOM     26  O   UNL     1     164.299 144.247 151.617  1.00  0.00    -0.508 OA
ATOM     27  H   UNL     1     163.436 143.717 151.586  1.00  0.00     0.293 HD
ENDBRANCH   8  26
TORSDOF 6
ENDMDL
MODEL 7
REMARK VINA RESULT:    -6.744      1.873      7.040
REMARK INTER + INTRA:          -8.426
REMARK INTER:                  -8.204
REMARK INTRA:                  -0.223
REMARK UNBOUND:                -0.303
REMARK SMILES O=c1c(O)c(-c2ccc(O)c(O)c2)oc2cc(O)cc(O)c12
REMARK SMILES IDX 5 1 3 2 2 3 1 4 22 5 20 6 19 7 17 8 16 9 15 10 14 11 6 12
REMARK SMILES IDX 7 13 8 14 9 15 13 16 11 17 10 18 12 20 4 22 21 24 18 26
REMARK H PARENT 10 19 12 21 4 23 21 25 18 27
REMARK Flexibility Score: inf
ROOT
ATOM      1  C   UNL     1     166.928 148.254 148.583  1.00  0.00     0.180 A 
ATOM      2  C   UNL     1     166.107 149.398 148.601  1.00  0.00     0.208 A 
ATOM      3  C   UNL     1     166.683 150.650 148.333  1.00  0.00     0.238 A 
ATOM      4  O   UNL     1     165.957 151.681 148.335  1.00  0.00    -0.285 OA
ATOM      5  C   UNL     1     168.066 150.740 148.072  1.00  0.00     0.111 A 
ATOM      6  C   UNL     1     168.725 151.963 147.796  1.00  0.00     0.134 A 
ATOM      7  C   UNL     1     170.106 151.969 147.555  1.00  0.00     0.093 A 
ATOM      8  C   UNL     1     170.842 150.779 147.586  1.00  0.00     0.123 A 
ATOM      9  C   UNL     1     170.197 149.571 147.856  1.00  0.00     0.094 A 
ATOM     10  C   UNL     1     168.820 149.543 148.097  1.00  0.00     0.146 A 
ATOM     11  O   UNL     1     168.232 148.379 148.348  1.00  0.00    -0.452 OA
ENDROOT
BRANCH   1  12
ATOM     12  C   UNL     1     166.392 146.897 148.837  1.00  0.00     0.025 A 
ATOM     13  C   UNL     1     165.955 146.511 150.114  1.00  0.00     0.016 A 
ATOM     14  C   UNL     1     165.431 145.234 150.324  1.00  0.00     0.051 A 
ATOM     15  C   UNL     1     165.322 144.324 149.266  1.00  0.00     0.157 A 
ATOM     16  C   UNL     1     166.263 145.994 147.771  1.00  0.00     0.062 A 
ATOM     17  C   UNL     1     165.739 144.711 147.971  1.00  0.00     0.158 A 
BRANCH  15  18
ATOM     18  O   UNL     1     164.794 143.061 149.544  1.00  0.00    -0.504 OA
ATOM     19  H   UNL     1     164.600 142.363 148.841  1.00  0.00     0.293 HD
ENDBRANCH  15  18
BRANCH  17  20
ATOM     20  O   UNL     1     165.653 143.862 146.866  1.00  0.00    -0.504 OA
ATOM     21  H   UNL     1     166.192 143.980 146.020  1.00  0.00     0.293 HD
ENDBRANCH  17  20
ENDBRANCH   1  12
BRANCH   2  22
ATOM     22  O   UNL     1     164.750 149.288 148.910  1.00  0.00    -0.502 OA
ATOM     23  H   UNL     1     164.305 149.864 149.616  1.00  0.00     0.293 HD
ENDBRANCH   2  22
BRANCH   6  24
ATOM     24  O   UNL     1     168.019 153.166 147.760  1.00  0.00    -0.507 OA
ATOM     25  H   UNL     1     167.108 153.262 148.192  1.00  0.00     0.293 HD
ENDBRANCH   6  24
BRANCH   8  26
ATOM     26  O   UNL     1     172.214 150.786 147.348  1.00  0.00    -0.508 OA
ATOM     27  H   UNL     1     172.588 150.862 146.409  1.00  0.00     0.293 HD
ENDBRANCH   8  26
TORSDOF 6
ENDMDL
MODEL 8
REMARK VINA RESULT:    -6.698      1.963      2.772
REMARK INTER + INTRA:          -8.371
REMARK INTER:                  -8.051
REMARK INTRA:                  -0.320
REMARK UNBOUND:                -0.303
REMARK SMILES O=c1c(O)c(-c2ccc(O)c(O)c2)oc2cc(O)cc(O)c12
REMARK SMILES IDX 5 1 3 2 2 3 1 4 22 5 20 6 19 7 17 8 16 9 15 10 14 11 6 12
REMARK SMILES IDX 7 13 8 14 9 15 13 16 11 17 10 18 12 20 4 22 21 24 18 26
REMARK H PARENT 10 19 12 21 4 23 21 25 18 27
REMARK Flexibility Score: inf
ROOT
ATOM      1  C   UNL     1     168.085 148.767 148.646  1.00  0.00     0.180 A 
ATOM      2  C   UNL     1     166.682 148.717 148.758  1.00  0.00     0.208 A 
ATOM      3  C   UNL     1     166.072 147.502 149.107  1.00  0.00     0.238 A 
ATOM      4  O   UNL     1     164.817 147.448 149.221  1.00  0.00    -0.285 OA
ATOM      5  C   UNL     1     166.868 146.357 149.317  1.00  0.00     0.111 A 
ATOM      6  C   UNL     1     166.332 145.094 149.667  1.00  0.00     0.134 A 
ATOM      7  C   UNL     1     167.191 144.001 149.850  1.00  0.00     0.093 A 
ATOM      8  C   UNL     1     168.574 144.145 149.689  1.00  0.00     0.123 A 
ATOM      9  C   UNL     1     169.107 145.388 149.345  1.00  0.00     0.094 A 
ATOM     10  C   UNL     1     168.268 146.491 149.159  1.00  0.00     0.146 A 
ATOM     11  O   UNL     1     168.803 147.663 148.837  1.00  0.00    -0.452 OA
ENDROOT
BRANCH   1  12
ATOM     12  C   UNL     1     168.803 150.015 148.301  1.00  0.00     0.025 A 
ATOM     13  C   UNL     1     168.991 150.406 146.966  1.00  0.00     0.016 A 
ATOM     14  C   UNL     1     169.651 151.599 146.666  1.00  0.00     0.051 A 
ATOM     15  C   UNL     1     170.124 152.430 147.688  1.00  0.00     0.157 A 
ATOM     16  C   UNL     1     169.257 150.858 149.327  1.00  0.00     0.062 A 
ATOM     17  C   UNL     1     169.920 152.056 149.037  1.00  0.00     0.158 A 
BRANCH  15  18
ATOM     18  O   UNL     1     170.779 153.606 147.320  1.00  0.00    -0.504 OA
ATOM     19  H   UNL     1     170.399 154.531 147.458  1.00  0.00     0.293 HD
ENDBRANCH  15  18
BRANCH  17  20
ATOM     20  O   UNL     1     170.355 152.837 150.110  1.00  0.00    -0.504 OA
ATOM     21  H   UNL     1     170.208 153.834 150.178  1.00  0.00     0.293 HD
ENDBRANCH  17  20
ENDBRANCH   1  12
BRANCH   2  22
ATOM     22  O   UNL     1     165.912 149.854 148.497  1.00  0.00    -0.502 OA
ATOM     23  H   UNL     1     165.084 149.826 147.914  1.00  0.00     0.293 HD
ENDBRANCH   2  22
BRANCH   6  24
ATOM     24  O   UNL     1     164.957 144.919 149.833  1.00  0.00    -0.507 OA
ATOM     25  H   UNL     1     164.578 144.121 150.328  1.00  0.00     0.293 HD
ENDBRANCH   6  24
BRANCH   8  26
ATOM     26  O   UNL     1     169.427 143.059 149.869  1.00  0.00    -0.508 OA
ATOM     27  H   UNL     1     169.137 142.115 149.643  1.00  0.00     0.293 HD
ENDBRANCH   8  26
TORSDOF 6
ENDMDL
MODEL 9
REMARK VINA RESULT:    -6.673      1.898      2.110
REMARK INTER + INTRA:          -8.341
REMARK INTER:                  -8.141
REMARK INTRA:                  -0.200
REMARK UNBOUND:                -0.303
REMARK SMILES O=c1c(O)c(-c2ccc(O)c(O)c2)oc2cc(O)cc(O)c12
REMARK SMILES IDX 5 1 3 2 2 3 1 4 22 5 20 6 19 7 17 8 16 9 15 10 14 11 6 12
REMARK SMILES IDX 7 13 8 14 9 15 13 16 11 17 10 18 12 20 4 22 21 24 18 26
REMARK H PARENT 10 19 12 21 4 23 21 25 18 27
REMARK Flexibility Score: inf
ROOT
ATOM      1  C   UNL     1     168.046 149.181 148.105  1.00  0.00     0.180 A 
ATOM      2  C   UNL     1     167.358 148.586 147.029  1.00  0.00     0.208 A 
ATOM      3  C   UNL     1     167.462 147.198 146.842  1.00  0.00     0.238 A 
ATOM      4  O   UNL     1     166.843 146.653 145.889  1.00  0.00    -0.285 OA
ATOM      5  C   UNL     1     168.263 146.435 147.716  1.00  0.00     0.111 A 
ATOM      6  C   UNL     1     168.424 145.034 147.594  1.00  0.00     0.134 A 
ATOM      7  C   UNL     1     169.247 144.347 148.500  1.00  0.00     0.093 A 
ATOM      8  C   UNL     1     169.911 145.034 149.522  1.00  0.00     0.123 A 
ATOM      9  C   UNL     1     169.755 146.415 149.647  1.00  0.00     0.094 A 
ATOM     10  C   UNL     1     168.938 147.118 148.756  1.00  0.00     0.146 A 
ATOM     11  O   UNL     1     168.804 148.431 148.901  1.00  0.00    -0.452 OA
ENDROOT
BRANCH   1  12
ATOM     12  C   UNL     1     167.971 150.634 148.380  1.00  0.00     0.025 A 
ATOM     13  C   UNL     1     166.768 151.244 148.769  1.00  0.00     0.016 A 
ATOM     14  C   UNL     1     166.727 152.611 149.046  1.00  0.00     0.051 A 
ATOM     15  C   UNL     1     167.884 153.394 148.953  1.00  0.00     0.157 A 
ATOM     16  C   UNL     1     169.136 151.412 148.308  1.00  0.00     0.062 A 
ATOM     17  C   UNL     1     169.105 152.785 148.583  1.00  0.00     0.158 A 
BRANCH  15  18
ATOM     18  O   UNL     1     167.774 154.756 149.238  1.00  0.00    -0.504 OA
ATOM     19  H   UNL     1     168.459 155.446 148.967  1.00  0.00     0.293 HD
ENDBRANCH  15  18
BRANCH  17  20
ATOM     20  O   UNL     1     170.302 153.498 148.478  1.00  0.00    -0.504 OA
ATOM     21  H   UNL     1     171.125 153.303 149.030  1.00  0.00     0.293 HD
ENDBRANCH  17  20
ENDBRANCH   1  12
BRANCH   2  22
ATOM     22  O   UNL     1     166.611 149.371 146.149  1.00  0.00    -0.502 OA
ATOM     23  H   UNL     1     165.671 149.683 146.363  1.00  0.00     0.293 HD
ENDBRANCH   2  22
BRANCH   6  24
ATOM     24  O   UNL     1     167.776 144.322 146.584  1.00  0.00    -0.507 OA
ATOM     25  H   UNL     1     168.135 144.294 145.637  1.00  0.00     0.293 HD
ENDBRANCH   6  24
BRANCH   8  26
ATOM     26  O   UNL     1     170.729 144.352 150.420  1.00  0.00    -0.508 OA
ATOM     27  H   UNL     1     170.663 143.348 150.539  1.00  0.00     0.293 HD
ENDBRANCH   8  26
TORSDOF 6
ENDMDL
