MODEL 1
REMARK VINA RESULT:    -6.396      0.000      0.000
REMARK INTER + INTRA:          -8.016
REMARK INTER:                  -7.705
REMARK INTRA:                  -0.312
REMARK UNBOUND:                -0.312
REMARK SMILES O=c1c(O)c(-c2ccc(O)c(O)c2)oc2cc(O)cc(O)c12
REMARK SMILES IDX 5 1 3 2 2 3 1 4 22 5 20 6 19 7 17 8 16 9 15 10 14 11 6 12
REMARK SMILES IDX 7 13 8 14 9 15 13 16 11 17 10 18 12 20 4 22 21 24 18 26
REMARK H PARENT 10 19 12 21 4 23 21 25 18 27
REMARK Flexibility Score: inf
ROOT
ATOM      1  C   UNL     1      14.275 -35.959  -2.579  1.00  0.00     0.180 A 
ATOM      2  C   UNL     1      14.234 -34.596  -2.239  1.00  0.00     0.208 A 
ATOM      3  C   UNL     1      13.067 -33.861  -2.508  1.00  0.00     0.238 A 
ATOM      4  O   UNL     1      13.055 -32.629  -2.252  1.00  0.00    -0.285 OA
ATOM      5  C   UNL     1      11.952 -34.503  -3.100  1.00  0.00     0.111 A 
ATOM      6  C   UNL     1      10.706 -33.866  -3.380  1.00  0.00     0.134 A 
ATOM      7  C   UNL     1       9.718 -34.563  -4.086  1.00  0.00     0.093 A 
ATOM      8  C   UNL     1       9.904 -35.893  -4.463  1.00  0.00     0.123 A 
ATOM      9  C   UNL     1      11.096 -36.544  -4.141  1.00  0.00     0.094 A 
ATOM     10  C   UNL     1      12.115 -35.863  -3.470  1.00  0.00     0.146 A 
ATOM     11  O   UNL     1      13.236 -36.516  -3.191  1.00  0.00    -0.452 OA
ENDROOT
BRANCH   1  12
ATOM     12  C   UNL     1      15.459 -36.804  -2.303  1.00  0.00     0.025 A 
ATOM     13  C   UNL     1      15.525 -37.619  -1.159  1.00  0.00     0.016 A 
ATOM     14  C   UNL     1      16.643 -38.427  -0.931  1.00  0.00     0.051 A 
ATOM     15  C   UNL     1      17.702 -38.442  -1.849  1.00  0.00     0.157 A 
ATOM     16  C   UNL     1      16.514 -36.839  -3.229  1.00  0.00     0.062 A 
ATOM     17  C   UNL     1      17.637 -37.649  -3.000  1.00  0.00     0.158 A 
BRANCH  15  18
ATOM     18  O   UNL     1      18.819 -39.245  -1.623  1.00  0.00    -0.504 OA
ATOM     19  H   UNL     1      19.737 -38.846  -1.470  1.00  0.00     0.293 HD
ENDBRANCH  15  18
BRANCH  17  20
ATOM     20  O   UNL     1      18.688 -37.671  -3.914  1.00  0.00    -0.504 OA
ATOM     21  H   UNL     1      19.588 -38.076  -3.679  1.00  0.00     0.293 HD
ENDBRANCH  17  20
ENDBRANCH   1  12
BRANCH   2  22
ATOM     22  O   UNL     1      15.353 -33.976  -1.676  1.00  0.00    -0.502 OA
ATOM     23  H   UNL     1      15.599 -34.081  -0.699  1.00  0.00     0.293 HD
ENDBRANCH   2  22
BRANCH   6  24
ATOM     24  O   UNL     1      10.381 -32.570  -2.968  1.00  0.00    -0.507 OA
ATOM     25  H   UNL     1      10.302 -31.774  -3.583  1.00  0.00     0.293 HD
ENDBRANCH   6  24
BRANCH   8  26
ATOM     26  O   UNL     1       8.893 -36.560  -5.151  1.00  0.00    -0.508 OA
ATOM     27  H   UNL     1       8.278 -36.073  -5.793  1.00  0.00     0.293 HD
ENDBRANCH   8  26
TORSDOF 6
ENDMDL
MODEL 2
REMARK VINA RESULT:    -6.357      1.415      3.286
REMARK INTER + INTRA:          -7.970
REMARK INTER:                  -7.718
REMARK INTRA:                  -0.252
REMARK UNBOUND:                -0.312
REMARK SMILES O=c1c(O)c(-c2ccc(O)c(O)c2)oc2cc(O)cc(O)c12
REMARK SMILES IDX 5 1 3 2 2 3 1 4 22 5 20 6 19 7 17 8 16 9 15 10 14 11 6 12
REMARK SMILES IDX 7 13 8 14 9 15 13 16 11 17 10 18 12 20 4 22 21 24 18 26
REMARK H PARENT 10 19 12 21 4 23 21 25 18 27
REMARK Flexibility Score: inf
ROOT
ATOM      1  C   UNL     1      14.412 -37.190  -3.286  1.00  0.00     0.180 A 
ATOM      2  C   UNL     1      13.540 -38.150  -3.827  1.00  0.00     0.208 A 
ATOM      3  C   UNL     1      12.231 -37.768  -4.163  1.00  0.00     0.238 A 
ATOM      4  O   UNL     1      11.437 -38.644  -4.595  1.00  0.00    -0.285 OA
ATOM      5  C   UNL     1      11.816 -36.427  -3.970  1.00  0.00     0.111 A 
ATOM      6  C   UNL     1      10.526 -35.922  -4.313  1.00  0.00     0.134 A 
ATOM      7  C   UNL     1      10.182 -34.612  -3.957  1.00  0.00     0.093 A 
ATOM      8  C   UNL     1      11.101 -33.770  -3.331  1.00  0.00     0.123 A 
ATOM      9  C   UNL     1      12.386 -34.236  -3.045  1.00  0.00     0.094 A 
ATOM     10  C   UNL     1      12.746 -35.550  -3.355  1.00  0.00     0.146 A 
ATOM     11  O   UNL     1      13.974 -35.957  -3.057  1.00  0.00    -0.452 OA
ENDROOT
BRANCH   1  12
ATOM     12  C   UNL     1      15.814 -37.510  -2.931  1.00  0.00     0.025 A 
ATOM     13  C   UNL     1      16.890 -37.045  -3.708  1.00  0.00     0.016 A 
ATOM     14  C   UNL     1      18.206 -37.339  -3.340  1.00  0.00     0.051 A 
ATOM     15  C   UNL     1      18.464 -38.090  -2.185  1.00  0.00     0.157 A 
ATOM     16  C   UNL     1      16.081 -38.243  -1.763  1.00  0.00     0.062 A 
ATOM     17  C   UNL     1      17.401 -38.540  -1.394  1.00  0.00     0.158 A 
BRANCH  15  18
ATOM     18  O   UNL     1      19.775 -38.387  -1.817  1.00  0.00    -0.504 OA
ATOM     19  H   UNL     1      20.125 -38.181  -0.888  1.00  0.00     0.293 HD
ENDBRANCH  15  18
BRANCH  17  20
ATOM     20  O   UNL     1      17.662 -39.280  -0.243  1.00  0.00    -0.504 OA
ATOM     21  H   UNL     1      17.524 -38.888   0.682  1.00  0.00     0.293 HD
ENDBRANCH  17  20
ENDBRANCH   1  12
BRANCH   2  22
ATOM     22  O   UNL     1      13.962 -39.472  -3.989  1.00  0.00    -0.502 OA
ATOM     23  H   UNL     1      14.833 -39.817  -3.605  1.00  0.00     0.293 HD
ENDBRANCH   2  22
BRANCH   6  24
ATOM     24  O   UNL     1       9.565 -36.649  -5.020  1.00  0.00    -0.507 OA
ATOM     25  H   UNL     1       9.746 -37.174  -5.862  1.00  0.00     0.293 HD
ENDBRANCH   6  24
BRANCH   8  26
ATOM     26  O   UNL     1      10.729 -32.467  -3.006  1.00  0.00    -0.508 OA
ATOM     27  H   UNL     1      11.302 -31.672  -3.265  1.00  0.00     0.293 HD
ENDBRANCH   8  26
TORSDOF 6
ENDMDL
MODEL 3
REMARK VINA RESULT:    -6.204      1.479      1.964
REMARK INTER + INTRA:          -7.785
REMARK INTER:                  -7.497
REMARK INTRA:                  -0.288
REMARK UNBOUND:                -0.312
REMARK SMILES O=c1c(O)c(-c2ccc(O)c(O)c2)oc2cc(O)cc(O)c12
REMARK SMILES IDX 5 1 3 2 2 3 1 4 22 5 20 6 19 7 17 8 16 9 15 10 14 11 6 12
REMARK SMILES IDX 7 13 8 14 9 15 13 16 11 17 10 18 12 20 4 22 21 24 18 26
REMARK H PARENT 10 19 12 21 4 23 21 25 18 27
REMARK Flexibility Score: inf
ROOT
ATOM      1  C   UNL     1      14.499 -35.324  -2.306  1.00  0.00     0.180 A 
ATOM      2  C   UNL     1      14.249 -34.680  -1.082  1.00  0.00     0.208 A 
ATOM      3  C   UNL     1      12.980 -34.126  -0.849  1.00  0.00     0.238 A 
ATOM      4  O   UNL     1      12.780 -33.504   0.226  1.00  0.00    -0.285 OA
ATOM      5  C   UNL     1      11.971 -34.236  -1.837  1.00  0.00     0.111 A 
ATOM      6  C   UNL     1      10.638 -33.747  -1.692  1.00  0.00     0.134 A 
ATOM      7  C   UNL     1       9.763 -33.795  -2.784  1.00  0.00     0.093 A 
ATOM      8  C   UNL     1      10.149 -34.373  -3.993  1.00  0.00     0.123 A 
ATOM      9  C   UNL     1      11.432 -34.909  -4.126  1.00  0.00     0.094 A 
ATOM     10  C   UNL     1      12.340 -34.842  -3.066  1.00  0.00     0.146 A 
ATOM     11  O   UNL     1      13.552 -35.354  -3.238  1.00  0.00    -0.452 OA
ENDROOT
BRANCH   1  12
ATOM     12  C   UNL     1      15.802 -35.954  -2.614  1.00  0.00     0.025 A 
ATOM     13  C   UNL     1      16.908 -35.186  -3.023  1.00  0.00     0.016 A 
ATOM     14  C   UNL     1      18.136 -35.800  -3.285  1.00  0.00     0.051 A 
ATOM     15  C   UNL     1      18.280 -37.185  -3.130  1.00  0.00     0.157 A 
ATOM     16  C   UNL     1      15.959 -37.339  -2.440  1.00  0.00     0.062 A 
ATOM     17  C   UNL     1      17.191 -37.955  -2.704  1.00  0.00     0.158 A 
BRANCH  15  18
ATOM     18  O   UNL     1      19.503 -37.800  -3.392  1.00  0.00    -0.504 OA
ATOM     19  H   UNL     1      19.894 -37.826  -4.327  1.00  0.00     0.293 HD
ENDBRANCH  15  18
BRANCH  17  20
ATOM     20  O   UNL     1      17.340 -39.331  -2.543  1.00  0.00    -0.504 OA
ATOM     21  H   UNL     1      17.853 -39.892  -3.214  1.00  0.00     0.293 HD
ENDBRANCH  17  20
ENDBRANCH   1  12
BRANCH   2  22
ATOM     22  O   UNL     1      15.265 -34.563  -0.129  1.00  0.00    -0.502 OA
ATOM     23  H   UNL     1      16.223 -34.351  -0.378  1.00  0.00     0.293 HD
ENDBRANCH   2  22
BRANCH   6  24
ATOM     24  O   UNL     1      10.120 -33.234  -0.499  1.00  0.00    -0.507 OA
ATOM     25  H   UNL     1       9.234 -32.760  -0.415  1.00  0.00     0.293 HD
ENDBRANCH   6  24
BRANCH   8  26
ATOM     26  O   UNL     1       9.247 -34.418  -5.053  1.00  0.00    -0.508 OA
ATOM     27  H   UNL     1       9.033 -33.592  -5.601  1.00  0.00     0.293 HD
ENDBRANCH   8  26
TORSDOF 6
ENDMDL
MODEL 4
REMARK VINA RESULT:    -6.133      1.784      2.629
REMARK INTER + INTRA:          -7.700
REMARK INTER:                  -7.380
REMARK INTRA:                  -0.319
REMARK UNBOUND:                -0.312
REMARK SMILES O=c1c(O)c(-c2ccc(O)c(O)c2)oc2cc(O)cc(O)c12
REMARK SMILES IDX 5 1 3 2 2 3 1 4 22 5 20 6 19 7 17 8 16 9 15 10 14 11 6 12
REMARK SMILES IDX 7 13 8 14 9 15 13 16 11 17 10 18 12 20 4 22 21 24 18 26
REMARK H PARENT 10 19 12 21 4 23 21 25 18 27
REMARK Flexibility Score: inf
ROOT
ATOM      1  C   UNL     1      14.825 -37.327  -3.301  1.00  0.00     0.180 A 
ATOM      2  C   UNL     1      14.157 -36.242  -2.710  1.00  0.00     0.208 A 
ATOM      3  C   UNL     1      12.801 -36.031  -3.010  1.00  0.00     0.238 A 
ATOM      4  O   UNL     1      12.223 -35.026  -2.521  1.00  0.00    -0.285 OA
ATOM      5  C   UNL     1      12.127 -36.916  -3.887  1.00  0.00     0.111 A 
ATOM      6  C   UNL     1      10.745 -36.820  -4.230  1.00  0.00     0.134 A 
ATOM      7  C   UNL     1      10.217 -37.671  -5.208  1.00  0.00     0.093 A 
ATOM      8  C   UNL     1      11.001 -38.658  -5.805  1.00  0.00     0.123 A 
ATOM      9  C   UNL     1      12.339 -38.799  -5.433  1.00  0.00     0.094 A 
ATOM     10  C   UNL     1      12.905 -37.940  -4.487  1.00  0.00     0.146 A 
ATOM     11  O   UNL     1      14.183 -38.101  -4.169  1.00  0.00    -0.452 OA
ENDROOT
BRANCH   1  12
ATOM     12  C   UNL     1      16.245 -37.630  -3.013  1.00  0.00     0.025 A 
ATOM     13  C   UNL     1      17.285 -37.010  -3.729  1.00  0.00     0.016 A 
ATOM     14  C   UNL     1      18.620 -37.293  -3.424  1.00  0.00     0.051 A 
ATOM     15  C   UNL     1      18.933 -38.187  -2.391  1.00  0.00     0.157 A 
ATOM     16  C   UNL     1      16.566 -38.509  -1.966  1.00  0.00     0.062 A 
ATOM     17  C   UNL     1      17.905 -38.794  -1.660  1.00  0.00     0.158 A 
BRANCH  15  18
ATOM     18  O   UNL     1      20.262 -38.473  -2.086  1.00  0.00    -0.504 OA
ATOM     19  H   UNL     1      20.788 -37.910  -1.427  1.00  0.00     0.293 HD
ENDBRANCH  15  18
BRANCH  17  20
ATOM     20  O   UNL     1      18.221 -39.677  -0.629  1.00  0.00    -0.504 OA
ATOM     21  H   UNL     1      17.807 -40.601  -0.577  1.00  0.00     0.293 HD
ENDBRANCH  17  20
ENDBRANCH   1  12
BRANCH   2  22
ATOM     22  O   UNL     1      14.845 -35.367  -1.865  1.00  0.00    -0.502 OA
ATOM     23  H   UNL     1      15.278 -34.515  -2.199  1.00  0.00     0.293 HD
ENDBRANCH   2  22
BRANCH   6  24
ATOM     24  O   UNL     1       9.851 -35.931  -3.627  1.00  0.00    -0.507 OA
ATOM     25  H   UNL     1       9.198 -35.346  -4.126  1.00  0.00     0.293 HD
ENDBRANCH   6  24
BRANCH   8  26
ATOM     26  O   UNL     1      10.438 -39.498  -6.763  1.00  0.00    -0.508 OA
ATOM     27  H   UNL     1      10.547 -40.504  -6.715  1.00  0.00     0.293 HD
ENDBRANCH   8  26
TORSDOF 6
ENDMDL
MODEL 5
REMARK VINA RESULT:    -6.050      3.486      6.286
REMARK INTER + INTRA:          -7.600
REMARK INTER:                  -7.390
REMARK INTRA:                  -0.210
REMARK UNBOUND:                -0.312
REMARK SMILES O=c1c(O)c(-c2ccc(O)c(O)c2)oc2cc(O)cc(O)c12
REMARK SMILES IDX 5 1 3 2 2 3 1 4 22 5 20 6 19 7 17 8 16 9 15 10 14 11 6 12
REMARK SMILES IDX 7 13 8 14 9 15 13 16 11 17 10 18 12 20 4 22 21 24 18 26
REMARK H PARENT 10 19 12 21 4 23 21 25 18 27
REMARK Flexibility Score: inf
ROOT
ATOM      1  C   UNL     1      15.430 -38.222  -2.121  1.00  0.00     0.180 A 
ATOM      2  C   UNL     1      16.753 -38.571  -1.801  1.00  0.00     0.208 A 
ATOM      3  C   UNL     1      17.433 -37.833  -0.817  1.00  0.00     0.238 A 
ATOM      4  O   UNL     1      18.635 -38.115  -0.574  1.00  0.00    -0.285 OA
ATOM      5  C   UNL     1      16.776 -36.767  -0.157  1.00  0.00     0.111 A 
ATOM      6  C   UNL     1      17.356 -35.979   0.883  1.00  0.00     0.134 A 
ATOM      7  C   UNL     1      16.661 -34.866   1.374  1.00  0.00     0.093 A 
ATOM      8  C   UNL     1      15.383 -34.552   0.911  1.00  0.00     0.123 A 
ATOM      9  C   UNL     1      14.783 -35.352  -0.063  1.00  0.00     0.094 A 
ATOM     10  C   UNL     1      15.466 -36.447  -0.598  1.00  0.00     0.146 A 
ATOM     11  O   UNL     1      14.864 -37.176  -1.530  1.00  0.00    -0.452 OA
ENDROOT
BRANCH   1  12
ATOM     12  C   UNL     1      14.640 -38.967  -3.128  1.00  0.00     0.025 A 
ATOM     13  C   UNL     1      14.259 -40.304  -2.915  1.00  0.00     0.016 A 
ATOM     14  C   UNL     1      13.493 -40.981  -3.868  1.00  0.00     0.051 A 
ATOM     15  C   UNL     1      13.086 -40.328  -5.039  1.00  0.00     0.157 A 
ATOM     16  C   UNL     1      14.211 -38.312  -4.294  1.00  0.00     0.062 A 
ATOM     17  C   UNL     1      13.443 -38.991  -5.251  1.00  0.00     0.158 A 
BRANCH  15  18
ATOM     18  O   UNL     1      12.324 -41.000  -5.993  1.00  0.00    -0.504 OA
ATOM     19  H   UNL     1      11.550 -41.600  -5.727  1.00  0.00     0.293 HD
ENDBRANCH  15  18
BRANCH  17  20
ATOM     20  O   UNL     1      13.031 -38.343  -6.414  1.00  0.00    -0.504 OA
ATOM     21  H   UNL     1      13.698 -37.945  -7.065  1.00  0.00     0.293 HD
ENDBRANCH  17  20
ENDBRANCH   1  12
BRANCH   2  22
ATOM     22  O   UNL     1      17.390 -39.612  -2.480  1.00  0.00    -0.502 OA
ATOM     23  H   UNL     1      17.377 -40.568  -2.146  1.00  0.00     0.293 HD
ENDBRANCH   2  22
BRANCH   6  24
ATOM     24  O   UNL     1      18.587 -36.259   1.481  1.00  0.00    -0.507 OA
ATOM     25  H   UNL     1      18.702 -36.668   2.396  1.00  0.00     0.293 HD
ENDBRANCH   6  24
BRANCH   8  26
ATOM     26  O   UNL     1      14.716 -33.447   1.434  1.00  0.00    -0.508 OA
ATOM     27  H   UNL     1      13.763 -33.515   1.772  1.00  0.00     0.293 HD
ENDBRANCH   8  26
TORSDOF 6
ENDMDL
MODEL 6
REMARK VINA RESULT:    -5.999      2.887      7.499
REMARK INTER + INTRA:          -7.538
REMARK INTER:                  -7.222
REMARK INTRA:                  -0.316
REMARK UNBOUND:                -0.312
REMARK SMILES O=c1c(O)c(-c2ccc(O)c(O)c2)oc2cc(O)cc(O)c12
REMARK SMILES IDX 5 1 3 2 2 3 1 4 22 5 20 6 19 7 17 8 16 9 15 10 14 11 6 12
REMARK SMILES IDX 7 13 8 14 9 15 13 16 11 17 10 18 12 20 4 22 21 24 18 26
REMARK H PARENT 10 19 12 21 4 23 21 25 18 27
REMARK Flexibility Score: inf
ROOT
ATOM      1  C   UNL     1      14.690 -34.755   0.114  1.00  0.00     0.180 A 
ATOM      2  C   UNL     1      15.185 -34.167   1.291  1.00  0.00     0.208 A 
ATOM      3  C   UNL     1      16.264 -34.774   1.955  1.00  0.00     0.238 A 
ATOM      4  O   UNL     1      16.667 -34.273   3.036  1.00  0.00    -0.285 OA
ATOM      5  C   UNL     1      16.842 -35.954   1.426  1.00  0.00     0.111 A 
ATOM      6  C   UNL     1      17.963 -36.631   1.994  1.00  0.00     0.134 A 
ATOM      7  C   UNL     1      18.369 -37.860   1.461  1.00  0.00     0.093 A 
ATOM      8  C   UNL     1      17.739 -38.404   0.342  1.00  0.00     0.123 A 
ATOM      9  C   UNL     1      16.680 -37.720  -0.258  1.00  0.00     0.094 A 
ATOM     10  C   UNL     1      16.228 -36.509   0.273  1.00  0.00     0.146 A 
ATOM     11  O   UNL     1      15.212 -35.896  -0.320  1.00  0.00    -0.452 OA
ENDROOT
BRANCH   1  12
ATOM     12  C   UNL     1      13.574 -34.160  -0.655  1.00  0.00     0.025 A 
ATOM     13  C   UNL     1      13.787 -33.096  -1.550  1.00  0.00     0.016 A 
ATOM     14  C   UNL     1      12.723 -32.566  -2.284  1.00  0.00     0.051 A 
ATOM     15  C   UNL     1      11.434 -33.099  -2.143  1.00  0.00     0.157 A 
ATOM     16  C   UNL     1      12.284 -34.703  -0.534  1.00  0.00     0.062 A 
ATOM     17  C   UNL     1      11.215 -34.170  -1.270  1.00  0.00     0.158 A 
BRANCH  15  18
ATOM     18  O   UNL     1      10.370 -32.570  -2.872  1.00  0.00    -0.504 OA
ATOM     19  H   UNL     1       9.981 -31.659  -2.659  1.00  0.00     0.293 HD
ENDBRANCH  15  18
BRANCH  17  20
ATOM     20  O   UNL     1       9.933 -34.702  -1.138  1.00  0.00    -0.504 OA
ATOM     21  H   UNL     1       9.367 -34.928  -1.947  1.00  0.00     0.293 HD
ENDBRANCH  17  20
ENDBRANCH   1  12
BRANCH   2  22
ATOM     22  O   UNL     1      14.586 -33.015   1.808  1.00  0.00    -0.502 OA
ATOM     23  H   UNL     1      14.227 -32.965   2.753  1.00  0.00     0.293 HD
ENDBRANCH   2  22
BRANCH   6  24
ATOM     24  O   UNL     1      18.722 -36.130   3.056  1.00  0.00    -0.507 OA
ATOM     25  H   UNL     1      18.947 -36.646   3.894  1.00  0.00     0.293 HD
ENDBRANCH   6  24
BRANCH   8  26
ATOM     26  O   UNL     1      18.179 -39.622  -0.171  1.00  0.00    -0.508 OA
ATOM     27  H   UNL     1      18.104 -39.839  -1.158  1.00  0.00     0.293 HD
ENDBRANCH   8  26
TORSDOF 6
ENDMDL
MODEL 7
REMARK VINA RESULT:    -5.799     12.367     14.737
REMARK INTER + INTRA:          -7.297
REMARK INTER:                  -6.976
REMARK INTRA:                  -0.322
REMARK UNBOUND:                -0.312
REMARK SMILES O=c1c(O)c(-c2ccc(O)c(O)c2)oc2cc(O)cc(O)c12
REMARK SMILES IDX 5 1 3 2 2 3 1 4 22 5 20 6 19 7 17 8 16 9 15 10 14 11 6 12
REMARK SMILES IDX 7 13 8 14 9 15 13 16 11 17 10 18 12 20 4 22 21 24 18 26
REMARK H PARENT 10 19 12 21 4 23 21 25 18 27
REMARK Flexibility Score: inf
ROOT
ATOM      1  C   UNL     1      27.071 -32.923  -0.934  1.00  0.00     0.180 A 
ATOM      2  C   UNL     1      25.976 -33.411  -0.200  1.00  0.00     0.208 A 
ATOM      3  C   UNL     1      25.640 -34.771  -0.302  1.00  0.00     0.238 A 
ATOM      4  O   UNL     1      24.626 -35.191   0.314  1.00  0.00    -0.285 OA
ATOM      5  C   UNL     1      26.411 -35.628  -1.124  1.00  0.00     0.111 A 
ATOM      6  C   UNL     1      26.185 -37.030  -1.270  1.00  0.00     0.134 A 
ATOM      7  C   UNL     1      26.928 -37.754  -2.211  1.00  0.00     0.093 A 
ATOM      8  C   UNL     1      27.932 -37.143  -2.961  1.00  0.00     0.123 A 
ATOM      9  C   UNL     1      28.202 -35.785  -2.782  1.00  0.00     0.094 A 
ATOM     10  C   UNL     1      27.453 -35.028  -1.878  1.00  0.00     0.146 A 
ATOM     11  O   UNL     1      27.735 -33.738  -1.746  1.00  0.00    -0.452 OA
ENDROOT
BRANCH   1  12
ATOM     12  C   UNL     1      27.502 -31.509  -0.858  1.00  0.00     0.025 A 
ATOM     13  C   UNL     1      28.324 -31.049   0.186  1.00  0.00     0.016 A 
ATOM     14  C   UNL     1      28.739 -29.715   0.224  1.00  0.00     0.051 A 
ATOM     15  C   UNL     1      28.349 -28.826  -0.787  1.00  0.00     0.157 A 
ATOM     16  C   UNL     1      27.132 -30.618  -1.879  1.00  0.00     0.062 A 
ATOM     17  C   UNL     1      27.547 -29.278  -1.841  1.00  0.00     0.158 A 
BRANCH  15  18
ATOM     18  O   UNL     1      28.759 -27.494  -0.751  1.00  0.00    -0.504 OA
ATOM     19  H   UNL     1      29.633 -27.219  -0.318  1.00  0.00     0.293 HD
ENDBRANCH  15  18
BRANCH  17  20
ATOM     20  O   UNL     1      27.167 -28.393  -2.849  1.00  0.00    -0.504 OA
ATOM     21  H   UNL     1      26.721 -27.508  -2.637  1.00  0.00     0.293 HD
ENDBRANCH  17  20
ENDBRANCH   1  12
BRANCH   2  22
ATOM     22  O   UNL     1      25.215 -32.545   0.589  1.00  0.00    -0.502 OA
ATOM     23  H   UNL     1      25.481 -32.291   1.532  1.00  0.00     0.293 HD
ENDBRANCH   2  22
BRANCH   6  24
ATOM     24  O   UNL     1      25.269 -37.757  -0.505  1.00  0.00    -0.507 OA
ATOM     25  H   UNL     1      24.750 -37.386   0.276  1.00  0.00     0.293 HD
ENDBRANCH   6  24
BRANCH   8  26
ATOM     26  O   UNL     1      28.662 -37.898  -3.877  1.00  0.00    -0.508 OA
ATOM     27  H   UNL     1      28.902 -38.866  -3.693  1.00  0.00     0.293 HD
ENDBRANCH   8  26
TORSDOF 6
ENDMDL
MODEL 8
REMARK VINA RESULT:    -5.771      2.013      7.414
REMARK INTER + INTRA:          -7.264
REMARK INTER:                  -7.258
REMARK INTRA:                  -0.006
REMARK UNBOUND:                -0.312
REMARK SMILES O=c1c(O)c(-c2ccc(O)c(O)c2)oc2cc(O)cc(O)c12
REMARK SMILES IDX 5 1 3 2 2 3 1 4 22 5 20 6 19 7 17 8 16 9 15 10 14 11 6 12
REMARK SMILES IDX 7 13 8 14 9 15 13 16 11 17 10 18 12 20 4 22 21 24 18 26
REMARK H PARENT 10 19 12 21 4 23 21 25 18 27
REMARK Flexibility Score: inf
ROOT
ATOM      1  C   UNL     1      14.711 -35.950  -1.631  1.00  0.00     0.180 A 
ATOM      2  C   UNL     1      15.218 -36.917  -2.516  1.00  0.00     0.208 A 
ATOM      3  C   UNL     1      16.238 -37.776  -2.074  1.00  0.00     0.238 A 
ATOM      4  O   UNL     1      16.726 -38.604  -2.887  1.00  0.00    -0.285 OA
ATOM      5  C   UNL     1      16.727 -37.667  -0.749  1.00  0.00     0.111 A 
ATOM      6  C   UNL     1      17.729 -38.511  -0.184  1.00  0.00     0.134 A 
ATOM      7  C   UNL     1      18.229 -38.229   1.094  1.00  0.00     0.093 A 
ATOM      8  C   UNL     1      17.717 -37.176   1.851  1.00  0.00     0.123 A 
ATOM      9  C   UNL     1      16.694 -36.381   1.331  1.00  0.00     0.094 A 
ATOM     10  C   UNL     1      16.200 -36.615   0.045  1.00  0.00     0.146 A 
ATOM     11  O   UNL     1      15.235 -35.830  -0.416  1.00  0.00    -0.452 OA
ENDROOT
BRANCH   1  12
ATOM     12  C   UNL     1      13.620 -35.026  -2.015  1.00  0.00     0.025 A 
ATOM     13  C   UNL     1      13.764 -33.632  -1.895  1.00  0.00     0.016 A 
ATOM     14  C   UNL     1      12.729 -32.779  -2.287  1.00  0.00     0.051 A 
ATOM     15  C   UNL     1      11.542 -33.304  -2.815  1.00  0.00     0.157 A 
ATOM     16  C   UNL     1      12.436 -35.546  -2.565  1.00  0.00     0.062 A 
ATOM     17  C   UNL     1      11.397 -34.689  -2.957  1.00  0.00     0.158 A 
BRANCH  15  18
ATOM     18  O   UNL     1      10.507 -32.456  -3.204  1.00  0.00    -0.504 OA
ATOM     19  H   UNL     1      10.677 -31.484  -3.438  1.00  0.00     0.293 HD
ENDBRANCH  15  18
BRANCH  17  20
ATOM     20  O   UNL     1      10.218 -35.208  -3.490  1.00  0.00    -0.504 OA
ATOM     21  H   UNL     1       9.458 -34.606  -3.784  1.00  0.00     0.293 HD
ENDBRANCH  17  20
ENDBRANCH   1  12
BRANCH   2  22
ATOM     22  O   UNL     1      14.738 -36.994  -3.826  1.00  0.00    -0.502 OA
ATOM     23  H   UNL     1      14.150 -37.753  -4.146  1.00  0.00     0.293 HD
ENDBRANCH   2  22
BRANCH   6  24
ATOM     24  O   UNL     1      18.244 -39.645  -0.818  1.00  0.00    -0.507 OA
ATOM     25  H   UNL     1      18.225 -39.805  -1.814  1.00  0.00     0.293 HD
ENDBRANCH   6  24
BRANCH   8  26
ATOM     26  O   UNL     1      18.226 -36.934   3.125  1.00  0.00    -0.508 OA
ATOM     27  H   UNL     1      19.218 -36.792   3.280  1.00  0.00     0.293 HD
ENDBRANCH   8  26
TORSDOF 6
ENDMDL
MODEL 9
REMARK VINA RESULT:    -5.656      2.049      3.336
REMARK INTER + INTRA:          -7.126
REMARK INTER:                  -6.847
REMARK INTRA:                  -0.279
REMARK UNBOUND:                -0.312
REMARK SMILES O=c1c(O)c(-c2ccc(O)c(O)c2)oc2cc(O)cc(O)c12
REMARK SMILES IDX 5 1 3 2 2 3 1 4 22 5 20 6 19 7 17 8 16 9 15 10 14 11 6 12
REMARK SMILES IDX 7 13 8 14 9 15 13 16 11 17 10 18 12 20 4 22 21 24 18 26
REMARK H PARENT 10 19 12 21 4 23 21 25 18 27
REMARK Flexibility Score: inf
ROOT
ATOM      1  C   UNL     1      14.111 -35.778  -2.403  1.00  0.00     0.180 A 
ATOM      2  C   UNL     1      13.130 -35.913  -3.400  1.00  0.00     0.208 A 
ATOM      3  C   UNL     1      11.841 -35.408  -3.161  1.00  0.00     0.238 A 
ATOM      4  O   UNL     1      10.952 -35.581  -4.035  1.00  0.00    -0.285 OA
ATOM      5  C   UNL     1      11.554 -34.761  -1.934  1.00  0.00     0.111 A 
ATOM      6  C   UNL     1      10.295 -34.178  -1.602  1.00  0.00     0.134 A 
ATOM      7  C   UNL     1      10.085 -33.680  -0.310  1.00  0.00     0.093 A 
ATOM      8  C   UNL     1      11.107 -33.684   0.639  1.00  0.00     0.123 A 
ATOM      9  C   UNL     1      12.362 -34.198   0.305  1.00  0.00     0.094 A 
ATOM     10  C   UNL     1      12.590 -34.736  -0.964  1.00  0.00     0.146 A 
ATOM     11  O   UNL     1      13.793 -35.224  -1.238  1.00  0.00    -0.452 OA
ENDROOT
BRANCH   1  12
ATOM     12  C   UNL     1      15.498 -36.261  -2.592  1.00  0.00     0.025 A 
ATOM     13  C   UNL     1      16.553 -35.371  -2.861  1.00  0.00     0.016 A 
ATOM     14  C   UNL     1      17.858 -35.847  -3.011  1.00  0.00     0.051 A 
ATOM     15  C   UNL     1      18.129 -37.216  -2.882  1.00  0.00     0.157 A 
ATOM     16  C   UNL     1      15.780 -37.629  -2.442  1.00  0.00     0.062 A 
ATOM     17  C   UNL     1      17.089 -38.107  -2.594  1.00  0.00     0.158 A 
BRANCH  15  18
ATOM     18  O   UNL     1      19.430 -37.694  -3.033  1.00  0.00    -0.504 OA
ATOM     19  H   UNL     1      19.725 -38.569  -2.615  1.00  0.00     0.293 HD
ENDBRANCH  15  18
BRANCH  17  20
ATOM     20  O   UNL     1      17.364 -39.467  -2.458  1.00  0.00    -0.504 OA
ATOM     21  H   UNL     1      17.681 -40.025  -3.242  1.00  0.00     0.293 HD
ENDBRANCH  17  20
ENDBRANCH   1  12
BRANCH   2  22
ATOM     22  O   UNL     1      13.427 -36.574  -4.595  1.00  0.00    -0.502 OA
ATOM     23  H   UNL     1      14.326 -36.491  -5.054  1.00  0.00     0.293 HD
ENDBRANCH   2  22
BRANCH   6  24
ATOM     24  O   UNL     1       9.236 -34.039  -2.503  1.00  0.00    -0.507 OA
ATOM     25  H   UNL     1       8.351 -34.518  -2.428  1.00  0.00     0.293 HD
ENDBRANCH   6  24
BRANCH   8  26
ATOM     26  O   UNL     1      10.868 -33.166   1.910  1.00  0.00    -0.508 OA
ATOM     27  H   UNL     1      10.188 -33.585   2.534  1.00  0.00     0.293 HD
ENDBRANCH   8  26
TORSDOF 6
ENDMDL
