MODEL 1
REMARK VINA RESULT:    -5.242      0.000      0.000
REMARK INTER + INTRA:          -6.451
REMARK INTER:                  -6.315
REMARK INTRA:                  -0.136
REMARK UNBOUND:                -0.136
REMARK SMILES O=c1c(O)c(-c2ccc(O)c(O)c2)oc2cc(O)cc(O)c12
REMARK SMILES IDX 5 1 3 2 2 3 1 4 22 5 20 6 19 7 17 8 16 9 15 10 14 11 6 12
REMARK SMILES IDX 7 13 8 14 9 15 13 16 11 17 10 18 12 20 4 22 21 24 18 26
REMARK H PARENT 10 19 12 21 4 23 21 25 18 27
REMARK Flexibility Score: inf
ROOT
ATOM      1  C   UNL     1     146.608 151.290 138.552  1.00  0.00     0.180 A 
ATOM      2  C   UNL     1     147.028 149.954 138.448  1.00  0.00     0.208 A 
ATOM      3  C   UNL     1     148.404 149.673 138.412  1.00  0.00     0.238 A 
ATOM      4  O   UNL     1     148.774 148.479 138.264  1.00  0.00    -0.285 OA
ATOM      5  C   UNL     1     149.341 150.732 138.498  1.00  0.00     0.111 A 
ATOM      6  C   UNL     1     150.758 150.560 138.512  1.00  0.00     0.134 A 
ATOM      7  C   UNL     1     151.590 151.685 138.468  1.00  0.00     0.093 A 
ATOM      8  C   UNL     1     151.057 152.976 138.475  1.00  0.00     0.123 A 
ATOM      9  C   UNL     1     149.676 153.154 138.522  1.00  0.00     0.094 A 
ATOM     10  C   UNL     1     148.820 152.051 138.530  1.00  0.00     0.146 A 
ATOM     11  O   UNL     1     147.509 152.266 138.564  1.00  0.00    -0.452 OA
ENDROOT
BRANCH   1  12
ATOM     12  C   UNL     1     145.176 151.663 138.620  1.00  0.00     0.025 A 
ATOM     13  C   UNL     1     144.669 152.245 139.793  1.00  0.00     0.016 A 
ATOM     14  C   UNL     1     143.317 152.586 139.886  1.00  0.00     0.051 A 
ATOM     15  C   UNL     1     142.450 152.334 138.815  1.00  0.00     0.157 A 
ATOM     16  C   UNL     1     144.297 151.393 137.555  1.00  0.00     0.062 A 
ATOM     17  C   UNL     1     142.940 151.734 137.650  1.00  0.00     0.158 A 
BRANCH  15  18
ATOM     18  O   UNL     1     141.101 152.674 138.905  1.00  0.00    -0.504 OA
ATOM     19  H   UNL     1     140.789 153.633 138.810  1.00  0.00     0.293 HD
ENDBRANCH  15  18
BRANCH  17  20
ATOM     20  O   UNL     1     142.071 151.471 136.591  1.00  0.00    -0.504 OA
ATOM     21  H   UNL     1     141.375 152.145 136.296  1.00  0.00     0.293 HD
ENDBRANCH  17  20
ENDBRANCH   1  12
BRANCH   2  22
ATOM     22  O   UNL     1     146.086 148.926 138.342  1.00  0.00    -0.502 OA
ATOM     23  H   UNL     1     146.145 148.076 138.890  1.00  0.00     0.293 HD
ENDBRANCH   2  22
BRANCH   6  24
ATOM     24  O   UNL     1     151.393 149.317 138.597  1.00  0.00    -0.507 OA
ATOM     25  H   UNL     1     151.411 148.630 137.859  1.00  0.00     0.293 HD
ENDBRANCH   6  24
BRANCH   8  26
ATOM     26  O   UNL     1     151.892 154.091 138.447  1.00  0.00    -0.508 OA
ATOM     27  H   UNL     1     152.053 154.610 137.591  1.00  0.00     0.293 HD
ENDBRANCH   8  26
TORSDOF 6
ENDMDL
MODEL 2
REMARK VINA RESULT:    -5.229      4.842      7.294
REMARK INTER + INTRA:          -6.436
REMARK INTER:                  -6.345
REMARK INTRA:                  -0.091
REMARK UNBOUND:                -0.136
REMARK SMILES O=c1c(O)c(-c2ccc(O)c(O)c2)oc2cc(O)cc(O)c12
REMARK SMILES IDX 5 1 3 2 2 3 1 4 22 5 20 6 19 7 17 8 16 9 15 10 14 11 6 12
REMARK SMILES IDX 7 13 8 14 9 15 13 16 11 17 10 18 12 20 4 22 21 24 18 26
REMARK H PARENT 10 19 12 21 4 23 21 25 18 27
REMARK Flexibility Score: inf
ROOT
ATOM      1  C   UNL     1     144.269 146.603 138.517  1.00  0.00     0.180 A 
ATOM      2  C   UNL     1     145.611 146.996 138.381  1.00  0.00     0.208 A 
ATOM      3  C   UNL     1     145.919 148.366 138.332  1.00  0.00     0.238 A 
ATOM      4  O   UNL     1     147.116 148.710 138.156  1.00  0.00    -0.285 OA
ATOM      5  C   UNL     1     144.882 149.324 138.437  1.00  0.00     0.111 A 
ATOM      6  C   UNL     1     145.083 150.737 138.441  1.00  0.00     0.134 A 
ATOM      7  C   UNL     1     143.974 151.592 138.418  1.00  0.00     0.093 A 
ATOM      8  C   UNL     1     142.673 151.086 138.457  1.00  0.00     0.123 A 
ATOM      9  C   UNL     1     142.468 149.709 138.514  1.00  0.00     0.094 A 
ATOM     10  C   UNL     1     143.553 148.830 138.501  1.00  0.00     0.146 A 
ATOM     11  O   UNL     1     143.313 147.525 138.546  1.00  0.00    -0.452 OA
ENDROOT
BRANCH   1  12
ATOM     12  C   UNL     1     143.869 145.180 138.600  1.00  0.00     0.025 A 
ATOM     13  C   UNL     1     143.227 144.709 139.757  1.00  0.00     0.016 A 
ATOM     14  C   UNL     1     142.859 143.366 139.865  1.00  0.00     0.051 A 
ATOM     15  C   UNL     1     143.142 142.470 138.825  1.00  0.00     0.157 A 
ATOM     16  C   UNL     1     144.169 144.273 137.568  1.00  0.00     0.062 A 
ATOM     17  C   UNL     1     143.801 142.923 137.677  1.00  0.00     0.158 A 
BRANCH  15  18
ATOM     18  O   UNL     1     142.775 141.129 138.929  1.00  0.00    -0.504 OA
ATOM     19  H   UNL     1     142.958 140.594 139.769  1.00  0.00     0.293 HD
ENDBRANCH  15  18
BRANCH  17  20
ATOM     20  O   UNL     1     144.095 142.027 136.650  1.00  0.00    -0.504 OA
ATOM     21  H   UNL     1     144.813 142.224 135.963  1.00  0.00     0.293 HD
ENDBRANCH  17  20
ENDBRANCH   1  12
BRANCH   2  22
ATOM     22  O   UNL     1     146.616 146.033 138.256  1.00  0.00    -0.502 OA
ATOM     23  H   UNL     1     147.600 146.273 138.236  1.00  0.00     0.293 HD
ENDBRANCH   2  22
BRANCH   6  24
ATOM     24  O   UNL     1     146.340 151.347 138.495  1.00  0.00    -0.507 OA
ATOM     25  H   UNL     1     146.771 151.842 137.730  1.00  0.00     0.293 HD
ENDBRANCH   6  24
BRANCH   8  26
ATOM     26  O   UNL     1     141.575 151.944 138.450  1.00  0.00    -0.508 OA
ATOM     27  H   UNL     1     141.635 152.883 138.826  1.00  0.00     0.293 HD
ENDBRANCH   8  26
TORSDOF 6
ENDMDL
MODEL 3
REMARK VINA RESULT:    -5.215      6.716     10.883
REMARK INTER + INTRA:          -6.419
REMARK INTER:                  -6.249
REMARK INTRA:                  -0.170
REMARK UNBOUND:                -0.136
REMARK SMILES O=c1c(O)c(-c2ccc(O)c(O)c2)oc2cc(O)cc(O)c12
REMARK SMILES IDX 5 1 3 2 2 3 1 4 22 5 20 6 19 7 17 8 16 9 15 10 14 11 6 12
REMARK SMILES IDX 7 13 8 14 9 15 13 16 11 17 10 18 12 20 4 22 21 24 18 26
REMARK H PARENT 10 19 12 21 4 23 21 25 18 27
REMARK Flexibility Score: inf
ROOT
ATOM      1  C   UNL     1     148.840 143.523 138.502  1.00  0.00     0.180 A 
ATOM      2  C   UNL     1     148.663 144.912 138.384  1.00  0.00     0.208 A 
ATOM      3  C   UNL     1     147.359 145.436 138.391  1.00  0.00     0.238 A 
ATOM      4  O   UNL     1     147.205 146.675 138.231  1.00  0.00    -0.285 OA
ATOM      5  C   UNL     1     146.251 144.565 138.532  1.00  0.00     0.111 A 
ATOM      6  C   UNL     1     144.890 144.990 138.593  1.00  0.00     0.134 A 
ATOM      7  C   UNL     1     143.868 144.033 138.602  1.00  0.00     0.093 A 
ATOM      8  C   UNL     1     144.160 142.668 138.618  1.00  0.00     0.123 A 
ATOM      9  C   UNL     1     145.487 142.244 138.620  1.00  0.00     0.094 A 
ATOM     10  C   UNL     1     146.528 143.174 138.574  1.00  0.00     0.146 A 
ATOM     11  O   UNL     1     147.778 142.727 138.566  1.00  0.00    -0.452 OA
ENDROOT
BRANCH   1  12
ATOM     12  C   UNL     1     150.182 142.899 138.528  1.00  0.00     0.025 A 
ATOM     13  C   UNL     1     150.529 141.964 137.539  1.00  0.00     0.016 A 
ATOM     14  C   UNL     1     151.783 141.348 137.556  1.00  0.00     0.051 A 
ATOM     15  C   UNL     1     152.703 141.646 138.570  1.00  0.00     0.157 A 
ATOM     16  C   UNL     1     151.101 143.180 139.555  1.00  0.00     0.062 A 
ATOM     17  C   UNL     1     152.360 142.561 139.573  1.00  0.00     0.158 A 
BRANCH  15  18
ATOM     18  O   UNL     1     153.955 141.035 138.589  1.00  0.00    -0.504 OA
ATOM     19  H   UNL     1     154.263 140.483 139.381  1.00  0.00     0.293 HD
ENDBRANCH  15  18
BRANCH  17  20
ATOM     20  O   UNL     1     153.271 142.845 140.589  1.00  0.00    -0.504 OA
ATOM     21  H   UNL     1     154.260 142.960 140.398  1.00  0.00     0.293 HD
ENDBRANCH  17  20
ENDBRANCH   1  12
BRANCH   2  22
ATOM     22  O   UNL     1     149.769 145.751 138.224  1.00  0.00    -0.502 OA
ATOM     23  H   UNL     1     150.699 145.489 138.530  1.00  0.00     0.293 HD
ENDBRANCH   2  22
BRANCH   6  24
ATOM     24  O   UNL     1     144.493 146.329 138.674  1.00  0.00    -0.507 OA
ATOM     25  H   UNL     1     144.565 146.995 137.921  1.00  0.00     0.293 HD
ENDBRANCH   6  24
BRANCH   8  26
ATOM     26  O   UNL     1     143.137 141.722 138.643  1.00  0.00    -0.508 OA
ATOM     27  H   UNL     1     143.306 140.767 138.939  1.00  0.00     0.293 HD
ENDBRANCH   8  26
TORSDOF 6
ENDMDL
MODEL 4
REMARK VINA RESULT:    -5.210      4.821      7.336
REMARK INTER + INTRA:          -6.413
REMARK INTER:                  -6.374
REMARK INTRA:                  -0.039
REMARK UNBOUND:                -0.136
REMARK SMILES O=c1c(O)c(-c2ccc(O)c(O)c2)oc2cc(O)cc(O)c12
REMARK SMILES IDX 5 1 3 2 2 3 1 4 22 5 20 6 19 7 17 8 16 9 15 10 14 11 6 12
REMARK SMILES IDX 7 13 8 14 9 15 13 16 11 17 10 18 12 20 4 22 21 24 18 26
REMARK H PARENT 10 19 12 21 4 23 21 25 18 27
REMARK Flexibility Score: inf
ROOT
ATOM      1  C   UNL     1     151.308 148.981 138.555  1.00  0.00     0.180 A 
ATOM      2  C   UNL     1     149.967 148.579 138.436  1.00  0.00     0.208 A 
ATOM      3  C   UNL     1     149.670 147.207 138.392  1.00  0.00     0.238 A 
ATOM      4  O   UNL     1     148.472 146.853 138.230  1.00  0.00    -0.285 OA
ATOM      5  C   UNL     1     150.715 146.256 138.485  1.00  0.00     0.111 A 
ATOM      6  C   UNL     1     150.525 144.841 138.492  1.00  0.00     0.134 A 
ATOM      7  C   UNL     1     151.639 143.995 138.456  1.00  0.00     0.093 A 
ATOM      8  C   UNL     1     152.937 144.511 138.479  1.00  0.00     0.123 A 
ATOM      9  C   UNL     1     153.132 145.889 138.533  1.00  0.00     0.094 A 
ATOM     10  C   UNL     1     152.040 146.760 138.533  1.00  0.00     0.146 A 
ATOM     11  O   UNL     1     152.271 148.067 138.574  1.00  0.00    -0.452 OA
ENDROOT
BRANCH   1  12
ATOM     12  C   UNL     1     151.698 150.408 138.633  1.00  0.00     0.025 A 
ATOM     13  C   UNL     1     152.432 150.864 139.740  1.00  0.00     0.016 A 
ATOM     14  C   UNL     1     152.793 152.210 139.844  1.00  0.00     0.051 A 
ATOM     15  C   UNL     1     152.412 153.122 138.851  1.00  0.00     0.157 A 
ATOM     16  C   UNL     1     151.300 151.331 137.649  1.00  0.00     0.062 A 
ATOM     17  C   UNL     1     151.661 152.683 137.754  1.00  0.00     0.158 A 
BRANCH  15  18
ATOM     18  O   UNL     1     152.772 154.465 138.950  1.00  0.00    -0.504 OA
ATOM     19  H   UNL     1     152.828 155.060 138.132  1.00  0.00     0.293 HD
ENDBRANCH  15  18
BRANCH  17  20
ATOM     20  O   UNL     1     151.271 153.595 136.774  1.00  0.00    -0.504 OA
ATOM     21  H   UNL     1     150.476 153.418 136.171  1.00  0.00     0.293 HD
ENDBRANCH  17  20
ENDBRANCH   1  12
BRANCH   2  22
ATOM     22  O   UNL     1     148.953 149.534 138.323  1.00  0.00    -0.502 OA
ATOM     23  H   UNL     1     148.015 149.298 138.022  1.00  0.00     0.293 HD
ENDBRANCH   2  22
BRANCH   6  24
ATOM     24  O   UNL     1     149.273 144.223 138.561  1.00  0.00    -0.507 OA
ATOM     25  H   UNL     1     149.111 143.237 138.424  1.00  0.00     0.293 HD
ENDBRANCH   6  24
BRANCH   8  26
ATOM     26  O   UNL     1     154.041 143.662 138.459  1.00  0.00    -0.508 OA
ATOM     27  H   UNL     1     154.438 143.330 137.587  1.00  0.00     0.293 HD
ENDBRANCH   8  26
TORSDOF 6
ENDMDL
MODEL 5
REMARK VINA RESULT:    -5.069      5.961      7.803
REMARK INTER + INTRA:          -6.243
REMARK INTER:                  -5.945
REMARK INTRA:                  -0.297
REMARK UNBOUND:                -0.136
REMARK SMILES O=c1c(O)c(-c2ccc(O)c(O)c2)oc2cc(O)cc(O)c12
REMARK SMILES IDX 5 1 3 2 2 3 1 4 22 5 20 6 19 7 17 8 16 9 15 10 14 11 6 12
REMARK SMILES IDX 7 13 8 14 9 15 13 16 11 17 10 18 12 20 4 22 21 24 18 26
REMARK H PARENT 10 19 12 21 4 23 21 25 18 27
REMARK Flexibility Score: inf
ROOT
ATOM      1  C   UNL     1     151.856 148.325 137.789  1.00  0.00     0.180 A 
ATOM      2  C   UNL     1     151.456 148.842 136.546  1.00  0.00     0.208 A 
ATOM      3  C   UNL     1     151.452 150.234 136.356  1.00  0.00     0.238 A 
ATOM      4  O   UNL     1     151.040 150.692 135.258  1.00  0.00    -0.285 OA
ATOM      5  C   UNL     1     151.865 151.089 137.406  1.00  0.00     0.111 A 
ATOM      6  C   UNL     1     151.940 152.511 137.310  1.00  0.00     0.134 A 
ATOM      7  C   UNL     1     152.236 153.265 138.452  1.00  0.00     0.093 A 
ATOM      8  C   UNL     1     152.524 152.645 139.670  1.00  0.00     0.123 A 
ATOM      9  C   UNL     1     152.512 151.255 139.758  1.00  0.00     0.094 A 
ATOM     10  C   UNL     1     152.184 150.477 138.645  1.00  0.00     0.146 A 
ATOM     11  O   UNL     1     152.175 149.155 138.776  1.00  0.00    -0.452 OA
ENDROOT
BRANCH   1  12
ATOM     12  C   UNL     1     151.910 146.870 138.057  1.00  0.00     0.025 A 
ATOM     13  C   UNL     1     150.735 146.190 138.418  1.00  0.00     0.016 A 
ATOM     14  C   UNL     1     150.767 144.820 138.694  1.00  0.00     0.051 A 
ATOM     15  C   UNL     1     151.976 144.115 138.631  1.00  0.00     0.157 A 
ATOM     16  C   UNL     1     153.125 146.161 138.014  1.00  0.00     0.062 A 
ATOM     17  C   UNL     1     153.157 144.787 138.294  1.00  0.00     0.158 A 
BRANCH  15  18
ATOM     18  O   UNL     1     152.011 142.749 138.904  1.00  0.00    -0.504 OA
ATOM     19  H   UNL     1     151.659 142.374 139.777  1.00  0.00     0.293 HD
ENDBRANCH  15  18
BRANCH  17  20
ATOM     20  O   UNL     1     154.361 144.085 138.245  1.00  0.00    -0.504 OA
ATOM     21  H   UNL     1     154.496 143.227 138.766  1.00  0.00     0.293 HD
ENDBRANCH  17  20
ENDBRANCH   1  12
BRANCH   2  22
ATOM     22  O   UNL     1     151.031 147.981 135.530  1.00  0.00    -0.502 OA
ATOM     23  H   UNL     1     150.401 148.277 134.794  1.00  0.00     0.293 HD
ENDBRANCH   2  22
BRANCH   6  24
ATOM     24  O   UNL     1     151.760 153.224 136.121  1.00  0.00    -0.507 OA
ATOM     25  H   UNL     1     152.261 154.063 135.873  1.00  0.00     0.293 HD
ENDBRANCH   6  24
BRANCH   8  26
ATOM     26  O   UNL     1     152.833 153.402 140.798  1.00  0.00    -0.508 OA
ATOM     27  H   UNL     1     153.699 153.924 140.864  1.00  0.00     0.293 HD
ENDBRANCH   8  26
TORSDOF 6
ENDMDL
MODEL 6
REMARK VINA RESULT:    -5.068      5.245      7.688
REMARK INTER + INTRA:          -6.242
REMARK INTER:                  -5.928
REMARK INTRA:                  -0.314
REMARK UNBOUND:                -0.136
REMARK SMILES O=c1c(O)c(-c2ccc(O)c(O)c2)oc2cc(O)cc(O)c12
REMARK SMILES IDX 5 1 3 2 2 3 1 4 22 5 20 6 19 7 17 8 16 9 15 10 14 11 6 12
REMARK SMILES IDX 7 13 8 14 9 15 13 16 11 17 10 18 12 20 4 22 21 24 18 26
REMARK H PARENT 10 19 12 21 4 23 21 25 18 27
REMARK Flexibility Score: inf
ROOT
ATOM      1  C   UNL     1     143.639 147.291 137.771  1.00  0.00     0.180 A 
ATOM      2  C   UNL     1     143.957 146.779 136.502  1.00  0.00     0.208 A 
ATOM      3  C   UNL     1     143.927 145.389 136.301  1.00  0.00     0.238 A 
ATOM      4  O   UNL     1     144.266 144.934 135.178  1.00  0.00    -0.285 OA
ATOM      5  C   UNL     1     143.563 144.531 137.367  1.00  0.00     0.111 A 
ATOM      6  C   UNL     1     143.460 143.111 137.265  1.00  0.00     0.134 A 
ATOM      7  C   UNL     1     143.220 142.352 138.417  1.00  0.00     0.093 A 
ATOM      8  C   UNL     1     143.015 142.966 139.655  1.00  0.00     0.123 A 
ATOM      9  C   UNL     1     143.054 144.355 139.752  1.00  0.00     0.094 A 
ATOM     10  C   UNL     1     143.328 145.137 138.629  1.00  0.00     0.146 A 
ATOM     11  O   UNL     1     143.366 146.458 138.768  1.00  0.00    -0.452 OA
ENDROOT
BRANCH   1  12
ATOM     12  C   UNL     1     143.624 148.745 138.053  1.00  0.00     0.025 A 
ATOM     13  C   UNL     1     144.817 149.390 138.420  1.00  0.00     0.016 A 
ATOM     14  C   UNL     1     144.822 150.757 138.710  1.00  0.00     0.051 A 
ATOM     15  C   UNL     1     143.632 151.495 138.653  1.00  0.00     0.157 A 
ATOM     16  C   UNL     1     142.429 149.486 138.018  1.00  0.00     0.062 A 
ATOM     17  C   UNL     1     142.434 150.858 138.310  1.00  0.00     0.158 A 
BRANCH  15  18
ATOM     18  O   UNL     1     143.634 152.859 138.940  1.00  0.00    -0.504 OA
ATOM     19  H   UNL     1     144.287 153.260 139.603  1.00  0.00     0.293 HD
ENDBRANCH  15  18
BRANCH  17  20
ATOM     20  O   UNL     1     141.249 151.592 138.269  1.00  0.00    -0.504 OA
ATOM     21  H   UNL     1     140.758 151.758 137.398  1.00  0.00     0.293 HD
ENDBRANCH  17  20
ENDBRANCH   1  12
BRANCH   2  22
ATOM     22  O   UNL     1     144.335 147.643 135.470  1.00  0.00    -0.502 OA
ATOM     23  H   UNL     1     143.806 148.474 135.235  1.00  0.00     0.293 HD
ENDBRANCH   2  22
BRANCH   6  24
ATOM     24  O   UNL     1     143.558 142.406 136.062  1.00  0.00    -0.507 OA
ATOM     25  H   UNL     1     144.424 142.175 135.600  1.00  0.00     0.293 HD
ENDBRANCH   6  24
BRANCH   8  26
ATOM     26  O   UNL     1     142.761 142.204 140.793  1.00  0.00    -0.508 OA
ATOM     27  H   UNL     1     142.120 141.419 140.773  1.00  0.00     0.293 HD
ENDBRANCH   8  26
TORSDOF 6
ENDMDL
MODEL 7
REMARK VINA RESULT:    -5.066      3.699      5.967
REMARK INTER + INTRA:          -6.240
REMARK INTER:                  -5.917
REMARK INTRA:                  -0.323
REMARK UNBOUND:                -0.136
REMARK SMILES O=c1c(O)c(-c2ccc(O)c(O)c2)oc2cc(O)cc(O)c12
REMARK SMILES IDX 5 1 3 2 2 3 1 4 22 5 20 6 19 7 17 8 16 9 15 10 14 11 6 12
REMARK SMILES IDX 7 13 8 14 9 15 13 16 11 17 10 18 12 20 4 22 21 24 18 26
REMARK H PARENT 10 19 12 21 4 23 21 25 18 27
REMARK Flexibility Score: inf
ROOT
ATOM      1  C   UNL     1     143.775 148.987 138.536  1.00  0.00     0.180 A 
ATOM      2  C   UNL     1     142.741 149.939 138.537  1.00  0.00     0.208 A 
ATOM      3  C   UNL     1     143.071 151.302 138.603  1.00  0.00     0.238 A 
ATOM      4  O   UNL     1     142.139 152.147 138.659  1.00  0.00    -0.285 OA
ATOM      5  C   UNL     1     144.430 151.697 138.651  1.00  0.00     0.111 A 
ATOM      6  C   UNL     1     144.879 153.052 138.678  1.00  0.00     0.134 A 
ATOM      7  C   UNL     1     146.241 153.323 138.857  1.00  0.00     0.093 A 
ATOM      8  C   UNL     1     147.176 152.290 138.944  1.00  0.00     0.123 A 
ATOM      9  C   UNL     1     146.754 150.966 138.857  1.00  0.00     0.094 A 
ATOM     10  C   UNL     1     145.398 150.662 138.716  1.00  0.00     0.146 A 
ATOM     11  O   UNL     1     145.037 149.386 138.648  1.00  0.00    -0.452 OA
ENDROOT
BRANCH   1  12
ATOM     12  C   UNL     1     143.508 147.533 138.443  1.00  0.00     0.025 A 
ATOM     13  C   UNL     1     143.422 146.926 137.180  1.00  0.00     0.016 A 
ATOM     14  C   UNL     1     143.150 145.560 137.069  1.00  0.00     0.051 A 
ATOM     15  C   UNL     1     142.945 144.785 138.218  1.00  0.00     0.157 A 
ATOM     16  C   UNL     1     143.281 146.755 139.593  1.00  0.00     0.062 A 
ATOM     17  C   UNL     1     143.007 145.384 139.481  1.00  0.00     0.158 A 
BRANCH  15  18
ATOM     18  O   UNL     1     142.676 143.421 138.111  1.00  0.00    -0.504 OA
ATOM     19  H   UNL     1     141.825 143.019 138.484  1.00  0.00     0.293 HD
ENDBRANCH  15  18
BRANCH  17  20
ATOM     20  O   UNL     1     142.789 144.613 140.623  1.00  0.00    -0.504 OA
ATOM     21  H   UNL     1     142.336 144.998 141.444  1.00  0.00     0.293 HD
ENDBRANCH  17  20
ENDBRANCH   1  12
BRANCH   2  22
ATOM     22  O   UNL     1     141.406 149.526 138.512  1.00  0.00    -0.502 OA
ATOM     23  H   UNL     1     140.757 149.828 137.795  1.00  0.00     0.293 HD
ENDBRANCH   2  22
BRANCH   6  24
ATOM     24  O   UNL     1     144.039 154.156 138.509  1.00  0.00    -0.507 OA
ATOM     25  H   UNL     1     143.285 154.405 139.130  1.00  0.00     0.293 HD
ENDBRANCH   6  24
BRANCH   8  26
ATOM     26  O   UNL     1     148.532 152.569 139.106  1.00  0.00    -0.508 OA
ATOM     27  H   UNL     1     148.853 153.274 139.759  1.00  0.00     0.293 HD
ENDBRANCH   8  26
TORSDOF 6
ENDMDL
MODEL 8
REMARK VINA RESULT:    -5.063      6.233      9.944
REMARK INTER + INTRA:          -6.235
REMARK INTER:                  -5.914
REMARK INTRA:                  -0.321
REMARK UNBOUND:                -0.136
REMARK SMILES O=c1c(O)c(-c2ccc(O)c(O)c2)oc2cc(O)cc(O)c12
REMARK SMILES IDX 5 1 3 2 2 3 1 4 22 5 20 6 19 7 17 8 16 9 15 10 14 11 6 12
REMARK SMILES IDX 7 13 8 14 9 15 13 16 11 17 10 18 12 20 4 22 21 24 18 26
REMARK H PARENT 10 19 12 21 4 23 21 25 18 27
REMARK Flexibility Score: inf
ROOT
ATOM      1  C   UNL     1     146.655 143.805 138.526  1.00  0.00     0.180 A 
ATOM      2  C   UNL     1     145.703 142.771 138.497  1.00  0.00     0.208 A 
ATOM      3  C   UNL     1     144.338 143.100 138.531  1.00  0.00     0.238 A 
ATOM      4  O   UNL     1     143.493 142.168 138.560  1.00  0.00    -0.285 OA
ATOM      5  C   UNL     1     143.942 144.459 138.576  1.00  0.00     0.111 A 
ATOM      6  C   UNL     1     142.588 144.909 138.572  1.00  0.00     0.134 A 
ATOM      7  C   UNL     1     142.312 146.269 138.752  1.00  0.00     0.093 A 
ATOM      8  C   UNL     1     143.343 147.204 138.869  1.00  0.00     0.123 A 
ATOM      9  C   UNL     1     144.669 146.782 138.814  1.00  0.00     0.094 A 
ATOM     10  C   UNL     1     144.976 145.427 138.673  1.00  0.00     0.146 A 
ATOM     11  O   UNL     1     146.253 145.066 138.635  1.00  0.00    -0.452 OA
ENDROOT
BRANCH   1  12
ATOM     12  C   UNL     1     148.110 143.538 138.468  1.00  0.00     0.025 A 
ATOM     13  C   UNL     1     148.754 143.484 137.221  1.00  0.00     0.016 A 
ATOM     14  C   UNL     1     150.122 143.214 137.143  1.00  0.00     0.051 A 
ATOM     15  C   UNL     1     150.864 142.977 138.308  1.00  0.00     0.157 A 
ATOM     16  C   UNL     1     148.854 143.280 139.633  1.00  0.00     0.062 A 
ATOM     17  C   UNL     1     150.228 143.007 139.554  1.00  0.00     0.158 A 
BRANCH  15  18
ATOM     18  O   UNL     1     152.229 142.709 138.233  1.00  0.00    -0.504 OA
ATOM     19  H   UNL     1     152.774 142.502 139.061  1.00  0.00     0.293 HD
ENDBRANCH  15  18
BRANCH  17  20
ATOM     20  O   UNL     1     150.965 142.757 140.711  1.00  0.00    -0.504 OA
ATOM     21  H   UNL     1     150.986 141.839 141.139  1.00  0.00     0.293 HD
ENDBRANCH  17  20
ENDBRANCH   1  12
BRANCH   2  22
ATOM     22  O   UNL     1     146.116 141.436 138.475  1.00  0.00    -0.502 OA
ATOM     23  H   UNL     1     146.295 140.936 137.612  1.00  0.00     0.293 HD
ENDBRANCH   2  22
BRANCH   6  24
ATOM     24  O   UNL     1     141.488 144.070 138.370  1.00  0.00    -0.507 OA
ATOM     25  H   UNL     1     140.607 144.150 138.855  1.00  0.00     0.293 HD
ENDBRANCH   6  24
BRANCH   8  26
ATOM     26  O   UNL     1     143.060 148.559 139.032  1.00  0.00    -0.508 OA
ATOM     27  H   UNL     1     142.355 149.024 138.471  1.00  0.00     0.293 HD
ENDBRANCH   8  26
TORSDOF 6
ENDMDL
MODEL 9
REMARK VINA RESULT:    -5.038      6.372      8.833
REMARK INTER + INTRA:          -6.206
REMARK INTER:                  -5.888
REMARK INTRA:                  -0.318
REMARK UNBOUND:                -0.136
REMARK SMILES O=c1c(O)c(-c2ccc(O)c(O)c2)oc2cc(O)cc(O)c12
REMARK SMILES IDX 5 1 3 2 2 3 1 4 22 5 20 6 19 7 17 8 16 9 15 10 14 11 6 12
REMARK SMILES IDX 7 13 8 14 9 15 13 16 11 17 10 18 12 20 4 22 21 24 18 26
REMARK H PARENT 10 19 12 21 4 23 21 25 18 27
REMARK Flexibility Score: inf
ROOT
ATOM      1  C   UNL     1     151.715 146.655 138.492  1.00  0.00     0.180 A 
ATOM      2  C   UNL     1     152.743 145.698 138.510  1.00  0.00     0.208 A 
ATOM      3  C   UNL     1     152.406 144.336 138.584  1.00  0.00     0.238 A 
ATOM      4  O   UNL     1     153.333 143.487 138.655  1.00  0.00    -0.285 OA
ATOM      5  C   UNL     1     151.045 143.949 138.621  1.00  0.00     0.111 A 
ATOM      6  C   UNL     1     150.588 142.597 138.655  1.00  0.00     0.134 A 
ATOM      7  C   UNL     1     149.223 142.334 138.823  1.00  0.00     0.093 A 
ATOM      8  C   UNL     1     148.292 143.373 138.892  1.00  0.00     0.123 A 
ATOM      9  C   UNL     1     148.723 144.695 138.800  1.00  0.00     0.094 A 
ATOM     10  C   UNL     1     150.081 144.990 138.669  1.00  0.00     0.146 A 
ATOM     11  O   UNL     1     150.450 146.264 138.595  1.00  0.00    -0.452 OA
ENDROOT
BRANCH   1  12
ATOM     12  C   UNL     1     151.991 148.106 138.391  1.00  0.00     0.025 A 
ATOM     13  C   UNL     1     152.042 148.713 137.126  1.00  0.00     0.016 A 
ATOM     14  C   UNL     1     152.321 150.077 137.006  1.00  0.00     0.051 A 
ATOM     15  C   UNL     1     152.568 150.850 138.148  1.00  0.00     0.157 A 
ATOM     16  C   UNL     1     152.260 148.882 139.533  1.00  0.00     0.062 A 
ATOM     17  C   UNL     1     152.541 150.251 139.413  1.00  0.00     0.158 A 
BRANCH  15  18
ATOM     18  O   UNL     1     152.845 152.212 138.032  1.00  0.00    -0.504 OA
ATOM     19  H   UNL     1     152.245 152.911 138.453  1.00  0.00     0.293 HD
ENDBRANCH  15  18
BRANCH  17  20
ATOM     20  O   UNL     1     152.801 151.020 140.546  1.00  0.00    -0.504 OA
ATOM     21  H   UNL     1     152.333 151.905 140.707  1.00  0.00     0.293 HD
ENDBRANCH  17  20
ENDBRANCH   1  12
BRANCH   2  22
ATOM     22  O   UNL     1     154.081 146.103 138.495  1.00  0.00    -0.502 OA
ATOM     23  H   UNL     1     154.824 145.514 138.137  1.00  0.00     0.293 HD
ENDBRANCH   2  22
BRANCH   6  24
ATOM     24  O   UNL     1     151.424 141.487 138.502  1.00  0.00    -0.507 OA
ATOM     25  H   UNL     1     151.907 141.246 137.651  1.00  0.00     0.293 HD
ENDBRANCH   6  24
BRANCH   8  26
ATOM     26  O   UNL     1     146.934 143.103 139.043  1.00  0.00    -0.508 OA
ATOM     27  H   UNL     1     146.263 143.841 139.223  1.00  0.00     0.293 HD
ENDBRANCH   8  26
TORSDOF 6
ENDMDL
