MODEL 1
REMARK VINA RESULT:    -2.464      0.000      0.000
REMARK INTER + INTRA:          -4.756
REMARK INTER:                  -3.904
REMARK INTRA:                  -0.852
REMARK UNBOUND:                -0.852
REMARK SMILES CCCCCCCCCCCC(=O)[O-]
REMARK SMILES IDX 7 1 8 2 9 3 10 4 11 5 12 6 13 7 14 8 6 9 5 10 4 11 3 12 2 13
REMARK SMILES IDX 1 14
REMARK H PARENT
REMARK Flexibility Score: inf
ROOT
ATOM      1  C   UNL     1     -13.186  -4.376 -12.265  1.00  0.00     0.000 C 
ENDROOT
BRANCH   1   2
ATOM      2  C   UNL     1     -14.371  -3.416 -12.074  1.00  0.00     0.000 C 
BRANCH   2   3
ATOM      3  C   UNL     1     -15.155  -3.180 -13.374  1.00  0.00     0.000 C 
BRANCH   3   4
ATOM      4  C   UNL     1     -14.433  -3.739 -14.613  1.00  0.00     0.006 C 
BRANCH   4   5
ATOM      5  C   UNL     1     -14.039  -2.634 -15.600  1.00  0.00     0.053 C 
BRANCH   5   6
ATOM      6  C   UNL     1     -13.117  -1.633 -14.972  1.00  0.00     0.041 C 
ATOM      7  O   UNL     1     -12.005  -2.000 -14.508  1.00  0.00    -0.550 OA
ATOM      8  O   UNL     1     -13.470  -0.290 -14.934  1.00  0.00    -0.550 OA
ENDBRANCH   5   6
ENDBRANCH   4   5
ENDBRANCH   3   4
ENDBRANCH   2   3
ENDBRANCH   1   2
BRANCH   1   9
ATOM      9  C   UNL     1     -11.929  -3.843 -11.562  1.00  0.00     0.000 C 
BRANCH   9  10
ATOM     10  C   UNL     1     -12.265  -2.968 -10.335  1.00  0.00    -0.000 C 
BRANCH  10  11
ATOM     11  C   UNL     1     -12.031  -3.674  -8.985  1.00  0.00    -0.000 C 
BRANCH  11  12
ATOM     12  C   UNL     1     -11.888  -5.205  -9.065  1.00  0.00    -0.000 C 
BRANCH  12  13
ATOM     13  C   UNL     1     -13.219  -5.980  -9.028  1.00  0.00    -0.003 C 
ATOM     14  C   UNL     1     -14.436  -5.068  -8.891  1.00  0.00     0.004 C 
ENDBRANCH  12  13
ENDBRANCH  11  12
ENDBRANCH  10  11
ENDBRANCH   9  10
ENDBRANCH   1   9
TORSDOF 10
ENDMDL
MODEL 2
REMARK VINA RESULT:    -2.331      3.088      6.336
REMARK INTER + INTRA:          -4.546
REMARK INTER:                  -3.914
REMARK INTRA:                  -0.632
REMARK UNBOUND:                -0.852
REMARK SMILES CCCCCCCCCCCC(=O)[O-]
REMARK SMILES IDX 7 1 8 2 9 3 10 4 11 5 12 6 13 7 14 8 6 9 5 10 4 11 3 12 2 13
REMARK SMILES IDX 1 14
REMARK H PARENT
REMARK Flexibility Score: inf
ROOT
ATOM      1  C   UNL     1     -13.646  -4.267 -12.045  1.00  0.00     0.000 C 
ENDROOT
BRANCH   1   2
ATOM      2  C   UNL     1     -12.275  -3.661 -11.707  1.00  0.00     0.000 C 
BRANCH   2   3
ATOM      3  C   UNL     1     -12.270  -2.926 -10.359  1.00  0.00     0.000 C 
BRANCH   3   4
ATOM      4  C   UNL     1     -12.982  -3.719  -9.248  1.00  0.00     0.006 C 
BRANCH   4   5
ATOM      5  C   UNL     1     -12.225  -4.999  -8.876  1.00  0.00     0.053 C 
BRANCH   5   6
ATOM      6  C   UNL     1     -13.127  -6.196  -8.875  1.00  0.00     0.041 C 
ATOM      7  O   UNL     1     -14.376  -6.048  -8.902  1.00  0.00    -0.550 OA
ATOM      8  O   UNL     1     -12.584  -7.475  -8.882  1.00  0.00    -0.550 OA
ENDBRANCH   5   6
ENDBRANCH   4   5
ENDBRANCH   3   4
ENDBRANCH   2   3
ENDBRANCH   1   2
BRANCH   1   9
ATOM      9  C   UNL     1     -14.038  -3.964 -13.499  1.00  0.00     0.000 C 
BRANCH   9  10
ATOM     10  C   UNL     1     -14.968  -2.737 -13.615  1.00  0.00    -0.000 C 
BRANCH  10  11
ATOM     11  C   UNL     1     -14.296  -1.506 -14.255  1.00  0.00    -0.000 C 
BRANCH  11  12
ATOM     12  C   UNL     1     -13.023  -1.806 -15.068  1.00  0.00    -0.000 C 
BRANCH  12  13
ATOM     13  C   UNL     1     -13.248  -1.973 -16.582  1.00  0.00    -0.003 C 
ATOM     14  C   UNL     1     -14.210  -3.110 -16.920  1.00  0.00     0.004 C 
ENDBRANCH  12  13
ENDBRANCH  11  12
ENDBRANCH  10  11
ENDBRANCH   9  10
ENDBRANCH   1   9
TORSDOF 10
ENDMDL
MODEL 3
REMARK VINA RESULT:    -1.459     23.207     24.212
REMARK INTER + INTRA:          -3.164
REMARK INTER:                  -4.015
REMARK INTRA:                   0.851
REMARK UNBOUND:                -0.852
REMARK SMILES CCCCCCCCCCCC(=O)[O-]
REMARK SMILES IDX 7 1 8 2 9 3 10 4 11 5 12 6 13 7 14 8 6 9 5 10 4 11 3 12 2 13
REMARK SMILES IDX 1 14
REMARK H PARENT
REMARK Flexibility Score: inf
ROOT
ATOM      1  C   UNL     1     -31.120   1.716 -25.283  1.00  0.00     0.000 C 
ENDROOT
BRANCH   1   2
ATOM      2  C   UNL     1     -31.768   2.615 -24.220  1.00  0.00     0.000 C 
BRANCH   2   3
ATOM      3  C   UNL     1     -31.902   4.074 -24.681  1.00  0.00     0.000 C 
BRANCH   3   4
ATOM      4  C   UNL     1     -32.062   4.202 -26.206  1.00  0.00     0.006 C 
BRANCH   4   5
ATOM      5  C   UNL     1     -30.709   4.269 -26.925  1.00  0.00     0.053 C 
BRANCH   5   6
ATOM      6  C   UNL     1     -30.866   4.641 -28.368  1.00  0.00     0.041 C 
ATOM      7  O   UNL     1     -29.877   5.055 -29.027  1.00  0.00    -0.550 OA
ATOM      8  O   UNL     1     -32.098   4.493 -28.994  1.00  0.00    -0.550 OA
ENDBRANCH   5   6
ENDBRANCH   4   5
ENDBRANCH   3   4
ENDBRANCH   2   3
ENDBRANCH   1   2
BRANCH   1   9
ATOM      9  C   UNL     1     -32.125   1.360 -26.389  1.00  0.00     0.000 C 
BRANCH   9  10
ATOM     10  C   UNL     1     -31.794   0.017 -27.076  1.00  0.00    -0.000 C 
BRANCH  10  11
ATOM     11  C   UNL     1     -31.392  -1.101 -26.095  1.00  0.00    -0.000 C 
BRANCH  11  12
ATOM     12  C   UNL     1     -31.716  -2.530 -26.566  1.00  0.00    -0.000 C 
BRANCH  12  13
ATOM     13  C   UNL     1     -31.856  -2.691 -28.091  1.00  0.00    -0.003 C 
ATOM     14  C   UNL     1     -30.510  -2.762 -28.809  1.00  0.00     0.004 C 
ENDBRANCH  12  13
ENDBRANCH  11  12
ENDBRANCH  10  11
ENDBRANCH   9  10
ENDBRANCH   1   9
TORSDOF 10
ENDMDL
MODEL 4
REMARK VINA RESULT:    -1.387      3.127      6.003
REMARK INTER + INTRA:          -3.050
REMARK INTER:                  -3.202
REMARK INTRA:                   0.153
REMARK UNBOUND:                -0.852
REMARK SMILES CCCCCCCCCCCC(=O)[O-]
REMARK SMILES IDX 7 1 8 2 9 3 10 4 11 5 12 6 13 7 14 8 6 9 5 10 4 11 3 12 2 13
REMARK SMILES IDX 1 14
REMARK H PARENT
REMARK Flexibility Score: inf
ROOT
ATOM      1  C   UNL     1     -12.200  -2.498 -11.425  1.00  0.00     0.000 C 
ENDROOT
BRANCH   1   2
ATOM      2  C   UNL     1     -11.876  -1.981 -10.015  1.00  0.00     0.000 C 
BRANCH   2   3
ATOM      3  C   UNL     1     -12.792  -2.585  -8.940  1.00  0.00     0.000 C 
BRANCH   3   4
ATOM      4  C   UNL     1     -12.769  -4.124  -8.937  1.00  0.00     0.006 C 
BRANCH   4   5
ATOM      5  C   UNL     1     -14.180  -4.724  -8.899  1.00  0.00     0.053 C 
BRANCH   5   6
ATOM      6  C   UNL     1     -14.150  -6.218  -8.999  1.00  0.00     0.041 C 
ATOM      7  O   UNL     1     -15.212  -6.883  -8.875  1.00  0.00    -0.550 OA
ATOM      8  O   UNL     1     -12.955  -6.874  -9.264  1.00  0.00    -0.550 OA
ENDBRANCH   5   6
ENDBRANCH   4   5
ENDBRANCH   3   4
ENDBRANCH   2   3
ENDBRANCH   1   2
BRANCH   1   9
ATOM      9  C   UNL     1     -12.055  -4.026 -11.498  1.00  0.00     0.000 C 
BRANCH   9  10
ATOM     10  C   UNL     1     -13.008  -4.660 -12.533  1.00  0.00    -0.000 C 
BRANCH  10  11
ATOM     11  C   UNL     1     -13.952  -3.648 -13.211  1.00  0.00    -0.000 C 
BRANCH  11  12
ATOM     12  C   UNL     1     -13.953  -3.686 -14.750  1.00  0.00    -0.000 C 
BRANCH  12  13
ATOM     13  C   UNL     1     -14.023  -2.306 -15.431  1.00  0.00    -0.003 C 
ATOM     14  C   UNL     1     -12.886  -1.377 -15.011  1.00  0.00     0.004 C 
ENDBRANCH  12  13
ENDBRANCH  11  12
ENDBRANCH  10  11
ENDBRANCH   9  10
ENDBRANCH   1   9
TORSDOF 10
ENDMDL
MODEL 5
REMARK VINA RESULT:    -1.281      1.308      2.429
REMARK INTER + INTRA:          -2.882
REMARK INTER:                  -2.589
REMARK INTRA:                  -0.294
REMARK UNBOUND:                -0.852
REMARK SMILES CCCCCCCCCCCC(=O)[O-]
REMARK SMILES IDX 7 1 8 2 9 3 10 4 11 5 12 6 13 7 14 8 6 9 5 10 4 11 3 12 2 13
REMARK SMILES IDX 1 14
REMARK H PARENT
REMARK Flexibility Score: inf
ROOT
ATOM      1  C   UNL     1     -13.682  -3.840 -12.426  1.00  0.00     0.000 C 
ENDROOT
BRANCH   1   2
ATOM      2  C   UNL     1     -14.038  -4.381 -13.820  1.00  0.00     0.000 C 
BRANCH   2   3
ATOM      3  C   UNL     1     -14.694  -3.319 -14.716  1.00  0.00     0.000 C 
BRANCH   3   4
ATOM      4  C   UNL     1     -14.122  -3.313 -16.144  1.00  0.00     0.006 C 
BRANCH   4   5
ATOM      5  C   UNL     1     -13.406  -1.997 -16.474  1.00  0.00     0.053 C 
BRANCH   5   6
ATOM      6  C   UNL     1     -12.966  -1.279 -15.235  1.00  0.00     0.041 C 
ATOM      7  O   UNL     1     -13.497  -0.184 -14.915  1.00  0.00    -0.550 OA
ATOM      8  O   UNL     1     -11.995  -1.840 -14.415  1.00  0.00    -0.550 OA
ENDBRANCH   5   6
ENDBRANCH   4   5
ENDBRANCH   3   4
ENDBRANCH   2   3
ENDBRANCH   1   2
BRANCH   1   9
ATOM      9  C   UNL     1     -12.393  -4.487 -11.899  1.00  0.00     0.000 C 
BRANCH   9  10
ATOM     10  C   UNL     1     -12.294  -4.433 -10.359  1.00  0.00    -0.000 C 
BRANCH  10  11
ATOM     11  C   UNL     1     -13.541  -3.837  -9.676  1.00  0.00    -0.000 C 
BRANCH  11  12
ATOM     12  C   UNL     1     -13.291  -2.546  -8.875  1.00  0.00    -0.000 C 
BRANCH  12  13
ATOM     13  C   UNL     1     -11.887  -1.939  -9.049  1.00  0.00    -0.003 C 
ATOM     14  C   UNL     1     -11.901  -0.414  -9.117  1.00  0.00     0.004 C 
ENDBRANCH  12  13
ENDBRANCH  11  12
ENDBRANCH  10  11
ENDBRANCH   9  10
ENDBRANCH   1   9
TORSDOF 10
ENDMDL
MODEL 6
REMARK VINA RESULT:    -1.171     22.356     24.219
REMARK INTER + INTRA:          -2.707
REMARK INTER:                  -2.010
REMARK INTRA:                  -0.698
REMARK UNBOUND:                -0.852
REMARK SMILES CCCCCCCCCCCC(=O)[O-]
REMARK SMILES IDX 7 1 8 2 9 3 10 4 11 5 12 6 13 7 14 8 6 9 5 10 4 11 3 12 2 13
REMARK SMILES IDX 1 14
REMARK H PARENT
REMARK Flexibility Score: inf
ROOT
ATOM      1  C   UNL     1     -30.102   2.025 -25.393  1.00  0.00     0.000 C 
ENDROOT
BRANCH   1   2
ATOM      2  C   UNL     1     -31.183   1.178 -24.704  1.00  0.00     0.000 C 
BRANCH   2   3
ATOM      3  C   UNL     1     -31.063  -0.317 -25.035  1.00  0.00     0.000 C 
BRANCH   3   4
ATOM      4  C   UNL     1     -31.567  -0.653 -26.450  1.00  0.00     0.006 C 
BRANCH   4   5
ATOM      5  C   UNL     1     -31.716  -2.164 -26.666  1.00  0.00     0.053 C 
BRANCH   5   6
ATOM      6  C   UNL     1     -30.750  -2.676 -27.690  1.00  0.00     0.041 C 
ATOM      7  O   UNL     1     -29.521  -2.424 -27.583  1.00  0.00    -0.550 OA
ATOM      8  O   UNL     1     -31.202  -3.462 -28.742  1.00  0.00    -0.550 OA
ENDBRANCH   5   6
ENDBRANCH   4   5
ENDBRANCH   3   4
ENDBRANCH   2   3
ENDBRANCH   1   2
BRANCH   1   9
ATOM      9  C   UNL     1     -30.467   3.517 -25.358  1.00  0.00     0.000 C 
BRANCH   9  10
ATOM     10  C   UNL     1     -31.852   3.800 -25.979  1.00  0.00    -0.000 C 
BRANCH  10  11
ATOM     11  C   UNL     1     -31.894   5.069 -26.852  1.00  0.00    -0.000 C 
BRANCH  11  12
ATOM     12  C   UNL     1     -31.979   4.816 -28.368  1.00  0.00    -0.000 C 
BRANCH  12  13
ATOM     13  C   UNL     1     -31.115   3.647 -28.878  1.00  0.00    -0.003 C 
ATOM     14  C   UNL     1     -31.919   2.372 -29.120  1.00  0.00     0.004 C 
ENDBRANCH  12  13
ENDBRANCH  11  12
ENDBRANCH  10  11
ENDBRANCH   9  10
ENDBRANCH   1   9
TORSDOF 10
ENDMDL
MODEL 7
REMARK VINA RESULT:    -0.366      2.554      5.821
REMARK INTER + INTRA:          -1.432
REMARK INTER:                  -1.031
REMARK INTRA:                  -0.401
REMARK UNBOUND:                -0.852
REMARK SMILES CCCCCCCCCCCC(=O)[O-]
REMARK SMILES IDX 7 1 8 2 9 3 10 4 11 5 12 6 13 7 14 8 6 9 5 10 4 11 3 12 2 13
REMARK SMILES IDX 1 14
REMARK H PARENT
REMARK Flexibility Score: inf
ROOT
ATOM      1  C   UNL     1     -13.633  -3.066 -12.890  1.00  0.00     0.000 C 
ENDROOT
BRANCH   1   2
ATOM      2  C   UNL     1     -13.294  -4.321 -12.071  1.00  0.00     0.000 C 
BRANCH   2   3
ATOM      3  C   UNL     1     -11.948  -4.204 -11.340  1.00  0.00     0.000 C 
BRANCH   3   4
ATOM      4  C   UNL     1     -12.017  -4.702  -9.886  1.00  0.00     0.006 C 
BRANCH   4   5
ATOM      5  C   UNL     1     -11.883  -3.556  -8.875  1.00  0.00     0.053 C 
BRANCH   5   6
ATOM      6  C   UNL     1     -13.029  -2.597  -8.970  1.00  0.00     0.041 C 
ATOM      7  O   UNL     1     -14.211  -3.026  -9.043  1.00  0.00    -0.550 OA
ATOM      8  O   UNL     1     -12.795  -1.228  -8.940  1.00  0.00    -0.550 OA
ENDBRANCH   5   6
ENDBRANCH   4   5
ENDBRANCH   3   4
ENDBRANCH   2   3
ENDBRANCH   1   2
BRANCH   1   9
ATOM      9  C   UNL     1     -12.370  -2.243 -13.181  1.00  0.00     0.000 C 
BRANCH   9  10
ATOM     10  C   UNL     1     -12.293  -1.782 -14.653  1.00  0.00    -0.000 C 
BRANCH  10  11
ATOM     11  C   UNL     1     -13.671  -1.577 -15.313  1.00  0.00    -0.000 C 
BRANCH  11  12
ATOM     12  C   UNL     1     -13.760  -2.012 -16.787  1.00  0.00    -0.000 C 
BRANCH  12  13
ATOM     13  C   UNL     1     -14.307  -3.435 -17.008  1.00  0.00    -0.003 C 
ATOM     14  C   UNL     1     -14.281  -4.288 -15.742  1.00  0.00     0.004 C 
ENDBRANCH  12  13
ENDBRANCH  11  12
ENDBRANCH  10  11
ENDBRANCH   9  10
ENDBRANCH   1   9
TORSDOF 10
ENDMDL
