MODEL 1
REMARK VINA RESULT:    -4.966      0.000      0.000
REMARK INTER + INTRA:          -5.445
REMARK INTER:                  -5.401
REMARK INTRA:                  -0.044
REMARK UNBOUND:                -0.044
REMARK SMILES COc1cc2ccc(=O)oc2cc1O
REMARK SMILES IDX 3 1 13 2 12 3 11 4 5 5 4 6 6 7 7 8 8 9 9 10 10 11 2 12 1 13
REMARK SMILES IDX 14 14
REMARK H PARENT 14 15
REMARK Flexibility Score: inf
ROOT
ATOM      1  C   UNL     1      24.503 -52.215 149.362  1.00  0.00     0.161 A 
ATOM      2  C   UNL     1      25.500 -51.861 148.432  1.00  0.00     0.161 A 
ATOM      3  C   UNL     1      26.749 -51.410 148.875  1.00  0.00     0.098 A 
ATOM      4  C   UNL     1      27.021 -51.306 150.241  1.00  0.00     0.142 A 
ATOM      5  C   UNL     1      26.028 -51.657 151.181  1.00  0.00     0.022 A 
ATOM      6  C   UNL     1      24.777 -52.109 150.742  1.00  0.00     0.062 A 
ATOM      7  C   UNL     1      26.329 -51.542 152.542  1.00  0.00     0.019 A 
ATOM      8  C   UNL     1      27.590 -51.087 152.928  1.00  0.00     0.094 A 
ATOM      9  C   UNL     1      28.523 -50.757 151.940  1.00  0.00     0.336 A 
ATOM     10  O   UNL     1      29.667 -50.345 152.268  1.00  0.00    -0.246 OA
ATOM     11  O   UNL     1      28.211 -50.876 150.653  1.00  0.00    -0.423 OA
ENDROOT
BRANCH   1  12
ATOM     12  O   UNL     1      23.261 -52.662 148.884  1.00  0.00    -0.493 OA
ATOM     13  C   UNL     1      22.249 -53.255 149.693  1.00  0.00     0.278 C 
ENDBRANCH   1  12
BRANCH   2  14
ATOM     14  O   UNL     1      25.268 -51.951 147.060  1.00  0.00    -0.504 OA
ATOM     15  H   UNL     1      24.524 -52.520 146.674  1.00  0.00     0.293 HD
ENDBRANCH   2  14
TORSDOF 2
ENDMDL
MODEL 2
REMARK VINA RESULT:    -4.954     17.326     18.004
REMARK INTER + INTRA:          -5.432
REMARK INTER:                  -5.386
REMARK INTRA:                  -0.046
REMARK UNBOUND:                -0.044
REMARK SMILES COc1cc2ccc(=O)oc2cc1O
REMARK SMILES IDX 3 1 13 2 12 3 11 4 5 5 4 6 6 7 7 8 8 9 9 10 10 11 2 12 1 13
REMARK SMILES IDX 14 14
REMARK H PARENT 14 15
REMARK Flexibility Score: inf
ROOT
ATOM      1  C   UNL     1      18.931 -36.096 149.493  1.00  0.00     0.161 A 
ATOM      2  C   UNL     1      18.022 -36.171 148.418  1.00  0.00     0.161 A 
ATOM      3  C   UNL     1      16.701 -36.576 148.639  1.00  0.00     0.098 A 
ATOM      4  C   UNL     1      16.268 -36.909 149.924  1.00  0.00     0.142 A 
ATOM      5  C   UNL     1      17.170 -36.838 151.007  1.00  0.00     0.022 A 
ATOM      6  C   UNL     1      18.494 -36.433 150.790  1.00  0.00     0.062 A 
ATOM      7  C   UNL     1      16.708 -37.178 152.282  1.00  0.00     0.019 A 
ATOM      8  C   UNL     1      15.381 -37.575 152.446  1.00  0.00     0.094 A 
ATOM      9  C   UNL     1      14.544 -37.622 151.326  1.00  0.00     0.336 A 
ATOM     10  O   UNL     1      13.343 -37.977 151.453  1.00  0.00    -0.246 OA
ATOM     11  O   UNL     1      15.010 -37.293 150.125  1.00  0.00    -0.423 OA
ENDROOT
BRANCH   1  12
ATOM     12  O   UNL     1      20.249 -35.687 149.236  1.00  0.00    -0.493 OA
ATOM     13  C   UNL     1      21.068 -34.973 150.157  1.00  0.00     0.278 C 
ENDBRANCH   1  12
BRANCH   2  14
ATOM     14  O   UNL     1      18.416 -35.846 147.120  1.00  0.00    -0.504 OA
ATOM     15  H   UNL     1      19.370 -35.962 146.799  1.00  0.00     0.293 HD
ENDBRANCH   2  14
TORSDOF 2
ENDMDL
MODEL 3
REMARK VINA RESULT:    -4.806     17.472     17.848
REMARK INTER + INTRA:          -5.271
REMARK INTER:                  -5.211
REMARK INTRA:                  -0.061
REMARK UNBOUND:                -0.044
REMARK SMILES COc1cc2ccc(=O)oc2cc1O
REMARK SMILES IDX 3 1 13 2 12 3 11 4 5 5 4 6 6 7 7 8 8 9 9 10 10 11 2 12 1 13
REMARK SMILES IDX 14 14
REMARK H PARENT 14 15
REMARK Flexibility Score: inf
ROOT
ATOM      1  C   UNL     1      15.642 -36.884 150.875  1.00  0.00     0.161 A 
ATOM      2  C   UNL     1      16.663 -36.933 151.845  1.00  0.00     0.161 A 
ATOM      3  C   UNL     1      17.975 -36.585 151.504  1.00  0.00     0.098 A 
ATOM      4  C   UNL     1      18.287 -36.186 150.202  1.00  0.00     0.142 A 
ATOM      5  C   UNL     1      17.271 -36.135 149.224  1.00  0.00     0.022 A 
ATOM      6  C   UNL     1      15.956 -36.482 149.561  1.00  0.00     0.062 A 
ATOM      7  C   UNL     1      17.613 -35.732 147.929  1.00  0.00     0.019 A 
ATOM      8  C   UNL     1      18.937 -35.397 147.644  1.00  0.00     0.094 A 
ATOM      9  C   UNL     1      19.890 -35.472 148.665  1.00  0.00     0.336 A 
ATOM     10  O   UNL     1      21.089 -35.173 148.427  1.00  0.00    -0.246 OA
ATOM     11  O   UNL     1      19.537 -35.858 149.887  1.00  0.00    -0.423 OA
ENDROOT
BRANCH   1  12
ATOM     12  O   UNL     1      14.337 -37.240 151.250  1.00  0.00    -0.493 OA
ATOM     13  C   UNL     1      13.782 -38.544 151.109  1.00  0.00     0.278 C 
ENDBRANCH   1  12
BRANCH   2  14
ATOM     14  O   UNL     1      16.392 -37.325 153.155  1.00  0.00    -0.504 OA
ATOM     15  H   UNL     1      15.596 -37.904 153.393  1.00  0.00     0.293 HD
ENDBRANCH   2  14
TORSDOF 2
ENDMDL
MODEL 4
REMARK VINA RESULT:    -4.740      1.383      5.391
REMARK INTER + INTRA:          -5.199
REMARK INTER:                  -5.134
REMARK INTRA:                  -0.065
REMARK UNBOUND:                -0.044
REMARK SMILES COc1cc2ccc(=O)oc2cc1O
REMARK SMILES IDX 3 1 13 2 12 3 11 4 5 5 4 6 6 7 7 8 8 9 9 10 10 11 2 12 1 13
REMARK SMILES IDX 14 14
REMARK H PARENT 14 15
REMARK Flexibility Score: inf
ROOT
ATOM      1  C   UNL     1      27.750 -51.477 151.276  1.00  0.00     0.161 A 
ATOM      2  C   UNL     1      26.815 -51.809 152.276  1.00  0.00     0.161 A 
ATOM      3  C   UNL     1      25.516 -52.194 151.925  1.00  0.00     0.098 A 
ATOM      4  C   UNL     1      25.133 -52.253 150.583  1.00  0.00     0.142 A 
ATOM      5  C   UNL     1      26.062 -51.921 149.575  1.00  0.00     0.022 A 
ATOM      6  C   UNL     1      27.363 -51.535 149.921  1.00  0.00     0.062 A 
ATOM      7  C   UNL     1      25.649 -51.989 148.240  1.00  0.00     0.019 A 
ATOM      8  C   UNL     1      24.343 -52.379 147.946  1.00  0.00     0.094 A 
ATOM      9  C   UNL     1      23.477 -52.693 148.999  1.00  0.00     0.336 A 
ATOM     10  O   UNL     1      22.294 -53.048 148.754  1.00  0.00    -0.246 OA
ATOM     11  O   UNL     1      23.895 -52.620 150.259  1.00  0.00    -0.423 OA
ENDROOT
BRANCH   1  12
ATOM     12  O   UNL     1      29.044 -51.094 151.663  1.00  0.00    -0.493 OA
ATOM     13  C   UNL     1      29.485 -49.745 151.791  1.00  0.00     0.278 C 
ENDBRANCH   1  12
BRANCH   2  14
ATOM     14  O   UNL     1      27.158 -51.763 153.626  1.00  0.00    -0.504 OA
ATOM     15  H   UNL     1      27.167 -50.898 154.153  1.00  0.00     0.293 HD
ENDBRANCH   2  14
TORSDOF 2
ENDMDL
MODEL 5
REMARK VINA RESULT:    -4.556      1.622      2.730
REMARK INTER + INTRA:          -4.999
REMARK INTER:                  -4.937
REMARK INTRA:                  -0.062
REMARK UNBOUND:                -0.044
REMARK SMILES COc1cc2ccc(=O)oc2cc1O
REMARK SMILES IDX 3 1 13 2 12 3 11 4 5 5 4 6 6 7 7 8 8 9 9 10 10 11 2 12 1 13
REMARK SMILES IDX 14 14
REMARK H PARENT 14 15
REMARK Flexibility Score: inf
ROOT
ATOM      1  C   UNL     1      25.526 -51.886 148.034  1.00  0.00     0.161 A 
ATOM      2  C   UNL     1      24.371 -52.220 148.769  1.00  0.00     0.161 A 
ATOM      3  C   UNL     1      24.393 -52.190 150.168  1.00  0.00     0.098 A 
ATOM      4  C   UNL     1      25.556 -51.828 150.850  1.00  0.00     0.142 A 
ATOM      5  C   UNL     1      26.718 -51.491 150.124  1.00  0.00     0.022 A 
ATOM      6  C   UNL     1      26.701 -51.521 148.723  1.00  0.00     0.062 A 
ATOM      7  C   UNL     1      27.868 -51.133 150.835  1.00  0.00     0.019 A 
ATOM      8  C   UNL     1      27.834 -51.119 152.229  1.00  0.00     0.094 A 
ATOM      9  C   UNL     1      26.646 -51.465 152.882  1.00  0.00     0.336 A 
ATOM     10  O   UNL     1      26.595 -51.459 154.139  1.00  0.00    -0.246 OA
ATOM     11  O   UNL     1      25.567 -51.802 152.181  1.00  0.00    -0.423 OA
ENDROOT
BRANCH   1  12
ATOM     12  O   UNL     1      25.471 -51.927 146.632  1.00  0.00    -0.493 OA
ATOM     13  C   UNL     1      25.863 -53.044 145.840  1.00  0.00     0.278 C 
ENDBRANCH   1  12
BRANCH   2  14
ATOM     14  O   UNL     1      23.190 -52.587 148.124  1.00  0.00    -0.504 OA
ATOM     15  H   UNL     1      22.950 -53.555 147.945  1.00  0.00     0.293 HD
ENDBRANCH   2  14
TORSDOF 2
ENDMDL
MODEL 6
REMARK VINA RESULT:    -4.510      2.147      4.421
REMARK INTER + INTRA:          -4.949
REMARK INTER:                  -4.905
REMARK INTRA:                  -0.044
REMARK UNBOUND:                -0.044
REMARK SMILES COc1cc2ccc(=O)oc2cc1O
REMARK SMILES IDX 3 1 13 2 12 3 11 4 5 5 4 6 6 7 7 8 8 9 9 10 10 11 2 12 1 13
REMARK SMILES IDX 14 14
REMARK H PARENT 14 15
REMARK Flexibility Score: inf
ROOT
ATOM      1  C   UNL     1      25.399 -52.493 152.470  1.00  0.00     0.161 A 
ATOM      2  C   UNL     1      26.178 -51.321 152.403  1.00  0.00     0.161 A 
ATOM      3  C   UNL     1      26.371 -50.672 151.178  1.00  0.00     0.098 A 
ATOM      4  C   UNL     1      25.796 -51.178 150.011  1.00  0.00     0.142 A 
ATOM      5  C   UNL     1      25.015 -52.352 150.067  1.00  0.00     0.022 A 
ATOM      6  C   UNL     1      24.819 -53.005 151.291  1.00  0.00     0.062 A 
ATOM      7  C   UNL     1      24.452 -52.835 148.881  1.00  0.00     0.019 A 
ATOM      8  C   UNL     1      24.676 -52.150 147.688  1.00  0.00     0.094 A 
ATOM      9  C   UNL     1      25.462 -50.992 147.709  1.00  0.00     0.336 A 
ATOM     10  O   UNL     1      25.676 -50.359 146.642  1.00  0.00    -0.246 OA
ATOM     11  O   UNL     1      25.985 -50.555 148.850  1.00  0.00    -0.423 OA
ENDROOT
BRANCH   1  12
ATOM     12  O   UNL     1      25.226 -53.119 153.715  1.00  0.00    -0.493 OA
ATOM     13  C   UNL     1      24.252 -54.122 153.987  1.00  0.00     0.278 C 
ENDBRANCH   1  12
BRANCH   2  14
ATOM     14  O   UNL     1      26.769 -50.784 153.547  1.00  0.00    -0.504 OA
ATOM     15  H   UNL     1      26.860 -49.785 153.690  1.00  0.00     0.293 HD
ENDBRANCH   2  14
TORSDOF 2
ENDMDL
MODEL 7
REMARK VINA RESULT:    -4.496     17.735     17.970
REMARK INTER + INTRA:          -4.933
REMARK INTER:                  -4.906
REMARK INTRA:                  -0.027
REMARK UNBOUND:                -0.044
REMARK SMILES COc1cc2ccc(=O)oc2cc1O
REMARK SMILES IDX 3 1 13 2 12 3 11 4 5 5 4 6 6 7 7 8 8 9 9 10 10 11 2 12 1 13
REMARK SMILES IDX 14 14
REMARK H PARENT 14 15
REMARK Flexibility Score: inf
ROOT
ATOM      1  C   UNL     1      16.508 -36.916 150.734  1.00  0.00     0.161 A 
ATOM      2  C   UNL     1      16.077 -36.497 149.460  1.00  0.00     0.161 A 
ATOM      3  C   UNL     1      16.945 -35.793 148.618  1.00  0.00     0.098 A 
ATOM      4  C   UNL     1      18.247 -35.498 149.031  1.00  0.00     0.142 A 
ATOM      5  C   UNL     1      18.688 -35.913 150.305  1.00  0.00     0.022 A 
ATOM      6  C   UNL     1      17.822 -36.617 151.151  1.00  0.00     0.062 A 
ATOM      7  C   UNL     1      19.996 -35.603 150.690  1.00  0.00     0.019 A 
ATOM      8  C   UNL     1      20.820 -34.899 149.812  1.00  0.00     0.094 A 
ATOM      9  C   UNL     1      20.313 -34.520 148.564  1.00  0.00     0.336 A 
ATOM     10  O   UNL     1      21.041 -33.884 147.758  1.00  0.00    -0.246 OA
ATOM     11  O   UNL     1      19.066 -34.828 148.223  1.00  0.00    -0.423 OA
ENDROOT
BRANCH   1  12
ATOM     12  O   UNL     1      15.611 -37.619 151.553  1.00  0.00    -0.493 OA
ATOM     13  C   UNL     1      14.642 -37.010 152.402  1.00  0.00     0.278 C 
ENDBRANCH   1  12
BRANCH   2  14
ATOM     14  O   UNL     1      14.785 -36.772 149.011  1.00  0.00    -0.504 OA
ATOM     15  H   UNL     1      14.606 -37.229 148.124  1.00  0.00     0.293 HD
ENDBRANCH   2  14
TORSDOF 2
ENDMDL
MODEL 8
REMARK VINA RESULT:    -4.372     17.586     18.339
REMARK INTER + INTRA:          -4.799
REMARK INTER:                  -4.734
REMARK INTRA:                  -0.065
REMARK UNBOUND:                -0.044
REMARK SMILES COc1cc2ccc(=O)oc2cc1O
REMARK SMILES IDX 3 1 13 2 12 3 11 4 5 5 4 6 6 7 7 8 8 9 9 10 10 11 2 12 1 13
REMARK SMILES IDX 14 14
REMARK H PARENT 14 15
REMARK Flexibility Score: inf
ROOT
ATOM      1  C   UNL     1      19.305 -35.644 149.344  1.00  0.00     0.161 A 
ATOM      2  C   UNL     1      19.331 -35.657 150.753  1.00  0.00     0.161 A 
ATOM      3  C   UNL     1      18.207 -36.074 151.475  1.00  0.00     0.098 A 
ATOM      4  C   UNL     1      17.049 -36.482 150.809  1.00  0.00     0.142 A 
ATOM      5  C   UNL     1      17.012 -36.472 149.399  1.00  0.00     0.022 A 
ATOM      6  C   UNL     1      18.135 -36.055 148.672  1.00  0.00     0.062 A 
ATOM      7  C   UNL     1      15.838 -36.885 148.760  1.00  0.00     0.019 A 
ATOM      8  C   UNL     1      14.748 -37.291 149.528  1.00  0.00     0.094 A 
ATOM      9  C   UNL     1      14.857 -37.274 150.923  1.00  0.00     0.336 A 
ATOM     10  O   UNL     1      13.884 -37.638 151.634  1.00  0.00    -0.246 OA
ATOM     11  O   UNL     1      15.985 -36.877 151.504  1.00  0.00    -0.423 OA
ENDROOT
BRANCH   1  12
ATOM     12  O   UNL     1      20.449 -35.219 148.650  1.00  0.00    -0.493 OA
ATOM     13  C   UNL     1      20.624 -33.917 148.099  1.00  0.00     0.278 C 
ENDBRANCH   1  12
BRANCH   2  14
ATOM     14  O   UNL     1      20.469 -35.258 151.454  1.00  0.00    -0.504 OA
ATOM     15  H   UNL     1      21.392 -35.612 151.233  1.00  0.00     0.293 HD
ENDBRANCH   2  14
TORSDOF 2
ENDMDL
MODEL 9
REMARK VINA RESULT:    -4.363     17.523     17.996
REMARK INTER + INTRA:          -4.789
REMARK INTER:                  -4.742
REMARK INTRA:                  -0.047
REMARK UNBOUND:                -0.044
REMARK SMILES COc1cc2ccc(=O)oc2cc1O
REMARK SMILES IDX 3 1 13 2 12 3 11 4 5 5 4 6 6 7 7 8 8 9 9 10 10 11 2 12 1 13
REMARK SMILES IDX 14 14
REMARK H PARENT 14 15
REMARK Flexibility Score: inf
ROOT
ATOM      1  C   UNL     1      18.394 -35.753 147.847  1.00  0.00     0.161 A 
ATOM      2  C   UNL     1      19.405 -35.795 148.829  1.00  0.00     0.161 A 
ATOM      3  C   UNL     1      19.097 -36.170 150.141  1.00  0.00     0.098 A 
ATOM      4  C   UNL     1      17.788 -36.508 150.493  1.00  0.00     0.142 A 
ATOM      5  C   UNL     1      16.769 -36.468 149.518  1.00  0.00     0.022 A 
ATOM      6  C   UNL     1      17.072 -36.092 148.203  1.00  0.00     0.062 A 
ATOM      7  C   UNL     1      15.468 -36.811 149.900  1.00  0.00     0.019 A 
ATOM      8  C   UNL     1      15.217 -37.178 151.222  1.00  0.00     0.094 A 
ATOM      9  C   UNL     1      16.278 -37.194 152.134  1.00  0.00     0.336 A 
ATOM     10  O   UNL     1      16.072 -37.523 153.331  1.00  0.00    -0.246 OA
ATOM     11  O   UNL     1      17.505 -36.864 151.744  1.00  0.00    -0.423 OA
ENDROOT
BRANCH   1  12
ATOM     12  O   UNL     1      18.736 -35.371 146.541  1.00  0.00    -0.493 OA
ATOM     13  C   UNL     1      17.894 -34.622 145.670  1.00  0.00     0.278 C 
ENDBRANCH   1  12
BRANCH   2  14
ATOM     14  O   UNL     1      20.723 -35.466 148.517  1.00  0.00    -0.504 OA
ATOM     15  H   UNL     1      20.994 -34.534 148.225  1.00  0.00     0.293 HD
ENDBRANCH   2  14
TORSDOF 2
ENDMDL
