MODEL 1
REMARK VINA RESULT:    -3.476      0.000      0.000
REMARK INTER + INTRA:         -11.543
REMARK INTER:                  -7.947
REMARK INTRA:                  -3.596
REMARK UNBOUND:                -3.596
REMARK SMILES CCCCCCCCCCCCCCCCCCCCCCCC(=O)[O-]
REMARK SMILES IDX 13 1 14 2 15 3 16 4 17 5 18 6 19 7 20 8 21 9 22 10 23 11
REMARK SMILES IDX 24 12 25 13 26 14 12 15 11 16 10 17 9 18 8 19 7 20 6 21 5 22
REMARK SMILES IDX 4 23 3 24 2 25 1 26
REMARK H PARENT
REMARK Flexibility Score: inf
ROOT
ATOM      1  C   UNL     1       5.304   4.130  -5.983  1.00  0.00     0.000 C 
ENDROOT
BRANCH   1   2
ATOM      2  C   UNL     1       5.999   5.343  -6.620  1.00  0.00     0.000 C 
BRANCH   2   3
ATOM      3  C   UNL     1       7.521   5.342  -6.401  1.00  0.00     0.000 C 
BRANCH   3   4
ATOM      4  C   UNL     1       8.023   6.644  -5.755  1.00  0.00     0.000 C 
BRANCH   4   5
ATOM      5  C   UNL     1       8.628   6.423  -4.356  1.00  0.00     0.000 C 
BRANCH   5   6
ATOM      6  C   UNL     1       7.949   7.215  -3.223  1.00  0.00     0.000 C 
BRANCH   6   7
ATOM      7  C   UNL     1       6.427   6.992  -3.165  1.00  0.00     0.000 C 
BRANCH   7   8
ATOM      8  C   UNL     1       5.637   8.307  -3.068  1.00  0.00     0.000 C 
BRANCH   8   9
ATOM      9  C   UNL     1       6.260   9.302  -2.073  1.00  0.00     0.000 C 
BRANCH   9  10
ATOM     10  C   UNL     1       5.528   9.310  -0.722  1.00  0.00     0.006 C 
BRANCH  10  11
ATOM     11  C   UNL     1       6.496   9.252   0.468  1.00  0.00     0.053 C 
BRANCH  11  12
ATOM     12  C   UNL     1       7.343   8.021   0.392  1.00  0.00     0.041 C 
ATOM     13  O   UNL     1       8.590   8.116   0.246  1.00  0.00    -0.550 OA
ATOM     14  O   UNL     1       6.759   6.766   0.523  1.00  0.00    -0.550 OA
ENDBRANCH  11  12
ENDBRANCH  10  11
ENDBRANCH   9  10
ENDBRANCH   8   9
ENDBRANCH   7   8
ENDBRANCH   6   7
ENDBRANCH   5   6
ENDBRANCH   4   5
ENDBRANCH   3   4
ENDBRANCH   2   3
ENDBRANCH   1   2
BRANCH   1  15
ATOM     15  C   UNL     1       4.393   3.423  -6.998  1.00  0.00     0.000 C 
BRANCH  15  16
ATOM     16  C   UNL     1       4.643   3.893  -8.441  1.00  0.00     0.000 C 
BRANCH  16  17
ATOM     17  C   UNL     1       4.561   2.743  -9.458  1.00  0.00     0.000 C 
BRANCH  17  18
ATOM     18  C   UNL     1       5.885   1.969  -9.587  1.00  0.00    -0.000 C 
BRANCH  18  19
ATOM     19  C   UNL     1       7.137   2.744  -9.124  1.00  0.00    -0.000 C 
BRANCH  19  20
ATOM     20  C   UNL     1       8.235   1.881  -8.471  1.00  0.00    -0.000 C 
BRANCH  20  21
ATOM     21  C   UNL     1       8.164   1.786  -6.933  1.00  0.00    -0.000 C 
BRANCH  21  22
ATOM     22  C   UNL     1       7.685   0.431  -6.381  1.00  0.00    -0.000 C 
BRANCH  22  23
ATOM     23  C   UNL     1       6.151   0.312  -6.334  1.00  0.00    -0.000 C 
BRANCH  23  24
ATOM     24  C   UNL     1       5.632  -0.903  -7.119  1.00  0.00    -0.000 C 
BRANCH  24  25
ATOM     25  C   UNL     1       6.691  -1.500  -8.056  1.00  0.00    -0.003 C 
ATOM     26  C   UNL     1       6.104  -1.785  -9.436  1.00  0.00     0.004 C 
ENDBRANCH  24  25
ENDBRANCH  23  24
ENDBRANCH  22  23
ENDBRANCH  21  22
ENDBRANCH  20  21
ENDBRANCH  19  20
ENDBRANCH  18  19
ENDBRANCH  17  18
ENDBRANCH  16  17
ENDBRANCH  15  16
ENDBRANCH   1  15
TORSDOF 22
ENDMDL
MODEL 2
REMARK VINA RESULT:    -3.331      1.219      2.444
REMARK INTER + INTRA:         -11.212
REMARK INTER:                  -7.181
REMARK INTRA:                  -4.031
REMARK UNBOUND:                -3.596
REMARK SMILES CCCCCCCCCCCCCCCCCCCCCCCC(=O)[O-]
REMARK SMILES IDX 13 1 14 2 15 3 16 4 17 5 18 6 19 7 20 8 21 9 22 10 23 11
REMARK SMILES IDX 24 12 25 13 26 14 12 15 11 16 10 17 9 18 8 19 7 20 6 21 5 22
REMARK SMILES IDX 4 23 3 24 2 25 1 26
REMARK H PARENT
REMARK Flexibility Score: inf
ROOT
ATOM      1  C   UNL     1       4.344   3.370  -6.902  1.00  0.00     0.000 C 
ENDROOT
BRANCH   1   2
ATOM      2  C   UNL     1       5.298   4.219  -6.048  1.00  0.00     0.000 C 
BRANCH   2   3
ATOM      3  C   UNL     1       6.046   5.283  -6.869  1.00  0.00     0.000 C 
BRANCH   3   4
ATOM      4  C   UNL     1       7.574   5.147  -6.755  1.00  0.00     0.000 C 
BRANCH   4   5
ATOM      5  C   UNL     1       8.331   6.308  -7.426  1.00  0.00     0.000 C 
BRANCH   5   6
ATOM      6  C   UNL     1       7.859   7.715  -7.015  1.00  0.00     0.000 C 
BRANCH   6   7
ATOM      7  C   UNL     1       8.849   8.429  -6.077  1.00  0.00     0.000 C 
BRANCH   7   8
ATOM      8  C   UNL     1       8.282   8.644  -4.665  1.00  0.00     0.000 C 
BRANCH   8   9
ATOM      9  C   UNL     1       8.465   7.414  -3.758  1.00  0.00     0.000 C 
BRANCH   9  10
ATOM     10  C   UNL     1       7.137   6.688  -3.488  1.00  0.00     0.006 C 
BRANCH  10  11
ATOM     11  C   UNL     1       5.974   7.662  -3.257  1.00  0.00     0.053 C 
BRANCH  11  12
ATOM     12  C   UNL     1       5.958   8.128  -1.836  1.00  0.00     0.041 C 
ATOM     13  O   UNL     1       5.356   9.188  -1.522  1.00  0.00    -0.550 OA
ATOM     14  O   UNL     1       6.576   7.368  -0.848  1.00  0.00    -0.550 OA
ENDBRANCH  11  12
ENDBRANCH  10  11
ENDBRANCH   9  10
ENDBRANCH   8   9
ENDBRANCH   7   8
ENDBRANCH   6   7
ENDBRANCH   5   6
ENDBRANCH   4   5
ENDBRANCH   3   4
ENDBRANCH   2   3
ENDBRANCH   1   2
BRANCH   1  15
ATOM     15  C   UNL     1       4.621   3.572  -8.400  1.00  0.00     0.000 C 
BRANCH  15  16
ATOM     16  C   UNL     1       4.786   2.242  -9.153  1.00  0.00     0.000 C 
BRANCH  16  17
ATOM     17  C   UNL     1       6.032   2.226 -10.054  1.00  0.00     0.000 C 
BRANCH  17  18
ATOM     18  C   UNL     1       7.310   2.653  -9.309  1.00  0.00    -0.000 C 
BRANCH  18  19
ATOM     19  C   UNL     1       8.112   1.493  -8.682  1.00  0.00    -0.000 C 
BRANCH  19  20
ATOM     20  C   UNL     1       8.221   1.530  -7.145  1.00  0.00    -0.000 C 
BRANCH  20  21
ATOM     21  C   UNL     1       6.992   0.981  -6.390  1.00  0.00    -0.000 C 
BRANCH  21  22
ATOM     22  C   UNL     1       7.195  -0.387  -5.715  1.00  0.00    -0.000 C 
BRANCH  22  23
ATOM     23  C   UNL     1       6.766  -1.564  -6.608  1.00  0.00    -0.000 C 
BRANCH  23  24
ATOM     24  C   UNL     1       5.495  -1.258  -7.415  1.00  0.00    -0.000 C 
BRANCH  24  25
ATOM     25  C   UNL     1       5.720  -1.347  -8.932  1.00  0.00    -0.003 C 
ATOM     26  C   UNL     1       7.023  -2.075  -9.251  1.00  0.00     0.004 C 
ENDBRANCH  24  25
ENDBRANCH  23  24
ENDBRANCH  22  23
ENDBRANCH  21  22
ENDBRANCH  20  21
ENDBRANCH  19  20
ENDBRANCH  18  19
ENDBRANCH  17  18
ENDBRANCH  16  17
ENDBRANCH  15  16
ENDBRANCH   1  15
TORSDOF 22
ENDMDL
MODEL 3
REMARK VINA RESULT:    -3.208      1.433      3.214
REMARK INTER + INTRA:         -10.930
REMARK INTER:                  -7.044
REMARK INTRA:                  -3.886
REMARK UNBOUND:                -3.596
REMARK SMILES CCCCCCCCCCCCCCCCCCCCCCCC(=O)[O-]
REMARK SMILES IDX 13 1 14 2 15 3 16 4 17 5 18 6 19 7 20 8 21 9 22 10 23 11
REMARK SMILES IDX 24 12 25 13 26 14 12 15 11 16 10 17 9 18 8 19 7 20 6 21 5 22
REMARK SMILES IDX 4 23 3 24 2 25 1 26
REMARK H PARENT
REMARK Flexibility Score: inf
ROOT
ATOM      1  C   UNL     1       4.871   2.242  -9.118  1.00  0.00     0.000 C 
ENDROOT
BRANCH   1   2
ATOM      2  C   UNL     1       4.644   3.590  -8.417  1.00  0.00     0.000 C 
BRANCH   2   3
ATOM      3  C   UNL     1       4.351   3.439  -6.915  1.00  0.00     0.000 C 
BRANCH   3   4
ATOM      4  C   UNL     1       5.393   4.155  -6.039  1.00  0.00     0.000 C 
BRANCH   4   5
ATOM      5  C   UNL     1       5.990   5.403  -6.715  1.00  0.00     0.000 C 
BRANCH   5   6
ATOM      6  C   UNL     1       7.358   5.847  -6.167  1.00  0.00     0.000 C 
BRANCH   6   7
ATOM      7  C   UNL     1       7.642   7.341  -6.402  1.00  0.00     0.000 C 
BRANCH   7   8
ATOM      8  C   UNL     1       6.368   8.201  -6.369  1.00  0.00     0.000 C 
BRANCH   8   9
ATOM      9  C   UNL     1       6.405   9.274  -5.266  1.00  0.00     0.000 C 
BRANCH   9  10
ATOM     10  C   UNL     1       5.364   9.013  -4.165  1.00  0.00     0.006 C 
BRANCH  10  11
ATOM     11  C   UNL     1       5.714   7.790  -3.307  1.00  0.00     0.053 C 
BRANCH  11  12
ATOM     12  C   UNL     1       6.055   8.212  -1.913  1.00  0.00     0.041 C 
ATOM     13  O   UNL     1       5.806   9.383  -1.526  1.00  0.00    -0.550 OA
ATOM     14  O   UNL     1       6.611   7.296  -1.026  1.00  0.00    -0.550 OA
ENDBRANCH  11  12
ENDBRANCH  10  11
ENDBRANCH   9  10
ENDBRANCH   8   9
ENDBRANCH   7   8
ENDBRANCH   6   7
ENDBRANCH   5   6
ENDBRANCH   4   5
ENDBRANCH   3   4
ENDBRANCH   2   3
ENDBRANCH   1   2
BRANCH   1  15
ATOM     15  C   UNL     1       6.332   2.098  -9.570  1.00  0.00     0.000 C 
BRANCH  15  16
ATOM     16  C   UNL     1       7.085   3.438  -9.567  1.00  0.00     0.000 C 
BRANCH  16  17
ATOM     17  C   UNL     1       8.403   3.372  -8.778  1.00  0.00     0.000 C 
BRANCH  17  18
ATOM     18  C   UNL     1       8.302   2.481  -7.527  1.00  0.00    -0.000 C 
BRANCH  18  19
ATOM     19  C   UNL     1       9.343   1.343  -7.456  1.00  0.00    -0.000 C 
BRANCH  19  20
ATOM     20  C   UNL     1       9.798   0.788  -8.820  1.00  0.00    -0.000 C 
BRANCH  20  21
ATOM     21  C   UNL     1       8.990  -0.421  -9.337  1.00  0.00    -0.000 C 
BRANCH  21  22
ATOM     22  C   UNL     1       8.221  -1.205  -8.258  1.00  0.00    -0.000 C 
BRANCH  22  23
ATOM     23  C   UNL     1       6.735  -1.398  -8.604  1.00  0.00    -0.000 C 
BRANCH  23  24
ATOM     24  C   UNL     1       5.834  -1.380  -7.359  1.00  0.00    -0.000 C 
BRANCH  24  25
ATOM     25  C   UNL     1       6.000  -0.101  -6.525  1.00  0.00    -0.003 C 
ATOM     26  C   UNL     1       6.741  -0.389  -5.223  1.00  0.00     0.004 C 
ENDBRANCH  24  25
ENDBRANCH  23  24
ENDBRANCH  22  23
ENDBRANCH  21  22
ENDBRANCH  20  21
ENDBRANCH  19  20
ENDBRANCH  18  19
ENDBRANCH  17  18
ENDBRANCH  16  17
ENDBRANCH  15  16
ENDBRANCH   1  15
TORSDOF 22
ENDMDL
MODEL 4
REMARK VINA RESULT:    -3.189      1.628      3.203
REMARK INTER + INTRA:         -10.887
REMARK INTER:                  -7.249
REMARK INTRA:                  -3.638
REMARK UNBOUND:                -3.596
REMARK SMILES CCCCCCCCCCCCCCCCCCCCCCCC(=O)[O-]
REMARK SMILES IDX 13 1 14 2 15 3 16 4 17 5 18 6 19 7 20 8 21 9 22 10 23 11
REMARK SMILES IDX 24 12 25 13 26 14 12 15 11 16 10 17 9 18 8 19 7 20 6 21 5 22
REMARK SMILES IDX 4 23 3 24 2 25 1 26
REMARK H PARENT
REMARK Flexibility Score: inf
ROOT
ATOM      1  C   UNL     1       4.960   2.451  -8.504  1.00  0.00     0.000 C 
ENDROOT
BRANCH   1   2
ATOM      2  C   UNL     1       4.490   3.696  -7.737  1.00  0.00     0.000 C 
BRANCH   2   3
ATOM      3  C   UNL     1       5.234   3.894  -6.405  1.00  0.00     0.000 C 
BRANCH   3   4
ATOM      4  C   UNL     1       6.012   5.219  -6.358  1.00  0.00     0.000 C 
BRANCH   4   5
ATOM      5  C   UNL     1       7.498   5.056  -6.729  1.00  0.00     0.000 C 
BRANCH   5   6
ATOM      6  C   UNL     1       8.131   6.276  -7.424  1.00  0.00     0.000 C 
BRANCH   6   7
ATOM      7  C   UNL     1       7.111   7.386  -7.731  1.00  0.00     0.000 C 
BRANCH   7   8
ATOM      8  C   UNL     1       7.316   8.639  -6.866  1.00  0.00     0.000 C 
BRANCH   8   9
ATOM      9  C   UNL     1       6.011   9.134  -6.218  1.00  0.00     0.000 C 
BRANCH   9  10
ATOM     10  C   UNL     1       6.131   9.262  -4.690  1.00  0.00     0.006 C 
BRANCH  10  11
ATOM     11  C   UNL     1       6.403   7.914  -4.010  1.00  0.00     0.053 C 
BRANCH  11  12
ATOM     12  C   UNL     1       6.035   7.977  -2.561  1.00  0.00     0.041 C 
ATOM     13  O   UNL     1       6.424   7.080  -1.768  1.00  0.00    -0.550 OA
ATOM     14  O   UNL     1       5.296   9.052  -2.078  1.00  0.00    -0.550 OA
ENDBRANCH  11  12
ENDBRANCH  10  11
ENDBRANCH   9  10
ENDBRANCH   8   9
ENDBRANCH   7   8
ENDBRANCH   6   7
ENDBRANCH   5   6
ENDBRANCH   4   5
ENDBRANCH   3   4
ENDBRANCH   2   3
ENDBRANCH   1   2
BRANCH   1  15
ATOM     15  C   UNL     1       5.624   2.843  -9.833  1.00  0.00     0.000 C 
BRANCH  15  16
ATOM     16  C   UNL     1       7.152   2.961  -9.715  1.00  0.00     0.000 C 
BRANCH  16  17
ATOM     17  C   UNL     1       7.836   1.598  -9.518  1.00  0.00     0.000 C 
BRANCH  17  18
ATOM     18  C   UNL     1       8.777   1.576  -8.300  1.00  0.00    -0.000 C 
BRANCH  18  19
ATOM     19  C   UNL     1       8.067   1.499  -6.933  1.00  0.00    -0.000 C 
BRANCH  19  20
ATOM     20  C   UNL     1       8.498   0.320  -6.037  1.00  0.00    -0.000 C 
BRANCH  20  21
ATOM     21  C   UNL     1       7.478  -0.833  -5.938  1.00  0.00    -0.000 C 
BRANCH  21  22
ATOM     22  C   UNL     1       6.043  -0.477  -6.367  1.00  0.00    -0.000 C 
BRANCH  22  23
ATOM     23  C   UNL     1       5.409  -1.543  -7.277  1.00  0.00    -0.000 C 
BRANCH  23  24
ATOM     24  C   UNL     1       5.383  -1.115  -8.753  1.00  0.00    -0.000 C 
BRANCH  24  25
ATOM     25  C   UNL     1       6.136  -2.092  -9.668  1.00  0.00    -0.003 C 
ATOM     26  C   UNL     1       7.635  -2.063  -9.384  1.00  0.00     0.004 C 
ENDBRANCH  24  25
ENDBRANCH  23  24
ENDBRANCH  22  23
ENDBRANCH  21  22
ENDBRANCH  20  21
ENDBRANCH  19  20
ENDBRANCH  18  19
ENDBRANCH  17  18
ENDBRANCH  16  17
ENDBRANCH  15  16
ENDBRANCH   1  15
TORSDOF 22
ENDMDL
MODEL 5
REMARK VINA RESULT:    -3.179      2.010      4.327
REMARK INTER + INTRA:         -10.863
REMARK INTER:                  -7.064
REMARK INTRA:                  -3.799
REMARK UNBOUND:                -3.596
REMARK SMILES CCCCCCCCCCCCCCCCCCCCCCCC(=O)[O-]
REMARK SMILES IDX 13 1 14 2 15 3 16 4 17 5 18 6 19 7 20 8 21 9 22 10 23 11
REMARK SMILES IDX 24 12 25 13 26 14 12 15 11 16 10 17 9 18 8 19 7 20 6 21 5 22
REMARK SMILES IDX 4 23 3 24 2 25 1 26
REMARK H PARENT
REMARK Flexibility Score: inf
ROOT
ATOM      1  C   UNL     1       5.760   4.253  -6.568  1.00  0.00     0.000 C 
ENDROOT
BRANCH   1   2
ATOM      2  C   UNL     1       4.457   3.589  -7.041  1.00  0.00     0.000 C 
BRANCH   2   3
ATOM      3  C   UNL     1       4.444   3.310  -8.553  1.00  0.00     0.000 C 
BRANCH   3   4
ATOM      4  C   UNL     1       3.854   4.479  -9.360  1.00  0.00     0.000 C 
BRANCH   4   5
ATOM      5  C   UNL     1       4.924   5.282 -10.123  1.00  0.00     0.000 C 
BRANCH   5   6
ATOM      6  C   UNL     1       5.314   6.623  -9.475  1.00  0.00     0.000 C 
BRANCH   6   7
ATOM      7  C   UNL     1       6.836   6.794  -9.322  1.00  0.00     0.000 C 
BRANCH   7   8
ATOM      8  C   UNL     1       7.218   7.682  -8.128  1.00  0.00     0.000 C 
BRANCH   8   9
ATOM      9  C   UNL     1       6.161   7.659  -7.009  1.00  0.00     0.000 C 
BRANCH   9  10
ATOM     10  C   UNL     1       6.678   8.290  -5.707  1.00  0.00     0.006 C 
BRANCH  10  11
ATOM     11  C   UNL     1       6.951   7.244  -4.618  1.00  0.00     0.053 C 
BRANCH  11  12
ATOM     12  C   UNL     1       6.185   7.572  -3.376  1.00  0.00     0.041 C 
ATOM     13  O   UNL     1       6.451   6.987  -2.293  1.00  0.00    -0.550 OA
ATOM     14  O   UNL     1       5.202   8.555  -3.404  1.00  0.00    -0.550 OA
ENDBRANCH  11  12
ENDBRANCH  10  11
ENDBRANCH   9  10
ENDBRANCH   8   9
ENDBRANCH   7   8
ENDBRANCH   6   7
ENDBRANCH   5   6
ENDBRANCH   4   5
ENDBRANCH   3   4
ENDBRANCH   2   3
ENDBRANCH   1   2
BRANCH   1  15
ATOM     15  C   UNL     1       6.985   3.559  -7.183  1.00  0.00     0.000 C 
BRANCH  15  16
ATOM     16  C   UNL     1       8.291   4.323  -6.913  1.00  0.00     0.000 C 
BRANCH  16  17
ATOM     17  C   UNL     1       9.539   3.449  -7.121  1.00  0.00     0.000 C 
BRANCH  17  18
ATOM     18  C   UNL     1       9.235   1.944  -7.008  1.00  0.00    -0.000 C 
BRANCH  18  19
ATOM     19  C   UNL     1       9.509   1.129  -8.289  1.00  0.00    -0.000 C 
BRANCH  19  20
ATOM     20  C   UNL     1       8.294   0.947  -9.220  1.00  0.00    -0.000 C 
BRANCH  20  21
ATOM     21  C   UNL     1       7.558  -0.401  -9.078  1.00  0.00    -0.000 C 
BRANCH  21  22
ATOM     22  C   UNL     1       6.040  -0.298  -8.842  1.00  0.00    -0.000 C 
BRANCH  22  23
ATOM     23  C   UNL     1       5.623  -0.737  -7.428  1.00  0.00    -0.000 C 
BRANCH  23  24
ATOM     24  C   UNL     1       6.027   0.283  -6.352  1.00  0.00    -0.000 C 
BRANCH  24  25
ATOM     25  C   UNL     1       6.722  -0.368  -5.147  1.00  0.00    -0.003 C 
ATOM     26  C   UNL     1       6.845  -1.878  -5.336  1.00  0.00     0.004 C 
ENDBRANCH  24  25
ENDBRANCH  23  24
ENDBRANCH  22  23
ENDBRANCH  21  22
ENDBRANCH  20  21
ENDBRANCH  19  20
ENDBRANCH  18  19
ENDBRANCH  17  18
ENDBRANCH  16  17
ENDBRANCH  15  16
ENDBRANCH   1  15
TORSDOF 22
ENDMDL
MODEL 6
REMARK VINA RESULT:    -3.174      2.689      8.791
REMARK INTER + INTRA:         -10.853
REMARK INTER:                  -7.873
REMARK INTRA:                  -2.980
REMARK UNBOUND:                -3.596
REMARK SMILES CCCCCCCCCCCCCCCCCCCCCCCC(=O)[O-]
REMARK SMILES IDX 13 1 14 2 15 3 16 4 17 5 18 6 19 7 20 8 21 9 22 10 23 11
REMARK SMILES IDX 24 12 25 13 26 14 12 15 11 16 10 17 9 18 8 19 7 20 6 21 5 22
REMARK SMILES IDX 4 23 3 24 2 25 1 26
REMARK H PARENT
REMARK Flexibility Score: inf
ROOT
ATOM      1  C   UNL     1       9.038   3.745  -7.653  1.00  0.00     0.000 C 
ENDROOT
BRANCH   1   2
ATOM      2  C   UNL     1       9.668   2.724  -6.692  1.00  0.00     0.000 C 
BRANCH   2   3
ATOM      3  C   UNL     1       9.487   1.271  -7.163  1.00  0.00     0.000 C 
BRANCH   3   4
ATOM      4  C   UNL     1       8.783   0.397  -6.113  1.00  0.00     0.000 C 
BRANCH   4   5
ATOM      5  C   UNL     1       8.187  -0.893  -6.708  1.00  0.00     0.000 C 
BRANCH   5   6
ATOM      6  C   UNL     1       6.845  -1.331  -6.095  1.00  0.00     0.000 C 
BRANCH   6   7
ATOM      7  C   UNL     1       5.698  -1.357  -7.121  1.00  0.00     0.000 C 
BRANCH   7   8
ATOM      8  C   UNL     1       6.090  -0.729  -8.468  1.00  0.00     0.000 C 
BRANCH   8   9
ATOM      9  C   UNL     1       5.253   0.518  -8.807  1.00  0.00     0.000 C 
BRANCH   9  10
ATOM     10  C   UNL     1       5.988   1.823  -8.460  1.00  0.00     0.006 C 
BRANCH  10  11
ATOM     11  C   UNL     1       5.717   2.282  -7.021  1.00  0.00     0.053 C 
BRANCH  11  12
ATOM     12  C   UNL     1       4.501   3.151  -6.970  1.00  0.00     0.041 C 
ATOM     13  O   UNL     1       4.138   3.795  -7.990  1.00  0.00    -0.550 OA
ATOM     14  O   UNL     1       3.743   3.219  -5.807  1.00  0.00    -0.550 OA
ENDBRANCH  11  12
ENDBRANCH  10  11
ENDBRANCH   9  10
ENDBRANCH   8   9
ENDBRANCH   7   8
ENDBRANCH   6   7
ENDBRANCH   5   6
ENDBRANCH   4   5
ENDBRANCH   3   4
ENDBRANCH   2   3
ENDBRANCH   1   2
BRANCH   1  15
ATOM     15  C   UNL     1       8.473   4.948  -6.883  1.00  0.00     0.000 C 
BRANCH  15  16
ATOM     16  C   UNL     1       7.379   5.689  -7.669  1.00  0.00     0.000 C 
BRANCH  16  17
ATOM     17  C   UNL     1       6.413   6.458  -6.752  1.00  0.00     0.000 C 
BRANCH  17  18
ATOM     18  C   UNL     1       6.233   5.784  -5.380  1.00  0.00    -0.000 C 
BRANCH  18  19
ATOM     19  C   UNL     1       6.345   6.735  -4.170  1.00  0.00    -0.000 C 
BRANCH  19  20
ATOM     20  C   UNL     1       7.785   7.092  -3.751  1.00  0.00    -0.000 C 
BRANCH  20  21
ATOM     21  C   UNL     1       7.897   8.025  -2.527  1.00  0.00    -0.000 C 
BRANCH  21  22
ATOM     22  C   UNL     1       7.631   9.514  -2.811  1.00  0.00    -0.000 C 
BRANCH  22  23
ATOM     23  C   UNL     1       6.579  10.125  -1.869  1.00  0.00    -0.000 C 
BRANCH  23  24
ATOM     24  C   UNL     1       5.835   9.058  -1.049  1.00  0.00    -0.000 C 
BRANCH  24  25
ATOM     25  C   UNL     1       6.126   9.158   0.456  1.00  0.00    -0.003 C 
ATOM     26  C   UNL     1       6.911   7.944   0.943  1.00  0.00     0.004 C 
ENDBRANCH  24  25
ENDBRANCH  23  24
ENDBRANCH  22  23
ENDBRANCH  21  22
ENDBRANCH  20  21
ENDBRANCH  19  20
ENDBRANCH  18  19
ENDBRANCH  17  18
ENDBRANCH  16  17
ENDBRANCH  15  16
ENDBRANCH   1  15
TORSDOF 22
ENDMDL
MODEL 7
REMARK VINA RESULT:    -3.099      3.964      8.669
REMARK INTER + INTRA:         -10.681
REMARK INTER:                  -6.718
REMARK INTRA:                  -3.963
REMARK UNBOUND:                -3.596
REMARK SMILES CCCCCCCCCCCCCCCCCCCCCCCC(=O)[O-]
REMARK SMILES IDX 13 1 14 2 15 3 16 4 17 5 18 6 19 7 20 8 21 9 22 10 23 11
REMARK SMILES IDX 24 12 25 13 26 14 12 15 11 16 10 17 9 18 8 19 7 20 6 21 5 22
REMARK SMILES IDX 4 23 3 24 2 25 1 26
REMARK H PARENT
REMARK Flexibility Score: inf
ROOT
ATOM      1  C   UNL     1       5.270   4.117  -6.018  1.00  0.00     0.000 C 
ENDROOT
BRANCH   1   2
ATOM      2  C   UNL     1       4.365   3.374  -7.014  1.00  0.00     0.000 C 
BRANCH   2   3
ATOM      3  C   UNL     1       4.478   3.923  -8.446  1.00  0.00     0.000 C 
BRANCH   3   4
ATOM      4  C   UNL     1       4.984   2.866  -9.442  1.00  0.00     0.000 C 
BRANCH   4   5
ATOM      5  C   UNL     1       6.515   2.881  -9.605  1.00  0.00     0.000 C 
BRANCH   5   6
ATOM      6  C   UNL     1       7.230   1.596  -9.147  1.00  0.00     0.000 C 
BRANCH   6   7
ATOM      7  C   UNL     1       8.014   1.783  -7.836  1.00  0.00     0.000 C 
BRANCH   7   8
ATOM      8  C   UNL     1       7.339   1.102  -6.636  1.00  0.00     0.000 C 
BRANCH   8   9
ATOM      9  C   UNL     1       7.940  -0.279  -6.321  1.00  0.00     0.000 C 
BRANCH   9  10
ATOM     10  C   UNL     1       6.867  -1.377  -6.242  1.00  0.00     0.006 C 
BRANCH  10  11
ATOM     11  C   UNL     1       5.609  -1.024  -7.046  1.00  0.00     0.053 C 
BRANCH  11  12
ATOM     12  C   UNL     1       5.539  -1.847  -8.294  1.00  0.00     0.041 C 
ATOM     13  O   UNL     1       4.476  -2.450  -8.596  1.00  0.00    -0.550 OA
ATOM     14  O   UNL     1       6.637  -1.914  -9.144  1.00  0.00    -0.550 OA
ENDBRANCH  11  12
ENDBRANCH  10  11
ENDBRANCH   9  10
ENDBRANCH   8   9
ENDBRANCH   7   8
ENDBRANCH   6   7
ENDBRANCH   5   6
ENDBRANCH   4   5
ENDBRANCH   3   4
ENDBRANCH   2   3
ENDBRANCH   1   2
BRANCH   1  15
ATOM     15  C   UNL     1       5.983   5.295  -6.699  1.00  0.00     0.000 C 
BRANCH  15  16
ATOM     16  C   UNL     1       7.509   5.242  -6.520  1.00  0.00     0.000 C 
BRANCH  16  17
ATOM     17  C   UNL     1       8.267   5.568  -7.817  1.00  0.00     0.000 C 
BRANCH  17  18
ATOM     18  C   UNL     1       7.420   6.384  -8.811  1.00  0.00    -0.000 C 
BRANCH  18  19
ATOM     19  C   UNL     1       7.747   7.892  -8.855  1.00  0.00    -0.000 C 
BRANCH  19  20
ATOM     20  C   UNL     1       7.053   8.743  -7.772  1.00  0.00    -0.000 C 
BRANCH  20  21
ATOM     21  C   UNL     1       7.979   9.250  -6.647  1.00  0.00    -0.000 C 
BRANCH  21  22
ATOM     22  C   UNL     1       7.298   9.462  -5.284  1.00  0.00    -0.000 C 
BRANCH  22  23
ATOM     23  C   UNL     1       5.924   8.777  -5.188  1.00  0.00    -0.000 C 
BRANCH  23  24
ATOM     24  C   UNL     1       5.580   8.348  -3.753  1.00  0.00    -0.000 C 
BRANCH  24  25
ATOM     25  C   UNL     1       6.429   7.164  -3.268  1.00  0.00    -0.003 C 
ATOM     26  C   UNL     1       6.689   7.255  -1.767  1.00  0.00     0.004 C 
ENDBRANCH  24  25
ENDBRANCH  23  24
ENDBRANCH  22  23
ENDBRANCH  21  22
ENDBRANCH  20  21
ENDBRANCH  19  20
ENDBRANCH  18  19
ENDBRANCH  17  18
ENDBRANCH  16  17
ENDBRANCH  15  16
ENDBRANCH   1  15
TORSDOF 22
ENDMDL
MODEL 8
REMARK VINA RESULT:    -3.095      1.407      2.574
REMARK INTER + INTRA:         -10.672
REMARK INTER:                  -7.831
REMARK INTRA:                  -2.841
REMARK UNBOUND:                -3.596
REMARK SMILES CCCCCCCCCCCCCCCCCCCCCCCC(=O)[O-]
REMARK SMILES IDX 13 1 14 2 15 3 16 4 17 5 18 6 19 7 20 8 21 9 22 10 23 11
REMARK SMILES IDX 24 12 25 13 26 14 12 15 11 16 10 17 9 18 8 19 7 20 6 21 5 22
REMARK SMILES IDX 4 23 3 24 2 25 1 26
REMARK H PARENT
REMARK Flexibility Score: inf
ROOT
ATOM      1  C   UNL     1       5.998   3.392  -6.858  1.00  0.00     0.000 C 
ENDROOT
BRANCH   1   2
ATOM      2  C   UNL     1       5.631   4.822  -6.431  1.00  0.00     0.000 C 
BRANCH   2   3
ATOM      3  C   UNL     1       6.865   5.706  -6.184  1.00  0.00     0.000 C 
BRANCH   3   4
ATOM      4  C   UNL     1       6.695   6.624  -4.963  1.00  0.00     0.000 C 
BRANCH   4   5
ATOM      5  C   UNL     1       6.357   8.077  -5.347  1.00  0.00     0.000 C 
BRANCH   5   6
ATOM      6  C   UNL     1       7.327   9.137  -4.795  1.00  0.00     0.000 C 
BRANCH   6   7
ATOM      7  C   UNL     1       7.621   8.956  -3.295  1.00  0.00     0.000 C 
BRANCH   7   8
ATOM      8  C   UNL     1       6.683   9.782  -2.400  1.00  0.00     0.000 C 
BRANCH   8   9
ATOM      9  C   UNL     1       5.713   8.906  -1.588  1.00  0.00     0.000 C 
BRANCH   9  10
ATOM     10  C   UNL     1       5.730   9.254  -0.091  1.00  0.00     0.006 C 
BRANCH  10  11
ATOM     11  C   UNL     1       7.133   9.143   0.520  1.00  0.00     0.053 C 
BRANCH  11  12
ATOM     12  C   UNL     1       7.625   7.732   0.444  1.00  0.00     0.041 C 
ATOM     13  O   UNL     1       6.957   6.799   0.960  1.00  0.00    -0.550 OA
ATOM     14  O   UNL     1       8.804   7.443  -0.236  1.00  0.00    -0.550 OA
ENDBRANCH  11  12
ENDBRANCH  10  11
ENDBRANCH   9  10
ENDBRANCH   8   9
ENDBRANCH   7   8
ENDBRANCH   6   7
ENDBRANCH   5   6
ENDBRANCH   4   5
ENDBRANCH   3   4
ENDBRANCH   2   3
ENDBRANCH   1   2
BRANCH   1  15
ATOM     15  C   UNL     1       6.385   3.345  -8.344  1.00  0.00     0.000 C 
BRANCH  15  16
ATOM     16  C   UNL     1       7.821   2.841  -8.563  1.00  0.00     0.000 C 
BRANCH  16  17
ATOM     17  C   UNL     1       8.490   2.382  -7.257  1.00  0.00     0.000 C 
BRANCH  17  18
ATOM     18  C   UNL     1       9.442   1.191  -7.464  1.00  0.00    -0.000 C 
BRANCH  18  19
ATOM     19  C   UNL     1       9.273   0.452  -8.808  1.00  0.00    -0.000 C 
BRANCH  19  20
ATOM     20  C   UNL     1       9.013  -1.064  -8.693  1.00  0.00    -0.000 C 
BRANCH  20  21
ATOM     21  C   UNL     1       7.605  -1.521  -9.129  1.00  0.00    -0.000 C 
BRANCH  21  22
ATOM     22  C   UNL     1       6.469  -0.528  -8.822  1.00  0.00    -0.000 C 
BRANCH  22  23
ATOM     23  C   UNL     1       5.619  -0.948  -7.610  1.00  0.00    -0.000 C 
BRANCH  23  24
ATOM     24  C   UNL     1       5.984  -0.167  -6.338  1.00  0.00    -0.000 C 
BRANCH  24  25
ATOM     25  C   UNL     1       7.101  -0.840  -5.528  1.00  0.00    -0.003 C 
ATOM     26  C   UNL     1       6.649  -2.198  -4.996  1.00  0.00     0.004 C 
ENDBRANCH  24  25
ENDBRANCH  23  24
ENDBRANCH  22  23
ENDBRANCH  21  22
ENDBRANCH  20  21
ENDBRANCH  19  20
ENDBRANCH  18  19
ENDBRANCH  17  18
ENDBRANCH  16  17
ENDBRANCH  15  16
ENDBRANCH   1  15
TORSDOF 22
ENDMDL
MODEL 9
REMARK VINA RESULT:    -3.053      3.433      8.388
REMARK INTER + INTRA:         -10.575
REMARK INTER:                  -6.248
REMARK INTRA:                  -4.328
REMARK UNBOUND:                -3.596
REMARK SMILES CCCCCCCCCCCCCCCCCCCCCCCC(=O)[O-]
REMARK SMILES IDX 13 1 14 2 15 3 16 4 17 5 18 6 19 7 20 8 21 9 22 10 23 11
REMARK SMILES IDX 24 12 25 13 26 14 12 15 11 16 10 17 9 18 8 19 7 20 6 21 5 22
REMARK SMILES IDX 4 23 3 24 2 25 1 26
REMARK H PARENT
REMARK Flexibility Score: inf
ROOT
ATOM      1  C   UNL     1       5.652   4.499  -6.198  1.00  0.00     0.000 C 
ENDROOT
BRANCH   1   2
ATOM      2  C   UNL     1       4.916   4.216  -7.517  1.00  0.00     0.000 C 
BRANCH   2   3
ATOM      3  C   UNL     1       5.274   5.218  -8.627  1.00  0.00     0.000 C 
BRANCH   3   4
ATOM      4  C   UNL     1       6.192   4.606  -9.698  1.00  0.00     0.000 C 
BRANCH   4   5
ATOM      5  C   UNL     1       7.680   4.931  -9.469  1.00  0.00     0.000 C 
BRANCH   5   6
ATOM      6  C   UNL     1       8.601   3.703  -9.348  1.00  0.00     0.000 C 
BRANCH   6   7
ATOM      7  C   UNL     1       8.958   3.364  -7.889  1.00  0.00     0.000 C 
BRANCH   7   8
ATOM      8  C   UNL     1       8.125   2.201  -7.328  1.00  0.00     0.000 C 
BRANCH   8   9
ATOM      9  C   UNL     1       7.493   1.336  -8.433  1.00  0.00     0.000 C 
BRANCH   9  10
ATOM     10  C   UNL     1       6.113   0.793  -8.029  1.00  0.00     0.006 C 
BRANCH  10  11
ATOM     11  C   UNL     1       6.046   0.410  -6.545  1.00  0.00     0.053 C 
BRANCH  11  12
ATOM     12  C   UNL     1       6.175  -1.071  -6.382  1.00  0.00     0.041 C 
ATOM     13  O   UNL     1       7.046  -1.551  -5.611  1.00  0.00    -0.550 OA
ATOM     14  O   UNL     1       5.304  -1.923  -7.053  1.00  0.00    -0.550 OA
ENDBRANCH  11  12
ENDBRANCH  10  11
ENDBRANCH   9  10
ENDBRANCH   8   9
ENDBRANCH   7   8
ENDBRANCH   6   7
ENDBRANCH   5   6
ENDBRANCH   4   5
ENDBRANCH   3   4
ENDBRANCH   2   3
ENDBRANCH   1   2
BRANCH   1  15
ATOM     15  C   UNL     1       6.229   5.923  -6.186  1.00  0.00     0.000 C 
BRANCH  15  16
ATOM     16  C   UNL     1       7.662   5.973  -5.633  1.00  0.00     0.000 C 
BRANCH  16  17
ATOM     17  C   UNL     1       8.591   6.857  -6.482  1.00  0.00     0.000 C 
BRANCH  17  18
ATOM     18  C   UNL     1       7.825   7.929  -7.278  1.00  0.00    -0.000 C 
BRANCH  18  19
ATOM     19  C   UNL     1       7.476   9.203  -6.481  1.00  0.00    -0.000 C 
BRANCH  19  20
ATOM     20  C   UNL     1       5.982   9.585  -6.480  1.00  0.00    -0.000 C 
BRANCH  20  21
ATOM     21  C   UNL     1       5.374   9.845  -5.086  1.00  0.00    -0.000 C 
BRANCH  21  22
ATOM     22  C   UNL     1       6.219   9.349  -3.900  1.00  0.00    -0.000 C 
BRANCH  22  23
ATOM     23  C   UNL     1       5.570   8.170  -3.153  1.00  0.00    -0.000 C 
BRANCH  23  24
ATOM     24  C   UNL     1       6.609   7.205  -2.562  1.00  0.00    -0.000 C 
BRANCH  24  25
ATOM     25  C   UNL     1       8.010   7.825  -2.470  1.00  0.00    -0.003 C 
ATOM     26  C   UNL     1       8.326   8.253  -1.039  1.00  0.00     0.004 C 
ENDBRANCH  24  25
ENDBRANCH  23  24
ENDBRANCH  22  23
ENDBRANCH  21  22
ENDBRANCH  20  21
ENDBRANCH  19  20
ENDBRANCH  18  19
ENDBRANCH  17  18
ENDBRANCH  16  17
ENDBRANCH  15  16
ENDBRANCH   1  15
TORSDOF 22
ENDMDL
