MODEL 1
REMARK VINA RESULT:    -4.746      0.000      0.000
REMARK INTER + INTRA:         -15.913
REMARK INTER:                 -11.960
REMARK INTRA:                  -3.952
REMARK UNBOUND:                -3.952
REMARK SMILES CCCCCCCCCCCCCCCCCCCCCCCCCCCC(=O)[O-]
REMARK SMILES IDX 15 1 16 2 17 3 18 4 19 5 20 6 21 7 22 8 23 9 24 10 25 11
REMARK SMILES IDX 26 12 27 13 28 14 29 15 30 16 14 17 13 18 12 19 11 20 10 21
REMARK SMILES IDX 9 22 8 23 7 24 6 25 5 26 4 27 3 28 2 29 1 30
REMARK H PARENT
REMARK Flexibility Score: inf
ROOT
ATOM      1  C   UNL     1     -13.706   4.856   4.452  1.00  0.00     0.000 C 
ENDROOT
BRANCH   1   2
ATOM      2  C   UNL     1     -12.893   3.668   4.988  1.00  0.00     0.000 C 
BRANCH   2   3
ATOM      3  C   UNL     1     -13.268   3.296   6.434  1.00  0.00     0.000 C 
BRANCH   3   4
ATOM      4  C   UNL     1     -12.056   2.823   7.253  1.00  0.00     0.000 C 
BRANCH   4   5
ATOM      5  C   UNL     1     -12.000   3.462   8.651  1.00  0.00     0.000 C 
BRANCH   5   6
ATOM      6  C   UNL     1     -10.934   4.565   8.750  1.00  0.00     0.000 C 
BRANCH   6   7
ATOM      7  C   UNL     1     -11.029   5.585   7.602  1.00  0.00     0.000 C 
BRANCH   7   8
ATOM      8  C   UNL     1      -9.863   5.461   6.605  1.00  0.00     0.000 C 
BRANCH   8   9
ATOM      9  C   UNL     1     -10.188   6.092   5.242  1.00  0.00     0.000 C 
BRANCH   9  10
ATOM     10  C   UNL     1      -9.307   7.312   4.923  1.00  0.00     0.000 C 
BRANCH  10  11
ATOM     11  C   UNL     1      -9.993   8.664   5.212  1.00  0.00     0.000 C 
BRANCH  11  12
ATOM     12  C   UNL     1      -9.033   9.851   5.025  1.00  0.00     0.006 C 
BRANCH  12  13
ATOM     13  C   UNL     1      -7.584   9.490   5.382  1.00  0.00     0.053 C 
BRANCH  13  14
ATOM     14  C   UNL     1      -7.034  10.386   6.450  1.00  0.00     0.041 C 
ATOM     15  O   UNL     1      -7.708  10.618   7.490  1.00  0.00    -0.550 OA
ATOM     16  O   UNL     1      -5.768  10.939   6.313  1.00  0.00    -0.550 OA
ENDBRANCH  13  14
ENDBRANCH  12  13
ENDBRANCH  11  12
ENDBRANCH  10  11
ENDBRANCH   9  10
ENDBRANCH   8   9
ENDBRANCH   7   8
ENDBRANCH   6   7
ENDBRANCH   5   6
ENDBRANCH   4   5
ENDBRANCH   3   4
ENDBRANCH   2   3
ENDBRANCH   1   2
BRANCH   1  17
ATOM     17  C   UNL     1     -13.886   5.971   5.494  1.00  0.00     0.000 C 
BRANCH  17  18
ATOM     18  C   UNL     1     -15.103   6.846   5.159  1.00  0.00     0.000 C 
BRANCH  18  19
ATOM     19  C   UNL     1     -14.737   8.326   4.946  1.00  0.00     0.000 C 
BRANCH  19  20
ATOM     20  C   UNL     1     -15.930   9.255   4.639  1.00  0.00     0.000 C 
BRANCH  20  21
ATOM     21  C   UNL     1     -15.939   9.859   3.222  1.00  0.00     0.000 C 
BRANCH  21  22
ATOM     22  C   UNL     1     -14.779   9.407   2.312  1.00  0.00    -0.000 C 
BRANCH  22  23
ATOM     23  C   UNL     1     -14.200  10.505   1.402  1.00  0.00    -0.000 C 
BRANCH  23  24
ATOM     24  C   UNL     1     -12.684  10.736   1.545  1.00  0.00    -0.000 C 
BRANCH  24  25
ATOM     25  C   UNL     1     -12.200  10.806   3.010  1.00  0.00    -0.000 C 
BRANCH  25  26
ATOM     26  C   UNL     1     -12.293  12.225   3.597  1.00  0.00    -0.000 C 
BRANCH  26  27
ATOM     27  C   UNL     1     -13.063  12.256   4.935  1.00  0.00    -0.000 C 
BRANCH  27  28
ATOM     28  C   UNL     1     -12.769  11.048   5.844  1.00  0.00    -0.000 C 
BRANCH  28  29
ATOM     29  C   UNL     1     -12.490  11.404   7.314  1.00  0.00    -0.003 C 
ATOM     30  C   UNL     1     -11.016  11.706   7.581  1.00  0.00     0.004 C 
ENDBRANCH  28  29
ENDBRANCH  27  28
ENDBRANCH  26  27
ENDBRANCH  25  26
ENDBRANCH  24  25
ENDBRANCH  23  24
ENDBRANCH  22  23
ENDBRANCH  21  22
ENDBRANCH  20  21
ENDBRANCH  19  20
ENDBRANCH  18  19
ENDBRANCH  17  18
ENDBRANCH   1  17
TORSDOF 26
ENDMDL
MODEL 2
REMARK VINA RESULT:    -4.719      2.464      6.092
REMARK INTER + INTRA:         -15.844
REMARK INTER:                 -11.171
REMARK INTRA:                  -4.672
REMARK UNBOUND:                -3.952
REMARK SMILES CCCCCCCCCCCCCCCCCCCCCCCCCCCC(=O)[O-]
REMARK SMILES IDX 15 1 16 2 17 3 18 4 19 5 20 6 21 7 22 8 23 9 24 10 25 11
REMARK SMILES IDX 26 12 27 13 28 14 29 15 30 16 14 17 13 18 12 19 11 20 10 21
REMARK SMILES IDX 9 22 8 23 7 24 6 25 5 26 4 27 3 28 2 29 1 30
REMARK H PARENT
REMARK Flexibility Score: inf
ROOT
ATOM      1  C   UNL     1     -13.063   4.774   4.675  1.00  0.00     0.000 C 
ENDROOT
BRANCH   1   2
ATOM      2  C   UNL     1     -13.906   5.666   5.600  1.00  0.00     0.000 C 
BRANCH   2   3
ATOM      3  C   UNL     1     -13.429   7.129   5.610  1.00  0.00     0.000 C 
BRANCH   3   4
ATOM      4  C   UNL     1     -14.289   8.035   4.713  1.00  0.00     0.000 C 
BRANCH   4   5
ATOM      5  C   UNL     1     -15.372   8.792   5.500  1.00  0.00     0.000 C 
BRANCH   5   6
ATOM      6  C   UNL     1     -15.025  10.276   5.696  1.00  0.00     0.000 C 
BRANCH   6   7
ATOM      7  C   UNL     1     -14.321  10.549   7.037  1.00  0.00     0.000 C 
BRANCH   7   8
ATOM      8  C   UNL     1     -12.988  11.297   6.861  1.00  0.00     0.000 C 
BRANCH   8   9
ATOM      9  C   UNL     1     -11.862  10.377   6.359  1.00  0.00     0.000 C 
BRANCH   9  10
ATOM     10  C   UNL     1     -11.413  10.709   4.926  1.00  0.00     0.000 C 
BRANCH  10  11
ATOM     11  C   UNL     1     -11.842  12.113   4.451  1.00  0.00     0.000 C 
BRANCH  11  12
ATOM     12  C   UNL     1     -12.072  12.164   2.931  1.00  0.00     0.006 C 
BRANCH  12  13
ATOM     13  C   UNL     1     -13.448  11.613   2.531  1.00  0.00     0.053 C 
BRANCH  13  14
ATOM     14  C   UNL     1     -13.338  10.548   1.483  1.00  0.00     0.041 C 
ATOM     15  O   UNL     1     -12.362  10.543   0.686  1.00  0.00    -0.550 OA
ATOM     16  O   UNL     1     -14.295   9.544   1.406  1.00  0.00    -0.550 OA
ENDBRANCH  13  14
ENDBRANCH  12  13
ENDBRANCH  11  12
ENDBRANCH  10  11
ENDBRANCH   9  10
ENDBRANCH   8   9
ENDBRANCH   7   8
ENDBRANCH   6   7
ENDBRANCH   5   6
ENDBRANCH   4   5
ENDBRANCH   3   4
ENDBRANCH   2   3
ENDBRANCH   1   2
BRANCH   1  17
ATOM     17  C   UNL     1     -12.815   3.377   5.263  1.00  0.00     0.000 C 
BRANCH  17  18
ATOM     18  C   UNL     1     -13.323   3.291   6.710  1.00  0.00     0.000 C 
BRANCH  18  19
ATOM     19  C   UNL     1     -12.224   2.893   7.710  1.00  0.00     0.000 C 
BRANCH  19  20
ATOM     20  C   UNL     1     -11.902   3.954   8.782  1.00  0.00     0.000 C 
BRANCH  20  21
ATOM     21  C   UNL     1     -11.091   5.164   8.281  1.00  0.00     0.000 C 
BRANCH  21  22
ATOM     22  C   UNL     1     -10.210   4.892   7.046  1.00  0.00    -0.000 C 
BRANCH  22  23
ATOM     23  C   UNL     1      -9.448   6.117   6.508  1.00  0.00    -0.000 C 
BRANCH  23  24
ATOM     24  C   UNL     1      -9.874   6.582   5.102  1.00  0.00    -0.000 C 
BRANCH  24  25
ATOM     25  C   UNL     1      -9.192   7.889   4.645  1.00  0.00    -0.000 C 
BRANCH  25  26
ATOM     26  C   UNL     1      -8.541   8.656   5.810  1.00  0.00    -0.000 C 
BRANCH  26  27
ATOM     27  C   UNL     1      -7.542   9.727   5.319  1.00  0.00    -0.000 C 
BRANCH  27  28
ATOM     28  C   UNL     1      -7.230  10.808   6.371  1.00  0.00    -0.000 C 
BRANCH  28  29
ATOM     29  C   UNL     1      -8.289  10.950   7.477  1.00  0.00    -0.003 C 
ATOM     30  C   UNL     1      -8.953  12.327   7.489  1.00  0.00     0.004 C 
ENDBRANCH  28  29
ENDBRANCH  27  28
ENDBRANCH  26  27
ENDBRANCH  25  26
ENDBRANCH  24  25
ENDBRANCH  23  24
ENDBRANCH  22  23
ENDBRANCH  21  22
ENDBRANCH  20  21
ENDBRANCH  19  20
ENDBRANCH  18  19
ENDBRANCH  17  18
ENDBRANCH   1  17
TORSDOF 26
ENDMDL
MODEL 3
REMARK VINA RESULT:    -4.582      1.002      2.800
REMARK INTER + INTRA:         -15.498
REMARK INTER:                 -11.210
REMARK INTRA:                  -4.288
REMARK UNBOUND:                -3.952
REMARK SMILES CCCCCCCCCCCCCCCCCCCCCCCCCCCC(=O)[O-]
REMARK SMILES IDX 15 1 16 2 17 3 18 4 19 5 20 6 21 7 22 8 23 9 24 10 25 11
REMARK SMILES IDX 26 12 27 13 28 14 29 15 30 16 14 17 13 18 12 19 11 20 10 21
REMARK SMILES IDX 9 22 8 23 7 24 6 25 5 26 4 27 3 28 2 29 1 30
REMARK H PARENT
REMARK Flexibility Score: inf
ROOT
ATOM      1  C   UNL     1     -13.141   4.427   4.362  1.00  0.00     0.000 C 
ENDROOT
BRANCH   1   2
ATOM      2  C   UNL     1     -12.371   3.291   5.056  1.00  0.00     0.000 C 
BRANCH   2   3
ATOM      3  C   UNL     1     -12.927   2.965   6.453  1.00  0.00     0.000 C 
BRANCH   3   4
ATOM      4  C   UNL     1     -11.815   2.769   7.497  1.00  0.00     0.000 C 
BRANCH   4   5
ATOM      5  C   UNL     1     -11.929   3.752   8.675  1.00  0.00     0.000 C 
BRANCH   5   6
ATOM      6  C   UNL     1     -10.823   4.820   8.657  1.00  0.00     0.000 C 
BRANCH   6   7
ATOM      7  C   UNL     1     -10.889   5.721   7.411  1.00  0.00     0.000 C 
BRANCH   7   8
ATOM      8  C   UNL     1      -9.638   5.594   6.525  1.00  0.00     0.000 C 
BRANCH   8   9
ATOM      9  C   UNL     1      -9.863   6.153   5.111  1.00  0.00     0.000 C 
BRANCH   9  10
ATOM     10  C   UNL     1      -9.909   7.691   5.076  1.00  0.00     0.000 C 
BRANCH  10  11
ATOM     11  C   UNL     1      -8.728   8.363   5.806  1.00  0.00     0.000 C 
BRANCH  11  12
ATOM     12  C   UNL     1      -8.367   9.725   5.189  1.00  0.00     0.006 C 
BRANCH  12  13
ATOM     13  C   UNL     1      -8.218  10.823   6.251  1.00  0.00     0.053 C 
BRANCH  13  14
ATOM     14  C   UNL     1      -6.795  10.978   6.696  1.00  0.00     0.041 C 
ATOM     15  O   UNL     1      -5.858  10.521   5.988  1.00  0.00    -0.550 OA
ATOM     16  O   UNL     1      -6.502  11.655   7.873  1.00  0.00    -0.550 OA
ENDBRANCH  13  14
ENDBRANCH  12  13
ENDBRANCH  11  12
ENDBRANCH  10  11
ENDBRANCH   9  10
ENDBRANCH   8   9
ENDBRANCH   7   8
ENDBRANCH   6   7
ENDBRANCH   5   6
ENDBRANCH   4   5
ENDBRANCH   3   4
ENDBRANCH   2   3
ENDBRANCH   1   2
BRANCH   1  17
ATOM     17  C   UNL     1     -14.024   5.224   5.334  1.00  0.00     0.000 C 
BRANCH  17  18
ATOM     18  C   UNL     1     -13.562   6.687   5.423  1.00  0.00     0.000 C 
BRANCH  18  19
ATOM     19  C   UNL     1     -14.671   7.690   5.058  1.00  0.00     0.000 C 
BRANCH  19  20
ATOM     20  C   UNL     1     -14.446   9.126   5.572  1.00  0.00     0.000 C 
BRANCH  20  21
ATOM     21  C   UNL     1     -13.011   9.434   6.043  1.00  0.00     0.000 C 
BRANCH  21  22
ATOM     22  C   UNL     1     -12.897  10.555   7.096  1.00  0.00    -0.000 C 
BRANCH  22  23
ATOM     23  C   UNL     1     -11.833  11.625   6.793  1.00  0.00    -0.000 C 
BRANCH  23  24
ATOM     24  C   UNL     1     -12.114  12.487   5.546  1.00  0.00    -0.000 C 
BRANCH  24  25
ATOM     25  C   UNL     1     -11.176  12.186   4.357  1.00  0.00    -0.000 C 
BRANCH  25  26
ATOM     26  C   UNL     1     -11.946  11.882   3.060  1.00  0.00    -0.000 C 
BRANCH  26  27
ATOM     27  C   UNL     1     -13.299  12.624   2.995  1.00  0.00    -0.000 C 
BRANCH  27  28
ATOM     28  C   UNL     1     -14.518  11.683   2.956  1.00  0.00    -0.000 C 
BRANCH  28  29
ATOM     29  C   UNL     1     -14.767  11.015   1.594  1.00  0.00    -0.003 C 
ATOM     30  C   UNL     1     -14.463   9.517   1.603  1.00  0.00     0.004 C 
ENDBRANCH  28  29
ENDBRANCH  27  28
ENDBRANCH  26  27
ENDBRANCH  25  26
ENDBRANCH  24  25
ENDBRANCH  23  24
ENDBRANCH  22  23
ENDBRANCH  21  22
ENDBRANCH  20  21
ENDBRANCH  19  20
ENDBRANCH  18  19
ENDBRANCH  17  18
ENDBRANCH   1  17
TORSDOF 26
ENDMDL
MODEL 4
REMARK VINA RESULT:    -4.542      2.538      6.646
REMARK INTER + INTRA:         -15.397
REMARK INTER:                 -10.607
REMARK INTRA:                  -4.790
REMARK UNBOUND:                -3.952
REMARK SMILES CCCCCCCCCCCCCCCCCCCCCCCCCCCC(=O)[O-]
REMARK SMILES IDX 15 1 16 2 17 3 18 4 19 5 20 6 21 7 22 8 23 9 24 10 25 11
REMARK SMILES IDX 26 12 27 13 28 14 29 15 30 16 14 17 13 18 12 19 11 20 10 21
REMARK SMILES IDX 9 22 8 23 7 24 6 25 5 26 4 27 3 28 2 29 1 30
REMARK H PARENT
REMARK Flexibility Score: inf
ROOT
ATOM      1  C   UNL     1     -13.116   8.003   5.616  1.00  0.00     0.000 C 
ENDROOT
BRANCH   1   2
ATOM      2  C   UNL     1     -13.474   8.893   6.817  1.00  0.00     0.000 C 
BRANCH   2   3
ATOM      3  C   UNL     1     -14.535   9.953   6.474  1.00  0.00     0.000 C 
BRANCH   3   4
ATOM      4  C   UNL     1     -14.422  11.206   7.358  1.00  0.00     0.000 C 
BRANCH   4   5
ATOM      5  C   UNL     1     -13.450  11.015   8.535  1.00  0.00     0.000 C 
BRANCH   5   6
ATOM      6  C   UNL     1     -12.395  12.130   8.611  1.00  0.00     0.000 C 
BRANCH   6   7
ATOM      7  C   UNL     1     -12.320  12.964   7.319  1.00  0.00     0.000 C 
BRANCH   7   8
ATOM      8  C   UNL     1     -11.005  12.742   6.551  1.00  0.00     0.000 C 
BRANCH   8   9
ATOM      9  C   UNL     1     -10.874  11.306   6.018  1.00  0.00     0.000 C 
BRANCH   9  10
ATOM     10  C   UNL     1     -10.937  11.230   4.482  1.00  0.00     0.000 C 
BRANCH  10  11
ATOM     11  C   UNL     1     -11.557  12.481   3.825  1.00  0.00     0.000 C 
BRANCH  11  12
ATOM     12  C   UNL     1     -13.001  12.233   3.358  1.00  0.00     0.006 C 
BRANCH  12  13
ATOM     13  C   UNL     1     -13.310  10.739   3.188  1.00  0.00     0.053 C 
BRANCH  13  14
ATOM     14  C   UNL     1     -13.398  10.350   1.744  1.00  0.00     0.041 C 
ATOM     15  O   UNL     1     -12.476  10.667   0.946  1.00  0.00    -0.550 OA
ATOM     16  O   UNL     1     -14.481   9.610   1.287  1.00  0.00    -0.550 OA
ENDBRANCH  13  14
ENDBRANCH  12  13
ENDBRANCH  11  12
ENDBRANCH  10  11
ENDBRANCH   9  10
ENDBRANCH   8   9
ENDBRANCH   7   8
ENDBRANCH   6   7
ENDBRANCH   5   6
ENDBRANCH   4   5
ENDBRANCH   3   4
ENDBRANCH   2   3
ENDBRANCH   1   2
BRANCH   1  17
ATOM     17  C   UNL     1     -14.230   7.005   5.265  1.00  0.00     0.000 C 
BRANCH  17  18
ATOM     18  C   UNL     1     -13.832   5.575   5.662  1.00  0.00     0.000 C 
BRANCH  18  19
ATOM     19  C   UNL     1     -13.481   4.691   4.452  1.00  0.00     0.000 C 
BRANCH  19  20
ATOM     20  C   UNL     1     -12.571   3.487   4.767  1.00  0.00     0.000 C 
BRANCH  20  21
ATOM     21  C   UNL     1     -12.602   3.009   6.231  1.00  0.00     0.000 C 
BRANCH  21  22
ATOM     22  C   UNL     1     -11.243   3.044   6.958  1.00  0.00    -0.000 C 
BRANCH  22  23
ATOM     23  C   UNL     1     -11.106   4.141   8.030  1.00  0.00    -0.000 C 
BRANCH  23  24
ATOM     24  C   UNL     1     -10.819   5.552   7.483  1.00  0.00    -0.000 C 
BRANCH  24  25
ATOM     25  C   UNL     1      -9.557   5.632   6.597  1.00  0.00    -0.000 C 
BRANCH  25  26
ATOM     26  C   UNL     1      -9.881   5.989   5.136  1.00  0.00    -0.000 C 
BRANCH  26  27
ATOM     27  C   UNL     1      -9.660   7.488   4.837  1.00  0.00    -0.000 C 
BRANCH  27  28
ATOM     28  C   UNL     1      -8.678   8.172   5.807  1.00  0.00    -0.000 C 
BRANCH  28  29
ATOM     29  C   UNL     1      -7.929   9.378   5.215  1.00  0.00    -0.003 C 
ATOM     30  C   UNL     1      -6.776   9.852   6.100  1.00  0.00     0.004 C 
ENDBRANCH  28  29
ENDBRANCH  27  28
ENDBRANCH  26  27
ENDBRANCH  25  26
ENDBRANCH  24  25
ENDBRANCH  23  24
ENDBRANCH  22  23
ENDBRANCH  21  22
ENDBRANCH  20  21
ENDBRANCH  19  20
ENDBRANCH  18  19
ENDBRANCH  17  18
ENDBRANCH   1  17
TORSDOF 26
ENDMDL
MODEL 5
REMARK VINA RESULT:    -4.481      2.177      7.578
REMARK INTER + INTRA:         -15.244
REMARK INTER:                 -11.094
REMARK INTRA:                  -4.149
REMARK UNBOUND:                -3.952
REMARK SMILES CCCCCCCCCCCCCCCCCCCCCCCCCCCC(=O)[O-]
REMARK SMILES IDX 15 1 16 2 17 3 18 4 19 5 20 6 21 7 22 8 23 9 24 10 25 11
REMARK SMILES IDX 26 12 27 13 28 14 29 15 30 16 14 17 13 18 12 19 11 20 10 21
REMARK SMILES IDX 9 22 8 23 7 24 6 25 5 26 4 27 3 28 2 29 1 30
REMARK H PARENT
REMARK Flexibility Score: inf
ROOT
ATOM      1  C   UNL     1      -7.647   9.623   6.372  1.00  0.00     0.000 C 
ENDROOT
BRANCH   1   2
ATOM      2  C   UNL     1      -6.906  10.891   6.828  1.00  0.00     0.000 C 
BRANCH   2   3
ATOM      3  C   UNL     1      -7.581  11.571   8.032  1.00  0.00     0.000 C 
BRANCH   3   4
ATOM      4  C   UNL     1      -8.676  12.563   7.610  1.00  0.00     0.000 C 
BRANCH   4   5
ATOM      5  C   UNL     1      -9.841  12.623   8.613  1.00  0.00     0.000 C 
BRANCH   5   6
ATOM      6  C   UNL     1     -11.138  12.025   8.042  1.00  0.00     0.000 C 
BRANCH   6   7
ATOM      7  C   UNL     1     -11.001  11.612   6.566  1.00  0.00     0.000 C 
BRANCH   7   8
ATOM      8  C   UNL     1     -12.026  10.540   6.157  1.00  0.00     0.000 C 
BRANCH   8   9
ATOM      9  C   UNL     1     -13.449  10.882   6.628  1.00  0.00     0.000 C 
BRANCH   9  10
ATOM     10  C   UNL     1     -14.089  12.022   5.817  1.00  0.00     0.000 C 
BRANCH  10  11
ATOM     11  C   UNL     1     -15.002  11.533   4.674  1.00  0.00     0.000 C 
BRANCH  11  12
ATOM     12  C   UNL     1     -14.631  12.170   3.324  1.00  0.00     0.006 C 
BRANCH  12  13
ATOM     13  C   UNL     1     -14.192  11.126   2.288  1.00  0.00     0.053 C 
BRANCH  13  14
ATOM     14  C   UNL     1     -12.717  11.188   2.026  1.00  0.00     0.041 C 
ATOM     15  O   UNL     1     -11.952  11.757   2.849  1.00  0.00    -0.550 OA
ATOM     16  O   UNL     1     -12.186  10.590   0.891  1.00  0.00    -0.550 OA
ENDBRANCH  13  14
ENDBRANCH  12  13
ENDBRANCH  11  12
ENDBRANCH  10  11
ENDBRANCH   9  10
ENDBRANCH   8   9
ENDBRANCH   7   8
ENDBRANCH   6   7
ENDBRANCH   5   6
ENDBRANCH   4   5
ENDBRANCH   3   4
ENDBRANCH   2   3
ENDBRANCH   1   2
BRANCH   1  17
ATOM     17  C   UNL     1      -8.260   9.766   4.971  1.00  0.00     0.000 C 
BRANCH  17  18
ATOM     18  C   UNL     1      -9.287   8.655   4.704  1.00  0.00     0.000 C 
BRANCH  18  19
ATOM     19  C   UNL     1      -9.131   7.453   5.651  1.00  0.00     0.000 C 
BRANCH  19  20
ATOM     20  C   UNL     1      -9.992   6.224   5.293  1.00  0.00     0.000 C 
BRANCH  20  21
ATOM     21  C   UNL     1      -9.851   5.026   6.250  1.00  0.00     0.000 C 
BRANCH  21  22
ATOM     22  C   UNL     1     -10.596   5.172   7.592  1.00  0.00    -0.000 C 
BRANCH  22  23
ATOM     23  C   UNL     1     -11.363   3.919   8.050  1.00  0.00    -0.000 C 
BRANCH  23  24
ATOM     24  C   UNL     1     -11.617   2.873   6.948  1.00  0.00    -0.000 C 
BRANCH  24  25
ATOM     25  C   UNL     1     -12.962   3.058   6.211  1.00  0.00    -0.000 C 
BRANCH  25  26
ATOM     26  C   UNL     1     -12.783   3.591   4.779  1.00  0.00    -0.000 C 
BRANCH  26  27
ATOM     27  C   UNL     1     -13.580   4.891   4.535  1.00  0.00    -0.000 C 
BRANCH  27  28
ATOM     28  C   UNL     1     -13.832   5.710   5.815  1.00  0.00    -0.000 C 
BRANCH  28  29
ATOM     29  C   UNL     1     -13.629   7.226   5.656  1.00  0.00    -0.003 C 
ATOM     30  C   UNL     1     -14.647   7.865   4.711  1.00  0.00     0.004 C 
ENDBRANCH  28  29
ENDBRANCH  27  28
ENDBRANCH  26  27
ENDBRANCH  25  26
ENDBRANCH  24  25
ENDBRANCH  23  24
ENDBRANCH  22  23
ENDBRANCH  21  22
ENDBRANCH  20  21
ENDBRANCH  19  20
ENDBRANCH  18  19
ENDBRANCH  17  18
ENDBRANCH   1  17
TORSDOF 26
ENDMDL
MODEL 6
REMARK VINA RESULT:    -4.459      2.499      7.124
REMARK INTER + INTRA:         -15.188
REMARK INTER:                 -10.998
REMARK INTRA:                  -4.190
REMARK UNBOUND:                -3.952
REMARK SMILES CCCCCCCCCCCCCCCCCCCCCCCCCCCC(=O)[O-]
REMARK SMILES IDX 15 1 16 2 17 3 18 4 19 5 20 6 21 7 22 8 23 9 24 10 25 11
REMARK SMILES IDX 26 12 27 13 28 14 29 15 30 16 14 17 13 18 12 19 11 20 10 21
REMARK SMILES IDX 9 22 8 23 7 24 6 25 5 26 4 27 3 28 2 29 1 30
REMARK H PARENT
REMARK Flexibility Score: inf
ROOT
ATOM      1  C   UNL     1      -8.490   8.604   5.827  1.00  0.00     0.000 C 
ENDROOT
BRANCH   1   2
ATOM      2  C   UNL     1      -7.647   9.748   5.243  1.00  0.00     0.000 C 
BRANCH   2   3
ATOM      3  C   UNL     1      -6.980  10.609   6.330  1.00  0.00     0.000 C 
BRANCH   3   4
ATOM      4  C   UNL     1      -7.932  10.923   7.496  1.00  0.00     0.000 C 
BRANCH   4   5
ATOM      5  C   UNL     1      -8.829  12.142   7.218  1.00  0.00     0.000 C 
BRANCH   5   6
ATOM      6  C   UNL     1     -10.223  12.001   7.851  1.00  0.00     0.000 C 
BRANCH   6   7
ATOM      7  C   UNL     1     -11.270  12.914   7.189  1.00  0.00     0.000 C 
BRANCH   7   8
ATOM      8  C   UNL     1     -12.658  12.256   7.107  1.00  0.00     0.000 C 
BRANCH   8   9
ATOM      9  C   UNL     1     -13.412  12.636   5.822  1.00  0.00     0.000 C 
BRANCH   9  10
ATOM     10  C   UNL     1     -14.779  11.941   5.704  1.00  0.00     0.000 C 
BRANCH  10  11
ATOM     11  C   UNL     1     -15.188  11.622   4.250  1.00  0.00     0.000 C 
BRANCH  11  12
ATOM     12  C   UNL     1     -14.181  12.183   3.231  1.00  0.00     0.006 C 
BRANCH  12  13
ATOM     13  C   UNL     1     -14.474  11.706   1.801  1.00  0.00     0.053 C 
BRANCH  13  14
ATOM     14  C   UNL     1     -13.759  10.428   1.483  1.00  0.00     0.041 C 
ATOM     15  O   UNL     1     -14.381   9.332   1.510  1.00  0.00    -0.550 OA
ATOM     16  O   UNL     1     -12.417  10.450   1.126  1.00  0.00    -0.550 OA
ENDBRANCH  13  14
ENDBRANCH  12  13
ENDBRANCH  11  12
ENDBRANCH  10  11
ENDBRANCH   9  10
ENDBRANCH   8   9
ENDBRANCH   7   8
ENDBRANCH   6   7
ENDBRANCH   5   6
ENDBRANCH   4   5
ENDBRANCH   3   4
ENDBRANCH   2   3
ENDBRANCH   1   2
BRANCH   1  17
ATOM     17  C   UNL     1      -9.815   8.399   5.076  1.00  0.00     0.000 C 
BRANCH  17  18
ATOM     18  C   UNL     1     -10.607   9.712   4.992  1.00  0.00     0.000 C 
BRANCH  18  19
ATOM     19  C   UNL     1     -12.119   9.490   4.807  1.00  0.00     0.000 C 
BRANCH  19  20
ATOM     20  C   UNL     1     -12.748   8.455   5.762  1.00  0.00     0.000 C 
BRANCH  20  21
ATOM     21  C   UNL     1     -14.251   8.197   5.548  1.00  0.00     0.000 C 
BRANCH  21  22
ATOM     22  C   UNL     1     -14.594   6.852   4.879  1.00  0.00    -0.000 C 
BRANCH  22  23
ATOM     23  C   UNL     1     -13.873   5.628   5.471  1.00  0.00    -0.000 C 
BRANCH  23  24
ATOM     24  C   UNL     1     -13.342   4.620   4.433  1.00  0.00    -0.000 C 
BRANCH  24  25
ATOM     25  C   UNL     1     -12.038   3.912   4.863  1.00  0.00    -0.000 C 
BRANCH  25  26
ATOM     26  C   UNL     1     -10.843   4.878   4.952  1.00  0.00    -0.000 C 
BRANCH  26  27
ATOM     27  C   UNL     1     -10.253   4.947   6.378  1.00  0.00    -0.000 C 
BRANCH  27  28
ATOM     28  C   UNL     1     -11.301   5.248   7.466  1.00  0.00    -0.000 C 
BRANCH  28  29
ATOM     29  C   UNL     1     -11.141   4.426   8.756  1.00  0.00    -0.003 C 
ATOM     30  C   UNL     1     -11.972   3.143   8.749  1.00  0.00     0.004 C 
ENDBRANCH  28  29
ENDBRANCH  27  28
ENDBRANCH  26  27
ENDBRANCH  25  26
ENDBRANCH  24  25
ENDBRANCH  23  24
ENDBRANCH  22  23
ENDBRANCH  21  22
ENDBRANCH  20  21
ENDBRANCH  19  20
ENDBRANCH  18  19
ENDBRANCH  17  18
ENDBRANCH   1  17
TORSDOF 26
ENDMDL
MODEL 7
REMARK VINA RESULT:    -4.406      2.799      7.202
REMARK INTER + INTRA:         -15.054
REMARK INTER:                 -11.304
REMARK INTRA:                  -3.750
REMARK UNBOUND:                -3.952
REMARK SMILES CCCCCCCCCCCCCCCCCCCCCCCCCCCC(=O)[O-]
REMARK SMILES IDX 15 1 16 2 17 3 18 4 19 5 20 6 21 7 22 8 23 9 24 10 25 11
REMARK SMILES IDX 26 12 27 13 28 14 29 15 30 16 14 17 13 18 12 19 11 20 10 21
REMARK SMILES IDX 9 22 8 23 7 24 6 25 5 26 4 27 3 28 2 29 1 30
REMARK H PARENT
REMARK Flexibility Score: inf
ROOT
ATOM      1  C   UNL     1      -9.123   8.899   5.178  1.00  0.00     0.000 C 
ENDROOT
BRANCH   1   2
ATOM      2  C   UNL     1      -8.158   8.996   6.371  1.00  0.00     0.000 C 
BRANCH   2   3
ATOM      3  C   UNL     1      -7.296  10.269   6.334  1.00  0.00     0.000 C 
BRANCH   3   4
ATOM      4  C   UNL     1      -7.670  11.264   7.446  1.00  0.00     0.000 C 
BRANCH   4   5
ATOM      5  C   UNL     1      -8.768  12.251   7.013  1.00  0.00     0.000 C 
BRANCH   5   6
ATOM      6  C   UNL     1     -10.088  12.027   7.769  1.00  0.00     0.000 C 
BRANCH   6   7
ATOM      7  C   UNL     1     -11.257  11.677   6.832  1.00  0.00     0.000 C 
BRANCH   7   8
ATOM      8  C   UNL     1     -11.930  12.926   6.238  1.00  0.00     0.000 C 
BRANCH   8   9
ATOM      9  C   UNL     1     -11.655  13.081   4.733  1.00  0.00     0.000 C 
BRANCH   9  10
ATOM     10  C   UNL     1     -11.296  11.749   4.051  1.00  0.00     0.000 C 
BRANCH  10  11
ATOM     11  C   UNL     1     -12.515  11.000   3.474  1.00  0.00     0.000 C 
BRANCH  11  12
ATOM     12  C   UNL     1     -12.427  10.844   1.946  1.00  0.00     0.006 C 
BRANCH  12  13
ATOM     13  C   UNL     1     -13.696  10.219   1.350  1.00  0.00     0.053 C 
BRANCH  13  14
ATOM     14  C   UNL     1     -14.933  10.934   1.801  1.00  0.00     0.041 C 
ATOM     15  O   UNL     1     -15.800  10.328   2.485  1.00  0.00    -0.550 OA
ATOM     16  O   UNL     1     -15.113  12.276   1.493  1.00  0.00    -0.550 OA
ENDBRANCH  13  14
ENDBRANCH  12  13
ENDBRANCH  11  12
ENDBRANCH  10  11
ENDBRANCH   9  10
ENDBRANCH   8   9
ENDBRANCH   7   8
ENDBRANCH   6   7
ENDBRANCH   5   6
ENDBRANCH   4   5
ENDBRANCH   3   4
ENDBRANCH   2   3
ENDBRANCH   1   2
BRANCH   1  17
ATOM     17  C   UNL     1      -9.372   7.450   4.732  1.00  0.00     0.000 C 
BRANCH  17  18
ATOM     18  C   UNL     1     -10.370   6.751   5.667  1.00  0.00     0.000 C 
BRANCH  18  19
ATOM     19  C   UNL     1      -9.757   5.551   6.411  1.00  0.00     0.000 C 
BRANCH  19  20
ATOM     20  C   UNL     1     -10.344   5.284   7.813  1.00  0.00     0.000 C 
BRANCH  20  21
ATOM     21  C   UNL     1     -11.445   4.207   7.866  1.00  0.00     0.000 C 
BRANCH  21  22
ATOM     22  C   UNL     1     -11.260   3.037   6.879  1.00  0.00    -0.000 C 
BRANCH  22  23
ATOM     23  C   UNL     1     -12.397   2.864   5.856  1.00  0.00    -0.000 C 
BRANCH  23  24
ATOM     24  C   UNL     1     -12.276   3.742   4.595  1.00  0.00    -0.000 C 
BRANCH  24  25
ATOM     25  C   UNL     1     -13.537   4.582   4.298  1.00  0.00    -0.000 C 
BRANCH  25  26
ATOM     26  C   UNL     1     -13.833   5.614   5.400  1.00  0.00    -0.000 C 
BRANCH  26  27
ATOM     27  C   UNL     1     -14.974   6.578   5.007  1.00  0.00    -0.000 C 
BRANCH  27  28
ATOM     28  C   UNL     1     -14.512   8.033   4.805  1.00  0.00    -0.000 C 
BRANCH  28  29
ATOM     29  C   UNL     1     -13.306   8.447   5.664  1.00  0.00    -0.003 C 
ATOM     30  C   UNL     1     -13.693   9.354   6.832  1.00  0.00     0.004 C 
ENDBRANCH  28  29
ENDBRANCH  27  28
ENDBRANCH  26  27
ENDBRANCH  25  26
ENDBRANCH  24  25
ENDBRANCH  23  24
ENDBRANCH  22  23
ENDBRANCH  21  22
ENDBRANCH  20  21
ENDBRANCH  19  20
ENDBRANCH  18  19
ENDBRANCH  17  18
ENDBRANCH   1  17
TORSDOF 26
ENDMDL
MODEL 8
REMARK VINA RESULT:    -4.369      1.264      5.792
REMARK INTER + INTRA:         -14.961
REMARK INTER:                 -11.014
REMARK INTRA:                  -3.947
REMARK UNBOUND:                -3.952
REMARK SMILES CCCCCCCCCCCCCCCCCCCCCCCCCCCC(=O)[O-]
REMARK SMILES IDX 15 1 16 2 17 3 18 4 19 5 20 6 21 7 22 8 23 9 24 10 25 11
REMARK SMILES IDX 26 12 27 13 28 14 29 15 30 16 14 17 13 18 12 19 11 20 10 21
REMARK SMILES IDX 9 22 8 23 7 24 6 25 5 26 4 27 3 28 2 29 1 30
REMARK H PARENT
REMARK Flexibility Score: inf
ROOT
ATOM      1  C   UNL     1      -9.890   6.247   5.230  1.00  0.00     0.000 C 
ENDROOT
BRANCH   1   2
ATOM      2  C   UNL     1      -9.372   7.639   5.628  1.00  0.00     0.000 C 
BRANCH   2   3
ATOM      3  C   UNL     1     -10.065   8.773   4.854  1.00  0.00     0.000 C 
BRANCH   3   4
ATOM      4  C   UNL     1     -11.454   9.109   5.422  1.00  0.00     0.000 C 
BRANCH   4   5
ATOM      5  C   UNL     1     -11.891  10.550   5.107  1.00  0.00     0.000 C 
BRANCH   5   6
ATOM      6  C   UNL     1     -10.704  11.456   4.741  1.00  0.00     0.000 C 
BRANCH   6   7
ATOM      7  C   UNL     1     -10.783  12.838   5.414  1.00  0.00     0.000 C 
BRANCH   7   8
ATOM      8  C   UNL     1     -11.565  12.804   6.739  1.00  0.00     0.000 C 
BRANCH   8   9
ATOM      9  C   UNL     1     -10.668  12.457   7.938  1.00  0.00     0.000 C 
BRANCH   9  10
ATOM     10  C   UNL     1      -9.219  12.942   7.761  1.00  0.00     0.000 C 
BRANCH  10  11
ATOM     11  C   UNL     1      -8.257  12.434   8.856  1.00  0.00     0.000 C 
BRANCH  11  12
ATOM     12  C   UNL     1      -7.166  11.512   8.285  1.00  0.00     0.006 C 
BRANCH  12  13
ATOM     13  C   UNL     1      -7.690  10.623   7.148  1.00  0.00     0.053 C 
BRANCH  13  14
ATOM     14  C   UNL     1      -6.721  10.547   6.008  1.00  0.00     0.041 C 
ATOM     15  O   UNL     1      -7.121  10.224   4.858  1.00  0.00    -0.550 OA
ATOM     16  O   UNL     1      -5.383  10.863   6.208  1.00  0.00    -0.550 OA
ENDBRANCH  13  14
ENDBRANCH  12  13
ENDBRANCH  11  12
ENDBRANCH  10  11
ENDBRANCH   9  10
ENDBRANCH   8   9
ENDBRANCH   7   8
ENDBRANCH   6   7
ENDBRANCH   5   6
ENDBRANCH   4   5
ENDBRANCH   3   4
ENDBRANCH   2   3
ENDBRANCH   1   2
BRANCH   1  17
ATOM     17  C   UNL     1      -9.746   5.216   6.360  1.00  0.00     0.000 C 
BRANCH  17  18
ATOM     18  C   UNL     1     -10.786   5.462   7.464  1.00  0.00     0.000 C 
BRANCH  18  19
ATOM     19  C   UNL     1     -11.507   4.178   7.907  1.00  0.00     0.000 C 
BRANCH  19  20
ATOM     20  C   UNL     1     -11.513   3.040   6.865  1.00  0.00     0.000 C 
BRANCH  20  21
ATOM     21  C   UNL     1     -12.755   2.994   5.955  1.00  0.00     0.000 C 
BRANCH  21  22
ATOM     22  C   UNL     1     -12.636   3.801   4.648  1.00  0.00    -0.000 C 
BRANCH  22  23
ATOM     23  C   UNL     1     -13.816   4.747   4.358  1.00  0.00    -0.000 C 
BRANCH  23  24
ATOM     24  C   UNL     1     -13.744   6.112   5.069  1.00  0.00    -0.000 C 
BRANCH  24  25
ATOM     25  C   UNL     1     -15.104   6.838   5.161  1.00  0.00    -0.000 C 
BRANCH  25  26
ATOM     26  C   UNL     1     -14.952   8.361   5.320  1.00  0.00    -0.000 C 
BRANCH  26  27
ATOM     27  C   UNL     1     -15.566   9.137   4.134  1.00  0.00    -0.000 C 
BRANCH  27  28
ATOM     28  C   UNL     1     -14.720   9.071   2.849  1.00  0.00    -0.000 C 
BRANCH  28  29
ATOM     29  C   UNL     1     -14.476  10.431   2.172  1.00  0.00    -0.003 C 
ATOM     30  C   UNL     1     -13.060  10.569   1.613  1.00  0.00     0.004 C 
ENDBRANCH  28  29
ENDBRANCH  27  28
ENDBRANCH  26  27
ENDBRANCH  25  26
ENDBRANCH  24  25
ENDBRANCH  23  24
ENDBRANCH  22  23
ENDBRANCH  21  22
ENDBRANCH  20  21
ENDBRANCH  19  20
ENDBRANCH  18  19
ENDBRANCH  17  18
ENDBRANCH   1  17
TORSDOF 26
ENDMDL
MODEL 9
REMARK VINA RESULT:    -4.365      2.478      5.609
REMARK INTER + INTRA:         -14.951
REMARK INTER:                 -10.748
REMARK INTRA:                  -4.204
REMARK UNBOUND:                -3.952
REMARK SMILES CCCCCCCCCCCCCCCCCCCCCCCCCCCC(=O)[O-]
REMARK SMILES IDX 15 1 16 2 17 3 18 4 19 5 20 6 21 7 22 8 23 9 24 10 25 11
REMARK SMILES IDX 26 12 27 13 28 14 29 15 30 16 14 17 13 18 12 19 11 20 10 21
REMARK SMILES IDX 9 22 8 23 7 24 6 25 5 26 4 27 3 28 2 29 1 30
REMARK H PARENT
REMARK Flexibility Score: inf
ROOT
ATOM      1  C   UNL     1      -9.742   4.943   5.825  1.00  0.00     0.000 C 
ENDROOT
BRANCH   1   2
ATOM      2  C   UNL     1     -10.499   5.150   7.147  1.00  0.00     0.000 C 
BRANCH   2   3
ATOM      3  C   UNL     1     -11.268   3.894   7.592  1.00  0.00     0.000 C 
BRANCH   3   4
ATOM      4  C   UNL     1     -12.736   3.910   7.134  1.00  0.00     0.000 C 
BRANCH   4   5
ATOM      5  C   UNL     1     -12.908   3.450   5.677  1.00  0.00     0.000 C 
BRANCH   5   6
ATOM      6  C   UNL     1     -13.416   4.576   4.762  1.00  0.00     0.000 C 
BRANCH   6   7
ATOM      7  C   UNL     1     -13.619   5.904   5.513  1.00  0.00     0.000 C 
BRANCH   7   8
ATOM      8  C   UNL     1     -14.894   6.643   5.069  1.00  0.00     0.000 C 
BRANCH   8   9
ATOM      9  C   UNL     1     -14.613   8.096   4.652  1.00  0.00     0.000 C 
BRANCH   9  10
ATOM     10  C   UNL     1     -15.772   9.049   4.990  1.00  0.00     0.000 C 
BRANCH  10  11
ATOM     11  C   UNL     1     -15.519  10.509   4.559  1.00  0.00     0.000 C 
BRANCH  11  12
ATOM     12  C   UNL     1     -15.714  10.706   3.045  1.00  0.00     0.006 C 
BRANCH  12  13
ATOM     13  C   UNL     1     -14.483  11.334   2.377  1.00  0.00     0.053 C 
BRANCH  13  14
ATOM     14  C   UNL     1     -13.724  10.336   1.557  1.00  0.00     0.041 C 
ATOM     15  O   UNL     1     -14.290   9.282   1.161  1.00  0.00    -0.550 OA
ATOM     16  O   UNL     1     -12.405  10.583   1.203  1.00  0.00    -0.550 OA
ENDBRANCH  13  14
ENDBRANCH  12  13
ENDBRANCH  11  12
ENDBRANCH  10  11
ENDBRANCH   9  10
ENDBRANCH   8   9
ENDBRANCH   7   8
ENDBRANCH   6   7
ENDBRANCH   5   6
ENDBRANCH   4   5
ENDBRANCH   3   4
ENDBRANCH   2   3
ENDBRANCH   1   2
BRANCH   1  17
ATOM     17  C   UNL     1      -9.889   6.134   4.865  1.00  0.00     0.000 C 
BRANCH  17  18
ATOM     18  C   UNL     1      -9.739   7.466   5.616  1.00  0.00     0.000 C 
BRANCH  18  19
ATOM     19  C   UNL     1     -11.008   8.334   5.559  1.00  0.00     0.000 C 
BRANCH  19  20
ATOM     20  C   UNL     1     -10.923   9.554   4.619  1.00  0.00     0.000 C 
BRANCH  20  21
ATOM     21  C   UNL     1     -11.759  10.773   5.053  1.00  0.00     0.000 C 
BRANCH  21  22
ATOM     22  C   UNL     1     -12.318  10.703   6.488  1.00  0.00    -0.000 C 
BRANCH  22  23
ATOM     23  C   UNL     1     -11.629  11.636   7.500  1.00  0.00    -0.000 C 
BRANCH  23  24
ATOM     24  C   UNL     1     -10.967  12.885   6.887  1.00  0.00    -0.000 C 
BRANCH  24  25
ATOM     25  C   UNL     1      -9.439  12.754   6.704  1.00  0.00    -0.000 C 
BRANCH  25  26
ATOM     26  C   UNL     1      -8.699  12.549   8.038  1.00  0.00    -0.000 C 
BRANCH  26  27
ATOM     27  C   UNL     1      -7.663  11.406   7.962  1.00  0.00    -0.000 C 
BRANCH  27  28
ATOM     28  C   UNL     1      -8.090  10.246   7.043  1.00  0.00    -0.000 C 
BRANCH  28  29
ATOM     29  C   UNL     1      -7.150   9.990   5.854  1.00  0.00    -0.003 C 
ATOM     30  C   UNL     1      -5.779  10.643   6.032  1.00  0.00     0.004 C 
ENDBRANCH  28  29
ENDBRANCH  27  28
ENDBRANCH  26  27
ENDBRANCH  25  26
ENDBRANCH  24  25
ENDBRANCH  23  24
ENDBRANCH  22  23
ENDBRANCH  21  22
ENDBRANCH  20  21
ENDBRANCH  19  20
ENDBRANCH  18  19
ENDBRANCH  17  18
ENDBRANCH   1  17
TORSDOF 26
ENDMDL
