MODEL 1
REMARK VINA RESULT:    -5.751      0.000      0.000
REMARK INTER + INTRA:         -18.623
REMARK INTER:                 -14.491
REMARK INTRA:                  -4.131
REMARK UNBOUND:                -4.131
REMARK SMILES CCCCCCCCCCCCCCCCCCCCCCCCCCCC(=O)[O-]
REMARK SMILES IDX 15 1 16 2 17 3 18 4 19 5 20 6 21 7 22 8 23 9 24 10 25 11
REMARK SMILES IDX 26 12 27 13 28 14 29 15 30 16 14 17 13 18 12 19 11 20 10 21
REMARK SMILES IDX 9 22 8 23 7 24 6 25 5 26 4 27 3 28 2 29 1 30
REMARK H PARENT
REMARK Flexibility Score: inf
ROOT
ATOM      1  C   UNL     1      45.588 -13.977 -39.024  1.00  0.00     0.000 C 
ENDROOT
BRANCH   1   2
ATOM      2  C   UNL     1      46.230 -12.591 -39.233  1.00  0.00     0.000 C 
BRANCH   2   3
ATOM      3  C   UNL     1      45.249 -11.518 -39.753  1.00  0.00     0.000 C 
BRANCH   3   4
ATOM      4  C   UNL     1      44.029 -12.119 -40.474  1.00  0.00     0.000 C 
BRANCH   4   5
ATOM      5  C   UNL     1      43.797 -11.508 -41.867  1.00  0.00     0.000 C 
BRANCH   5   6
ATOM      6  C   UNL     1      43.584 -12.533 -42.999  1.00  0.00     0.000 C 
BRANCH   6   7
ATOM      7  C   UNL     1      42.974 -11.962 -44.294  1.00  0.00     0.000 C 
BRANCH   7   8
ATOM      8  C   UNL     1      41.478 -11.613 -44.200  1.00  0.00     0.000 C 
BRANCH   8   9
ATOM      9  C   UNL     1      41.199 -10.122 -44.466  1.00  0.00     0.000 C 
BRANCH   9  10
ATOM     10  C   UNL     1      41.009  -9.311 -43.175  1.00  0.00     0.000 C 
BRANCH  10  11
ATOM     11  C   UNL     1      40.469 -10.159 -42.015  1.00  0.00     0.000 C 
BRANCH  11  12
ATOM     12  C   UNL     1      40.279  -9.301 -40.757  1.00  0.00     0.006 C 
BRANCH  12  13
ATOM     13  C   UNL     1      41.608  -8.742 -40.226  1.00  0.00     0.053 C 
BRANCH  13  14
ATOM     14  C   UNL     1      42.031  -9.417 -38.958  1.00  0.00     0.041 C 
ATOM     15  O   UNL     1      41.429 -10.450 -38.557  1.00  0.00    -0.550 OA
ATOM     16  O   UNL     1      43.094  -8.908 -38.222  1.00  0.00    -0.550 OA
ENDBRANCH  13  14
ENDBRANCH  12  13
ENDBRANCH  11  12
ENDBRANCH  10  11
ENDBRANCH   9  10
ENDBRANCH   8   9
ENDBRANCH   7   8
ENDBRANCH   6   7
ENDBRANCH   5   6
ENDBRANCH   4   5
ENDBRANCH   3   4
ENDBRANCH   2   3
ENDBRANCH   1   2
BRANCH   1  17
ATOM     17  C   UNL     1      45.959 -14.685 -37.706  1.00  0.00     0.000 C 
BRANCH  17  18
ATOM     18  C   UNL     1      46.820 -13.854 -36.735  1.00  0.00     0.000 C 
BRANCH  18  19
ATOM     19  C   UNL     1      48.097 -14.584 -36.294  1.00  0.00     0.000 C 
BRANCH  19  20
ATOM     20  C   UNL     1      48.827 -13.800 -35.194  1.00  0.00     0.000 C 
BRANCH  20  21
ATOM     21  C   UNL     1      47.918 -12.790 -34.470  1.00  0.00     0.000 C 
BRANCH  21  22
ATOM     22  C   UNL     1      47.630 -13.111 -32.987  1.00  0.00    -0.000 C 
BRANCH  22  23
ATOM     23  C   UNL     1      47.479 -14.608 -32.659  1.00  0.00    -0.000 C 
BRANCH  23  24
ATOM     24  C   UNL     1      46.024 -15.093 -32.527  1.00  0.00    -0.000 C 
BRANCH  24  25
ATOM     25  C   UNL     1      45.038 -14.354 -33.460  1.00  0.00    -0.000 C 
BRANCH  25  26
ATOM     26  C   UNL     1      44.284 -15.315 -34.396  1.00  0.00    -0.000 C 
BRANCH  26  27
ATOM     27  C   UNL     1      43.169 -14.616 -35.193  1.00  0.00    -0.000 C 
BRANCH  27  28
ATOM     28  C   UNL     1      42.918 -13.172 -34.722  1.00  0.00    -0.000 C 
BRANCH  28  29
ATOM     29  C   UNL     1      42.945 -12.166 -35.882  1.00  0.00    -0.003 C 
ATOM     30  C   UNL     1      44.293 -11.456 -36.022  1.00  0.00     0.004 C 
ENDBRANCH  28  29
ENDBRANCH  27  28
ENDBRANCH  26  27
ENDBRANCH  25  26
ENDBRANCH  24  25
ENDBRANCH  23  24
ENDBRANCH  22  23
ENDBRANCH  21  22
ENDBRANCH  20  21
ENDBRANCH  19  20
ENDBRANCH  18  19
ENDBRANCH  17  18
ENDBRANCH   1  17
TORSDOF 26
ENDMDL
MODEL 2
REMARK VINA RESULT:    -5.707      2.036      3.257
REMARK INTER + INTRA:         -18.512
REMARK INTER:                 -14.721
REMARK INTRA:                  -3.791
REMARK UNBOUND:                -4.131
REMARK SMILES CCCCCCCCCCCCCCCCCCCCCCCCCCCC(=O)[O-]
REMARK SMILES IDX 15 1 16 2 17 3 18 4 19 5 20 6 21 7 22 8 23 9 24 10 25 11
REMARK SMILES IDX 26 12 27 13 28 14 29 15 30 16 14 17 13 18 12 19 11 20 10 21
REMARK SMILES IDX 9 22 8 23 7 24 6 25 5 26 4 27 3 28 2 29 1 30
REMARK H PARENT
REMARK Flexibility Score: inf
ROOT
ATOM      1  C   UNL     1      46.489 -12.811 -39.374  1.00  0.00     0.000 C 
ENDROOT
BRANCH   1   2
ATOM      2  C   UNL     1      44.961 -12.635 -39.276  1.00  0.00     0.000 C 
BRANCH   2   3
ATOM      3  C   UNL     1      44.437 -11.330 -39.914  1.00  0.00     0.000 C 
BRANCH   3   4
ATOM      4  C   UNL     1      44.530 -10.120 -38.967  1.00  0.00     0.000 C 
BRANCH   4   5
ATOM      5  C   UNL     1      43.152  -9.637 -38.478  1.00  0.00     0.000 C 
BRANCH   5   6
ATOM      6  C   UNL     1      41.971 -10.555 -38.853  1.00  0.00     0.000 C 
BRANCH   6   7
ATOM      7  C   UNL     1      40.991  -9.971 -39.888  1.00  0.00     0.000 C 
BRANCH   7   8
ATOM      8  C   UNL     1      41.593  -8.894 -40.808  1.00  0.00     0.000 C 
BRANCH   8   9
ATOM      9  C   UNL     1      40.656  -8.514 -41.970  1.00  0.00     0.000 C 
BRANCH   9  10
ATOM     10  C   UNL     1      41.240  -8.864 -43.347  1.00  0.00     0.000 C 
BRANCH  10  11
ATOM     11  C   UNL     1      40.240  -9.608 -44.244  1.00  0.00     0.000 C 
BRANCH  11  12
ATOM     12  C   UNL     1      40.141 -11.085 -43.838  1.00  0.00     0.006 C 
BRANCH  12  13
ATOM     13  C   UNL     1      40.696 -12.024 -44.920  1.00  0.00     0.053 C 
BRANCH  13  14
ATOM     14  C   UNL     1      42.193 -12.000 -44.968  1.00  0.00     0.041 C 
ATOM     15  O   UNL     1      42.790 -11.863 -46.070  1.00  0.00    -0.550 OA
ATOM     16  O   UNL     1      42.927 -12.125 -43.795  1.00  0.00    -0.550 OA
ENDBRANCH  13  14
ENDBRANCH  12  13
ENDBRANCH  11  12
ENDBRANCH  10  11
ENDBRANCH   9  10
ENDBRANCH   8   9
ENDBRANCH   7   8
ENDBRANCH   6   7
ENDBRANCH   5   6
ENDBRANCH   4   5
ENDBRANCH   3   4
ENDBRANCH   2   3
ENDBRANCH   1   2
BRANCH   1  17
ATOM     17  C   UNL     1      47.225 -12.972 -38.030  1.00  0.00     0.000 C 
BRANCH  17  18
ATOM     18  C   UNL     1      46.784 -14.181 -37.182  1.00  0.00     0.000 C 
BRANCH  18  19
ATOM     19  C   UNL     1      47.782 -14.524 -36.066  1.00  0.00     0.000 C 
BRANCH  19  20
ATOM     20  C   UNL     1      48.247 -13.257 -35.334  1.00  0.00     0.000 C 
BRANCH  20  21
ATOM     21  C   UNL     1      48.794 -13.544 -33.923  1.00  0.00     0.000 C 
BRANCH  21  22
ATOM     22  C   UNL     1      47.945 -12.979 -32.763  1.00  0.00    -0.000 C 
BRANCH  22  23
ATOM     23  C   UNL     1      46.526 -13.563 -32.647  1.00  0.00    -0.000 C 
BRANCH  23  24
ATOM     24  C   UNL     1      46.464 -15.101 -32.620  1.00  0.00    -0.000 C 
BRANCH  24  25
ATOM     25  C   UNL     1      45.074 -15.671 -32.981  1.00  0.00    -0.000 C 
BRANCH  25  26
ATOM     26  C   UNL     1      44.134 -14.602 -33.566  1.00  0.00    -0.000 C 
BRANCH  26  27
ATOM     27  C   UNL     1      43.788 -14.857 -35.043  1.00  0.00    -0.000 C 
BRANCH  27  28
ATOM     28  C   UNL     1      43.195 -13.617 -35.736  1.00  0.00    -0.000 C 
BRANCH  28  29
ATOM     29  C   UNL     1      43.543 -12.314 -35.001  1.00  0.00    -0.003 C 
ATOM     30  C   UNL     1      44.732 -11.581 -35.623  1.00  0.00     0.004 C 
ENDBRANCH  28  29
ENDBRANCH  27  28
ENDBRANCH  26  27
ENDBRANCH  25  26
ENDBRANCH  24  25
ENDBRANCH  23  24
ENDBRANCH  22  23
ENDBRANCH  21  22
ENDBRANCH  20  21
ENDBRANCH  19  20
ENDBRANCH  18  19
ENDBRANCH  17  18
ENDBRANCH   1  17
TORSDOF 26
ENDMDL
MODEL 3
REMARK VINA RESULT:    -5.498      1.423      9.217
REMARK INTER + INTRA:         -17.986
REMARK INTER:                 -14.697
REMARK INTRA:                  -3.289
REMARK UNBOUND:                -4.131
REMARK SMILES CCCCCCCCCCCCCCCCCCCCCCCCCCCC(=O)[O-]
REMARK SMILES IDX 15 1 16 2 17 3 18 4 19 5 20 6 21 7 22 8 23 9 24 10 25 11
REMARK SMILES IDX 26 12 27 13 28 14 29 15 30 16 14 17 13 18 12 19 11 20 10 21
REMARK SMILES IDX 9 22 8 23 7 24 6 25 5 26 4 27 3 28 2 29 1 30
REMARK H PARENT
REMARK Flexibility Score: inf
ROOT
ATOM      1  C   UNL     1      41.784 -12.759 -35.308  1.00  0.00     0.000 C 
ENDROOT
BRANCH   1   2
ATOM      2  C   UNL     1      43.122 -13.225 -34.701  1.00  0.00     0.000 C 
BRANCH   2   3
ATOM      3  C   UNL     1      43.520 -12.476 -33.411  1.00  0.00     0.000 C 
BRANCH   3   4
ATOM      4  C   UNL     1      44.125 -13.403 -32.341  1.00  0.00     0.000 C 
BRANCH   4   5
ATOM      5  C   UNL     1      44.684 -14.711 -32.931  1.00  0.00     0.000 C 
BRANCH   5   6
ATOM      6  C   UNL     1      46.051 -15.146 -32.364  1.00  0.00     0.000 C 
BRANCH   6   7
ATOM      7  C   UNL     1      47.272 -14.717 -33.201  1.00  0.00     0.000 C 
BRANCH   7   8
ATOM      8  C   UNL     1      47.390 -13.201 -33.437  1.00  0.00     0.000 C 
BRANCH   8   9
ATOM      9  C   UNL     1      47.194 -12.813 -34.914  1.00  0.00     0.000 C 
BRANCH   9  10
ATOM     10  C   UNL     1      47.317 -14.011 -35.867  1.00  0.00     0.000 C 
BRANCH  10  11
ATOM     11  C   UNL     1      46.030 -14.271 -36.663  1.00  0.00     0.000 C 
BRANCH  11  12
ATOM     12  C   UNL     1      46.322 -14.316 -38.169  1.00  0.00     0.006 C 
BRANCH  12  13
ATOM     13  C   UNL     1      46.855 -12.976 -38.699  1.00  0.00     0.053 C 
BRANCH  13  14
ATOM     14  C   UNL     1      45.760 -12.117 -39.251  1.00  0.00     0.041 C 
ATOM     15  O   UNL     1      44.649 -12.627 -39.562  1.00  0.00    -0.550 OA
ATOM     16  O   UNL     1      45.964 -10.753 -39.418  1.00  0.00    -0.550 OA
ENDBRANCH  13  14
ENDBRANCH  12  13
ENDBRANCH  11  12
ENDBRANCH  10  11
ENDBRANCH   9  10
ENDBRANCH   8   9
ENDBRANCH   7   8
ENDBRANCH   6   7
ENDBRANCH   5   6
ENDBRANCH   4   5
ENDBRANCH   3   4
ENDBRANCH   2   3
ENDBRANCH   1   2
BRANCH   1  17
ATOM     17  C   UNL     1      41.885 -12.068 -36.681  1.00  0.00     0.000 C 
BRANCH  17  18
ATOM     18  C   UNL     1      43.074 -11.100 -36.842  1.00  0.00     0.000 C 
BRANCH  18  19
ATOM     19  C   UNL     1      42.771  -9.934 -37.793  1.00  0.00     0.000 C 
BRANCH  19  20
ATOM     20  C   UNL     1      41.971 -10.411 -39.014  1.00  0.00     0.000 C 
BRANCH  20  21
ATOM     21  C   UNL     1      41.039  -9.326 -39.584  1.00  0.00     0.000 C 
BRANCH  21  22
ATOM     22  C   UNL     1      40.637  -9.516 -41.062  1.00  0.00    -0.000 C 
BRANCH  22  23
ATOM     23  C   UNL     1      40.987  -8.340 -41.992  1.00  0.00    -0.000 C 
BRANCH  23  24
ATOM     24  C   UNL     1      40.327  -8.400 -43.381  1.00  0.00    -0.000 C 
BRANCH  24  25
ATOM     25  C   UNL     1      40.945  -9.464 -44.316  1.00  0.00    -0.000 C 
BRANCH  25  26
ATOM     26  C   UNL     1      40.096 -10.744 -44.391  1.00  0.00    -0.000 C 
BRANCH  26  27
ATOM     27  C   UNL     1      40.929 -11.993 -44.727  1.00  0.00    -0.000 C 
BRANCH  27  28
ATOM     28  C   UNL     1      42.413 -11.666 -44.975  1.00  0.00    -0.000 C 
BRANCH  28  29
ATOM     29  C   UNL     1      43.337 -12.332 -43.945  1.00  0.00    -0.003 C 
ATOM     30  C   UNL     1      43.396 -11.571 -42.619  1.00  0.00     0.004 C 
ENDBRANCH  28  29
ENDBRANCH  27  28
ENDBRANCH  26  27
ENDBRANCH  25  26
ENDBRANCH  24  25
ENDBRANCH  23  24
ENDBRANCH  22  23
ENDBRANCH  21  22
ENDBRANCH  20  21
ENDBRANCH  19  20
ENDBRANCH  18  19
ENDBRANCH  17  18
ENDBRANCH   1  17
TORSDOF 26
ENDMDL
MODEL 4
REMARK VINA RESULT:    -5.027      4.833      9.417
REMARK INTER + INTRA:         -16.800
REMARK INTER:                 -14.028
REMARK INTRA:                  -2.771
REMARK UNBOUND:                -4.131
REMARK SMILES CCCCCCCCCCCCCCCCCCCCCCCCCCCC(=O)[O-]
REMARK SMILES IDX 15 1 16 2 17 3 18 4 19 5 20 6 21 7 22 8 23 9 24 10 25 11
REMARK SMILES IDX 26 12 27 13 28 14 29 15 30 16 14 17 13 18 12 19 11 20 10 21
REMARK SMILES IDX 9 22 8 23 7 24 6 25 5 26 4 27 3 28 2 29 1 30
REMARK H PARENT
REMARK Flexibility Score: inf
ROOT
ATOM      1  C   UNL     1      41.561 -11.518 -37.464  1.00  0.00     0.000 C 
ENDROOT
BRANCH   1   2
ATOM      2  C   UNL     1      42.768 -11.967 -36.618  1.00  0.00     0.000 C 
BRANCH   2   3
ATOM      3  C   UNL     1      42.397 -12.880 -35.429  1.00  0.00     0.000 C 
BRANCH   3   4
ATOM      4  C   UNL     1      43.614 -13.603 -34.826  1.00  0.00     0.000 C 
BRANCH   4   5
ATOM      5  C   UNL     1      43.485 -15.137 -34.878  1.00  0.00     0.000 C 
BRANCH   5   6
ATOM      6  C   UNL     1      44.255 -15.891 -33.776  1.00  0.00     0.000 C 
BRANCH   6   7
ATOM      7  C   UNL     1      43.591 -17.193 -33.288  1.00  0.00     0.000 C 
BRANCH   7   8
ATOM      8  C   UNL     1      42.805 -17.958 -34.367  1.00  0.00     0.000 C 
BRANCH   8   9
ATOM      9  C   UNL     1      42.763 -19.475 -34.109  1.00  0.00     0.000 C 
BRANCH   9  10
ATOM     10  C   UNL     1      41.348 -20.062 -34.224  1.00  0.00     0.000 C 
BRANCH  10  11
ATOM     11  C   UNL     1      41.330 -21.593 -34.121  1.00  0.00     0.000 C 
BRANCH  11  12
ATOM     12  C   UNL     1      40.940 -22.039 -32.705  1.00  0.00     0.006 C 
BRANCH  12  13
ATOM     13  C   UNL     1      39.613 -22.812 -32.682  1.00  0.00     0.053 C 
BRANCH  13  14
ATOM     14  C   UNL     1      38.432 -21.893 -32.613  1.00  0.00     0.041 C 
ATOM     15  O   UNL     1      37.301 -22.283 -33.011  1.00  0.00    -0.550 OA
ATOM     16  O   UNL     1      38.580 -20.609 -32.104  1.00  0.00    -0.550 OA
ENDBRANCH  13  14
ENDBRANCH  12  13
ENDBRANCH  11  12
ENDBRANCH  10  11
ENDBRANCH   9  10
ENDBRANCH   8   9
ENDBRANCH   7   8
ENDBRANCH   6   7
ENDBRANCH   5   6
ENDBRANCH   4   5
ENDBRANCH   3   4
ENDBRANCH   2   3
ENDBRANCH   1   2
BRANCH   1  17
ATOM     17  C   UNL     1      41.884 -10.546 -38.614  1.00  0.00     0.000 C 
BRANCH  17  18
ATOM     18  C   UNL     1      43.384 -10.287 -38.853  1.00  0.00     0.000 C 
BRANCH  18  19
ATOM     19  C   UNL     1      43.841 -10.675 -40.267  1.00  0.00     0.000 C 
BRANCH  19  20
ATOM     20  C   UNL     1      44.300 -12.140 -40.316  1.00  0.00     0.000 C 
BRANCH  20  21
ATOM     21  C   UNL     1      45.812 -12.304 -40.073  1.00  0.00     0.000 C 
BRANCH  21  22
ATOM     22  C   UNL     1      46.215 -12.586 -38.610  1.00  0.00    -0.000 C 
BRANCH  22  23
ATOM     23  C   UNL     1      45.737 -13.938 -38.049  1.00  0.00    -0.000 C 
BRANCH  23  24
ATOM     24  C   UNL     1      46.624 -14.522 -36.935  1.00  0.00    -0.000 C 
BRANCH  24  25
ATOM     25  C   UNL     1      47.528 -13.473 -36.249  1.00  0.00    -0.000 C 
BRANCH  25  26
ATOM     26  C   UNL     1      48.670 -14.118 -35.444  1.00  0.00    -0.000 C 
BRANCH  26  27
ATOM     27  C   UNL     1      48.498 -13.949 -33.925  1.00  0.00    -0.000 C 
BRANCH  27  28
ATOM     28  C   UNL     1      47.124 -13.368 -33.545  1.00  0.00    -0.000 C 
BRANCH  28  29
ATOM     29  C   UNL     1      46.835 -13.485 -32.041  1.00  0.00    -0.003 C 
ATOM     30  C   UNL     1      48.030 -13.085 -31.174  1.00  0.00     0.004 C 
ENDBRANCH  28  29
ENDBRANCH  27  28
ENDBRANCH  26  27
ENDBRANCH  25  26
ENDBRANCH  24  25
ENDBRANCH  23  24
ENDBRANCH  22  23
ENDBRANCH  21  22
ENDBRANCH  20  21
ENDBRANCH  19  20
ENDBRANCH  18  19
ENDBRANCH  17  18
ENDBRANCH   1  17
TORSDOF 26
ENDMDL
MODEL 5
REMARK VINA RESULT:    -5.020      5.613      9.138
REMARK INTER + INTRA:         -16.781
REMARK INTER:                 -13.665
REMARK INTRA:                  -3.116
REMARK UNBOUND:                -4.131
REMARK SMILES CCCCCCCCCCCCCCCCCCCCCCCCCCCC(=O)[O-]
REMARK SMILES IDX 15 1 16 2 17 3 18 4 19 5 20 6 21 7 22 8 23 9 24 10 25 11
REMARK SMILES IDX 26 12 27 13 28 14 29 15 30 16 14 17 13 18 12 19 11 20 10 21
REMARK SMILES IDX 9 22 8 23 7 24 6 25 5 26 4 27 3 28 2 29 1 30
REMARK H PARENT
REMARK Flexibility Score: inf
ROOT
ATOM      1  C   UNL     1      43.143 -17.203 -34.176  1.00  0.00     0.000 C 
ENDROOT
BRANCH   1   2
ATOM      2  C   UNL     1      43.389 -16.017 -35.129  1.00  0.00     0.000 C 
BRANCH   2   3
ATOM      3  C   UNL     1      44.027 -14.787 -34.448  1.00  0.00     0.000 C 
BRANCH   3   4
ATOM      4  C   UNL     1      44.975 -15.164 -33.295  1.00  0.00     0.000 C 
BRANCH   4   5
ATOM      5  C   UNL     1      45.931 -14.021 -32.909  1.00  0.00     0.000 C 
BRANCH   5   6
ATOM      6  C   UNL     1      47.392 -14.217 -33.361  1.00  0.00     0.000 C 
BRANCH   6   7
ATOM      7  C   UNL     1      47.974 -13.069 -34.209  1.00  0.00     0.000 C 
BRANCH   7   8
ATOM      8  C   UNL     1      48.291 -13.444 -35.667  1.00  0.00     0.000 C 
BRANCH   8   9
ATOM      9  C   UNL     1      47.078 -14.039 -36.405  1.00  0.00     0.000 C 
BRANCH   9  10
ATOM     10  C   UNL     1      46.828 -13.381 -37.771  1.00  0.00     0.000 C 
BRANCH  10  11
ATOM     11  C   UNL     1      45.339 -13.325 -38.139  1.00  0.00     0.000 C 
BRANCH  11  12
ATOM     12  C   UNL     1      44.779 -11.911 -37.927  1.00  0.00     0.006 C 
BRANCH  12  13
ATOM     13  C   UNL     1      44.014 -11.781 -36.602  1.00  0.00     0.053 C 
BRANCH  13  14
ATOM     14  C   UNL     1      42.531 -11.816 -36.806  1.00  0.00     0.041 C 
ATOM     15  O   UNL     1      41.806 -12.544 -36.075  1.00  0.00    -0.550 OA
ATOM     16  O   UNL     1      41.948 -11.042 -37.802  1.00  0.00    -0.550 OA
ENDBRANCH  13  14
ENDBRANCH  12  13
ENDBRANCH  11  12
ENDBRANCH  10  11
ENDBRANCH   9  10
ENDBRANCH   8   9
ENDBRANCH   7   8
ENDBRANCH   6   7
ENDBRANCH   5   6
ENDBRANCH   4   5
ENDBRANCH   3   4
ENDBRANCH   2   3
ENDBRANCH   1   2
BRANCH   1  17
ATOM     17  C   UNL     1      42.307 -18.359 -34.759  1.00  0.00     0.000 C 
BRANCH  17  18
ATOM     18  C   UNL     1      42.544 -19.734 -34.106  1.00  0.00     0.000 C 
BRANCH  18  19
ATOM     19  C   UNL     1      41.249 -20.388 -33.604  1.00  0.00     0.000 C 
BRANCH  19  20
ATOM     20  C   UNL     1      41.349 -21.920 -33.655  1.00  0.00     0.000 C 
BRANCH  20  21
ATOM     21  C   UNL     1      40.521 -22.539 -34.795  1.00  0.00     0.000 C 
BRANCH  21  22
ATOM     22  C   UNL     1      39.660 -23.757 -34.395  1.00  0.00    -0.000 C 
BRANCH  22  23
ATOM     23  C   UNL     1      38.239 -23.421 -33.908  1.00  0.00    -0.000 C 
BRANCH  23  24
ATOM     24  C   UNL     1      37.807 -21.962 -34.142  1.00  0.00    -0.000 C 
BRANCH  24  25
ATOM     25  C   UNL     1      37.621 -21.155 -32.837  1.00  0.00    -0.000 C 
BRANCH  25  26
ATOM     26  C   UNL     1      38.053 -21.947 -31.590  1.00  0.00    -0.000 C 
BRANCH  26  27
ATOM     27  C   UNL     1      38.978 -21.140 -30.664  1.00  0.00    -0.000 C 
BRANCH  27  28
ATOM     28  C   UNL     1      40.009 -22.024 -29.939  1.00  0.00    -0.000 C 
BRANCH  28  29
ATOM     29  C   UNL     1      41.302 -21.264 -29.610  1.00  0.00    -0.003 C 
ATOM     30  C   UNL     1      41.235 -19.784 -29.990  1.00  0.00     0.004 C 
ENDBRANCH  28  29
ENDBRANCH  27  28
ENDBRANCH  26  27
ENDBRANCH  25  26
ENDBRANCH  24  25
ENDBRANCH  23  24
ENDBRANCH  22  23
ENDBRANCH  21  22
ENDBRANCH  20  21
ENDBRANCH  19  20
ENDBRANCH  18  19
ENDBRANCH  17  18
ENDBRANCH   1  17
TORSDOF 26
ENDMDL
MODEL 6
REMARK VINA RESULT:    -4.997     10.330     13.070
REMARK INTER + INTRA:         -16.723
REMARK INTER:                 -11.540
REMARK INTRA:                  -5.184
REMARK UNBOUND:                -4.131
REMARK SMILES CCCCCCCCCCCCCCCCCCCCCCCCCCCC(=O)[O-]
REMARK SMILES IDX 15 1 16 2 17 3 18 4 19 5 20 6 21 7 22 8 23 9 24 10 25 11
REMARK SMILES IDX 26 12 27 13 28 14 29 15 30 16 14 17 13 18 12 19 11 20 10 21
REMARK SMILES IDX 9 22 8 23 7 24 6 25 5 26 4 27 3 28 2 29 1 30
REMARK H PARENT
REMARK Flexibility Score: inf
ROOT
ATOM      1  C   UNL     1      39.780 -22.619 -34.677  1.00  0.00     0.000 C 
ENDROOT
BRANCH   1   2
ATOM      2  C   UNL     1      39.360 -24.073 -34.383  1.00  0.00     0.000 C 
BRANCH   2   3
ATOM      3  C   UNL     1      38.113 -24.536 -35.167  1.00  0.00     0.000 C 
BRANCH   3   4
ATOM      4  C   UNL     1      38.284 -25.930 -35.797  1.00  0.00     0.000 C 
BRANCH   4   5
ATOM      5  C   UNL     1      36.942 -26.635 -36.064  1.00  0.00     0.000 C 
BRANCH   5   6
ATOM      6  C   UNL     1      36.026 -25.923 -37.080  1.00  0.00     0.000 C 
BRANCH   6   7
ATOM      7  C   UNL     1      36.701 -25.529 -38.408  1.00  0.00     0.000 C 
BRANCH   7   8
ATOM      8  C   UNL     1      36.211 -24.200 -39.009  1.00  0.00     0.000 C 
BRANCH   8   9
ATOM      9  C   UNL     1      37.337 -23.158 -39.142  1.00  0.00     0.000 C 
BRANCH   9  10
ATOM     10  C   UNL     1      36.986 -21.814 -38.485  1.00  0.00     0.000 C 
BRANCH  10  11
ATOM     11  C   UNL     1      36.525 -21.967 -37.029  1.00  0.00     0.000 C 
BRANCH  11  12
ATOM     12  C   UNL     1      35.124 -21.368 -36.837  1.00  0.00     0.006 C 
BRANCH  12  13
ATOM     13  C   UNL     1      34.159 -22.350 -36.156  1.00  0.00     0.053 C 
BRANCH  13  14
ATOM     14  C   UNL     1      33.042 -21.642 -35.455  1.00  0.00     0.041 C 
ATOM     15  O   UNL     1      31.849 -21.817 -35.824  1.00  0.00    -0.550 OA
ATOM     16  O   UNL     1      33.317 -20.791 -34.392  1.00  0.00    -0.550 OA
ENDBRANCH  13  14
ENDBRANCH  12  13
ENDBRANCH  11  12
ENDBRANCH  10  11
ENDBRANCH   9  10
ENDBRANCH   8   9
ENDBRANCH   7   8
ENDBRANCH   6   7
ENDBRANCH   5   6
ENDBRANCH   4   5
ENDBRANCH   3   4
ENDBRANCH   2   3
ENDBRANCH   1   2
BRANCH   1  17
ATOM     17  C   UNL     1      40.952 -22.085 -33.832  1.00  0.00     0.000 C 
BRANCH  17  18
ATOM     18  C   UNL     1      40.855 -20.597 -33.443  1.00  0.00     0.000 C 
BRANCH  18  19
ATOM     19  C   UNL     1      40.582 -20.386 -31.947  1.00  0.00     0.000 C 
BRANCH  19  20
ATOM     20  C   UNL     1      40.826 -21.678 -31.154  1.00  0.00     0.000 C 
BRANCH  20  21
ATOM     21  C   UNL     1      39.759 -21.932 -30.073  1.00  0.00     0.000 C 
BRANCH  21  22
ATOM     22  C   UNL     1      38.324 -21.512 -30.456  1.00  0.00    -0.000 C 
BRANCH  22  23
ATOM     23  C   UNL     1      37.656 -22.380 -31.539  1.00  0.00    -0.000 C 
BRANCH  23  24
ATOM     24  C   UNL     1      36.825 -21.594 -32.570  1.00  0.00    -0.000 C 
BRANCH  24  25
ATOM     25  C   UNL     1      36.864 -20.064 -32.361  1.00  0.00    -0.000 C 
BRANCH  25  26
ATOM     26  C   UNL     1      36.443 -19.288 -33.621  1.00  0.00    -0.000 C 
BRANCH  26  27
ATOM     27  C   UNL     1      37.436 -19.457 -34.784  1.00  0.00    -0.000 C 
BRANCH  27  28
ATOM     28  C   UNL     1      37.457 -18.241 -35.727  1.00  0.00    -0.000 C 
BRANCH  28  29
ATOM     29  C   UNL     1      38.270 -18.506 -37.003  1.00  0.00    -0.003 C 
ATOM     30  C   UNL     1      39.393 -19.523 -36.793  1.00  0.00     0.004 C 
ENDBRANCH  28  29
ENDBRANCH  27  28
ENDBRANCH  26  27
ENDBRANCH  25  26
ENDBRANCH  24  25
ENDBRANCH  23  24
ENDBRANCH  22  23
ENDBRANCH  21  22
ENDBRANCH  20  21
ENDBRANCH  19  20
ENDBRANCH  18  19
ENDBRANCH  17  18
ENDBRANCH   1  17
TORSDOF 26
ENDMDL
MODEL 7
REMARK VINA RESULT:    -4.995      5.468      7.895
REMARK INTER + INTRA:         -16.718
REMARK INTER:                 -14.083
REMARK INTRA:                  -2.635
REMARK UNBOUND:                -4.131
REMARK SMILES CCCCCCCCCCCCCCCCCCCCCCCCCCCC(=O)[O-]
REMARK SMILES IDX 15 1 16 2 17 3 18 4 19 5 20 6 21 7 22 8 23 9 24 10 25 11
REMARK SMILES IDX 26 12 27 13 28 14 29 15 30 16 14 17 13 18 12 19 11 20 10 21
REMARK SMILES IDX 9 22 8 23 7 24 6 25 5 26 4 27 3 28 2 29 1 30
REMARK H PARENT
REMARK Flexibility Score: inf
ROOT
ATOM      1  C   UNL     1      43.869 -16.101 -33.576  1.00  0.00     0.000 C 
ENDROOT
BRANCH   1   2
ATOM      2  C   UNL     1      45.084 -15.156 -33.644  1.00  0.00     0.000 C 
BRANCH   2   3
ATOM      3  C   UNL     1      44.802 -13.733 -33.117  1.00  0.00     0.000 C 
BRANCH   3   4
ATOM      4  C   UNL     1      44.354 -12.762 -34.225  1.00  0.00     0.000 C 
BRANCH   4   5
ATOM      5  C   UNL     1      42.845 -12.458 -34.179  1.00  0.00     0.000 C 
BRANCH   5   6
ATOM      6  C   UNL     1      42.075 -12.801 -35.471  1.00  0.00     0.000 C 
BRANCH   6   7
ATOM      7  C   UNL     1      42.797 -12.428 -36.781  1.00  0.00     0.000 C 
BRANCH   7   8
ATOM      8  C   UNL     1      42.703 -10.940 -37.165  1.00  0.00     0.000 C 
BRANCH   8   9
ATOM      9  C   UNL     1      41.724 -10.687 -38.326  1.00  0.00     0.000 C 
BRANCH   9  10
ATOM     10  C   UNL     1      42.348  -9.867 -39.466  1.00  0.00     0.000 C 
BRANCH  10  11
ATOM     11  C   UNL     1      42.266 -10.578 -40.823  1.00  0.00     0.000 C 
BRANCH  11  12
ATOM     12  C   UNL     1      43.665 -10.977 -41.314  1.00  0.00     0.006 C 
BRANCH  12  13
ATOM     13  C   UNL     1      44.132 -12.313 -40.717  1.00  0.00     0.053 C 
BRANCH  13  14
ATOM     14  C   UNL     1      45.358 -12.150 -39.872  1.00  0.00     0.041 C 
ATOM     15  O   UNL     1      46.144 -13.121 -39.700  1.00  0.00    -0.550 OA
ATOM     16  O   UNL     1      45.635 -10.925 -39.279  1.00  0.00    -0.550 OA
ENDBRANCH  13  14
ENDBRANCH  12  13
ENDBRANCH  11  12
ENDBRANCH  10  11
ENDBRANCH   9  10
ENDBRANCH   8   9
ENDBRANCH   7   8
ENDBRANCH   6   7
ENDBRANCH   5   6
ENDBRANCH   4   5
ENDBRANCH   3   4
ENDBRANCH   2   3
ENDBRANCH   1   2
BRANCH   1  17
ATOM     17  C   UNL     1      43.138 -16.337 -34.912  1.00  0.00     0.000 C 
BRANCH  17  18
ATOM     18  C   UNL     1      42.410 -17.689 -35.032  1.00  0.00     0.000 C 
BRANCH  18  19
ATOM     19  C   UNL     1      43.041 -18.788 -34.164  1.00  0.00     0.000 C 
BRANCH  19  20
ATOM     20  C   UNL     1      41.976 -19.505 -33.322  1.00  0.00     0.000 C 
BRANCH  20  21
ATOM     21  C   UNL     1      41.106 -20.471 -34.148  1.00  0.00     0.000 C 
BRANCH  21  22
ATOM     22  C   UNL     1      41.144 -21.945 -33.689  1.00  0.00    -0.000 C 
BRANCH  22  23
ATOM     23  C   UNL     1      40.339 -22.923 -34.563  1.00  0.00    -0.000 C 
BRANCH  23  24
ATOM     24  C   UNL     1      39.081 -23.501 -33.889  1.00  0.00    -0.000 C 
BRANCH  24  25
ATOM     25  C   UNL     1      39.138 -23.475 -32.345  1.00  0.00    -0.000 C 
BRANCH  25  26
ATOM     26  C   UNL     1      38.129 -22.487 -31.735  1.00  0.00    -0.000 C 
BRANCH  26  27
ATOM     27  C   UNL     1      37.341 -21.707 -32.802  1.00  0.00    -0.000 C 
BRANCH  27  28
ATOM     28  C   UNL     1      37.548 -20.185 -32.698  1.00  0.00    -0.000 C 
BRANCH  28  29
ATOM     29  C   UNL     1      37.259 -19.651 -31.288  1.00  0.00    -0.003 C 
ATOM     30  C   UNL     1      35.789 -19.793 -30.888  1.00  0.00     0.004 C 
ENDBRANCH  28  29
ENDBRANCH  27  28
ENDBRANCH  26  27
ENDBRANCH  25  26
ENDBRANCH  24  25
ENDBRANCH  23  24
ENDBRANCH  22  23
ENDBRANCH  21  22
ENDBRANCH  20  21
ENDBRANCH  19  20
ENDBRANCH  18  19
ENDBRANCH  17  18
ENDBRANCH   1  17
TORSDOF 26
ENDMDL
MODEL 8
REMARK VINA RESULT:    -4.949      6.659     10.781
REMARK INTER + INTRA:         -16.602
REMARK INTER:                 -13.369
REMARK INTRA:                  -3.233
REMARK UNBOUND:                -4.131
REMARK SMILES CCCCCCCCCCCCCCCCCCCCCCCCCCCC(=O)[O-]
REMARK SMILES IDX 15 1 16 2 17 3 18 4 19 5 20 6 21 7 22 8 23 9 24 10 25 11
REMARK SMILES IDX 26 12 27 13 28 14 29 15 30 16 14 17 13 18 12 19 11 20 10 21
REMARK SMILES IDX 9 22 8 23 7 24 6 25 5 26 4 27 3 28 2 29 1 30
REMARK H PARENT
REMARK Flexibility Score: inf
ROOT
ATOM      1  C   UNL     1      42.678 -17.438 -35.113  1.00  0.00     0.000 C 
ENDROOT
BRANCH   1   2
ATOM      2  C   UNL     1      42.981 -18.401 -33.949  1.00  0.00     0.000 C 
BRANCH   2   3
ATOM      3  C   UNL     1      42.390 -19.815 -34.135  1.00  0.00     0.000 C 
BRANCH   3   4
ATOM      4  C   UNL     1      41.251 -20.124 -33.146  1.00  0.00     0.000 C 
BRANCH   4   5
ATOM      5  C   UNL     1      40.878 -21.617 -33.111  1.00  0.00     0.000 C 
BRANCH   5   6
ATOM      6  C   UNL     1      40.474 -22.152 -31.722  1.00  0.00     0.000 C 
BRANCH   6   7
ATOM      7  C   UNL     1      38.974 -22.463 -31.551  1.00  0.00     0.000 C 
BRANCH   7   8
ATOM      8  C   UNL     1      38.070 -21.223 -31.440  1.00  0.00     0.000 C 
BRANCH   8   9
ATOM      9  C   UNL     1      36.947 -21.210 -32.493  1.00  0.00     0.000 C 
BRANCH   9  10
ATOM     10  C   UNL     1      37.011 -19.986 -33.420  1.00  0.00     0.000 C 
BRANCH  10  11
ATOM     11  C   UNL     1      37.819 -20.250 -34.698  1.00  0.00     0.000 C 
BRANCH  11  12
ATOM     12  C   UNL     1      37.410 -21.587 -35.333  1.00  0.00     0.006 C 
BRANCH  12  13
ATOM     13  C   UNL     1      38.613 -22.515 -35.560  1.00  0.00     0.053 C 
BRANCH  13  14
ATOM     14  C   UNL     1      38.353 -23.901 -35.055  1.00  0.00     0.041 C 
ATOM     15  O   UNL     1      37.214 -24.423 -35.191  1.00  0.00    -0.550 OA
ATOM     16  O   UNL     1      39.371 -24.617 -34.437  1.00  0.00    -0.550 OA
ENDBRANCH  13  14
ENDBRANCH  12  13
ENDBRANCH  11  12
ENDBRANCH  10  11
ENDBRANCH   9  10
ENDBRANCH   8   9
ENDBRANCH   7   8
ENDBRANCH   6   7
ENDBRANCH   5   6
ENDBRANCH   4   5
ENDBRANCH   3   4
ENDBRANCH   2   3
ENDBRANCH   1   2
BRANCH   1  17
ATOM     17  C   UNL     1      43.235 -16.010 -34.953  1.00  0.00     0.000 C 
BRANCH  17  18
ATOM     18  C   UNL     1      44.193 -15.810 -33.763  1.00  0.00     0.000 C 
BRANCH  18  19
ATOM     19  C   UNL     1      45.174 -14.647 -33.973  1.00  0.00     0.000 C 
BRANCH  19  20
ATOM     20  C   UNL     1      45.033 -14.056 -35.383  1.00  0.00     0.000 C 
BRANCH  20  21
ATOM     21  C   UNL     1      45.271 -12.534 -35.423  1.00  0.00     0.000 C 
BRANCH  21  22
ATOM     22  C   UNL     1      44.000 -11.668 -35.292  1.00  0.00    -0.000 C 
BRANCH  22  23
ATOM     23  C   UNL     1      42.673 -12.414 -35.524  1.00  0.00    -0.000 C 
BRANCH  23  24
ATOM     24  C   UNL     1      41.953 -12.053 -36.836  1.00  0.00    -0.000 C 
BRANCH  24  25
ATOM     25  C   UNL     1      42.630 -10.905 -37.619  1.00  0.00    -0.000 C 
BRANCH  25  26
ATOM     26  C   UNL     1      42.317 -10.957 -39.125  1.00  0.00    -0.000 C 
BRANCH  26  27
ATOM     27  C   UNL     1      43.585 -10.977 -39.995  1.00  0.00    -0.000 C 
BRANCH  27  28
ATOM     28  C   UNL     1      44.854 -11.303 -39.188  1.00  0.00    -0.000 C 
BRANCH  28  29
ATOM     29  C   UNL     1      45.532 -12.597 -39.661  1.00  0.00    -0.003 C 
ATOM     30  C   UNL     1      46.612 -13.090 -38.697  1.00  0.00     0.004 C 
ENDBRANCH  28  29
ENDBRANCH  27  28
ENDBRANCH  26  27
ENDBRANCH  25  26
ENDBRANCH  24  25
ENDBRANCH  23  24
ENDBRANCH  22  23
ENDBRANCH  21  22
ENDBRANCH  20  21
ENDBRANCH  19  20
ENDBRANCH  18  19
ENDBRANCH  17  18
ENDBRANCH   1  17
TORSDOF 26
ENDMDL
MODEL 9
REMARK VINA RESULT:    -4.928      9.946     14.105
REMARK INTER + INTRA:         -16.549
REMARK INTER:                 -11.847
REMARK INTRA:                  -4.702
REMARK UNBOUND:                -4.131
REMARK SMILES CCCCCCCCCCCCCCCCCCCCCCCCCCCC(=O)[O-]
REMARK SMILES IDX 15 1 16 2 17 3 18 4 19 5 20 6 21 7 22 8 23 9 24 10 25 11
REMARK SMILES IDX 26 12 27 13 28 14 29 15 30 16 14 17 13 18 12 19 11 20 10 21
REMARK SMILES IDX 9 22 8 23 7 24 6 25 5 26 4 27 3 28 2 29 1 30
REMARK H PARENT
REMARK Flexibility Score: inf
ROOT
ATOM      1  C   UNL     1      38.082 -23.760 -34.860  1.00  0.00     0.000 C 
ENDROOT
BRANCH   1   2
ATOM      2  C   UNL     1      39.379 -23.868 -34.035  1.00  0.00     0.000 C 
BRANCH   2   3
ATOM      3  C   UNL     1      40.474 -22.862 -34.452  1.00  0.00     0.000 C 
BRANCH   3   4
ATOM      4  C   UNL     1      41.193 -22.226 -33.248  1.00  0.00     0.000 C 
BRANCH   4   5
ATOM      5  C   UNL     1      40.828 -20.744 -33.049  1.00  0.00     0.000 C 
BRANCH   5   6
ATOM      6  C   UNL     1      40.733 -20.291 -31.578  1.00  0.00     0.000 C 
BRANCH   6   7
ATOM      7  C   UNL     1      40.833 -21.423 -30.537  1.00  0.00     0.000 C 
BRANCH   7   8
ATOM      8  C   UNL     1      39.482 -21.910 -29.984  1.00  0.00     0.000 C 
BRANCH   8   9
ATOM      9  C   UNL     1      38.467 -20.767 -29.807  1.00  0.00     0.000 C 
BRANCH   9  10
ATOM     10  C   UNL     1      37.114 -21.061 -30.474  1.00  0.00     0.000 C 
BRANCH  10  11
ATOM     11  C   UNL     1      37.262 -21.674 -31.873  1.00  0.00     0.000 C 
BRANCH  11  12
ATOM     12  C   UNL     1      37.097 -20.599 -32.957  1.00  0.00     0.006 C 
BRANCH  12  13
ATOM     13  C   UNL     1      35.982 -19.598 -32.620  1.00  0.00     0.053 C 
BRANCH  13  14
ATOM     14  C   UNL     1      34.805 -19.742 -33.534  1.00  0.00     0.041 C 
ATOM     15  O   UNL     1      33.759 -19.068 -33.332  1.00  0.00    -0.550 OA
ATOM     16  O   UNL     1      34.865 -20.617 -34.611  1.00  0.00    -0.550 OA
ENDBRANCH  13  14
ENDBRANCH  12  13
ENDBRANCH  11  12
ENDBRANCH  10  11
ENDBRANCH   9  10
ENDBRANCH   8   9
ENDBRANCH   7   8
ENDBRANCH   6   7
ENDBRANCH   5   6
ENDBRANCH   4   5
ENDBRANCH   3   4
ENDBRANCH   2   3
ENDBRANCH   1   2
BRANCH   1  17
ATOM     17  C   UNL     1      37.674 -25.035 -35.622  1.00  0.00     0.000 C 
BRANCH  17  18
ATOM     18  C   UNL     1      36.212 -25.069 -36.108  1.00  0.00     0.000 C 
BRANCH  18  19
ATOM     19  C   UNL     1      36.036 -25.848 -37.420  1.00  0.00     0.000 C 
BRANCH  19  20
ATOM     20  C   UNL     1      37.151 -25.507 -38.418  1.00  0.00     0.000 C 
BRANCH  20  21
ATOM     21  C   UNL     1      36.615 -25.089 -39.800  1.00  0.00     0.000 C 
BRANCH  21  22
ATOM     22  C   UNL     1      36.712 -23.580 -40.113  1.00  0.00    -0.000 C 
BRANCH  22  23
ATOM     23  C   UNL     1      36.031 -22.655 -39.088  1.00  0.00    -0.000 C 
BRANCH  23  24
ATOM     24  C   UNL     1      36.801 -21.358 -38.782  1.00  0.00    -0.000 C 
BRANCH  24  25
ATOM     25  C   UNL     1      38.336 -21.518 -38.850  1.00  0.00    -0.000 C 
BRANCH  25  26
ATOM     26  C   UNL     1      39.006 -21.356 -37.474  1.00  0.00    -0.000 C 
BRANCH  26  27
ATOM     27  C   UNL     1      38.218 -20.426 -36.535  1.00  0.00    -0.000 C 
BRANCH  27  28
ATOM     28  C   UNL     1      39.064 -19.246 -36.023  1.00  0.00    -0.000 C 
BRANCH  28  29
ATOM     29  C   UNL     1      38.431 -17.886 -36.353  1.00  0.00    -0.003 C 
ATOM     30  C   UNL     1      37.421 -17.964 -37.499  1.00  0.00     0.004 C 
ENDBRANCH  28  29
ENDBRANCH  27  28
ENDBRANCH  26  27
ENDBRANCH  25  26
ENDBRANCH  24  25
ENDBRANCH  23  24
ENDBRANCH  22  23
ENDBRANCH  21  22
ENDBRANCH  20  21
ENDBRANCH  19  20
ENDBRANCH  18  19
ENDBRANCH  17  18
ENDBRANCH   1  17
TORSDOF 26
ENDMDL
