MODEL 1
REMARK VINA RESULT:     3.441      0.000      0.000
REMARK INTER + INTRA:           3.855
REMARK INTER:                   4.145
REMARK INTRA:                  -0.290
REMARK UNBOUND:                -0.290
REMARK SMILES O=c1c(O)c(-c2ccc(O)cc2O)oc2cc(O)cc(O)c12
REMARK SMILES IDX 5 1 3 2 2 3 1 4 22 5 20 6 19 7 17 8 16 9 15 10 14 11 6 12
REMARK SMILES IDX 8 13 7 14 9 15 11 16 12 17 10 18 13 20 4 22 21 24 18 26
REMARK H PARENT 10 19 13 21 4 23 21 25 18 27
REMARK Flexibility Score: inf
ROOT
ATOM      1  C   UNL     1     167.249 164.485 152.299  1.00  0.00     0.184 A 
ATOM      2  C   UNL     1     167.120 163.401 153.183  1.00  0.00     0.208 A 
ATOM      3  C   UNL     1     167.136 163.644 154.565  1.00  0.00     0.238 A 
ATOM      4  O   UNL     1     166.962 162.676 155.352  1.00  0.00    -0.285 OA
ATOM      5  C   UNL     1     167.301 164.965 155.046  1.00  0.00     0.111 A 
ATOM      6  C   UNL     1     167.372 165.323 156.427  1.00  0.00     0.134 A 
ATOM      7  C   UNL     1     167.409 166.675 156.788  1.00  0.00     0.093 A 
ATOM      8  C   UNL     1     167.443 167.680 155.819  1.00  0.00     0.123 A 
ATOM      9  C   UNL     1     167.433 167.338 154.468  1.00  0.00     0.094 A 
ATOM     10  C   UNL     1     167.360 166.000 154.076  1.00  0.00     0.146 A 
ATOM     11  O   UNL     1     167.342 165.719 152.778  1.00  0.00    -0.451 OA
ENDROOT
BRANCH   1  12
ATOM     12  C   UNL     1     167.264 164.296 150.829  1.00  0.00     0.063 A 
ATOM     13  C   UNL     1     166.151 164.452 148.670  1.00  0.00     0.047 A 
ATOM     14  C   UNL     1     166.147 164.655 150.052  1.00  0.00     0.020 A 
ATOM     15  C   UNL     1     167.266 163.880 148.046  1.00  0.00     0.119 A 
ATOM     16  C   UNL     1     168.374 163.508 148.810  1.00  0.00     0.093 A 
ATOM     17  C   UNL     1     168.381 163.710 150.199  1.00  0.00     0.130 A 
BRANCH  15  18
ATOM     18  O   UNL     1     167.279 163.673 146.668  1.00  0.00    -0.508 OA
ATOM     19  H   UNL     1     166.924 162.818 146.257  1.00  0.00     0.293 HD
ENDBRANCH  15  18
BRANCH  17  20
ATOM     20  O   UNL     1     169.497 163.339 150.948  1.00  0.00    -0.507 OA
ATOM     21  H   UNL     1     169.876 163.940 151.671  1.00  0.00     0.293 HD
ENDBRANCH  17  20
ENDBRANCH   1  12
BRANCH   2  22
ATOM     22  O   UNL     1     166.943 162.107 152.685  1.00  0.00    -0.502 OA
ATOM     23  H   UNL     1     166.382 161.911 151.864  1.00  0.00     0.293 HD
ENDBRANCH   2  22
BRANCH   6  24
ATOM     24  O   UNL     1     167.437 164.396 157.470  1.00  0.00    -0.507 OA
ATOM     25  H   UNL     1     166.651 164.106 158.032  1.00  0.00     0.293 HD
ENDBRANCH   6  24
BRANCH   8  26
ATOM     26  O   UNL     1     167.495 169.022 156.187  1.00  0.00    -0.508 OA
ATOM     27  H   UNL     1     166.735 169.659 155.977  1.00  0.00     0.293 HD
ENDBRANCH   8  26
TORSDOF 6
ENDMDL
MODEL 2
REMARK VINA RESULT:     4.119      1.652      6.612
REMARK INTER + INTRA:           4.672
REMARK INTER:                   5.078
REMARK INTRA:                  -0.406
REMARK UNBOUND:                -0.290
REMARK SMILES O=c1c(O)c(-c2ccc(O)cc2O)oc2cc(O)cc(O)c12
REMARK SMILES IDX 5 1 3 2 2 3 1 4 22 5 20 6 19 7 17 8 16 9 15 10 14 11 6 12
REMARK SMILES IDX 8 13 7 14 9 15 11 16 12 17 10 18 13 20 4 22 21 24 18 26
REMARK H PARENT 10 19 13 21 4 23 21 25 18 27
REMARK Flexibility Score: inf
ROOT
ATOM      1  C   UNL     1     167.431 163.888 152.098  1.00  0.00     0.184 A 
ATOM      2  C   UNL     1     168.461 163.299 151.346  1.00  0.00     0.208 A 
ATOM      3  C   UNL     1     168.446 163.431 149.949  1.00  0.00     0.238 A 
ATOM      4  O   UNL     1     169.401 162.951 149.285  1.00  0.00    -0.285 OA
ATOM      5  C   UNL     1     167.390 164.133 149.319  1.00  0.00     0.111 A 
ATOM      6  C   UNL     1     167.251 164.295 147.908  1.00  0.00     0.134 A 
ATOM      7  C   UNL     1     166.235 165.116 147.404  1.00  0.00     0.093 A 
ATOM      8  C   UNL     1     165.315 165.730 148.256  1.00  0.00     0.123 A 
ATOM      9  C   UNL     1     165.406 165.531 149.632  1.00  0.00     0.094 A 
ATOM     10  C   UNL     1     166.430 164.746 150.167  1.00  0.00     0.146 A 
ATOM     11  O   UNL     1     166.487 164.591 151.485  1.00  0.00    -0.451 OA
ENDROOT
BRANCH   1  12
ATOM     12  C   UNL     1     167.373 163.767 153.574  1.00  0.00     0.063 A 
ATOM     13  C   UNL     1     167.148 162.392 155.570  1.00  0.00     0.047 A 
ATOM     14  C   UNL     1     167.230 162.505 154.180  1.00  0.00     0.020 A 
ATOM     15  C   UNL     1     167.197 163.538 156.373  1.00  0.00     0.119 A 
ATOM     16  C   UNL     1     167.325 164.796 155.780  1.00  0.00     0.093 A 
ATOM     17  C   UNL     1     167.411 164.919 154.385  1.00  0.00     0.130 A 
BRANCH  15  18
ATOM     18  O   UNL     1     167.115 163.436 157.760  1.00  0.00    -0.508 OA
ATOM     19  H   UNL     1     166.222 163.374 158.235  1.00  0.00     0.293 HD
ENDBRANCH  15  18
BRANCH  17  20
ATOM     20  O   UNL     1     167.544 166.182 153.807  1.00  0.00    -0.507 OA
ATOM     21  H   UNL     1     167.435 166.324 152.809  1.00  0.00     0.293 HD
ENDBRANCH  17  20
ENDBRANCH   1  12
BRANCH   2  22
ATOM     22  O   UNL     1     169.501 162.623 151.991  1.00  0.00    -0.502 OA
ATOM     23  H   UNL     1     170.021 161.875 151.548  1.00  0.00     0.293 HD
ENDBRANCH   2  22
BRANCH   6  24
ATOM     24  O   UNL     1     168.060 163.653 146.966  1.00  0.00    -0.507 OA
ATOM     25  H   UNL     1     168.257 162.664 146.955  1.00  0.00     0.293 HD
ENDBRANCH   6  24
BRANCH   8  26
ATOM     26  O   UNL     1     164.298 166.533 147.745  1.00  0.00    -0.508 OA
ATOM     27  H   UNL     1     163.436 166.686 148.256  1.00  0.00     0.293 HD
ENDBRANCH   8  26
TORSDOF 6
ENDMDL
MODEL 3
REMARK VINA RESULT:     5.375      1.752      3.476
REMARK INTER + INTRA:           6.184
REMARK INTER:                   6.669
REMARK INTRA:                  -0.485
REMARK UNBOUND:                -0.290
REMARK SMILES O=c1c(O)c(-c2ccc(O)cc2O)oc2cc(O)cc(O)c12
REMARK SMILES IDX 5 1 3 2 2 3 1 4 22 5 20 6 19 7 17 8 16 9 15 10 14 11 6 12
REMARK SMILES IDX 8 13 7 14 9 15 11 16 12 17 10 18 13 20 4 22 21 24 18 26
REMARK H PARENT 10 19 13 21 4 23 21 25 18 27
REMARK Flexibility Score: inf
ROOT
ATOM      1  C   UNL     1     167.220 163.974 153.288  1.00  0.00     0.184 A 
ATOM      2  C   UNL     1     167.351 165.146 154.052  1.00  0.00     0.208 A 
ATOM      3  C   UNL     1     167.344 165.051 155.452  1.00  0.00     0.238 A 
ATOM      4  O   UNL     1     167.519 166.098 156.129  1.00  0.00    -0.285 OA
ATOM      5  C   UNL     1     167.186 163.789 156.072  1.00  0.00     0.111 A 
ATOM      6  C   UNL     1     167.125 163.579 157.483  1.00  0.00     0.134 A 
ATOM      7  C   UNL     1     167.095 162.273 157.986  1.00  0.00     0.093 A 
ATOM      8  C   UNL     1     167.059 161.171 157.129  1.00  0.00     0.123 A 
ATOM      9  C   UNL     1     167.059 161.367 155.750  1.00  0.00     0.094 A 
ATOM     10  C   UNL     1     167.125 162.656 155.217  1.00  0.00     0.146 A 
ATOM     11  O   UNL     1     167.134 162.797 153.897  1.00  0.00    -0.451 OA
ENDROOT
BRANCH   1  12
ATOM     12  C   UNL     1     167.194 164.004 151.807  1.00  0.00     0.063 A 
ATOM     13  C   UNL     1     165.988 164.370 149.725  1.00  0.00     0.047 A 
ATOM     14  C   UNL     1     166.021 164.367 151.122  1.00  0.00     0.020 A 
ATOM     15  C   UNL     1     167.122 164.000 148.994  1.00  0.00     0.119 A 
ATOM     16  C   UNL     1     168.289 163.625 149.665  1.00  0.00     0.093 A 
ATOM     17  C   UNL     1     168.332 163.622 151.067  1.00  0.00     0.130 A 
BRANCH  15  18
ATOM     18  O   UNL     1     167.100 163.999 147.601  1.00  0.00    -0.508 OA
ATOM     19  H   UNL     1     167.712 164.600 147.061  1.00  0.00     0.293 HD
ENDBRANCH  15  18
BRANCH  17  20
ATOM     20  O   UNL     1     169.506 163.250 151.724  1.00  0.00    -0.507 OA
ATOM     21  H   UNL     1     169.929 162.340 151.582  1.00  0.00     0.293 HD
ENDBRANCH  17  20
ENDBRANCH   1  12
BRANCH   2  22
ATOM     22  O   UNL     1     167.519 166.380 153.417  1.00  0.00    -0.502 OA
ATOM     23  H   UNL     1     167.636 166.465 152.414  1.00  0.00     0.293 HD
ENDBRANCH   2  22
BRANCH   6  24
ATOM     24  O   UNL     1     167.064 164.612 158.422  1.00  0.00    -0.507 OA
ATOM     25  H   UNL     1     166.397 165.369 158.403  1.00  0.00     0.293 HD
ENDBRANCH   6  24
BRANCH   8  26
ATOM     26  O   UNL     1     167.014 159.875 157.639  1.00  0.00    -0.508 OA
ATOM     27  H   UNL     1     167.783 159.227 157.508  1.00  0.00     0.293 HD
ENDBRANCH   8  26
TORSDOF 6
ENDMDL
