MODEL 1
REMARK VINA RESULT:    -5.081      0.000      0.000
REMARK INTER + INTRA:         -10.761
REMARK INTER:                  -8.645
REMARK INTRA:                  -2.116
REMARK UNBOUND:                -2.116
REMARK SMILES CCCCCCCCCCCCCC(=O)[O-]
REMARK SMILES IDX 8 1 9 2 10 3 11 4 12 5 13 6 14 7 15 8 16 9 7 10 6 11 5 12
REMARK SMILES IDX 4 13 3 14 2 15 1 16
REMARK H PARENT
REMARK Flexibility Score: inf
ROOT
ATOM      1  C   UNL     1      17.680  -5.564  36.433  1.00  0.00     0.000 C 
ENDROOT
BRANCH   1   2
ATOM      2  C   UNL     1      16.507  -4.910  35.680  1.00  0.00     0.000 C 
BRANCH   2   3
ATOM      3  C   UNL     1      15.861  -5.856  34.656  1.00  0.00     0.000 C 
BRANCH   3   4
ATOM      4  C   UNL     1      16.104  -5.416  33.202  1.00  0.00     0.000 C 
BRANCH   4   5
ATOM      5  C   UNL     1      16.209  -6.613  32.234  1.00  0.00     0.006 C 
BRANCH   5   6
ATOM      6  C   UNL     1      15.920  -7.968  32.900  1.00  0.00     0.053 C 
BRANCH   6   7
ATOM      7  C   UNL     1      16.092  -9.114  31.955  1.00  0.00     0.041 C 
ATOM      8  O   UNL     1      15.113  -9.852  31.666  1.00  0.00    -0.550 OA
ATOM      9  O   UNL     1      17.329  -9.354  31.369  1.00  0.00    -0.550 OA
ENDBRANCH   6   7
ENDBRANCH   5   6
ENDBRANCH   4   5
ENDBRANCH   3   4
ENDBRANCH   2   3
ENDBRANCH   1   2
BRANCH   1  10
ATOM     10  C   UNL     1      18.216  -6.815  35.717  1.00  0.00     0.000 C 
BRANCH  10  11
ATOM     11  C   UNL     1      19.584  -6.582  35.058  1.00  0.00    -0.000 C 
BRANCH  11  12
ATOM     12  C   UNL     1      19.491  -6.728  33.534  1.00  0.00    -0.000 C 
BRANCH  12  13
ATOM     13  C   UNL     1      19.719  -5.380  32.834  1.00  0.00    -0.000 C 
BRANCH  13  14
ATOM     14  C   UNL     1      20.027  -4.246  33.835  1.00  0.00    -0.000 C 
BRANCH  14  15
ATOM     15  C   UNL     1      18.992  -3.109  33.814  1.00  0.00    -0.003 C 
ATOM     16  C   UNL     1      19.037  -2.236  35.065  1.00  0.00     0.004 C 
ENDBRANCH  14  15
ENDBRANCH  13  14
ENDBRANCH  12  13
ENDBRANCH  11  12
ENDBRANCH  10  11
ENDBRANCH   1  10
TORSDOF 12
ENDMDL
MODEL 2
REMARK VINA RESULT:    -4.872      1.071      2.828
REMARK INTER + INTRA:         -10.406
REMARK INTER:                  -8.435
REMARK INTRA:                  -1.971
REMARK UNBOUND:                -2.116
REMARK SMILES CCCCCCCCCCCCCC(=O)[O-]
REMARK SMILES IDX 8 1 9 2 10 3 11 4 12 5 13 6 14 7 15 8 16 9 7 10 6 11 5 12
REMARK SMILES IDX 4 13 3 14 2 15 1 16
REMARK H PARENT
REMARK Flexibility Score: inf
ROOT
ATOM      1  C   UNL     1      18.074  -3.367  33.952  1.00  0.00     0.000 C 
ENDROOT
BRANCH   1   2
ATOM      2  C   UNL     1      17.041  -4.291  33.281  1.00  0.00     0.000 C 
BRANCH   2   3
ATOM      3  C   UNL     1      15.877  -4.653  34.215  1.00  0.00     0.000 C 
BRANCH   3   4
ATOM      4  C   UNL     1      15.503  -6.144  34.152  1.00  0.00     0.000 C 
BRANCH   4   5
ATOM      5  C   UNL     1      15.920  -6.799  32.819  1.00  0.00     0.006 C 
BRANCH   5   6
ATOM      6  C   UNL     1      15.779  -8.330  32.817  1.00  0.00     0.053 C 
BRANCH   6   7
ATOM      7  C   UNL     1      16.231  -8.941  31.528  1.00  0.00     0.041 C 
ATOM      8  O   UNL     1      17.417  -9.344  31.398  1.00  0.00    -0.550 OA
ATOM      9  O   UNL     1      15.335  -9.091  30.477  1.00  0.00    -0.550 OA
ENDBRANCH   6   7
ENDBRANCH   5   6
ENDBRANCH   4   5
ENDBRANCH   3   4
ENDBRANCH   2   3
ENDBRANCH   1   2
BRANCH   1  10
ATOM     10  C   UNL     1      18.090  -3.514  35.482  1.00  0.00     0.000 C 
BRANCH  10  11
ATOM     11  C   UNL     1      19.035  -4.625  35.962  1.00  0.00    -0.000 C 
BRANCH  11  12
ATOM     12  C   UNL     1      18.274  -5.681  36.773  1.00  0.00    -0.000 C 
BRANCH  12  13
ATOM     13  C   UNL     1      18.274  -7.038  36.052  1.00  0.00    -0.000 C 
BRANCH  13  14
ATOM     14  C   UNL     1      19.514  -7.222  35.154  1.00  0.00    -0.000 C 
BRANCH  14  15
ATOM     15  C   UNL     1      19.180  -7.331  33.656  1.00  0.00    -0.003 C 
ATOM     16  C   UNL     1      19.947  -6.329  32.797  1.00  0.00     0.004 C 
ENDBRANCH  14  15
ENDBRANCH  13  14
ENDBRANCH  12  13
ENDBRANCH  11  12
ENDBRANCH  10  11
ENDBRANCH   1  10
TORSDOF 12
ENDMDL
MODEL 3
REMARK VINA RESULT:    -4.842      3.974      6.043
REMARK INTER + INTRA:         -10.354
REMARK INTER:                  -8.253
REMARK INTRA:                  -2.101
REMARK UNBOUND:                -2.116
REMARK SMILES CCCCCCCCCCCCCC(=O)[O-]
REMARK SMILES IDX 8 1 9 2 10 3 11 4 12 5 13 6 14 7 15 8 16 9 7 10 6 11 5 12
REMARK SMILES IDX 4 13 3 14 2 15 1 16
REMARK H PARENT
REMARK Flexibility Score: inf
ROOT
ATOM      1  C   UNL     1      19.529  -6.784  33.093  1.00  0.00     0.000 C 
ENDROOT
BRANCH   1   2
ATOM      2  C   UNL     1      19.242  -5.278  32.954  1.00  0.00     0.000 C 
BRANCH   2   3
ATOM      3  C   UNL     1      20.518  -4.425  33.028  1.00  0.00     0.000 C 
BRANCH   3   4
ATOM      4  C   UNL     1      20.423  -3.302  34.076  1.00  0.00     0.000 C 
BRANCH   4   5
ATOM      5  C   UNL     1      18.977  -2.801  34.273  1.00  0.00     0.006 C 
BRANCH   5   6
ATOM      6  C   UNL     1      18.738  -2.141  35.641  1.00  0.00     0.053 C 
BRANCH   6   7
ATOM      7  C   UNL     1      19.234  -0.731  35.687  1.00  0.00     0.041 C 
ATOM      8  O   UNL     1      18.641   0.172  35.040  1.00  0.00    -0.550 OA
ATOM      9  O   UNL     1      20.338  -0.407  36.466  1.00  0.00    -0.550 OA
ENDBRANCH   6   7
ENDBRANCH   5   6
ENDBRANCH   4   5
ENDBRANCH   3   4
ENDBRANCH   2   3
ENDBRANCH   1   2
BRANCH   1  10
ATOM     10  C   UNL     1      19.055  -7.352  34.441  1.00  0.00     0.000 C 
BRANCH  10  11
ATOM     11  C   UNL     1      19.668  -6.619  35.643  1.00  0.00    -0.000 C 
BRANCH  11  12
ATOM     12  C   UNL     1      18.578  -5.974  36.507  1.00  0.00    -0.000 C 
BRANCH  12  13
ATOM     13  C   UNL     1      17.178  -6.299  35.964  1.00  0.00    -0.000 C 
BRANCH  13  14
ATOM     14  C   UNL     1      16.380  -5.029  35.604  1.00  0.00    -0.000 C 
BRANCH  14  15
ATOM     15  C   UNL     1      15.775  -5.063  34.190  1.00  0.00    -0.003 C 
ATOM     16  C   UNL     1      15.571  -6.480  33.660  1.00  0.00     0.004 C 
ENDBRANCH  14  15
ENDBRANCH  13  14
ENDBRANCH  12  13
ENDBRANCH  11  12
ENDBRANCH  10  11
ENDBRANCH   1  10
TORSDOF 12
ENDMDL
MODEL 4
REMARK VINA RESULT:    -4.836     18.967     20.661
REMARK INTER + INTRA:         -10.344
REMARK INTER:                  -8.826
REMARK INTRA:                  -1.518
REMARK UNBOUND:                -2.116
REMARK SMILES CCCCCCCCCCCCCC(=O)[O-]
REMARK SMILES IDX 8 1 9 2 10 3 11 4 12 5 13 6 14 7 15 8 16 9 7 10 6 11 5 12
REMARK SMILES IDX 4 13 3 14 2 15 1 16
REMARK H PARENT
REMARK Flexibility Score: inf
ROOT
ATOM      1  C   UNL     1       8.240   5.416  18.908  1.00  0.00     0.000 C 
ENDROOT
BRANCH   1   2
ATOM      2  C   UNL     1       8.550   6.530  17.893  1.00  0.00     0.000 C 
BRANCH   2   3
ATOM      3  C   UNL     1       9.926   6.360  17.229  1.00  0.00     0.000 C 
BRANCH   3   4
ATOM      4  C   UNL     1      10.940   7.426  17.677  1.00  0.00     0.000 C 
BRANCH   4   5
ATOM      5  C   UNL     1      12.111   6.823  18.481  1.00  0.00     0.006 C 
BRANCH   5   6
ATOM      6  C   UNL     1      12.637   7.750  19.589  1.00  0.00     0.053 C 
BRANCH   6   7
ATOM      7  C   UNL     1      11.932   7.538  20.891  1.00  0.00     0.041 C 
ATOM      8  O   UNL     1      12.282   6.601  21.657  1.00  0.00    -0.550 OA
ATOM      9  O   UNL     1      10.904   8.390  21.273  1.00  0.00    -0.550 OA
ENDBRANCH   6   7
ENDBRANCH   5   6
ENDBRANCH   4   5
ENDBRANCH   3   4
ENDBRANCH   2   3
ENDBRANCH   1   2
BRANCH   1  10
ATOM     10  C   UNL     1       8.737   5.752  20.324  1.00  0.00     0.000 C 
BRANCH  10  11
ATOM     11  C   UNL     1       9.534   4.605  20.962  1.00  0.00    -0.000 C 
BRANCH  11  12
ATOM     12  C   UNL     1      10.522   3.999  19.958  1.00  0.00    -0.000 C 
BRANCH  12  13
ATOM     13  C   UNL     1      10.248   2.501  19.748  1.00  0.00    -0.000 C 
BRANCH  13  14
ATOM     14  C   UNL     1       9.655   2.205  18.355  1.00  0.00    -0.000 C 
BRANCH  14  15
ATOM     15  C   UNL     1       8.359   1.379  18.400  1.00  0.00    -0.003 C 
ATOM     16  C   UNL     1       8.322   0.265  17.357  1.00  0.00     0.004 C 
ENDBRANCH  14  15
ENDBRANCH  13  14
ENDBRANCH  12  13
ENDBRANCH  11  12
ENDBRANCH  10  11
ENDBRANCH   1  10
TORSDOF 12
ENDMDL
MODEL 5
REMARK VINA RESULT:    -4.835      1.209      2.721
REMARK INTER + INTRA:         -10.343
REMARK INTER:                  -8.334
REMARK INTRA:                  -2.009
REMARK UNBOUND:                -2.116
REMARK SMILES CCCCCCCCCCCCCC(=O)[O-]
REMARK SMILES IDX 8 1 9 2 10 3 11 4 12 5 13 6 14 7 15 8 16 9 7 10 6 11 5 12
REMARK SMILES IDX 4 13 3 14 2 15 1 16
REMARK H PARENT
REMARK Flexibility Score: inf
ROOT
ATOM      1  C   UNL     1      18.502  -5.975  36.791  1.00  0.00     0.000 C 
ENDROOT
BRANCH   1   2
ATOM      2  C   UNL     1      18.107  -7.232  35.996  1.00  0.00     0.000 C 
BRANCH   2   3
ATOM      3  C   UNL     1      19.161  -7.627  34.951  1.00  0.00     0.000 C 
BRANCH   3   4
ATOM      4  C   UNL     1      18.563  -7.836  33.549  1.00  0.00     0.000 C 
BRANCH   4   5
ATOM      5  C   UNL     1      17.020  -7.811  33.558  1.00  0.00     0.006 C 
BRANCH   5   6
ATOM      6  C   UNL     1      16.403  -7.495  32.186  1.00  0.00     0.053 C 
BRANCH   6   7
ATOM      7  C   UNL     1      15.906  -8.722  31.490  1.00  0.00     0.041 C 
ATOM      8  O   UNL     1      15.899  -8.778  30.231  1.00  0.00    -0.550 OA
ATOM      9  O   UNL     1      15.474  -9.816  32.230  1.00  0.00    -0.550 OA
ENDBRANCH   6   7
ENDBRANCH   5   6
ENDBRANCH   4   5
ENDBRANCH   3   4
ENDBRANCH   2   3
ENDBRANCH   1   2
BRANCH   1  10
ATOM     10  C   UNL     1      17.718  -4.728  36.351  1.00  0.00     0.000 C 
BRANCH  10  11
ATOM     11  C   UNL     1      16.437  -5.074  35.579  1.00  0.00    -0.000 C 
BRANCH  11  12
ATOM     12  C   UNL     1      16.357  -4.285  34.266  1.00  0.00    -0.000 C 
BRANCH  12  13
ATOM     13  C   UNL     1      17.706  -3.630  33.932  1.00  0.00    -0.000 C 
BRANCH  13  14
ATOM     14  C   UNL     1      18.503  -4.432  32.883  1.00  0.00    -0.000 C 
BRANCH  14  15
ATOM     15  C   UNL     1      20.013  -4.489  33.168  1.00  0.00    -0.003 C 
ATOM     16  C   UNL     1      20.775  -5.372  32.183  1.00  0.00     0.004 C 
ENDBRANCH  14  15
ENDBRANCH  13  14
ENDBRANCH  12  13
ENDBRANCH  11  12
ENDBRANCH  10  11
ENDBRANCH   1  10
TORSDOF 12
ENDMDL
MODEL 6
REMARK VINA RESULT:    -4.828      4.081      5.946
REMARK INTER + INTRA:         -10.330
REMARK INTER:                  -8.458
REMARK INTRA:                  -1.872
REMARK UNBOUND:                -2.116
REMARK SMILES CCCCCCCCCCCCCC(=O)[O-]
REMARK SMILES IDX 8 1 9 2 10 3 11 4 12 5 13 6 14 7 15 8 16 9 7 10 6 11 5 12
REMARK SMILES IDX 4 13 3 14 2 15 1 16
REMARK H PARENT
REMARK Flexibility Score: inf
ROOT
ATOM      1  C   UNL     1      17.018  -5.183  32.401  1.00  0.00     0.000 C 
ENDROOT
BRANCH   1   2
ATOM      2  C   UNL     1      16.662  -4.013  33.336  1.00  0.00     0.000 C 
BRANCH   2   3
ATOM      3  C   UNL     1      17.752  -2.931  33.369  1.00  0.00     0.000 C 
BRANCH   3   4
ATOM      4  C   UNL     1      19.152  -3.502  33.655  1.00  0.00     0.000 C 
BRANCH   4   5
ATOM      5  C   UNL     1      19.813  -2.851  34.887  1.00  0.00     0.006 C 
BRANCH   5   6
ATOM      6  C   UNL     1      18.852  -1.980  35.712  1.00  0.00     0.053 C 
BRANCH   6   7
ATOM      7  C   UNL     1      19.340  -0.573  35.854  1.00  0.00     0.041 C 
ATOM      8  O   UNL     1      20.299  -0.308  36.625  1.00  0.00    -0.550 OA
ATOM      9  O   UNL     1      18.752   0.446  35.113  1.00  0.00    -0.550 OA
ENDBRANCH   6   7
ENDBRANCH   5   6
ENDBRANCH   4   5
ENDBRANCH   3   4
ENDBRANCH   2   3
ENDBRANCH   1   2
BRANCH   1  10
ATOM     10  C   UNL     1      16.242  -6.466  32.741  1.00  0.00     0.000 C 
BRANCH  10  11
ATOM     11  C   UNL     1      17.164  -7.668  32.997  1.00  0.00    -0.000 C 
BRANCH  11  12
ATOM     12  C   UNL     1      18.576  -7.205  33.373  1.00  0.00    -0.000 C 
BRANCH  12  13
ATOM     13  C   UNL     1      18.942  -7.648  34.798  1.00  0.00    -0.000 C 
BRANCH  13  14
ATOM     14  C   UNL     1      19.559  -6.502  35.627  1.00  0.00    -0.000 C 
BRANCH  14  15
ATOM     15  C   UNL     1      18.673  -6.043  36.797  1.00  0.00    -0.003 C 
ATOM     16  C   UNL     1      17.353  -5.426  36.342  1.00  0.00     0.004 C 
ENDBRANCH  14  15
ENDBRANCH  13  14
ENDBRANCH  12  13
ENDBRANCH  11  12
ENDBRANCH  10  11
ENDBRANCH   1  10
TORSDOF 12
ENDMDL
MODEL 7
REMARK VINA RESULT:    -4.824      2.841      5.392
REMARK INTER + INTRA:         -10.323
REMARK INTER:                  -8.395
REMARK INTRA:                  -1.928
REMARK UNBOUND:                -2.116
REMARK SMILES CCCCCCCCCCCCCC(=O)[O-]
REMARK SMILES IDX 8 1 9 2 10 3 11 4 12 5 13 6 14 7 15 8 16 9 7 10 6 11 5 12
REMARK SMILES IDX 4 13 3 14 2 15 1 16
REMARK H PARENT
REMARK Flexibility Score: inf
ROOT
ATOM      1  C   UNL     1      18.634  -6.131  36.448  1.00  0.00     0.000 C 
ENDROOT
BRANCH   1   2
ATOM      2  C   UNL     1      19.708  -6.826  35.591  1.00  0.00     0.000 C 
BRANCH   2   3
ATOM      3  C   UNL     1      19.218  -7.139  34.169  1.00  0.00     0.000 C 
BRANCH   3   4
ATOM      4  C   UNL     1      19.883  -6.253  33.101  1.00  0.00     0.000 C 
BRANCH   4   5
ATOM      5  C   UNL     1      19.145  -4.912  32.905  1.00  0.00     0.006 C 
BRANCH   5   6
ATOM      6  C   UNL     1      19.721  -3.766  33.752  1.00  0.00     0.053 C 
BRANCH   6   7
ATOM      7  C   UNL     1      18.702  -2.712  34.049  1.00  0.00     0.041 C 
ATOM      8  O   UNL     1      18.835  -1.966  35.056  1.00  0.00    -0.550 OA
ATOM      9  O   UNL     1      17.616  -2.534  33.201  1.00  0.00    -0.550 OA
ENDBRANCH   6   7
ENDBRANCH   5   6
ENDBRANCH   4   5
ENDBRANCH   3   4
ENDBRANCH   2   3
ENDBRANCH   1   2
BRANCH   1  10
ATOM     10  C   UNL     1      17.207  -6.420  35.953  1.00  0.00     0.000 C 
BRANCH  10  11
ATOM     11  C   UNL     1      16.432  -5.142  35.599  1.00  0.00    -0.000 C 
BRANCH  11  12
ATOM     12  C   UNL     1      15.781  -5.260  34.216  1.00  0.00    -0.000 C 
BRANCH  12  13
ATOM     13  C   UNL     1      15.602  -6.732  33.813  1.00  0.00    -0.000 C 
BRANCH  13  14
ATOM     14  C   UNL     1      15.991  -6.988  32.342  1.00  0.00    -0.000 C 
BRANCH  14  15
ATOM     15  C   UNL     1      16.560  -8.394  32.092  1.00  0.00    -0.003 C 
ATOM     16  C   UNL     1      15.477  -9.448  31.874  1.00  0.00     0.004 C 
ENDBRANCH  14  15
ENDBRANCH  13  14
ENDBRANCH  12  13
ENDBRANCH  11  12
ENDBRANCH  10  11
ENDBRANCH   1  10
TORSDOF 12
ENDMDL
MODEL 8
REMARK VINA RESULT:    -4.814     18.640     19.952
REMARK INTER + INTRA:         -10.307
REMARK INTER:                  -8.576
REMARK INTRA:                  -1.731
REMARK UNBOUND:                -2.116
REMARK SMILES CCCCCCCCCCCCCC(=O)[O-]
REMARK SMILES IDX 8 1 9 2 10 3 11 4 12 5 13 6 14 7 15 8 16 9 7 10 6 11 5 12
REMARK SMILES IDX 4 13 3 14 2 15 1 16
REMARK H PARENT
REMARK Flexibility Score: inf
ROOT
ATOM      1  C   UNL     1      11.660   5.125  21.047  1.00  0.00     0.000 C 
ENDROOT
BRANCH   1   2
ATOM      2  C   UNL     1      10.286   4.431  20.999  1.00  0.00     0.000 C 
BRANCH   2   3
ATOM      3  C   UNL     1      10.299   3.152  20.149  1.00  0.00     0.000 C 
BRANCH   3   4
ATOM      4  C   UNL     1      10.920   3.366  18.759  1.00  0.00     0.000 C 
BRANCH   4   5
ATOM      5  C   UNL     1      10.233   2.517  17.669  1.00  0.00     0.006 C 
BRANCH   5   6
ATOM      6  C   UNL     1       8.740   2.268  17.936  1.00  0.00     0.053 C 
BRANCH   6   7
ATOM      7  C   UNL     1       8.387   0.815  17.884  1.00  0.00     0.041 C 
ATOM      8  O   UNL     1       7.801   0.340  16.875  1.00  0.00    -0.550 OA
ATOM      9  O   UNL     1       8.729  -0.023  18.938  1.00  0.00    -0.550 OA
ENDBRANCH   6   7
ENDBRANCH   5   6
ENDBRANCH   4   5
ENDBRANCH   3   4
ENDBRANCH   2   3
ENDBRANCH   1   2
BRANCH   1  10
ATOM     10  C   UNL     1      11.563   6.595  21.486  1.00  0.00     0.000 C 
BRANCH  10  11
ATOM     11  C   UNL     1      11.189   7.536  20.331  1.00  0.00    -0.000 C 
BRANCH  11  12
ATOM     12  C   UNL     1      12.204   7.432  19.187  1.00  0.00    -0.000 C 
BRANCH  12  13
ATOM     13  C   UNL     1      11.564   6.818  17.933  1.00  0.00    -0.000 C 
BRANCH  13  14
ATOM     14  C   UNL     1      10.291   7.574  17.497  1.00  0.00    -0.000 C 
BRANCH  14  15
ATOM     15  C   UNL     1       9.137   6.646  17.083  1.00  0.00    -0.003 C 
ATOM     16  C   UNL     1       8.420   6.014  18.273  1.00  0.00     0.004 C 
ENDBRANCH  14  15
ENDBRANCH  13  14
ENDBRANCH  12  13
ENDBRANCH  11  12
ENDBRANCH  10  11
ENDBRANCH   1  10
TORSDOF 12
ENDMDL
MODEL 9
REMARK VINA RESULT:    -4.795      1.163      2.962
REMARK INTER + INTRA:         -10.274
REMARK INTER:                  -8.407
REMARK INTRA:                  -1.867
REMARK UNBOUND:                -2.116
REMARK SMILES CCCCCCCCCCCCCC(=O)[O-]
REMARK SMILES IDX 8 1 9 2 10 3 11 4 12 5 13 6 14 7 15 8 16 9 7 10 6 11 5 12
REMARK SMILES IDX 4 13 3 14 2 15 1 16
REMARK H PARENT
REMARK Flexibility Score: inf
ROOT
ATOM      1  C   UNL     1      19.976  -5.801  33.154  1.00  0.00     0.000 C 
ENDROOT
BRANCH   1   2
ATOM      2  C   UNL     1      18.618  -6.518  33.050  1.00  0.00     0.000 C 
BRANCH   2   3
ATOM      3  C   UNL     1      17.491  -5.587  32.577  1.00  0.00     0.000 C 
BRANCH   3   4
ATOM      4  C   UNL     1      16.112  -6.267  32.586  1.00  0.00     0.000 C 
BRANCH   4   5
ATOM      5  C   UNL     1      16.080  -7.522  33.483  1.00  0.00     0.006 C 
BRANCH   5   6
ATOM      6  C   UNL     1      15.473  -8.754  32.794  1.00  0.00     0.053 C 
BRANCH   6   7
ATOM      7  C   UNL     1      16.140  -9.063  31.490  1.00  0.00     0.041 C 
ATOM      8  O   UNL     1      15.493  -8.983  30.412  1.00  0.00    -0.550 OA
ATOM      9  O   UNL     1      17.484  -9.412  31.462  1.00  0.00    -0.550 OA
ENDBRANCH   6   7
ENDBRANCH   5   6
ENDBRANCH   4   5
ENDBRANCH   3   4
ENDBRANCH   2   3
ENDBRANCH   1   2
BRANCH   1  10
ATOM     10  C   UNL     1      19.850  -4.276  32.999  1.00  0.00     0.000 C 
BRANCH  10  11
ATOM     11  C   UNL     1      20.788  -3.505  33.939  1.00  0.00    -0.000 C 
BRANCH  11  12
ATOM     12  C   UNL     1      19.992  -2.748  35.009  1.00  0.00    -0.000 C 
BRANCH  12  13
ATOM     13  C   UNL     1      18.482  -2.970  34.835  1.00  0.00    -0.000 C 
BRANCH  13  14
ATOM     14  C   UNL     1      17.800  -3.411  36.146  1.00  0.00    -0.000 C 
BRANCH  14  15
ATOM     15  C   UNL     1      17.449  -4.908  36.185  1.00  0.00    -0.003 C 
ATOM     16  C   UNL     1      18.553  -5.766  36.797  1.00  0.00     0.004 C 
ENDBRANCH  14  15
ENDBRANCH  13  14
ENDBRANCH  12  13
ENDBRANCH  11  12
ENDBRANCH  10  11
ENDBRANCH   1  10
TORSDOF 12
ENDMDL
