MODEL 1
REMARK VINA RESULT:    -3.741      0.000      0.000
REMARK INTER + INTRA:          -7.397
REMARK INTER:                  -6.803
REMARK INTRA:                  -0.593
REMARK UNBOUND:                -0.593
REMARK SMILES CCCCCCCCCCCCCCCC(=O)[O-]
REMARK SMILES IDX 9 1 10 2 11 3 12 4 13 5 14 6 15 7 16 8 17 9 18 10 8 11 7 12
REMARK SMILES IDX 6 13 5 14 4 15 3 16 2 17 1 18
REMARK H PARENT
REMARK Flexibility Score: inf
ROOT
ATOM      1  C   UNL     1      -4.365 -13.034  15.353  1.00  0.00     0.000 C 
ENDROOT
BRANCH   1   2
ATOM      2  C   UNL     1      -3.854 -11.691  14.803  1.00  0.00     0.000 C 
BRANCH   2   3
ATOM      3  C   UNL     1      -4.995 -10.770  14.343  1.00  0.00     0.000 C 
BRANCH   3   4
ATOM      4  C   UNL     1      -4.493  -9.552  13.553  1.00  0.00     0.000 C 
BRANCH   4   5
ATOM      5  C   UNL     1      -5.350  -9.324  12.298  1.00  0.00     0.000 C 
BRANCH   5   6
ATOM      6  C   UNL     1      -6.149  -8.007  12.351  1.00  0.00     0.006 C 
BRANCH   6   7
ATOM      7  C   UNL     1      -7.015  -7.742  11.110  1.00  0.00     0.053 C 
BRANCH   7   8
ATOM      8  C   UNL     1      -6.279  -8.037   9.838  1.00  0.00     0.041 C 
ATOM      9  O   UNL     1      -5.573  -7.148   9.294  1.00  0.00    -0.550 OA
ATOM     10  O   UNL     1      -6.347  -9.304   9.273  1.00  0.00    -0.550 OA
ENDBRANCH   7   8
ENDBRANCH   6   7
ENDBRANCH   5   6
ENDBRANCH   4   5
ENDBRANCH   3   4
ENDBRANCH   2   3
ENDBRANCH   1   2
BRANCH   1  11
ATOM     11  C   UNL     1      -3.239 -13.907  15.937  1.00  0.00     0.000 C 
BRANCH  11  12
ATOM     12  C   UNL     1      -3.139 -13.912  17.476  1.00  0.00    -0.000 C 
BRANCH  12  13
ATOM     13  C   UNL     1      -3.298 -12.537  18.150  1.00  0.00    -0.000 C 
BRANCH  13  14
ATOM     14  C   UNL     1      -4.410 -12.519  19.213  1.00  0.00    -0.000 C 
BRANCH  14  15
ATOM     15  C   UNL     1      -5.798 -12.809  18.618  1.00  0.00    -0.000 C 
BRANCH  15  16
ATOM     16  C   UNL     1      -6.823 -11.706  18.935  1.00  0.00    -0.000 C 
BRANCH  16  17
ATOM     17  C   UNL     1      -7.268 -11.723  20.406  1.00  0.00    -0.003 C 
ATOM     18  C   UNL     1      -8.573 -10.963  20.637  1.00  0.00     0.004 C 
ENDBRANCH  16  17
ENDBRANCH  15  16
ENDBRANCH  14  15
ENDBRANCH  13  14
ENDBRANCH  12  13
ENDBRANCH  11  12
ENDBRANCH   1  11
TORSDOF 14
ENDMDL
MODEL 2
REMARK VINA RESULT:    -3.667      3.397      8.040
REMARK INTER + INTRA:          -7.262
REMARK INTER:                  -6.238
REMARK INTRA:                  -1.023
REMARK UNBOUND:                -0.593
REMARK SMILES CCCCCCCCCCCCCCCC(=O)[O-]
REMARK SMILES IDX 9 1 10 2 11 3 12 4 13 5 14 6 15 7 16 8 17 9 18 10 8 11 7 12
REMARK SMILES IDX 6 13 5 14 4 15 3 16 2 17 1 18
REMARK H PARENT
REMARK Flexibility Score: inf
ROOT
ATOM      1  C   UNL     1      -4.714 -13.282  14.658  1.00  0.00     0.000 C 
ENDROOT
BRANCH   1   2
ATOM      2  C   UNL     1      -4.002 -14.423  15.406  1.00  0.00     0.000 C 
BRANCH   2   3
ATOM      3  C   UNL     1      -2.800 -13.929  16.227  1.00  0.00     0.000 C 
BRANCH   3   4
ATOM      4  C   UNL     1      -2.541 -14.787  17.475  1.00  0.00     0.000 C 
BRANCH   4   5
ATOM      5  C   UNL     1      -2.785 -13.975  18.757  1.00  0.00     0.000 C 
BRANCH   5   6
ATOM      6  C   UNL     1      -3.535 -12.655  18.494  1.00  0.00     0.006 C 
BRANCH   6   7
ATOM      7  C   UNL     1      -4.596 -12.310  19.550  1.00  0.00     0.053 C 
BRANCH   7   8
ATOM      8  C   UNL     1      -5.973 -12.241  18.962  1.00  0.00     0.041 C 
ATOM      9  O   UNL     1      -6.171 -12.594  17.770  1.00  0.00    -0.550 OA
ATOM     10  O   UNL     1      -7.042 -11.820  19.743  1.00  0.00    -0.550 OA
ENDBRANCH   7   8
ENDBRANCH   6   7
ENDBRANCH   5   6
ENDBRANCH   4   5
ENDBRANCH   3   4
ENDBRANCH   2   3
ENDBRANCH   1   2
BRANCH   1  11
ATOM     11  C   UNL     1      -4.154 -11.893  15.018  1.00  0.00     0.000 C 
BRANCH  11  12
ATOM     12  C   UNL     1      -5.017 -10.698  14.564  1.00  0.00    -0.000 C 
BRANCH  12  13
ATOM     13  C   UNL     1      -4.348  -9.748  13.554  1.00  0.00    -0.000 C 
BRANCH  13  14
ATOM     14  C   UNL     1      -5.225  -9.475  12.320  1.00  0.00    -0.000 C 
BRANCH  14  15
ATOM     15  C   UNL     1      -5.885  -8.088  12.361  1.00  0.00    -0.000 C 
BRANCH  15  16
ATOM     16  C   UNL     1      -6.791  -7.824  11.146  1.00  0.00    -0.000 C 
BRANCH  16  17
ATOM     17  C   UNL     1      -6.182  -8.346   9.835  1.00  0.00    -0.003 C 
ATOM     18  C   UNL     1      -5.713  -7.222   8.912  1.00  0.00     0.004 C 
ENDBRANCH  16  17
ENDBRANCH  15  16
ENDBRANCH  14  15
ENDBRANCH  13  14
ENDBRANCH  12  13
ENDBRANCH  11  12
ENDBRANCH   1  11
TORSDOF 14
ENDMDL
MODEL 3
REMARK VINA RESULT:    -3.580      0.718      1.499
REMARK INTER + INTRA:          -7.103
REMARK INTER:                  -6.265
REMARK INTRA:                  -0.838
REMARK UNBOUND:                -0.593
REMARK SMILES CCCCCCCCCCCCCCCC(=O)[O-]
REMARK SMILES IDX 9 1 10 2 11 3 12 4 13 5 14 6 15 7 16 8 17 9 18 10 8 11 7 12
REMARK SMILES IDX 6 13 5 14 4 15 3 16 2 17 1 18
REMARK H PARENT
REMARK Flexibility Score: inf
ROOT
ATOM      1  C   UNL     1      -4.040 -11.567  14.394  1.00  0.00     0.000 C 
ENDROOT
BRANCH   1   2
ATOM      2  C   UNL     1      -4.990 -10.378  14.166  1.00  0.00     0.000 C 
BRANCH   2   3
ATOM      3  C   UNL     1      -4.847  -9.771  12.761  1.00  0.00     0.000 C 
BRANCH   3   4
ATOM      4  C   UNL     1      -5.115  -8.258  12.738  1.00  0.00     0.000 C 
BRANCH   4   5
ATOM      5  C   UNL     1      -6.624  -7.972  12.682  1.00  0.00     0.000 C 
BRANCH   5   6
ATOM      6  C   UNL     1      -7.171  -7.933  11.242  1.00  0.00     0.006 C 
BRANCH   6   7
ATOM      7  C   UNL     1      -6.163  -7.434  10.195  1.00  0.00     0.053 C 
BRANCH   7   8
ATOM      8  C   UNL     1      -5.875  -8.472   9.153  1.00  0.00     0.041 C 
ATOM      9  O   UNL     1      -5.346  -8.142   8.060  1.00  0.00    -0.550 OA
ATOM     10  O   UNL     1      -6.161  -9.808   9.405  1.00  0.00    -0.550 OA
ENDBRANCH   7   8
ENDBRANCH   6   7
ENDBRANCH   5   6
ENDBRANCH   4   5
ENDBRANCH   3   4
ENDBRANCH   2   3
ENDBRANCH   1   2
BRANCH   1  11
ATOM     11  C   UNL     1      -4.602 -12.596  15.393  1.00  0.00     0.000 C 
BRANCH  11  12
ATOM     12  C   UNL     1      -3.639 -13.740  15.771  1.00  0.00    -0.000 C 
BRANCH  12  13
ATOM     13  C   UNL     1      -3.221 -13.787  17.252  1.00  0.00    -0.000 C 
BRANCH  13  14
ATOM     14  C   UNL     1      -3.550 -12.488  18.007  1.00  0.00    -0.000 C 
BRANCH  14  15
ATOM     15  C   UNL     1      -4.437 -12.731  19.239  1.00  0.00    -0.000 C 
BRANCH  15  16
ATOM     16  C   UNL     1      -5.898 -12.302  19.014  1.00  0.00    -0.000 C 
BRANCH  16  17
ATOM     17  C   UNL     1      -6.657 -12.086  20.332  1.00  0.00    -0.003 C 
ATOM     18  C   UNL     1      -7.986 -11.359  20.137  1.00  0.00     0.004 C 
ENDBRANCH  16  17
ENDBRANCH  15  16
ENDBRANCH  14  15
ENDBRANCH  13  14
ENDBRANCH  12  13
ENDBRANCH  11  12
ENDBRANCH   1  11
TORSDOF 14
ENDMDL
MODEL 4
REMARK VINA RESULT:    -3.536      3.812      8.346
REMARK INTER + INTRA:          -7.023
REMARK INTER:                  -6.238
REMARK INTRA:                  -0.785
REMARK UNBOUND:                -0.593
REMARK SMILES CCCCCCCCCCCCCCCC(=O)[O-]
REMARK SMILES IDX 9 1 10 2 11 3 12 4 13 5 14 6 15 7 16 8 17 9 18 10 8 11 7 12
REMARK SMILES IDX 6 13 5 14 4 15 3 16 2 17 1 18
REMARK H PARENT
REMARK Flexibility Score: inf
ROOT
ATOM      1  C   UNL     1      -4.612 -12.683  15.342  1.00  0.00     0.000 C 
ENDROOT
BRANCH   1   2
ATOM      2  C   UNL     1      -3.528 -13.734  15.640  1.00  0.00     0.000 C 
BRANCH   2   3
ATOM      3  C   UNL     1      -3.150 -13.785  17.129  1.00  0.00     0.000 C 
BRANCH   3   4
ATOM      4  C   UNL     1      -3.502 -12.489  17.876  1.00  0.00     0.000 C 
BRANCH   4   5
ATOM      5  C   UNL     1      -4.302 -12.795  19.152  1.00  0.00     0.000 C 
BRANCH   5   6
ATOM      6  C   UNL     1      -5.791 -12.420  19.028  1.00  0.00     0.006 C 
BRANCH   6   7
ATOM      7  C   UNL     1      -6.480 -12.113  20.367  1.00  0.00     0.053 C 
BRANCH   7   8
ATOM      8  C   UNL     1      -7.746 -11.334  20.183  1.00  0.00     0.041 C 
ATOM      9  O   UNL     1      -7.828 -10.464  19.276  1.00  0.00    -0.550 OA
ATOM     10  O   UNL     1      -8.846 -11.594  20.990  1.00  0.00    -0.550 OA
ENDBRANCH   7   8
ENDBRANCH   6   7
ENDBRANCH   5   6
ENDBRANCH   4   5
ENDBRANCH   3   4
ENDBRANCH   2   3
ENDBRANCH   1   2
BRANCH   1  11
ATOM     11  C   UNL     1      -4.155 -11.630  14.316  1.00  0.00     0.000 C 
BRANCH  11  12
ATOM     12  C   UNL     1      -4.966 -10.318  14.314  1.00  0.00    -0.000 C 
BRANCH  12  13
ATOM     13  C   UNL     1      -4.750  -9.411  13.088  1.00  0.00    -0.000 C 
BRANCH  13  14
ATOM     14  C   UNL     1      -5.841  -8.337  12.941  1.00  0.00    -0.000 C 
BRANCH  14  15
ATOM     15  C   UNL     1      -6.050  -7.906  11.480  1.00  0.00    -0.000 C 
BRANCH  15  16
ATOM     16  C   UNL     1      -6.071  -9.098  10.507  1.00  0.00    -0.000 C 
BRANCH  16  17
ATOM     17  C   UNL     1      -6.066  -8.655   9.035  1.00  0.00    -0.003 C 
ATOM     18  C   UNL     1      -5.673  -7.188   8.862  1.00  0.00     0.004 C 
ENDBRANCH  16  17
ENDBRANCH  15  16
ENDBRANCH  14  15
ENDBRANCH  13  14
ENDBRANCH  12  13
ENDBRANCH  11  12
ENDBRANCH   1  11
TORSDOF 14
ENDMDL
MODEL 5
REMARK VINA RESULT:    -3.521      3.684      8.385
REMARK INTER + INTRA:          -6.996
REMARK INTER:                  -6.487
REMARK INTRA:                  -0.509
REMARK UNBOUND:                -0.593
REMARK SMILES CCCCCCCCCCCCCCCC(=O)[O-]
REMARK SMILES IDX 9 1 10 2 11 3 12 4 13 5 14 6 15 7 16 8 17 9 18 10 8 11 7 12
REMARK SMILES IDX 6 13 5 14 4 15 3 16 2 17 1 18
REMARK H PARENT
REMARK Flexibility Score: inf
ROOT
ATOM      1  C   UNL     1      -3.492 -11.409  14.947  1.00  0.00     0.000 C 
ENDROOT
BRANCH   1   2
ATOM      2  C   UNL     1      -3.735 -12.734  15.691  1.00  0.00     0.000 C 
BRANCH   2   3
ATOM      3  C   UNL     1      -5.082 -13.377  15.324  1.00  0.00     0.000 C 
BRANCH   3   4
ATOM      4  C   UNL     1      -6.135 -13.224  16.433  1.00  0.00     0.000 C 
BRANCH   4   5
ATOM      5  C   UNL     1      -5.741 -12.105  17.409  1.00  0.00     0.000 C 
BRANCH   5   6
ATOM      6  C   UNL     1      -6.044 -12.459  18.878  1.00  0.00     0.006 C 
BRANCH   6   7
ATOM      7  C   UNL     1      -4.847 -12.298  19.827  1.00  0.00     0.053 C 
BRANCH   7   8
ATOM      8  C   UNL     1      -3.538 -12.422  19.108  1.00  0.00     0.041 C 
ATOM      9  O   UNL     1      -3.050 -13.558  18.873  1.00  0.00    -0.550 OA
ATOM     10  O   UNL     1      -2.876 -11.283  18.668  1.00  0.00    -0.550 OA
ENDBRANCH   7   8
ENDBRANCH   6   7
ENDBRANCH   5   6
ENDBRANCH   4   5
ENDBRANCH   3   4
ENDBRANCH   2   3
ENDBRANCH   1   2
BRANCH   1  11
ATOM     11  C   UNL     1      -4.760 -10.870  14.259  1.00  0.00     0.000 C 
BRANCH  11  12
ATOM     12  C   UNL     1      -4.596  -9.512  13.547  1.00  0.00    -0.000 C 
BRANCH  12  13
ATOM     13  C   UNL     1      -5.360  -9.368  12.219  1.00  0.00    -0.000 C 
BRANCH  13  14
ATOM     14  C   UNL     1      -6.082  -8.016  12.090  1.00  0.00    -0.000 C 
BRANCH  14  15
ATOM     15  C   UNL     1      -6.950  -7.930  10.824  1.00  0.00    -0.000 C 
BRANCH  15  16
ATOM     16  C   UNL     1      -6.539  -8.953   9.751  1.00  0.00    -0.000 C 
BRANCH  16  17
ATOM     17  C   UNL     1      -5.710  -8.319   8.622  1.00  0.00    -0.003 C 
ATOM     18  C   UNL     1      -5.694  -6.793   8.687  1.00  0.00     0.004 C 
ENDBRANCH  16  17
ENDBRANCH  15  16
ENDBRANCH  14  15
ENDBRANCH  13  14
ENDBRANCH  12  13
ENDBRANCH  11  12
ENDBRANCH   1  11
TORSDOF 14
ENDMDL
MODEL 6
REMARK VINA RESULT:    -3.392      6.342      9.720
REMARK INTER + INTRA:          -6.762
REMARK INTER:                  -5.690
REMARK INTRA:                  -1.072
REMARK UNBOUND:                -0.593
REMARK SMILES CCCCCCCCCCCCCCCC(=O)[O-]
REMARK SMILES IDX 9 1 10 2 11 3 12 4 13 5 14 6 15 7 16 8 17 9 18 10 8 11 7 12
REMARK SMILES IDX 6 13 5 14 4 15 3 16 2 17 1 18
REMARK H PARENT
REMARK Flexibility Score: inf
ROOT
ATOM      1  C   UNL     1      -2.518 -15.165  17.011  1.00  0.00     0.000 C 
ENDROOT
BRANCH   1   2
ATOM      2  C   UNL     1      -1.400 -15.496  18.015  1.00  0.00     0.000 C 
BRANCH   2   3
ATOM      3  C   UNL     1      -0.633 -16.775  17.641  1.00  0.00     0.000 C 
BRANCH   3   4
ATOM      4  C   UNL     1       0.713 -16.895  18.373  1.00  0.00     0.000 C 
BRANCH   4   5
ATOM      5  C   UNL     1       0.969 -18.346  18.811  1.00  0.00     0.000 C 
BRANCH   5   6
ATOM      6  C   UNL     1      -0.186 -19.295  18.437  1.00  0.00     0.006 C 
BRANCH   6   7
ATOM      7  C   UNL     1       0.251 -20.739  18.144  1.00  0.00     0.053 C 
BRANCH   7   8
ATOM      8  C   UNL     1       0.542 -20.953  16.690  1.00  0.00     0.041 C 
ATOM      9  O   UNL     1       1.730 -21.072  16.292  1.00  0.00    -0.550 OA
ATOM     10  O   UNL     1      -0.503 -21.056  15.780  1.00  0.00    -0.550 OA
ENDBRANCH   7   8
ENDBRANCH   6   7
ENDBRANCH   5   6
ENDBRANCH   4   5
ENDBRANCH   3   4
ENDBRANCH   2   3
ENDBRANCH   1   2
BRANCH   1  11
ATOM     11  C   UNL     1      -1.975 -14.697  15.647  1.00  0.00     0.000 C 
BRANCH  11  12
ATOM     12  C   UNL     1      -2.963 -13.878  14.791  1.00  0.00    -0.000 C 
BRANCH  12  13
ATOM     13  C   UNL     1      -4.426 -13.905  15.267  1.00  0.00    -0.000 C 
BRANCH  13  14
ATOM     14  C   UNL     1      -4.880 -12.567  15.875  1.00  0.00    -0.000 C 
BRANCH  14  15
ATOM     15  C   UNL     1      -6.018 -12.739  16.895  1.00  0.00    -0.000 C 
BRANCH  15  16
ATOM     16  C   UNL     1      -5.643 -12.227  18.297  1.00  0.00    -0.000 C 
BRANCH  16  17
ATOM     17  C   UNL     1      -4.272 -12.742  18.763  1.00  0.00    -0.003 C 
ATOM     18  C   UNL     1      -3.205 -11.649  18.781  1.00  0.00     0.004 C 
ENDBRANCH  16  17
ENDBRANCH  15  16
ENDBRANCH  14  15
ENDBRANCH  13  14
ENDBRANCH  12  13
ENDBRANCH  11  12
ENDBRANCH   1  11
TORSDOF 14
ENDMDL
MODEL 7
REMARK VINA RESULT:    -3.369      6.261      9.278
REMARK INTER + INTRA:          -6.719
REMARK INTER:                  -5.814
REMARK INTRA:                  -0.904
REMARK UNBOUND:                -0.593
REMARK SMILES CCCCCCCCCCCCCCCC(=O)[O-]
REMARK SMILES IDX 9 1 10 2 11 3 12 4 13 5 14 6 15 7 16 8 17 9 18 10 8 11 7 12
REMARK SMILES IDX 6 13 5 14 4 15 3 16 2 17 1 18
REMARK H PARENT
REMARK Flexibility Score: inf
ROOT
ATOM      1  C   UNL     1      -1.995 -14.760  15.538  1.00  0.00     0.000 C 
ENDROOT
BRANCH   1   2
ATOM      2  C   UNL     1      -2.431 -15.363  16.885  1.00  0.00     0.000 C 
BRANCH   2   3
ATOM      3  C   UNL     1      -1.251 -15.560  17.851  1.00  0.00     0.000 C 
BRANCH   3   4
ATOM      4  C   UNL     1      -0.621 -16.957  17.742  1.00  0.00     0.000 C 
BRANCH   4   5
ATOM      5  C   UNL     1       0.718 -17.012  18.493  1.00  0.00     0.000 C 
BRANCH   5   6
ATOM      6  C   UNL     1       1.140 -18.449  18.857  1.00  0.00     0.006 C 
BRANCH   6   7
ATOM      7  C   UNL     1       0.038 -19.501  18.661  1.00  0.00     0.053 C 
BRANCH   7   8
ATOM      8  C   UNL     1       0.330 -20.412  17.508  1.00  0.00     0.041 C 
ATOM      9  O   UNL     1      -0.592 -20.755  16.722  1.00  0.00    -0.550 OA
ATOM     10  O   UNL     1       1.627 -20.855  17.283  1.00  0.00    -0.550 OA
ENDBRANCH   7   8
ENDBRANCH   6   7
ENDBRANCH   5   6
ENDBRANCH   4   5
ENDBRANCH   3   4
ENDBRANCH   2   3
ENDBRANCH   1   2
BRANCH   1  11
ATOM     11  C   UNL     1      -3.064 -13.836  14.925  1.00  0.00     0.000 C 
BRANCH  11  12
ATOM     12  C   UNL     1      -4.397 -13.768  15.698  1.00  0.00    -0.000 C 
BRANCH  12  13
ATOM     13  C   UNL     1      -4.684 -12.428  16.401  1.00  0.00    -0.000 C 
BRANCH  13  14
ATOM     14  C   UNL     1      -3.789 -12.196  17.630  1.00  0.00    -0.000 C 
BRANCH  14  15
ATOM     15  C   UNL     1      -4.466 -12.627  18.941  1.00  0.00    -0.000 C 
BRANCH  15  16
ATOM     16  C   UNL     1      -5.993 -12.439  18.912  1.00  0.00    -0.000 C 
BRANCH  16  17
ATOM     17  C   UNL     1      -6.576 -12.149  20.303  1.00  0.00    -0.003 C 
ATOM     18  C   UNL     1      -7.879 -11.354  20.244  1.00  0.00     0.004 C 
ENDBRANCH  16  17
ENDBRANCH  15  16
ENDBRANCH  14  15
ENDBRANCH  13  14
ENDBRANCH  12  13
ENDBRANCH  11  12
ENDBRANCH   1  11
TORSDOF 14
ENDMDL
MODEL 8
REMARK VINA RESULT:    -3.333      5.769      8.399
REMARK INTER + INTRA:          -6.654
REMARK INTER:                  -5.783
REMARK INTRA:                  -0.872
REMARK UNBOUND:                -0.593
REMARK SMILES CCCCCCCCCCCCCCCC(=O)[O-]
REMARK SMILES IDX 9 1 10 2 11 3 12 4 13 5 14 6 15 7 16 8 17 9 18 10 8 11 7 12
REMARK SMILES IDX 6 13 5 14 4 15 3 16 2 17 1 18
REMARK H PARENT
REMARK Flexibility Score: inf
ROOT
ATOM      1  C   UNL     1      -1.569 -15.497  16.491  1.00  0.00     0.000 C 
ENDROOT
BRANCH   1   2
ATOM      2  C   UNL     1      -2.828 -14.616  16.412  1.00  0.00     0.000 C 
BRANCH   2   3
ATOM      3  C   UNL     1      -3.020 -13.987  15.023  1.00  0.00     0.000 C 
BRANCH   3   4
ATOM      4  C   UNL     1      -4.000 -12.802  15.038  1.00  0.00     0.000 C 
BRANCH   4   5
ATOM      5  C   UNL     1      -5.239 -13.130  15.886  1.00  0.00     0.000 C 
BRANCH   5   6
ATOM      6  C   UNL     1      -5.567 -12.030  16.914  1.00  0.00     0.006 C 
BRANCH   6   7
ATOM      7  C   UNL     1      -6.154 -12.554  18.234  1.00  0.00     0.053 C 
BRANCH   7   8
ATOM      8  C   UNL     1      -5.160 -12.494  19.354  1.00  0.00     0.041 C 
ATOM      9  O   UNL     1      -3.946 -12.749  19.139  1.00  0.00    -0.550 OA
ATOM     10  O   UNL     1      -5.570 -12.122  20.629  1.00  0.00    -0.550 OA
ENDBRANCH   7   8
ENDBRANCH   6   7
ENDBRANCH   5   6
ENDBRANCH   4   5
ENDBRANCH   3   4
ENDBRANCH   2   3
ENDBRANCH   1   2
BRANCH   1  11
ATOM     11  C   UNL     1      -1.206 -15.891  17.935  1.00  0.00     0.000 C 
BRANCH  11  12
ATOM     12  C   UNL     1      -0.185 -17.039  18.068  1.00  0.00    -0.000 C 
BRANCH  12  13
ATOM     13  C   UNL     1       1.238 -16.612  18.468  1.00  0.00    -0.000 C 
BRANCH  13  14
ATOM     14  C   UNL     1       2.009 -17.721  19.205  1.00  0.00    -0.000 C 
BRANCH  14  15
ATOM     15  C   UNL     1       1.950 -19.069  18.469  1.00  0.00    -0.000 C 
BRANCH  15  16
ATOM     16  C   UNL     1       1.548 -20.233  19.391  1.00  0.00    -0.000 C 
BRANCH  16  17
ATOM     17  C   UNL     1       0.242 -20.910  18.948  1.00  0.00    -0.003 C 
ATOM     18  C   UNL     1      -0.135 -20.579  17.505  1.00  0.00     0.004 C 
ENDBRANCH  16  17
ENDBRANCH  15  16
ENDBRANCH  14  15
ENDBRANCH  13  14
ENDBRANCH  12  13
ENDBRANCH  11  12
ENDBRANCH   1  11
TORSDOF 14
ENDMDL
MODEL 9
REMARK VINA RESULT:    -3.045      5.223      8.118
REMARK INTER + INTRA:          -6.131
REMARK INTER:                  -5.450
REMARK INTRA:                  -0.681
REMARK UNBOUND:                -0.593
REMARK SMILES CCCCCCCCCCCCCCCC(=O)[O-]
REMARK SMILES IDX 9 1 10 2 11 3 12 4 13 5 14 6 15 7 16 8 17 9 18 10 8 11 7 12
REMARK SMILES IDX 6 13 5 14 4 15 3 16 2 17 1 18
REMARK H PARENT
REMARK Flexibility Score: inf
ROOT
ATOM      1  C   UNL     1      -3.243 -14.454  15.812  1.00  0.00     0.000 C 
ENDROOT
BRANCH   1   2
ATOM      2  C   UNL     1      -3.090 -13.038  15.229  1.00  0.00     0.000 C 
BRANCH   2   3
ATOM      3  C   UNL     1      -4.372 -12.201  15.371  1.00  0.00     0.000 C 
BRANCH   3   4
ATOM      4  C   UNL     1      -5.486 -12.944  16.126  1.00  0.00     0.000 C 
BRANCH   4   5
ATOM      5  C   UNL     1      -6.086 -12.054  17.225  1.00  0.00     0.000 C 
BRANCH   5   6
ATOM      6  C   UNL     1      -5.994 -12.691  18.626  1.00  0.00     0.006 C 
BRANCH   6   7
ATOM      7  C   UNL     1      -4.925 -12.064  19.535  1.00  0.00     0.053 C 
BRANCH   7   8
ATOM      8  C   UNL     1      -3.540 -12.278  19.005  1.00  0.00     0.041 C 
ATOM      9  O   UNL     1      -2.879 -11.308  18.551  1.00  0.00    -0.550 OA
ATOM     10  O   UNL     1      -2.969 -13.544  19.043  1.00  0.00    -0.550 OA
ENDBRANCH   7   8
ENDBRANCH   6   7
ENDBRANCH   5   6
ENDBRANCH   4   5
ENDBRANCH   3   4
ENDBRANCH   2   3
ENDBRANCH   1   2
BRANCH   1  11
ATOM     11  C   UNL     1      -1.892 -15.169  16.001  1.00  0.00     0.000 C 
BRANCH  11  12
ATOM     12  C   UNL     1      -1.522 -15.501  17.461  1.00  0.00    -0.000 C 
BRANCH  12  13
ATOM     13  C   UNL     1      -0.869 -16.878  17.679  1.00  0.00    -0.000 C 
BRANCH  13  14
ATOM     14  C   UNL     1       0.555 -16.779  18.252  1.00  0.00    -0.000 C 
BRANCH  14  15
ATOM     15  C   UNL     1       1.054 -18.115  18.824  1.00  0.00    -0.000 C 
BRANCH  15  16
ATOM     16  C   UNL     1       0.146 -19.299  18.447  1.00  0.00    -0.000 C 
BRANCH  16  17
ATOM     17  C   UNL     1       0.927 -20.614  18.296  1.00  0.00    -0.003 C 
ATOM     18  C   UNL     1       2.125 -20.485  17.357  1.00  0.00     0.004 C 
ENDBRANCH  16  17
ENDBRANCH  15  16
ENDBRANCH  14  15
ENDBRANCH  13  14
ENDBRANCH  12  13
ENDBRANCH  11  12
ENDBRANCH   1  11
TORSDOF 14
ENDMDL
