MODEL 1
REMARK VINA RESULT:    -4.616      0.000      0.000
REMARK INTER + INTRA:         -12.047
REMARK INTER:                 -10.013
REMARK INTRA:                  -2.034
REMARK UNBOUND:                -2.034
REMARK SMILES CCCCCCCCCCCCCCCCCCCCCC(=O)[O-]
REMARK SMILES IDX 12 1 11 2 10 3 9 4 8 5 7 6 6 7 5 8 4 9 3 10 2 11 1 12 13 13
REMARK SMILES IDX 14 14 15 15 16 16 17 17 18 18 19 19 20 20 21 21 22 22 23 23
REMARK SMILES IDX 24 24
REMARK H PARENT
REMARK Flexibility Score: inf
ROOT
ATOM      1  C   UNL     1       7.831  -6.852  41.783  1.00  0.00     0.000 C 
ENDROOT
BRANCH   1   2
ATOM      2  C   UNL     1       8.985  -7.341  42.664  1.00  0.00     0.000 C 
BRANCH   2   3
ATOM      3  C   UNL     1       8.534  -8.490  43.574  1.00  0.00     0.000 C 
BRANCH   3   4
ATOM      4  C   UNL     1       7.464  -9.350  42.886  1.00  0.00    -0.000 C 
BRANCH   4   5
ATOM      5  C   UNL     1       7.099 -10.604  43.697  1.00  0.00    -0.000 C 
BRANCH   5   6
ATOM      6  C   UNL     1       5.771 -11.233  43.248  1.00  0.00    -0.000 C 
BRANCH   6   7
ATOM      7  C   UNL     1       5.453 -10.867  41.793  1.00  0.00    -0.000 C 
BRANCH   7   8
ATOM      8  C   UNL     1       4.936 -12.087  41.017  1.00  0.00    -0.000 C 
BRANCH   8   9
ATOM      9  C   UNL     1       5.884 -12.514  39.885  1.00  0.00    -0.000 C 
BRANCH   9  10
ATOM     10  C   UNL     1       7.010 -11.494  39.638  1.00  0.00    -0.000 C 
BRANCH  10  11
ATOM     11  C   UNL     1       8.388 -12.025  40.055  1.00  0.00    -0.003 C 
ATOM     12  C   UNL     1       8.317 -13.404  40.713  1.00  0.00     0.004 C 
ENDBRANCH  10  11
ENDBRANCH   9  10
ENDBRANCH   8   9
ENDBRANCH   7   8
ENDBRANCH   6   7
ENDBRANCH   5   6
ENDBRANCH   4   5
ENDBRANCH   3   4
ENDBRANCH   2   3
ENDBRANCH   1   2
BRANCH   1  13
ATOM     13  C   UNL     1       7.336  -5.473  42.234  1.00  0.00     0.000 C 
BRANCH  13  14
ATOM     14  C   UNL     1       8.506  -4.608  42.725  1.00  0.00     0.000 C 
BRANCH  14  15
ATOM     15  C   UNL     1       8.247  -3.100  42.558  1.00  0.00     0.000 C 
BRANCH  15  16
ATOM     16  C   UNL     1       9.297  -2.349  41.715  1.00  0.00     0.000 C 
BRANCH  16  17
ATOM     17  C   UNL     1       8.736  -1.743  40.410  1.00  0.00     0.000 C 
BRANCH  17  18
ATOM     18  C   UNL     1       7.615  -2.605  39.803  1.00  0.00     0.000 C 
BRANCH  18  19
ATOM     19  C   UNL     1       8.128  -3.586  38.738  1.00  0.00     0.000 C 
BRANCH  19  20
ATOM     20  C   UNL     1       7.271  -3.574  37.460  1.00  0.00     0.006 C 
BRANCH  20  21
ATOM     21  C   UNL     1       6.530  -2.239  37.316  1.00  0.00     0.053 C 
BRANCH  21  22
ATOM     22  C   UNL     1       6.697  -1.672  35.938  1.00  0.00     0.041 C 
ATOM     23  O   UNL     1       6.873  -2.437  34.950  1.00  0.00    -0.550 OA
ATOM     24  O   UNL     1       6.621  -0.299  35.739  1.00  0.00    -0.550 OA
ENDBRANCH  21  22
ENDBRANCH  20  21
ENDBRANCH  19  20
ENDBRANCH  18  19
ENDBRANCH  17  18
ENDBRANCH  16  17
ENDBRANCH  15  16
ENDBRANCH  14  15
ENDBRANCH  13  14
ENDBRANCH   1  13
TORSDOF 20
ENDMDL
MODEL 2
REMARK VINA RESULT:    -4.604      4.587      9.095
REMARK INTER + INTRA:         -12.021
REMARK INTER:                  -8.600
REMARK INTRA:                  -3.422
REMARK UNBOUND:                -2.034
REMARK SMILES CCCCCCCCCCCCCCCCCCCCCC(=O)[O-]
REMARK SMILES IDX 12 1 11 2 10 3 9 4 8 5 7 6 6 7 5 8 4 9 3 10 2 11 1 12 13 13
REMARK SMILES IDX 14 14 15 15 16 16 17 17 18 18 19 19 20 20 21 21 22 22 23 23
REMARK SMILES IDX 24 24
REMARK H PARENT
REMARK Flexibility Score: inf
ROOT
ATOM      1  C   UNL     1       8.476  -0.497  44.912  1.00  0.00     0.000 C 
ENDROOT
BRANCH   1   2
ATOM      2  C   UNL     1       9.398  -0.665  46.125  1.00  0.00     0.000 C 
BRANCH   2   3
ATOM      3  C   UNL     1      10.133   0.643  46.442  1.00  0.00     0.000 C 
BRANCH   3   4
ATOM      4  C   UNL     1      11.650   0.481  46.261  1.00  0.00    -0.000 C 
BRANCH   4   5
ATOM      5  C   UNL     1      12.123   0.864  44.850  1.00  0.00    -0.000 C 
BRANCH   5   6
ATOM      6  C   UNL     1      12.686  -0.333  44.068  1.00  0.00    -0.000 C 
BRANCH   6   7
ATOM      7  C   UNL     1      13.652   0.133  42.971  1.00  0.00    -0.000 C 
BRANCH   7   8
ATOM      8  C   UNL     1      12.906   0.393  41.654  1.00  0.00    -0.000 C 
BRANCH   8   9
ATOM      9  C   UNL     1      13.149  -0.708  40.609  1.00  0.00    -0.000 C 
BRANCH   9  10
ATOM     10  C   UNL     1      11.924  -1.617  40.409  1.00  0.00    -0.000 C 
BRANCH  10  11
ATOM     11  C   UNL     1      12.191  -3.067  40.839  1.00  0.00    -0.003 C 
ATOM     12  C   UNL     1      11.746  -3.350  42.274  1.00  0.00     0.004 C 
ENDBRANCH  10  11
ENDBRANCH   9  10
ENDBRANCH   8   9
ENDBRANCH   7   8
ENDBRANCH   6   7
ENDBRANCH   5   6
ENDBRANCH   4   5
ENDBRANCH   3   4
ENDBRANCH   2   3
ENDBRANCH   1   2
BRANCH   1  13
ATOM     13  C   UNL     1       9.123  -1.062  43.642  1.00  0.00     0.000 C 
BRANCH  13  14
ATOM     14  C   UNL     1       9.268   0.030  42.572  1.00  0.00     0.000 C 
BRANCH  14  15
ATOM     15  C   UNL     1       8.600  -0.347  41.238  1.00  0.00     0.000 C 
BRANCH  15  16
ATOM     16  C   UNL     1       8.218  -1.834  41.099  1.00  0.00     0.000 C 
BRANCH  16  17
ATOM     17  C   UNL     1       8.143  -2.327  39.637  1.00  0.00     0.000 C 
BRANCH  17  18
ATOM     18  C   UNL     1       7.858  -3.837  39.545  1.00  0.00     0.000 C 
BRANCH  18  19
ATOM     19  C   UNL     1       8.008  -4.554  40.895  1.00  0.00     0.000 C 
BRANCH  19  20
ATOM     20  C   UNL     1       9.194  -5.534  40.916  1.00  0.00     0.006 C 
BRANCH  20  21
ATOM     21  C   UNL     1       9.404  -6.104  42.324  1.00  0.00     0.053 C 
BRANCH  21  22
ATOM     22  C   UNL     1       8.162  -6.775  42.828  1.00  0.00     0.041 C 
ATOM     23  O   UNL     1       7.596  -7.669  42.142  1.00  0.00    -0.550 OA
ATOM     24  O   UNL     1       7.650  -6.438  44.076  1.00  0.00    -0.550 OA
ENDBRANCH  21  22
ENDBRANCH  20  21
ENDBRANCH  19  20
ENDBRANCH  18  19
ENDBRANCH  17  18
ENDBRANCH  16  17
ENDBRANCH  15  16
ENDBRANCH  14  15
ENDBRANCH  13  14
ENDBRANCH   1  13
TORSDOF 20
ENDMDL
MODEL 3
REMARK VINA RESULT:    -4.545      1.415      2.222
REMARK INTER + INTRA:         -11.892
REMARK INTER:                  -9.571
REMARK INTRA:                  -2.321
REMARK UNBOUND:                -2.034
REMARK SMILES CCCCCCCCCCCCCCCCCCCCCC(=O)[O-]
REMARK SMILES IDX 12 1 11 2 10 3 9 4 8 5 7 6 6 7 5 8 4 9 3 10 2 11 1 12 13 13
REMARK SMILES IDX 14 14 15 15 16 16 17 17 18 18 19 19 20 20 21 21 22 22 23 23
REMARK SMILES IDX 24 24
REMARK H PARENT
REMARK Flexibility Score: inf
ROOT
ATOM      1  C   UNL     1       8.497  -7.500  42.155  1.00  0.00     0.000 C 
ENDROOT
BRANCH   1   2
ATOM      2  C   UNL     1       8.271  -8.855  41.474  1.00  0.00     0.000 C 
BRANCH   2   3
ATOM      3  C   UNL     1       7.125  -9.623  42.143  1.00  0.00     0.000 C 
BRANCH   3   4
ATOM      4  C   UNL     1       7.374  -9.782  43.650  1.00  0.00    -0.000 C 
BRANCH   4   5
ATOM      5  C   UNL     1       6.576 -10.943  44.264  1.00  0.00    -0.000 C 
BRANCH   5   6
ATOM      6  C   UNL     1       5.576 -11.562  43.276  1.00  0.00    -0.000 C 
BRANCH   6   7
ATOM      7  C   UNL     1       5.647 -13.094  43.308  1.00  0.00    -0.000 C 
BRANCH   7   8
ATOM      8  C   UNL     1       7.069 -13.587  43.006  1.00  0.00    -0.000 C 
BRANCH   8   9
ATOM      9  C   UNL     1       7.290 -13.877  41.513  1.00  0.00    -0.000 C 
BRANCH   9  10
ATOM     10  C   UNL     1       8.201 -12.838  40.835  1.00  0.00    -0.000 C 
BRANCH  10  11
ATOM     11  C   UNL     1       7.728 -12.474  39.420  1.00  0.00    -0.003 C 
ATOM     12  C   UNL     1       6.337 -11.840  39.406  1.00  0.00     0.004 C 
ENDBRANCH  10  11
ENDBRANCH   9  10
ENDBRANCH   8   9
ENDBRANCH   7   8
ENDBRANCH   6   7
ENDBRANCH   5   6
ENDBRANCH   4   5
ENDBRANCH   3   4
ENDBRANCH   2   3
ENDBRANCH   1   2
BRANCH   1  13
ATOM     13  C   UNL     1       7.520  -6.444  41.624  1.00  0.00     0.000 C 
BRANCH  13  14
ATOM     14  C   UNL     1       7.519  -5.200  42.525  1.00  0.00     0.000 C 
BRANCH  14  15
ATOM     15  C   UNL     1       8.808  -4.370  42.400  1.00  0.00     0.000 C 
BRANCH  15  16
ATOM     16  C   UNL     1       8.658  -2.877  42.757  1.00  0.00     0.000 C 
BRANCH  16  17
ATOM     17  C   UNL     1       9.826  -1.995  42.264  1.00  0.00     0.000 C 
BRANCH  17  18
ATOM     18  C   UNL     1       9.644  -1.552  40.802  1.00  0.00     0.000 C 
BRANCH  18  19
ATOM     19  C   UNL     1       8.215  -1.078  40.496  1.00  0.00     0.000 C 
BRANCH  19  20
ATOM     20  C   UNL     1       7.670  -1.653  39.177  1.00  0.00     0.006 C 
BRANCH  20  21
ATOM     21  C   UNL     1       8.329  -3.001  38.859  1.00  0.00     0.053 C 
BRANCH  21  22
ATOM     22  C   UNL     1       7.876  -3.525  37.529  1.00  0.00     0.041 C 
ATOM     23  O   UNL     1       8.687  -4.119  36.768  1.00  0.00    -0.550 OA
ATOM     24  O   UNL     1       6.547  -3.388  37.145  1.00  0.00    -0.550 OA
ENDBRANCH  21  22
ENDBRANCH  20  21
ENDBRANCH  19  20
ENDBRANCH  18  19
ENDBRANCH  17  18
ENDBRANCH  16  17
ENDBRANCH  15  16
ENDBRANCH  14  15
ENDBRANCH  13  14
ENDBRANCH   1  13
TORSDOF 20
ENDMDL
MODEL 4
REMARK VINA RESULT:    -4.528      2.089      3.592
REMARK INTER + INTRA:         -11.855
REMARK INTER:                  -9.318
REMARK INTRA:                  -2.537
REMARK UNBOUND:                -2.034
REMARK SMILES CCCCCCCCCCCCCCCCCCCCCC(=O)[O-]
REMARK SMILES IDX 12 1 11 2 10 3 9 4 8 5 7 6 6 7 5 8 4 9 3 10 2 11 1 12 13 13
REMARK SMILES IDX 14 14 15 15 16 16 17 17 18 18 19 19 20 20 21 21 22 22 23 23
REMARK SMILES IDX 24 24
REMARK H PARENT
REMARK Flexibility Score: inf
ROOT
ATOM      1  C   UNL     1       7.878  -9.261  43.637  1.00  0.00     0.000 C 
ENDROOT
BRANCH   1   2
ATOM      2  C   UNL     1       7.167 -10.466  44.262  1.00  0.00     0.000 C 
BRANCH   2   3
ATOM      3  C   UNL     1       5.954 -10.886  43.422  1.00  0.00     0.000 C 
BRANCH   3   4
ATOM      4  C   UNL     1       5.937 -12.405  43.201  1.00  0.00    -0.000 C 
BRANCH   4   5
ATOM      5  C   UNL     1       5.222 -12.807  41.901  1.00  0.00    -0.000 C 
BRANCH   5   6
ATOM      6  C   UNL     1       4.999 -11.616  40.956  1.00  0.00    -0.000 C 
BRANCH   6   7
ATOM      7  C   UNL     1       6.000 -11.642  39.794  1.00  0.00    -0.000 C 
BRANCH   7   8
ATOM      8  C   UNL     1       6.266 -13.080  39.326  1.00  0.00    -0.000 C 
BRANCH   8   9
ATOM      9  C   UNL     1       7.745 -13.328  38.986  1.00  0.00    -0.000 C 
BRANCH   9  10
ATOM     10  C   UNL     1       8.693 -12.912  40.125  1.00  0.00    -0.000 C 
BRANCH  10  11
ATOM     11  C   UNL     1       9.356 -14.118  40.808  1.00  0.00    -0.003 C 
ATOM     12  C   UNL     1       8.505 -14.700  41.936  1.00  0.00     0.004 C 
ENDBRANCH  10  11
ENDBRANCH   9  10
ENDBRANCH   8   9
ENDBRANCH   7   8
ENDBRANCH   6   7
ENDBRANCH   5   6
ENDBRANCH   4   5
ENDBRANCH   3   4
ENDBRANCH   2   3
ENDBRANCH   1   2
BRANCH   1  13
ATOM     13  C   UNL     1       7.663  -9.218  42.119  1.00  0.00     0.000 C 
BRANCH  13  14
ATOM     14  C   UNL     1       7.659  -7.769  41.610  1.00  0.00     0.000 C 
BRANCH  14  15
ATOM     15  C   UNL     1       9.044  -7.103  41.690  1.00  0.00     0.000 C 
BRANCH  15  16
ATOM     16  C   UNL     1       9.080  -5.767  42.460  1.00  0.00     0.000 C 
BRANCH  16  17
ATOM     17  C   UNL     1       7.685  -5.165  42.736  1.00  0.00     0.000 C 
BRANCH  17  18
ATOM     18  C   UNL     1       7.756  -3.667  43.083  1.00  0.00     0.000 C 
BRANCH  18  19
ATOM     19  C   UNL     1       9.094  -3.026  42.686  1.00  0.00     0.000 C 
BRANCH  19  20
ATOM     20  C   UNL     1       8.923  -1.868  41.688  1.00  0.00     0.006 C 
BRANCH  20  21
ATOM     21  C   UNL     1       8.122  -2.321  40.461  1.00  0.00     0.053 C 
BRANCH  21  22
ATOM     22  C   UNL     1       8.957  -3.170  39.552  1.00  0.00     0.041 C 
ATOM     23  O   UNL     1       8.452  -4.168  38.968  1.00  0.00    -0.550 OA
ATOM     24  O   UNL     1      10.287  -2.839  39.319  1.00  0.00    -0.550 OA
ENDBRANCH  21  22
ENDBRANCH  20  21
ENDBRANCH  19  20
ENDBRANCH  18  19
ENDBRANCH  17  18
ENDBRANCH  16  17
ENDBRANCH  15  16
ENDBRANCH  14  15
ENDBRANCH  13  14
ENDBRANCH   1  13
TORSDOF 20
ENDMDL
MODEL 5
REMARK VINA RESULT:    -4.521      3.528      7.197
REMARK INTER + INTRA:         -11.840
REMARK INTER:                  -8.896
REMARK INTRA:                  -2.944
REMARK UNBOUND:                -2.034
REMARK SMILES CCCCCCCCCCCCCCCCCCCCCC(=O)[O-]
REMARK SMILES IDX 12 1 11 2 10 3 9 4 8 5 7 6 6 7 5 8 4 9 3 10 2 11 1 12 13 13
REMARK SMILES IDX 14 14 15 15 16 16 17 17 18 18 19 19 20 20 21 21 22 22 23 23
REMARK SMILES IDX 24 24
REMARK H PARENT
REMARK Flexibility Score: inf
ROOT
ATOM      1  C   UNL     1       7.752 -12.995  39.573  1.00  0.00     0.000 C 
ENDROOT
BRANCH   1   2
ATOM      2  C   UNL     1       7.099 -14.377  39.466  1.00  0.00     0.000 C 
BRANCH   2   3
ATOM      3  C   UNL     1       7.733 -15.363  40.455  1.00  0.00     0.000 C 
BRANCH   3   4
ATOM      4  C   UNL     1       6.737 -15.755  41.557  1.00  0.00    -0.000 C 
BRANCH   4   5
ATOM      5  C   UNL     1       6.812 -14.827  42.780  1.00  0.00    -0.000 C 
BRANCH   5   6
ATOM      6  C   UNL     1       8.251 -14.409  43.120  1.00  0.00    -0.000 C 
BRANCH   6   7
ATOM      7  C   UNL     1       8.841 -15.311  44.212  1.00  0.00    -0.000 C 
BRANCH   7   8
ATOM      8  C   UNL     1      10.325 -15.604  43.943  1.00  0.00    -0.000 C 
BRANCH   8   9
ATOM      9  C   UNL     1      10.529 -16.771  42.964  1.00  0.00    -0.000 C 
BRANCH   9  10
ATOM     10  C   UNL     1      11.743 -16.566  42.040  1.00  0.00    -0.000 C 
BRANCH  10  11
ATOM     11  C   UNL     1      11.354 -15.957  40.684  1.00  0.00    -0.003 C 
ATOM     12  C   UNL     1      11.281 -14.431  40.720  1.00  0.00     0.004 C 
ENDBRANCH  10  11
ENDBRANCH   9  10
ENDBRANCH   8   9
ENDBRANCH   7   8
ENDBRANCH   6   7
ENDBRANCH   5   6
ENDBRANCH   4   5
ENDBRANCH   3   4
ENDBRANCH   2   3
ENDBRANCH   1   2
BRANCH   1  13
ATOM     13  C   UNL     1       6.810 -11.896  39.067  1.00  0.00     0.000 C 
BRANCH  13  14
ATOM     14  C   UNL     1       6.478 -10.902  40.189  1.00  0.00     0.000 C 
BRANCH  14  15
ATOM     15  C   UNL     1       5.322 -11.377  41.086  1.00  0.00     0.000 C 
BRANCH  15  16
ATOM     16  C   UNL     1       5.564 -11.217  42.600  1.00  0.00     0.000 C 
BRANCH  16  17
ATOM     17  C   UNL     1       7.046 -11.006  42.979  1.00  0.00     0.000 C 
BRANCH  17  18
ATOM     18  C   UNL     1       7.211 -10.057  44.179  1.00  0.00     0.000 C 
BRANCH  18  19
ATOM     19  C   UNL     1       8.112  -8.852  43.868  1.00  0.00     0.000 C 
BRANCH  19  20
ATOM     20  C   UNL     1       7.830  -8.246  42.482  1.00  0.00     0.006 C 
BRANCH  20  21
ATOM     21  C   UNL     1       8.675  -6.986  42.259  1.00  0.00     0.053 C 
BRANCH  21  22
ATOM     22  C   UNL     1       7.808  -5.779  42.057  1.00  0.00     0.041 C 
ATOM     23  O   UNL     1       7.088  -5.347  42.998  1.00  0.00    -0.550 OA
ATOM     24  O   UNL     1       7.823  -5.110  40.839  1.00  0.00    -0.550 OA
ENDBRANCH  21  22
ENDBRANCH  20  21
ENDBRANCH  19  20
ENDBRANCH  18  19
ENDBRANCH  17  18
ENDBRANCH  16  17
ENDBRANCH  15  16
ENDBRANCH  14  15
ENDBRANCH  13  14
ENDBRANCH   1  13
TORSDOF 20
ENDMDL
MODEL 6
REMARK VINA RESULT:    -4.476      3.288      9.162
REMARK INTER + INTRA:         -11.743
REMARK INTER:                 -10.152
REMARK INTRA:                  -1.591
REMARK UNBOUND:                -2.034
REMARK SMILES CCCCCCCCCCCCCCCCCCCCCC(=O)[O-]
REMARK SMILES IDX 12 1 11 2 10 3 9 4 8 5 7 6 6 7 5 8 4 9 3 10 2 11 1 12 13 13
REMARK SMILES IDX 14 14 15 15 16 16 17 17 18 18 19 19 20 20 21 21 22 22 23 23
REMARK SMILES IDX 24 24
REMARK H PARENT
REMARK Flexibility Score: inf
ROOT
ATOM      1  C   UNL     1       7.228  -4.827  43.132  1.00  0.00     0.000 C 
ENDROOT
BRANCH   1   2
ATOM      2  C   UNL     1       7.940  -3.470  43.154  1.00  0.00     0.000 C 
BRANCH   2   3
ATOM      3  C   UNL     1       9.281  -3.540  42.415  1.00  0.00     0.000 C 
BRANCH   3   4
ATOM      4  C   UNL     1       9.384  -2.434  41.354  1.00  0.00    -0.000 C 
BRANCH   4   5
ATOM      5  C   UNL     1       8.067  -2.221  40.589  1.00  0.00    -0.000 C 
BRANCH   5   6
ATOM      6  C   UNL     1       7.738  -3.386  39.643  1.00  0.00    -0.000 C 
BRANCH   6   7
ATOM      7  C   UNL     1       8.187  -3.073  38.210  1.00  0.00    -0.000 C 
BRANCH   7   8
ATOM      8  C   UNL     1       6.997  -3.103  37.240  1.00  0.00    -0.000 C 
BRANCH   8   9
ATOM      9  C   UNL     1       5.812  -2.256  37.730  1.00  0.00    -0.000 C 
BRANCH   9  10
ATOM     10  C   UNL     1       5.846  -0.817  37.185  1.00  0.00    -0.000 C 
BRANCH  10  11
ATOM     11  C   UNL     1       6.270  -0.756  35.710  1.00  0.00    -0.003 C 
ATOM     12  C   UNL     1       5.280   0.022  34.842  1.00  0.00     0.004 C 
ENDBRANCH  10  11
ENDBRANCH   9  10
ENDBRANCH   8   9
ENDBRANCH   7   8
ENDBRANCH   6   7
ENDBRANCH   5   6
ENDBRANCH   4   5
ENDBRANCH   3   4
ENDBRANCH   2   3
ENDBRANCH   1   2
BRANCH   1  13
ATOM     13  C   UNL     1       8.217  -5.965  42.852  1.00  0.00     0.000 C 
BRANCH  13  14
ATOM     14  C   UNL     1       7.800  -6.756  41.603  1.00  0.00     0.000 C 
BRANCH  14  15
ATOM     15  C   UNL     1       8.431  -8.157  41.543  1.00  0.00     0.000 C 
BRANCH  15  16
ATOM     16  C   UNL     1       8.191  -9.034  42.788  1.00  0.00     0.000 C 
BRANCH  16  17
ATOM     17  C   UNL     1       6.894  -9.870  42.725  1.00  0.00     0.000 C 
BRANCH  17  18
ATOM     18  C   UNL     1       6.866 -10.981  43.790  1.00  0.00     0.000 C 
BRANCH  18  19
ATOM     19  C   UNL     1       6.846 -12.391  43.180  1.00  0.00     0.000 C 
BRANCH  19  20
ATOM     20  C   UNL     1       5.878 -12.507  41.990  1.00  0.00     0.006 C 
BRANCH  20  21
ATOM     21  C   UNL     1       6.556 -13.204  40.804  1.00  0.00     0.053 C 
BRANCH  21  22
ATOM     22  C   UNL     1       6.520 -12.345  39.576  1.00  0.00     0.041 C 
ATOM     23  O   UNL     1       6.057 -11.173  39.631  1.00  0.00    -0.550 OA
ATOM     24  O   UNL     1       7.032 -12.826  38.377  1.00  0.00    -0.550 OA
ENDBRANCH  21  22
ENDBRANCH  20  21
ENDBRANCH  19  20
ENDBRANCH  18  19
ENDBRANCH  17  18
ENDBRANCH  16  17
ENDBRANCH  15  16
ENDBRANCH  14  15
ENDBRANCH  13  14
ENDBRANCH   1  13
TORSDOF 20
ENDMDL
MODEL 7
REMARK VINA RESULT:    -4.419      3.375      6.665
REMARK INTER + INTRA:         -11.619
REMARK INTER:                  -8.995
REMARK INTRA:                  -2.623
REMARK UNBOUND:                -2.034
REMARK SMILES CCCCCCCCCCCCCCCCCCCCCC(=O)[O-]
REMARK SMILES IDX 12 1 11 2 10 3 9 4 8 5 7 6 6 7 5 8 4 9 3 10 2 11 1 12 13 13
REMARK SMILES IDX 14 14 15 15 16 16 17 17 18 18 19 19 20 20 21 21 22 22 23 23
REMARK SMILES IDX 24 24
REMARK H PARENT
REMARK Flexibility Score: inf
ROOT
ATOM      1  C   UNL     1       8.411  -2.427  39.008  1.00  0.00     0.000 C 
ENDROOT
BRANCH   1   2
ATOM      2  C   UNL     1       9.140  -3.753  38.768  1.00  0.00     0.000 C 
BRANCH   2   3
ATOM      3  C   UNL     1      10.660  -3.556  38.784  1.00  0.00     0.000 C 
BRANCH   3   4
ATOM      4  C   UNL     1      11.316  -4.411  39.879  1.00  0.00    -0.000 C 
BRANCH   4   5
ATOM      5  C   UNL     1      10.320  -4.848  40.965  1.00  0.00    -0.000 C 
BRANCH   5   6
ATOM      6  C   UNL     1      10.407  -3.982  42.231  1.00  0.00    -0.000 C 
BRANCH   6   7
ATOM      7  C   UNL     1       9.029  -3.422  42.609  1.00  0.00    -0.000 C 
BRANCH   7   8
ATOM      8  C   UNL     1       7.904  -4.321  42.078  1.00  0.00    -0.000 C 
BRANCH   8   9
ATOM      9  C   UNL     1       7.333  -5.254  43.159  1.00  0.00    -0.000 C 
BRANCH   9  10
ATOM     10  C   UNL     1       7.931  -6.671  43.096  1.00  0.00    -0.000 C 
BRANCH  10  11
ATOM     11  C   UNL     1       7.789  -7.309  41.707  1.00  0.00    -0.003 C 
ATOM     12  C   UNL     1       7.771  -8.836  41.756  1.00  0.00     0.004 C 
ENDBRANCH  10  11
ENDBRANCH   9  10
ENDBRANCH   8   9
ENDBRANCH   7   8
ENDBRANCH   6   7
ENDBRANCH   5   6
ENDBRANCH   4   5
ENDBRANCH   3   4
ENDBRANCH   2   3
ENDBRANCH   1   2
BRANCH   1  13
ATOM     13  C   UNL     1       6.942  -2.516  38.575  1.00  0.00     0.000 C 
BRANCH  13  14
ATOM     14  C   UNL     1       6.613  -1.434  37.535  1.00  0.00     0.000 C 
BRANCH  14  15
ATOM     15  C   UNL     1       6.261  -2.018  36.156  1.00  0.00     0.000 C 
BRANCH  15  16
ATOM     16  C   UNL     1       7.467  -2.502  35.326  1.00  0.00     0.000 C 
BRANCH  16  17
ATOM     17  C   UNL     1       7.667  -4.033  35.345  1.00  0.00     0.000 C 
BRANCH  17  18
ATOM     18  C   UNL     1       8.932  -4.465  34.584  1.00  0.00     0.000 C 
BRANCH  18  19
ATOM     19  C   UNL     1      10.227  -4.021  35.280  1.00  0.00     0.000 C 
BRANCH  19  20
ATOM     20  C   UNL     1      11.480  -4.298  34.432  1.00  0.00     0.006 C 
BRANCH  20  21
ATOM     21  C   UNL     1      12.530  -5.063  35.247  1.00  0.00     0.053 C 
BRANCH  21  22
ATOM     22  C   UNL     1      12.253  -6.536  35.242  1.00  0.00     0.041 C 
ATOM     23  O   UNL     1      12.613  -7.256  36.213  1.00  0.00    -0.550 OA
ATOM     24  O   UNL     1      11.564  -7.110  34.180  1.00  0.00    -0.550 OA
ENDBRANCH  21  22
ENDBRANCH  20  21
ENDBRANCH  19  20
ENDBRANCH  18  19
ENDBRANCH  17  18
ENDBRANCH  16  17
ENDBRANCH  15  16
ENDBRANCH  14  15
ENDBRANCH  13  14
ENDBRANCH   1  13
TORSDOF 20
ENDMDL
MODEL 8
REMARK VINA RESULT:    -4.415      4.818      7.828
REMARK INTER + INTRA:         -11.611
REMARK INTER:                  -8.586
REMARK INTRA:                  -3.025
REMARK UNBOUND:                -2.034
REMARK SMILES CCCCCCCCCCCCCCCCCCCCCC(=O)[O-]
REMARK SMILES IDX 12 1 11 2 10 3 9 4 8 5 7 6 6 7 5 8 4 9 3 10 2 11 1 12 13 13
REMARK SMILES IDX 14 14 15 15 16 16 17 17 18 18 19 19 20 20 21 21 22 22 23 23
REMARK SMILES IDX 24 24
REMARK H PARENT
REMARK Flexibility Score: inf
ROOT
ATOM      1  C   UNL     1       7.260  -2.314  38.871  1.00  0.00     0.000 C 
ENDROOT
BRANCH   1   2
ATOM      2  C   UNL     1       7.814  -3.741  38.949  1.00  0.00     0.000 C 
BRANCH   2   3
ATOM      3  C   UNL     1       9.347  -3.737  38.927  1.00  0.00     0.000 C 
BRANCH   3   4
ATOM      4  C   UNL     1       9.915  -4.703  39.977  1.00  0.00    -0.000 C 
BRANCH   4   5
ATOM      5  C   UNL     1       8.830  -5.282  40.899  1.00  0.00    -0.000 C 
BRANCH   5   6
ATOM      6  C   UNL     1       8.976  -4.811  42.354  1.00  0.00    -0.000 C 
BRANCH   6   7
ATOM      7  C   UNL     1       8.037  -3.633  42.647  1.00  0.00    -0.000 C 
BRANCH   7   8
ATOM      8  C   UNL     1       8.828  -2.397  43.102  1.00  0.00    -0.000 C 
BRANCH   8   9
ATOM      9  C   UNL     1       9.007  -1.363  41.979  1.00  0.00    -0.000 C 
BRANCH   9  10
ATOM     10  C   UNL     1      10.451  -1.305  41.450  1.00  0.00    -0.000 C 
BRANCH  10  11
ATOM     11  C   UNL     1      11.435  -2.083  42.336  1.00  0.00    -0.003 C 
ATOM     12  C   UNL     1      12.329  -1.168  43.172  1.00  0.00     0.004 C 
ENDBRANCH  10  11
ENDBRANCH   9  10
ENDBRANCH   8   9
ENDBRANCH   7   8
ENDBRANCH   6   7
ENDBRANCH   5   6
ENDBRANCH   4   5
ENDBRANCH   3   4
ENDBRANCH   2   3
ENDBRANCH   1   2
BRANCH   1  13
ATOM     13  C   UNL     1       6.062  -2.237  37.917  1.00  0.00     0.000 C 
BRANCH  13  14
ATOM     14  C   UNL     1       6.470  -1.601  36.580  1.00  0.00     0.000 C 
BRANCH  14  15
ATOM     15  C   UNL     1       6.590  -2.628  35.441  1.00  0.00     0.000 C 
BRANCH  15  16
ATOM     16  C   UNL     1       8.033  -3.029  35.074  1.00  0.00     0.000 C 
BRANCH  16  17
ATOM     17  C   UNL     1       8.371  -4.504  35.384  1.00  0.00     0.000 C 
BRANCH  17  18
ATOM     18  C   UNL     1       9.283  -5.128  34.314  1.00  0.00     0.000 C 
BRANCH  18  19
ATOM     19  C   UNL     1      10.432  -4.199  33.894  1.00  0.00     0.000 C 
BRANCH  19  20
ATOM     20  C   UNL     1      11.721  -4.968  33.553  1.00  0.00     0.006 C 
BRANCH  20  21
ATOM     21  C   UNL     1      12.173  -5.825  34.742  1.00  0.00     0.053 C 
BRANCH  21  22
ATOM     22  C   UNL     1      12.810  -4.983  35.807  1.00  0.00     0.041 C 
ATOM     23  O   UNL     1      14.020  -4.639  35.708  1.00  0.00    -0.550 OA
ATOM     24  O   UNL     1      12.058  -4.549  36.891  1.00  0.00    -0.550 OA
ENDBRANCH  21  22
ENDBRANCH  20  21
ENDBRANCH  19  20
ENDBRANCH  18  19
ENDBRANCH  17  18
ENDBRANCH  16  17
ENDBRANCH  15  16
ENDBRANCH  14  15
ENDBRANCH  13  14
ENDBRANCH   1  13
TORSDOF 20
ENDMDL
MODEL 9
REMARK VINA RESULT:    -4.380      2.608      3.630
REMARK INTER + INTRA:         -11.535
REMARK INTER:                 -10.148
REMARK INTRA:                  -1.387
REMARK UNBOUND:                -2.034
REMARK SMILES CCCCCCCCCCCCCCCCCCCCCC(=O)[O-]
REMARK SMILES IDX 12 1 11 2 10 3 9 4 8 5 7 6 6 7 5 8 4 9 3 10 2 11 1 12 13 13
REMARK SMILES IDX 14 14 15 15 16 16 17 17 18 18 19 19 20 20 21 21 22 22 23 23
REMARK SMILES IDX 24 24
REMARK H PARENT
REMARK Flexibility Score: inf
ROOT
ATOM      1  C   UNL     1       7.869  -4.890  40.925  1.00  0.00     0.000 C 
ENDROOT
BRANCH   1   2
ATOM      2  C   UNL     1       7.682  -6.066  41.889  1.00  0.00     0.000 C 
BRANCH   2   3
ATOM      3  C   UNL     1       8.702  -7.176  41.607  1.00  0.00     0.000 C 
BRANCH   3   4
ATOM      4  C   UNL     1       8.222  -8.522  42.171  1.00  0.00    -0.000 C 
BRANCH   4   5
ATOM      5  C   UNL     1       8.243  -8.563  43.707  1.00  0.00    -0.000 C 
BRANCH   5   6
ATOM      6  C   UNL     1       7.483  -9.769  44.277  1.00  0.00    -0.000 C 
BRANCH   6   7
ATOM      7  C   UNL     1       7.065 -10.734  43.160  1.00  0.00    -0.000 C 
BRANCH   7   8
ATOM      8  C   UNL     1       5.643 -11.265  43.393  1.00  0.00    -0.000 C 
BRANCH   8   9
ATOM      9  C   UNL     1       4.979 -11.764  42.099  1.00  0.00    -0.000 C 
BRANCH   9  10
ATOM     10  C   UNL     1       5.519 -11.057  40.844  1.00  0.00    -0.000 C 
BRANCH  10  11
ATOM     11  C   UNL     1       6.006 -12.047  39.775  1.00  0.00    -0.003 C 
ATOM     12  C   UNL     1       7.523 -12.018  39.588  1.00  0.00     0.004 C 
ENDBRANCH  10  11
ENDBRANCH   9  10
ENDBRANCH   8   9
ENDBRANCH   7   8
ENDBRANCH   6   7
ENDBRANCH   5   6
ENDBRANCH   4   5
ENDBRANCH   3   4
ENDBRANCH   2   3
ENDBRANCH   1   2
BRANCH   1  13
ATOM     13  C   UNL     1       8.482  -3.680  41.641  1.00  0.00     0.000 C 
BRANCH  13  14
ATOM     14  C   UNL     1       8.200  -2.386  40.863  1.00  0.00     0.000 C 
BRANCH  14  15
ATOM     15  C   UNL     1       8.221  -2.588  39.338  1.00  0.00     0.000 C 
BRANCH  15  16
ATOM     16  C   UNL     1       6.888  -2.291  38.623  1.00  0.00     0.000 C 
BRANCH  16  17
ATOM     17  C   UNL     1       6.743  -2.987  37.251  1.00  0.00     0.000 C 
BRANCH  17  18
ATOM     18  C   UNL     1       8.041  -3.689  36.815  1.00  0.00     0.000 C 
BRANCH  18  19
ATOM     19  C   UNL     1       7.984  -4.202  35.368  1.00  0.00     0.000 C 
BRANCH  19  20
ATOM     20  C   UNL     1       9.353  -4.149  34.668  1.00  0.00     0.006 C 
BRANCH  20  21
ATOM     21  C   UNL     1       9.741  -5.532  34.130  1.00  0.00     0.053 C 
BRANCH  21  22
ATOM     22  C   UNL     1      11.229  -5.667  34.002  1.00  0.00     0.041 C 
ATOM     23  O   UNL     1      11.752  -5.930  32.885  1.00  0.00    -0.550 OA
ATOM     24  O   UNL     1      12.041  -5.465  35.111  1.00  0.00    -0.550 OA
ENDBRANCH  21  22
ENDBRANCH  20  21
ENDBRANCH  19  20
ENDBRANCH  18  19
ENDBRANCH  17  18
ENDBRANCH  16  17
ENDBRANCH  15  16
ENDBRANCH  14  15
ENDBRANCH  13  14
ENDBRANCH   1  13
TORSDOF 20
ENDMDL
