MODEL 1
REMARK VINA RESULT:    -7.625      0.000      0.000
REMARK INTER + INTRA:         -12.346
REMARK INTER:                 -10.968
REMARK INTRA:                  -1.377
REMARK UNBOUND:                -1.377
REMARK SMILES O=c1c(O[C@H]2O[C@H](CO)[C@@H](O)[C@@H](O)[C@H]2O)c(-c2ccc(O)cc2)oc2cc(O)cc(O)c12
REMARK SMILES IDX 4 1 3 2 16 3 24 4 2 5 25 6 1 7 32 8 26 9 30 10 27 11 29 12
REMARK SMILES IDX 17 13 18 14 19 15 20 16 23 17 22 18 21 19 31 21 28 23 5 25
REMARK SMILES IDX 14 26 6 27 12 28 7 29 10 30 15 31 13 33 8 35 9 36 11 38
REMARK H PARENT 21 20 31 22 28 24 15 32 13 34 9 37 11 39
REMARK Flexibility Score: inf
ROOT
ATOM      1  O   UNL     1     -37.715   5.364  81.958  1.00  0.00    -0.454 OA
ENDROOT
BRANCH   1   2
ATOM      2  C   UNL     1     -38.446   4.886  80.864  1.00  0.00     0.214 A 
ATOM      3  C   UNL     1     -37.880   4.785  79.579  1.00  0.00     0.180 A 
ATOM      4  O   UNL     1     -38.591   4.264  78.586  1.00  0.00    -0.452 OA
ATOM      5  C   UNL     1     -39.778   4.499  81.051  1.00  0.00     0.239 A 
ATOM      6  C   UNL     1     -39.842   3.843  78.726  1.00  0.00     0.146 A 
ATOM      7  O   UNL     1     -40.302   4.691  82.179  1.00  0.00    -0.285 OA
ATOM      8  C   UNL     1     -40.503   3.920  79.981  1.00  0.00     0.111 A 
ATOM      9  C   UNL     1     -40.505   3.337  77.605  1.00  0.00     0.094 A 
ATOM     10  C   UNL     1     -41.842   3.433  80.076  1.00  0.00     0.134 A 
ATOM     11  C   UNL     1     -41.831   2.913  77.699  1.00  0.00     0.123 A 
ATOM     12  C   UNL     1     -42.490   2.968  78.926  1.00  0.00     0.093 A 
BRANCH   3  13
ATOM     13  C   UNL     1     -36.516   5.270  79.277  1.00  0.00     0.021 A 
ATOM     14  C   UNL     1     -36.319   6.611  78.911  1.00  0.00     0.016 A 
ATOM     15  C   UNL     1     -35.034   7.084  78.632  1.00  0.00     0.047 A 
ATOM     16  C   UNL     1     -33.930   6.227  78.732  1.00  0.00     0.115 A 
ATOM     17  C   UNL     1     -35.402   4.421  79.399  1.00  0.00     0.016 A 
ATOM     18  C   UNL     1     -34.118   4.897  79.119  1.00  0.00     0.047 A 
BRANCH  16  19
ATOM     19  O   UNL     1     -32.645   6.688  78.452  1.00  0.00    -0.508 OA
ATOM     20  H   UNL     1     -31.928   6.726  79.167  1.00  0.00     0.293 HD
ENDBRANCH  16  19
ENDBRANCH   3  13
BRANCH  10  21
ATOM     21  O   UNL     1     -42.566   3.361  81.270  1.00  0.00    -0.507 OA
ATOM     22  H   UNL     1     -43.568   3.450  81.347  1.00  0.00     0.293 HD
ENDBRANCH  10  21
BRANCH  11  23
ATOM     23  O   UNL     1     -42.502   2.427  76.579  1.00  0.00    -0.508 OA
ATOM     24  H   UNL     1     -42.506   1.440  76.351  1.00  0.00     0.293 HD
ENDBRANCH  11  23
ENDBRANCH   1   2
BRANCH   1  25
ATOM     25  C   UNL     1     -37.475   4.586  83.137  1.00  0.00     0.339 C 
ATOM     26  C   UNL     1     -37.505   5.461  84.404  1.00  0.00     0.214 C 
ATOM     27  O   UNL     1     -36.255   3.873  83.037  1.00  0.00    -0.332 OA
ATOM     28  C   UNL     1     -36.273   6.387  84.491  1.00  0.00     0.180 C 
ATOM     29  C   UNL     1     -35.145   4.745  82.892  1.00  0.00     0.179 C 
ATOM     30  C   UNL     1     -34.972   5.618  84.161  1.00  0.00     0.177 C 
BRANCH  26  31
ATOM     31  O   UNL     1     -38.694   6.206  84.443  1.00  0.00    -0.384 OA
ATOM     32  H   UNL     1     -39.440   5.553  84.484  1.00  0.00     0.211 HD
ENDBRANCH  26  31
BRANCH  28  33
ATOM     33  O   UNL     1     -36.431   7.540  83.697  1.00  0.00    -0.387 OA
ATOM     34  H   UNL     1     -35.856   8.257  84.062  1.00  0.00     0.211 HD
ENDBRANCH  28  33
BRANCH  29  35
ATOM     35  C   UNL     1     -33.902   3.875  82.640  1.00  0.00     0.191 C 
BRANCH  35  36
ATOM     36  O   UNL     1     -33.108   3.774  83.791  1.00  0.00    -0.394 OA
ATOM     37  H   UNL     1     -33.608   4.221  84.524  1.00  0.00     0.210 HD
ENDBRANCH  35  36
ENDBRANCH  29  35
BRANCH  30  38
ATOM     38  O   UNL     1     -33.914   6.524  83.986  1.00  0.00    -0.387 OA
ATOM     39  H   UNL     1     -33.654   6.839  84.891  1.00  0.00     0.211 HD
ENDBRANCH  30  38
ENDBRANCH   1  25
TORSDOF 11
ENDMDL
MODEL 2
REMARK VINA RESULT:    -7.266      1.924      6.470
REMARK INTER + INTRA:         -11.829
REMARK INTER:                 -10.298
REMARK INTRA:                  -1.531
REMARK UNBOUND:                -1.377
REMARK SMILES O=c1c(O[C@H]2O[C@H](CO)[C@@H](O)[C@@H](O)[C@H]2O)c(-c2ccc(O)cc2)oc2cc(O)cc(O)c12
REMARK SMILES IDX 4 1 3 2 16 3 24 4 2 5 25 6 1 7 32 8 26 9 30 10 27 11 29 12
REMARK SMILES IDX 17 13 18 14 19 15 20 16 23 17 22 18 21 19 31 21 28 23 5 25
REMARK SMILES IDX 14 26 6 27 12 28 7 29 10 30 15 31 13 33 8 35 9 36 11 38
REMARK H PARENT 21 20 31 22 28 24 15 32 13 34 9 37 11 39
REMARK Flexibility Score: inf
ROOT
ATOM      1  O   UNL     1     -37.655   3.725  81.530  1.00  0.00    -0.454 OA
ENDROOT
BRANCH   1   2
ATOM      2  C   UNL     1     -37.017   4.527  80.577  1.00  0.00     0.214 A 
ATOM      3  C   UNL     1     -37.571   4.748  79.302  1.00  0.00     0.180 A 
ATOM      4  O   UNL     1     -36.962   5.571  78.455  1.00  0.00    -0.452 OA
ATOM      5  C   UNL     1     -35.794   5.126  80.899  1.00  0.00     0.239 A 
ATOM      6  C   UNL     1     -35.824   6.195  78.732  1.00  0.00     0.146 A 
ATOM      7  O   UNL     1     -35.261   4.838  82.002  1.00  0.00    -0.285 OA
ATOM      8  C   UNL     1     -35.182   6.020  79.988  1.00  0.00     0.111 A 
ATOM      9  C   UNL     1     -35.258   7.016  77.754  1.00  0.00     0.094 A 
ATOM     10  C   UNL     1     -33.971   6.733  80.237  1.00  0.00     0.134 A 
ATOM     11  C   UNL     1     -34.046   7.666  77.990  1.00  0.00     0.123 A 
ATOM     12  C   UNL     1     -33.410   7.518  79.222  1.00  0.00     0.093 A 
BRANCH   3  13
ATOM     13  C   UNL     1     -38.804   4.071  78.849  1.00  0.00     0.021 A 
ATOM     14  C   UNL     1     -40.020   4.771  78.842  1.00  0.00     0.016 A 
ATOM     15  C   UNL     1     -41.192   4.145  78.407  1.00  0.00     0.047 A 
ATOM     16  C   UNL     1     -41.157   2.817  77.959  1.00  0.00     0.115 A 
ATOM     17  C   UNL     1     -38.771   2.747  78.376  1.00  0.00     0.016 A 
ATOM     18  C   UNL     1     -39.944   2.123  77.942  1.00  0.00     0.047 A 
BRANCH  16  19
ATOM     19  O   UNL     1     -42.320   2.183  77.528  1.00  0.00    -0.508 OA
ATOM     20  H   UNL     1     -42.855   1.580  78.142  1.00  0.00     0.293 HD
ENDBRANCH  16  19
ENDBRANCH   3  13
BRANCH  10  21
ATOM     21  O   UNL     1     -33.296   6.726  81.461  1.00  0.00    -0.507 OA
ATOM     22  H   UNL     1     -33.567   6.187  82.270  1.00  0.00     0.293 HD
ENDBRANCH  10  21
BRANCH  11  23
ATOM     23  O   UNL     1     -33.468   8.470  77.010  1.00  0.00    -0.508 OA
ATOM     24  H   UNL     1     -33.981   8.746  76.181  1.00  0.00     0.293 HD
ENDBRANCH  11  23
ENDBRANCH   1   2
BRANCH   1  25
ATOM     25  C   UNL     1     -38.129   4.228  82.786  1.00  0.00     0.339 C 
ATOM     26  C   UNL     1     -37.919   3.207  83.918  1.00  0.00     0.214 C 
ATOM     27  O   UNL     1     -39.487   4.621  82.696  1.00  0.00    -0.332 OA
ATOM     28  C   UNL     1     -38.873   2.000  83.786  1.00  0.00     0.180 C 
ATOM     29  C   UNL     1     -40.329   3.533  82.352  1.00  0.00     0.179 C 
ATOM     30  C   UNL     1     -40.315   2.461  83.471  1.00  0.00     0.177 C 
BRANCH  26  31
ATOM     31  O   UNL     1     -36.580   2.785  83.939  1.00  0.00    -0.384 OA
ATOM     32  H   UNL     1     -36.165   3.192  84.744  1.00  0.00     0.211 HD
ENDBRANCH  26  31
BRANCH  28  33
ATOM     33  O   UNL     1     -38.395   1.059  82.853  1.00  0.00    -0.387 OA
ATOM     34  H   UNL     1     -39.164   0.704  82.340  1.00  0.00     0.211 HD
ENDBRANCH  28  33
BRANCH  29  35
ATOM     35  C   UNL     1     -41.745   4.092  82.133  1.00  0.00     0.191 C 
BRANCH  35  36
ATOM     36  O   UNL     1     -42.479   3.291  81.246  1.00  0.00    -0.394 OA
ATOM     37  H   UNL     1     -42.684   2.447  81.727  1.00  0.00     0.210 HD
ENDBRANCH  35  36
ENDBRANCH  29  35
BRANCH  30  38
ATOM     38  O   UNL     1     -41.098   1.357  83.096  1.00  0.00    -0.387 OA
ATOM     39  H   UNL     1     -40.876   1.158  82.149  1.00  0.00     0.211 HD
ENDBRANCH  30  38
ENDBRANCH   1  25
TORSDOF 11
ENDMDL
MODEL 3
REMARK VINA RESULT:    -6.694      2.744      5.031
REMARK INTER + INTRA:         -11.006
REMARK INTER:                  -8.946
REMARK INTRA:                  -2.060
REMARK UNBOUND:                -1.377
REMARK SMILES O=c1c(O[C@H]2O[C@H](CO)[C@@H](O)[C@@H](O)[C@H]2O)c(-c2ccc(O)cc2)oc2cc(O)cc(O)c12
REMARK SMILES IDX 4 1 3 2 16 3 24 4 2 5 25 6 1 7 32 8 26 9 30 10 27 11 29 12
REMARK SMILES IDX 17 13 18 14 19 15 20 16 23 17 22 18 21 19 31 21 28 23 5 25
REMARK SMILES IDX 14 26 6 27 12 28 7 29 10 30 15 31 13 33 8 35 9 36 11 38
REMARK H PARENT 21 20 31 22 28 24 15 32 13 34 9 37 11 39
REMARK Flexibility Score: inf
ROOT
ATOM      1  O   UNL     1     -38.667   6.327  79.405  1.00  0.00    -0.454 OA
ENDROOT
BRANCH   1   2
ATOM      2  C   UNL     1     -38.582   5.257  80.305  1.00  0.00     0.214 A 
ATOM      3  C   UNL     1     -37.344   4.758  80.750  1.00  0.00     0.180 A 
ATOM      4  O   UNL     1     -37.313   3.787  81.655  1.00  0.00    -0.452 OA
ATOM      5  C   UNL     1     -39.760   4.666  80.775  1.00  0.00     0.239 A 
ATOM      6  C   UNL     1     -38.404   3.225  82.162  1.00  0.00     0.146 A 
ATOM      7  O   UNL     1     -40.856   5.053  80.291  1.00  0.00    -0.285 OA
ATOM      8  C   UNL     1     -39.699   3.651  81.760  1.00  0.00     0.111 A 
ATOM      9  C   UNL     1     -38.253   2.190  83.088  1.00  0.00     0.094 A 
ATOM     10  C   UNL     1     -40.835   3.024  82.354  1.00  0.00     0.134 A 
ATOM     11  C   UNL     1     -39.372   1.550  83.622  1.00  0.00     0.123 A 
ATOM     12  C   UNL     1     -40.650   1.965  83.251  1.00  0.00     0.093 A 
BRANCH   3  13
ATOM     13  C   UNL     1     -36.056   5.258  80.223  1.00  0.00     0.021 A 
ATOM     14  C   UNL     1     -35.227   6.042  81.041  1.00  0.00     0.016 A 
ATOM     15  C   UNL     1     -34.002   6.514  80.558  1.00  0.00     0.047 A 
ATOM     16  C   UNL     1     -33.587   6.193  79.259  1.00  0.00     0.115 A 
ATOM     17  C   UNL     1     -35.622   4.919  78.930  1.00  0.00     0.016 A 
ATOM     18  C   UNL     1     -34.398   5.392  78.449  1.00  0.00     0.047 A 
BRANCH  16  19
ATOM     19  O   UNL     1     -32.370   6.661  78.766  1.00  0.00    -0.508 OA
ATOM     20  H   UNL     1     -32.320   7.468  78.156  1.00  0.00     0.293 HD
ENDBRANCH  16  19
ENDBRANCH   3  13
BRANCH  10  21
ATOM     21  O   UNL     1     -42.157   3.417  82.121  1.00  0.00    -0.507 OA
ATOM     22  H   UNL     1     -42.699   4.017  82.724  1.00  0.00     0.293 HD
ENDBRANCH  10  21
BRANCH  11  23
ATOM     23  O   UNL     1     -39.226   0.504  84.531  1.00  0.00    -0.508 OA
ATOM     24  H   UNL     1     -38.315   0.222  84.872  1.00  0.00     0.293 HD
ENDBRANCH  11  23
ENDBRANCH   1   2
BRANCH   1  25
ATOM     25  C   UNL     1     -38.835   7.687  79.822  1.00  0.00     0.339 C 
ATOM     26  C   UNL     1     -39.943   8.391  79.018  1.00  0.00     0.214 C 
ATOM     27  O   UNL     1     -37.612   8.399  79.739  1.00  0.00    -0.332 OA
ATOM     28  C   UNL     1     -39.514   8.654  77.559  1.00  0.00     0.180 C 
ATOM     29  C   UNL     1     -37.115   8.439  78.411  1.00  0.00     0.179 C 
ATOM     30  C   UNL     1     -38.081   9.232  77.494  1.00  0.00     0.177 C 
BRANCH  26  31
ATOM     31  O   UNL     1     -41.122   7.630  79.063  1.00  0.00    -0.384 OA
ATOM     32  H   UNL     1     -41.342   7.499  80.022  1.00  0.00     0.211 HD
ENDBRANCH  26  31
BRANCH  28  33
ATOM     33  O   UNL     1     -39.666   7.505  76.757  1.00  0.00    -0.387 OA
ATOM     34  H   UNL     1     -39.985   7.785  75.862  1.00  0.00     0.211 HD
ENDBRANCH  28  33
BRANCH  29  35
ATOM     35  C   UNL     1     -35.725   9.094  78.455  1.00  0.00     0.191 C 
BRANCH  35  36
ATOM     36  O   UNL     1     -34.988   8.806  77.298  1.00  0.00    -0.394 OA
ATOM     37  H   UNL     1     -35.642   8.727  76.555  1.00  0.00     0.210 HD
ENDBRANCH  35  36
ENDBRANCH  29  35
BRANCH  30  38
ATOM     38  O   UNL     1     -37.618   9.212  76.168  1.00  0.00    -0.387 OA
ATOM     39  H   UNL     1     -37.314   8.285  75.986  1.00  0.00     0.211 HD
ENDBRANCH  30  38
ENDBRANCH   1  25
TORSDOF 11
ENDMDL
MODEL 4
REMARK VINA RESULT:    -6.409      2.126      6.217
REMARK INTER + INTRA:         -10.597
REMARK INTER:                  -8.799
REMARK INTRA:                  -1.798
REMARK UNBOUND:                -1.377
REMARK SMILES O=c1c(O[C@H]2O[C@H](CO)[C@@H](O)[C@@H](O)[C@H]2O)c(-c2ccc(O)cc2)oc2cc(O)cc(O)c12
REMARK SMILES IDX 4 1 3 2 16 3 24 4 2 5 25 6 1 7 32 8 26 9 30 10 27 11 29 12
REMARK SMILES IDX 17 13 18 14 19 15 20 16 23 17 22 18 21 19 31 21 28 23 5 25
REMARK SMILES IDX 14 26 6 27 12 28 7 29 10 30 15 31 13 33 8 35 9 36 11 38
REMARK H PARENT 21 20 31 22 28 24 15 32 13 34 9 37 11 39
REMARK Flexibility Score: inf
ROOT
ATOM      1  O   UNL     1     -36.470   5.353  81.651  1.00  0.00    -0.454 OA
ENDROOT
BRANCH   1   2
ATOM      2  C   UNL     1     -36.037   6.113  80.558  1.00  0.00     0.214 A 
ATOM      3  C   UNL     1     -36.628   5.990  79.287  1.00  0.00     0.180 A 
ATOM      4  O   UNL     1     -36.229   6.780  78.296  1.00  0.00    -0.452 OA
ATOM      5  C   UNL     1     -34.986   7.020  80.733  1.00  0.00     0.239 A 
ATOM      6  C   UNL     1     -35.266   7.685  78.426  1.00  0.00     0.146 A 
ATOM      7  O   UNL     1     -34.399   7.046  81.845  1.00  0.00    -0.285 OA
ATOM      8  C   UNL     1     -34.600   7.869  79.667  1.00  0.00     0.111 A 
ATOM      9  C   UNL     1     -34.908   8.442  77.309  1.00  0.00     0.094 A 
ATOM     10  C   UNL     1     -33.586   8.871  79.752  1.00  0.00     0.134 A 
ATOM     11  C   UNL     1     -33.880   9.382  77.391  1.00  0.00     0.123 A 
ATOM     12  C   UNL     1     -33.225   9.586  78.604  1.00  0.00     0.093 A 
BRANCH   3  13
ATOM     13  C   UNL     1     -37.671   4.984  78.995  1.00  0.00     0.021 A 
ATOM     14  C   UNL     1     -37.339   3.620  78.987  1.00  0.00     0.016 A 
ATOM     15  C   UNL     1     -38.317   2.657  78.722  1.00  0.00     0.047 A 
ATOM     16  C   UNL     1     -39.641   3.046  78.479  1.00  0.00     0.115 A 
ATOM     17  C   UNL     1     -39.006   5.366  78.774  1.00  0.00     0.016 A 
ATOM     18  C   UNL     1     -39.982   4.402  78.509  1.00  0.00     0.047 A 
BRANCH  16  19
ATOM     19  O   UNL     1     -40.623   2.095  78.210  1.00  0.00    -0.508 OA
ATOM     20  H   UNL     1     -41.540   2.360  77.872  1.00  0.00     0.293 HD
ENDBRANCH  16  19
ENDBRANCH   3  13
BRANCH  10  21
ATOM     21  O   UNL     1     -32.927   9.219  80.934  1.00  0.00    -0.507 OA
ATOM     22  H   UNL     1     -32.117   8.747  81.308  1.00  0.00     0.293 HD
ENDBRANCH  10  21
BRANCH  11  23
ATOM     23  O   UNL     1     -33.505  10.125  76.273  1.00  0.00    -0.508 OA
ATOM     24  H   UNL     1     -34.138  10.268  75.496  1.00  0.00     0.293 HD
ENDBRANCH  11  23
ENDBRANCH   1   2
BRANCH   1  25
ATOM     25  C   UNL     1     -37.645   5.671  82.408  1.00  0.00     0.339 C 
ATOM     26  C   UNL     1     -37.331   5.795  83.910  1.00  0.00     0.214 C 
ATOM     27  O   UNL     1     -38.671   4.722  82.177  1.00  0.00    -0.332 OA
ATOM     28  C   UNL     1     -37.018   4.424  84.546  1.00  0.00     0.180 C 
ATOM     29  C   UNL     1     -38.279   3.416  82.566  1.00  0.00     0.179 C 
ATOM     30  C   UNL     1     -38.040   3.354  84.096  1.00  0.00     0.177 C 
BRANCH  26  31
ATOM     31  O   UNL     1     -36.266   6.690  84.103  1.00  0.00    -0.384 OA
ATOM     32  H   UNL     1     -36.590   7.390  84.728  1.00  0.00     0.211 HD
ENDBRANCH  26  31
BRANCH  28  33
ATOM     33  O   UNL     1     -35.687   4.029  84.304  1.00  0.00    -0.387 OA
ATOM     34  H   UNL     1     -35.592   3.808  83.343  1.00  0.00     0.211 HD
ENDBRANCH  28  33
BRANCH  29  35
ATOM     35  C   UNL     1     -39.394   2.448  82.136  1.00  0.00     0.191 C 
BRANCH  35  36
ATOM     36  O   UNL     1     -40.284   2.195  83.189  1.00  0.00    -0.394 OA
ATOM     37  H   UNL     1     -39.899   2.623  83.998  1.00  0.00     0.210 HD
ENDBRANCH  35  36
ENDBRANCH  29  35
BRANCH  30  38
ATOM     38  O   UNL     1     -37.588   2.077  84.466  1.00  0.00    -0.387 OA
ATOM     39  H   UNL     1     -37.511   2.076  85.456  1.00  0.00     0.211 HD
ENDBRANCH  30  38
ENDBRANCH   1  25
TORSDOF 11
ENDMDL
MODEL 5
REMARK VINA RESULT:    -6.274      2.639      5.280
REMARK INTER + INTRA:         -10.403
REMARK INTER:                  -8.613
REMARK INTRA:                  -1.790
REMARK UNBOUND:                -1.377
REMARK SMILES O=c1c(O[C@H]2O[C@H](CO)[C@@H](O)[C@@H](O)[C@H]2O)c(-c2ccc(O)cc2)oc2cc(O)cc(O)c12
REMARK SMILES IDX 4 1 3 2 16 3 24 4 2 5 25 6 1 7 32 8 26 9 30 10 27 11 29 12
REMARK SMILES IDX 17 13 18 14 19 15 20 16 23 17 22 18 21 19 31 21 28 23 5 25
REMARK SMILES IDX 14 26 6 27 12 28 7 29 10 30 15 31 13 33 8 35 9 36 11 38
REMARK H PARENT 21 20 31 22 28 24 15 32 13 34 9 37 11 39
REMARK Flexibility Score: inf
ROOT
ATOM      1  O   UNL     1     -36.072   6.286  80.042  1.00  0.00    -0.454 OA
ENDROOT
BRANCH   1   2
ATOM      2  C   UNL     1     -37.213   5.611  80.491  1.00  0.00     0.214 A 
ATOM      3  C   UNL     1     -38.469   5.788  79.881  1.00  0.00     0.180 A 
ATOM      4  O   UNL     1     -39.509   5.077  80.299  1.00  0.00    -0.452 OA
ATOM      5  C   UNL     1     -37.104   4.737  81.578  1.00  0.00     0.239 A 
ATOM      6  C   UNL     1     -39.444   4.204  81.296  1.00  0.00     0.146 A 
ATOM      7  O   UNL     1     -36.000   4.666  82.178  1.00  0.00    -0.285 OA
ATOM      8  C   UNL     1     -38.223   3.970  81.984  1.00  0.00     0.111 A 
ATOM      9  C   UNL     1     -40.609   3.530  81.670  1.00  0.00     0.094 A 
ATOM     10  C   UNL     1     -38.209   3.004  83.035  1.00  0.00     0.134 A 
ATOM     11  C   UNL     1     -40.594   2.627  82.734  1.00  0.00     0.123 A 
ATOM     12  C   UNL     1     -39.402   2.374  83.410  1.00  0.00     0.093 A 
BRANCH   3  13
ATOM     13  C   UNL     1     -38.688   6.770  78.798  1.00  0.00     0.021 A 
ATOM     14  C   UNL     1     -38.823   6.326  77.473  1.00  0.00     0.016 A 
ATOM     15  C   UNL     1     -39.040   7.243  76.440  1.00  0.00     0.047 A 
ATOM     16  C   UNL     1     -39.140   8.611  76.722  1.00  0.00     0.115 A 
ATOM     17  C   UNL     1     -38.813   8.142  79.077  1.00  0.00     0.016 A 
ATOM     18  C   UNL     1     -39.030   9.057  78.043  1.00  0.00     0.047 A 
BRANCH  16  19
ATOM     19  O   UNL     1     -39.352   9.534  75.699  1.00  0.00    -0.508 OA
ATOM     20  H   UNL     1     -40.186  10.108  75.668  1.00  0.00     0.293 HD
ENDBRANCH  16  19
ENDBRANCH   3  13
BRANCH  10  21
ATOM     21  O   UNL     1     -37.056   2.610  83.721  1.00  0.00    -0.507 OA
ATOM     22  H   UNL     1     -36.115   2.878  83.475  1.00  0.00     0.293 HD
ENDBRANCH  10  21
BRANCH  11  23
ATOM     23  O   UNL     1     -41.759   1.969  83.124  1.00  0.00    -0.508 OA
ATOM     24  H   UNL     1     -42.241   1.333  82.500  1.00  0.00     0.293 HD
ENDBRANCH  11  23
ENDBRANCH   1   2
BRANCH   1  25
ATOM     25  C   UNL     1     -35.354   5.908  78.861  1.00  0.00     0.339 C 
ATOM     26  C   UNL     1     -33.869   5.640  79.166  1.00  0.00     0.214 C 
ATOM     27  O   UNL     1     -35.499   6.882  77.843  1.00  0.00    -0.332 OA
ATOM     28  C   UNL     1     -33.105   6.942  79.485  1.00  0.00     0.180 C 
ATOM     29  C   UNL     1     -34.987   8.143  78.243  1.00  0.00     0.179 C 
ATOM     30  C   UNL     1     -33.457   8.058  78.473  1.00  0.00     0.177 C 
BRANCH  26  31
ATOM     31  O   UNL     1     -33.756   4.723  80.222  1.00  0.00    -0.384 OA
ATOM     32  H   UNL     1     -32.786   4.572  80.368  1.00  0.00     0.211 HD
ENDBRANCH  26  31
BRANCH  28  33
ATOM     33  O   UNL     1     -33.302   7.348  80.820  1.00  0.00    -0.387 OA
ATOM     34  H   UNL     1     -34.254   7.212  81.055  1.00  0.00     0.211 HD
ENDBRANCH  28  33
BRANCH  29  35
ATOM     35  C   UNL     1     -35.330   9.155  77.137  1.00  0.00     0.191 C 
BRANCH  35  36
ATOM     36  O   UNL     1     -34.172   9.629  76.503  1.00  0.00    -0.394 OA
ATOM     37  H   UNL     1     -33.923   8.952  75.820  1.00  0.00     0.210 HD
ENDBRANCH  35  36
ENDBRANCH  29  35
BRANCH  30  38
ATOM     38  O   UNL     1     -32.966   9.291  78.933  1.00  0.00    -0.387 OA
ATOM     39  H   UNL     1     -31.976   9.245  78.875  1.00  0.00     0.211 HD
ENDBRANCH  30  38
ENDBRANCH   1  25
TORSDOF 11
ENDMDL
MODEL 6
REMARK VINA RESULT:    -6.121      2.753      5.411
REMARK INTER + INTRA:         -10.182
REMARK INTER:                  -8.201
REMARK INTRA:                  -1.981
REMARK UNBOUND:                -1.377
REMARK SMILES O=c1c(O[C@H]2O[C@H](CO)[C@@H](O)[C@@H](O)[C@H]2O)c(-c2ccc(O)cc2)oc2cc(O)cc(O)c12
REMARK SMILES IDX 4 1 3 2 16 3 24 4 2 5 25 6 1 7 32 8 26 9 30 10 27 11 29 12
REMARK SMILES IDX 17 13 18 14 19 15 20 16 23 17 22 18 21 19 31 21 28 23 5 25
REMARK SMILES IDX 14 26 6 27 12 28 7 29 10 30 15 31 13 33 8 35 9 36 11 38
REMARK H PARENT 21 20 31 22 28 24 15 32 13 34 9 37 11 39
REMARK Flexibility Score: inf
ROOT
ATOM      1  O   UNL     1     -36.080   5.969  80.413  1.00  0.00    -0.454 OA
ENDROOT
BRANCH   1   2
ATOM      2  C   UNL     1     -37.030   6.515  79.541  1.00  0.00     0.214 A 
ATOM      3  C   UNL     1     -38.378   6.113  79.567  1.00  0.00     0.180 A 
ATOM      4  O   UNL     1     -39.256   6.706  78.766  1.00  0.00    -0.452 OA
ATOM      5  C   UNL     1     -36.628   7.485  78.616  1.00  0.00     0.239 A 
ATOM      6  C   UNL     1     -38.931   7.661  77.904  1.00  0.00     0.146 A 
ATOM      7  O   UNL     1     -35.403   7.760  78.534  1.00  0.00    -0.285 OA
ATOM      8  C   UNL     1     -37.591   8.120  77.795  1.00  0.00     0.111 A 
ATOM      9  C   UNL     1     -39.933   8.195  77.090  1.00  0.00     0.094 A 
ATOM     10  C   UNL     1     -37.304   9.165  76.864  1.00  0.00     0.134 A 
ATOM     11  C   UNL     1     -39.629   9.178  76.148  1.00  0.00     0.123 A 
ATOM     12  C   UNL     1     -38.323   9.652  76.037  1.00  0.00     0.093 A 
BRANCH   3  13
ATOM     13  C   UNL     1     -38.860   5.021  80.440  1.00  0.00     0.021 A 
ATOM     14  C   UNL     1     -39.781   5.303  81.461  1.00  0.00     0.016 A 
ATOM     15  C   UNL     1     -40.252   4.278  82.289  1.00  0.00     0.047 A 
ATOM     16  C   UNL     1     -39.819   2.960  82.093  1.00  0.00     0.115 A 
ATOM     17  C   UNL     1     -38.449   3.693  80.234  1.00  0.00     0.016 A 
ATOM     18  C   UNL     1     -38.920   2.671  81.062  1.00  0.00     0.047 A 
BRANCH  16  19
ATOM     19  O   UNL     1     -40.279   1.933  82.914  1.00  0.00    -0.508 OA
ATOM     20  H   UNL     1     -40.273   2.018  83.924  1.00  0.00     0.293 HD
ENDBRANCH  16  19
ENDBRANCH   3  13
BRANCH  10  21
ATOM     21  O   UNL     1     -36.052   9.772  76.731  1.00  0.00    -0.507 OA
ATOM     22  H   UNL     1     -35.301   9.706  77.402  1.00  0.00     0.293 HD
ENDBRANCH  10  21
BRANCH  11  23
ATOM     23  O   UNL     1     -40.622   9.699  75.320  1.00  0.00    -0.508 OA
ATOM     24  H   UNL     1     -41.439   9.157  75.067  1.00  0.00     0.293 HD
ENDBRANCH  11  23
ENDBRANCH   1   2
BRANCH   1  25
ATOM     25  C   UNL     1     -35.702   6.593  81.647  1.00  0.00     0.339 C 
ATOM     26  C   UNL     1     -34.175   6.584  81.839  1.00  0.00     0.214 C 
ATOM     27  O   UNL     1     -36.359   5.986  82.745  1.00  0.00    -0.332 OA
ATOM     28  C   UNL     1     -33.642   5.165  82.132  1.00  0.00     0.180 C 
ATOM     29  C   UNL     1     -36.026   4.613  82.866  1.00  0.00     0.179 C 
ATOM     30  C   UNL     1     -34.518   4.446  83.185  1.00  0.00     0.177 C 
BRANCH  26  31
ATOM     31  O   UNL     1     -33.548   7.129  80.707  1.00  0.00    -0.384 OA
ATOM     32  H   UNL     1     -32.900   6.450  80.383  1.00  0.00     0.211 HD
ENDBRANCH  26  31
BRANCH  28  33
ATOM     33  O   UNL     1     -33.495   4.410  80.951  1.00  0.00    -0.387 OA
ATOM     34  H   UNL     1     -33.383   3.457  81.197  1.00  0.00     0.211 HD
ENDBRANCH  28  33
BRANCH  29  35
ATOM     35  C   UNL     1     -36.901   4.019  83.983  1.00  0.00     0.191 C 
BRANCH  35  36
ATOM     36  O   UNL     1     -36.829   2.619  83.997  1.00  0.00    -0.394 OA
ATOM     37  H   UNL     1     -37.755   2.286  84.128  1.00  0.00     0.210 HD
ENDBRANCH  35  36
ENDBRANCH  29  35
BRANCH  30  38
ATOM     38  O   UNL     1     -34.181   3.084  83.237  1.00  0.00    -0.387 OA
ATOM     39  H   UNL     1     -34.936   2.586  82.827  1.00  0.00     0.211 HD
ENDBRANCH  30  38
ENDBRANCH   1  25
TORSDOF 11
ENDMDL
MODEL 7
REMARK VINA RESULT:    -6.090     10.170     11.827
REMARK INTER + INTRA:         -10.137
REMARK INTER:                  -8.733
REMARK INTRA:                  -1.405
REMARK UNBOUND:                -1.377
REMARK SMILES O=c1c(O[C@H]2O[C@H](CO)[C@@H](O)[C@@H](O)[C@H]2O)c(-c2ccc(O)cc2)oc2cc(O)cc(O)c12
REMARK SMILES IDX 4 1 3 2 16 3 24 4 2 5 25 6 1 7 32 8 26 9 30 10 27 11 29 12
REMARK SMILES IDX 17 13 18 14 19 15 20 16 23 17 22 18 21 19 31 21 28 23 5 25
REMARK SMILES IDX 14 26 6 27 12 28 7 29 10 30 15 31 13 33 8 35 9 36 11 38
REMARK H PARENT 21 20 31 22 28 24 15 32 13 34 9 37 11 39
REMARK Flexibility Score: inf
ROOT
ATOM      1  O   UNL     1     -40.255  -5.090  82.783  1.00  0.00    -0.454 OA
ENDROOT
BRANCH   1   2
ATOM      2  C   UNL     1     -41.214  -5.971  82.267  1.00  0.00     0.214 A 
ATOM      3  C   UNL     1     -41.023  -7.366  82.279  1.00  0.00     0.180 A 
ATOM      4  O   UNL     1     -41.988  -8.165  81.840  1.00  0.00    -0.452 OA
ATOM      5  C   UNL     1     -42.394  -5.452  81.724  1.00  0.00     0.239 A 
ATOM      6  C   UNL     1     -43.142  -7.721  81.357  1.00  0.00     0.146 A 
ATOM      7  O   UNL     1     -42.507  -4.203  81.626  1.00  0.00    -0.285 OA
ATOM      8  C   UNL     1     -43.417  -6.329  81.290  1.00  0.00     0.111 A 
ATOM      9  C   UNL     1     -44.075  -8.652  80.896  1.00  0.00     0.094 A 
ATOM     10  C   UNL     1     -44.684  -5.911  80.779  1.00  0.00     0.134 A 
ATOM     11  C   UNL     1     -45.288  -8.229  80.351  1.00  0.00     0.123 A 
ATOM     12  C   UNL     1     -45.581  -6.867  80.291  1.00  0.00     0.093 A 
BRANCH   3  13
ATOM     13  C   UNL     1     -39.762  -7.986  82.739  1.00  0.00     0.021 A 
ATOM     14  C   UNL     1     -39.691  -8.548  84.023  1.00  0.00     0.016 A 
ATOM     15  C   UNL     1     -38.507  -9.146  84.467  1.00  0.00     0.047 A 
ATOM     16  C   UNL     1     -37.388  -9.202  83.627  1.00  0.00     0.115 A 
ATOM     17  C   UNL     1     -38.643  -8.066  81.892  1.00  0.00     0.016 A 
ATOM     18  C   UNL     1     -37.461  -8.664  82.338  1.00  0.00     0.047 A 
BRANCH  16  19
ATOM     19  O   UNL     1     -36.203  -9.791  84.061  1.00  0.00    -0.508 OA
ATOM     20  H   UNL     1     -36.169 -10.358  84.900  1.00  0.00     0.293 HD
ENDBRANCH  16  19
ENDBRANCH   3  13
BRANCH  10  21
ATOM     21  O   UNL     1     -45.117  -4.582  80.752  1.00  0.00    -0.507 OA
ATOM     22  H   UNL     1     -44.516  -3.778  80.649  1.00  0.00     0.293 HD
ENDBRANCH  10  21
BRANCH  11  23
ATOM     23  O   UNL     1     -46.213  -9.154  79.872  1.00  0.00    -0.508 OA
ATOM     24  H   UNL     1     -46.464  -9.977  80.406  1.00  0.00     0.293 HD
ENDBRANCH  11  23
ENDBRANCH   1   2
BRANCH   1  25
ATOM     25  C   UNL     1     -40.055  -4.887  84.187  1.00  0.00     0.339 C 
ATOM     26  C   UNL     1     -40.906  -3.717  84.714  1.00  0.00     0.214 C 
ATOM     27  O   UNL     1     -38.683  -4.694  84.483  1.00  0.00    -0.332 OA
ATOM     28  C   UNL     1     -40.382  -2.355  84.213  1.00  0.00     0.180 C 
ATOM     29  C   UNL     1     -38.158  -3.551  83.828  1.00  0.00     0.179 C 
ATOM     30  C   UNL     1     -38.845  -2.263  84.351  1.00  0.00     0.177 C 
BRANCH  26  31
ATOM     31  O   UNL     1     -42.249  -3.901  84.348  1.00  0.00    -0.384 OA
ATOM     32  H   UNL     1     -42.413  -3.322  83.559  1.00  0.00     0.211 HD
ENDBRANCH  26  31
BRANCH  28  33
ATOM     33  O   UNL     1     -40.820  -2.078  82.902  1.00  0.00    -0.387 OA
ATOM     34  H   UNL     1     -40.033  -1.847  82.348  1.00  0.00     0.211 HD
ENDBRANCH  28  33
BRANCH  29  35
ATOM     35  C   UNL     1     -36.643  -3.520  84.090  1.00  0.00     0.191 C 
BRANCH  35  36
ATOM     36  O   UNL     1     -36.322  -2.631  85.125  1.00  0.00    -0.394 OA
ATOM     37  H   UNL     1     -35.935  -3.175  85.860  1.00  0.00     0.210 HD
ENDBRANCH  35  36
ENDBRANCH  29  35
BRANCH  30  38
ATOM     38  O   UNL     1     -38.368  -1.142  83.653  1.00  0.00    -0.387 OA
ATOM     39  H   UNL     1     -37.699  -0.702  84.240  1.00  0.00     0.211 HD
ENDBRANCH  30  38
ENDBRANCH   1  25
TORSDOF 11
ENDMDL
MODEL 8
REMARK VINA RESULT:    -6.008      3.401      5.538
REMARK INTER + INTRA:         -10.019
REMARK INTER:                  -8.023
REMARK INTRA:                  -1.997
REMARK UNBOUND:                -1.377
REMARK SMILES O=c1c(O[C@H]2O[C@H](CO)[C@@H](O)[C@@H](O)[C@H]2O)c(-c2ccc(O)cc2)oc2cc(O)cc(O)c12
REMARK SMILES IDX 4 1 3 2 16 3 24 4 2 5 25 6 1 7 32 8 26 9 30 10 27 11 29 12
REMARK SMILES IDX 17 13 18 14 19 15 20 16 23 17 22 18 21 19 31 21 28 23 5 25
REMARK SMILES IDX 14 26 6 27 12 28 7 29 10 30 15 31 13 33 8 35 9 36 11 38
REMARK H PARENT 21 20 31 22 28 24 15 32 13 34 9 37 11 39
REMARK Flexibility Score: inf
ROOT
ATOM      1  O   UNL     1     -36.844   6.401  79.416  1.00  0.00    -0.454 OA
ENDROOT
BRANCH   1   2
ATOM      2  C   UNL     1     -38.080   6.985  79.112  1.00  0.00     0.214 A 
ATOM      3  C   UNL     1     -39.158   6.956  80.016  1.00  0.00     0.180 A 
ATOM      4  O   UNL     1     -40.289   7.581  79.711  1.00  0.00    -0.452 OA
ATOM      5  C   UNL     1     -38.250   7.614  77.873  1.00  0.00     0.239 A 
ATOM      6  C   UNL     1     -40.481   8.228  78.567  1.00  0.00     0.146 A 
ATOM      7  O   UNL     1     -37.314   7.543  77.035  1.00  0.00    -0.285 OA
ATOM      8  C   UNL     1     -39.456   8.296  77.586  1.00  0.00     0.111 A 
ATOM      9  C   UNL     1     -41.723   8.826  78.340  1.00  0.00     0.094 A 
ATOM     10  C   UNL     1     -39.714   9.023  76.384  1.00  0.00     0.134 A 
ATOM     11  C   UNL     1     -41.980   9.489  77.139  1.00  0.00     0.123 A 
ATOM     12  C   UNL     1     -40.981   9.579  76.171  1.00  0.00     0.093 A 
BRANCH   3  13
ATOM     13  C   UNL     1     -39.093   6.224  81.299  1.00  0.00     0.021 A 
ATOM     14  C   UNL     1     -38.980   6.937  82.502  1.00  0.00     0.016 A 
ATOM     15  C   UNL     1     -38.927   6.257  83.723  1.00  0.00     0.047 A 
ATOM     16  C   UNL     1     -39.002   4.858  83.754  1.00  0.00     0.115 A 
ATOM     17  C   UNL     1     -39.192   4.822  81.338  1.00  0.00     0.016 A 
ATOM     18  C   UNL     1     -39.137   4.145  82.560  1.00  0.00     0.047 A 
BRANCH  16  19
ATOM     19  O   UNL     1     -38.945   4.171  84.965  1.00  0.00    -0.508 OA
ATOM     20  H   UNL     1     -38.601   3.220  85.019  1.00  0.00     0.293 HD
ENDBRANCH  16  19
ENDBRANCH   3  13
BRANCH  10  21
ATOM     21  O   UNL     1     -38.760   9.249  75.387  1.00  0.00    -0.507 OA
ATOM     22  H   UNL     1     -38.714   8.758  74.507  1.00  0.00     0.293 HD
ENDBRANCH  10  21
BRANCH  11  23
ATOM     23  O   UNL     1     -43.223  10.070  76.900  1.00  0.00    -0.508 OA
ATOM     24  H   UNL     1     -44.081   9.640  77.227  1.00  0.00     0.293 HD
ENDBRANCH  11  23
ENDBRANCH   1   2
BRANCH   1  25
ATOM     25  C   UNL     1     -35.711   7.157  79.860  1.00  0.00     0.339 C 
ATOM     26  C   UNL     1     -34.425   6.726  79.130  1.00  0.00     0.214 C 
ATOM     27  O   UNL     1     -35.556   7.065  81.265  1.00  0.00    -0.332 OA
ATOM     28  C   UNL     1     -33.953   5.327  79.580  1.00  0.00     0.180 C 
ATOM     29  C   UNL     1     -35.342   5.727  81.686  1.00  0.00     0.179 C 
ATOM     30  C   UNL     1     -34.004   5.188  81.119  1.00  0.00     0.177 C 
BRANCH  26  31
ATOM     31  O   UNL     1     -34.629   6.762  77.742  1.00  0.00    -0.384 OA
ATOM     32  H   UNL     1     -33.731   6.757  77.320  1.00  0.00     0.211 HD
ENDBRANCH  26  31
BRANCH  28  33
ATOM     33  O   UNL     1     -34.664   4.302  78.925  1.00  0.00    -0.387 OA
ATOM     34  H   UNL     1     -34.679   3.503  79.510  1.00  0.00     0.211 HD
ENDBRANCH  28  33
BRANCH  29  35
ATOM     35  C   UNL     1     -35.341   5.718  83.224  1.00  0.00     0.191 C 
BRANCH  35  36
ATOM     36  O   UNL     1     -35.559   4.428  83.727  1.00  0.00    -0.394 OA
ATOM     37  H   UNL     1     -36.463   4.151  83.422  1.00  0.00     0.210 HD
ENDBRANCH  35  36
ENDBRANCH  29  35
BRANCH  30  38
ATOM     38  O   UNL     1     -33.829   3.843  81.483  1.00  0.00    -0.387 OA
ATOM     39  H   UNL     1     -33.967   3.304  80.661  1.00  0.00     0.211 HD
ENDBRANCH  30  38
ENDBRANCH   1  25
TORSDOF 11
ENDMDL
MODEL 9
REMARK VINA RESULT:    -5.910      2.432      7.010
REMARK INTER + INTRA:          -9.879
REMARK INTER:                  -8.042
REMARK INTRA:                  -1.837
REMARK UNBOUND:                -1.377
REMARK SMILES O=c1c(O[C@H]2O[C@H](CO)[C@@H](O)[C@@H](O)[C@H]2O)c(-c2ccc(O)cc2)oc2cc(O)cc(O)c12
REMARK SMILES IDX 4 1 3 2 16 3 24 4 2 5 25 6 1 7 32 8 26 9 30 10 27 11 29 12
REMARK SMILES IDX 17 13 18 14 19 15 20 16 23 17 22 18 21 19 31 21 28 23 5 25
REMARK SMILES IDX 14 26 6 27 12 28 7 29 10 30 15 31 13 33 8 35 9 36 11 38
REMARK H PARENT 21 20 31 22 28 24 15 32 13 34 9 37 11 39
REMARK Flexibility Score: inf
ROOT
ATOM      1  O   UNL     1     -37.326   5.074  81.344  1.00  0.00    -0.454 OA
ENDROOT
BRANCH   1   2
ATOM      2  C   UNL     1     -36.179   5.857  81.524  1.00  0.00     0.214 A 
ATOM      3  C   UNL     1     -35.809   6.854  80.602  1.00  0.00     0.180 A 
ATOM      4  O   UNL     1     -34.750   7.616  80.848  1.00  0.00    -0.452 OA
ATOM      5  C   UNL     1     -35.377   5.641  82.649  1.00  0.00     0.239 A 
ATOM      6  C   UNL     1     -33.984   7.478  81.923  1.00  0.00     0.146 A 
ATOM      7  O   UNL     1     -35.661   4.680  83.410  1.00  0.00    -0.285 OA
ATOM      8  C   UNL     1     -34.269   6.487  82.901  1.00  0.00     0.111 A 
ATOM      9  C   UNL     1     -32.877   8.318  82.066  1.00  0.00     0.094 A 
ATOM     10  C   UNL     1     -33.422   6.400  84.047  1.00  0.00     0.134 A 
ATOM     11  C   UNL     1     -32.026   8.187  83.164  1.00  0.00     0.123 A 
ATOM     12  C   UNL     1     -32.300   7.230  84.141  1.00  0.00     0.093 A 
BRANCH   3  13
ATOM     13  C   UNL     1     -36.544   7.072  79.338  1.00  0.00     0.021 A 
ATOM     14  C   UNL     1     -36.449   6.126  78.305  1.00  0.00     0.016 A 
ATOM     15  C   UNL     1     -37.146   6.316  77.108  1.00  0.00     0.047 A 
ATOM     16  C   UNL     1     -37.958   7.445  76.937  1.00  0.00     0.115 A 
ATOM     17  C   UNL     1     -37.379   8.190  79.169  1.00  0.00     0.016 A 
ATOM     18  C   UNL     1     -38.075   8.378  77.972  1.00  0.00     0.047 A 
BRANCH  16  19
ATOM     19  O   UNL     1     -38.654   7.645  75.747  1.00  0.00    -0.508 OA
ATOM     20  H   UNL     1     -39.633   7.399  75.657  1.00  0.00     0.293 HD
ENDBRANCH  16  19
ENDBRANCH   3  13
BRANCH  10  21
ATOM     21  O   UNL     1     -33.651   5.539  85.125  1.00  0.00    -0.507 OA
ATOM     22  H   UNL     1     -33.023   5.405  85.903  1.00  0.00     0.293 HD
ENDBRANCH  10  21
BRANCH  11  23
ATOM     23  O   UNL     1     -30.910   9.009  83.300  1.00  0.00    -0.508 OA
ATOM     24  H   UNL     1     -29.986   8.626  83.459  1.00  0.00     0.293 HD
ENDBRANCH  11  23
ENDBRANCH   1   2
BRANCH   1  25
ATOM     25  C   UNL     1     -38.605   5.426  81.887  1.00  0.00     0.339 C 
ATOM     26  C   UNL     1     -39.250   4.238  82.625  1.00  0.00     0.214 C 
ATOM     27  O   UNL     1     -39.464   5.930  80.880  1.00  0.00    -0.332 OA
ATOM     28  C   UNL     1     -39.716   3.140  81.646  1.00  0.00     0.180 C 
ATOM     29  C   UNL     1     -39.704   4.970  79.863  1.00  0.00     0.179 C 
ATOM     30  C   UNL     1     -40.467   3.749  80.439  1.00  0.00     0.177 C 
BRANCH  26  31
ATOM     31  O   UNL     1     -38.351   3.717  83.569  1.00  0.00    -0.384 OA
ATOM     32  H   UNL     1     -38.097   4.467  84.167  1.00  0.00     0.211 HD
ENDBRANCH  26  31
BRANCH  28  33
ATOM     33  O   UNL     1     -38.649   2.309  81.248  1.00  0.00    -0.387 OA
ATOM     34  H   UNL     1     -38.233   1.919  82.058  1.00  0.00     0.211 HD
ENDBRANCH  28  33
BRANCH  29  35
ATOM     35  C   UNL     1     -40.515   5.662  78.754  1.00  0.00     0.191 C 
BRANCH  35  36
ATOM     36  O   UNL     1     -41.028   6.892  79.189  1.00  0.00    -0.394 OA
ATOM     37  H   UNL     1     -41.842   7.069  78.648  1.00  0.00     0.210 HD
ENDBRANCH  35  36
ENDBRANCH  29  35
BRANCH  30  38
ATOM     38  O   UNL     1     -40.644   2.774  79.444  1.00  0.00    -0.387 OA
ATOM     39  H   UNL     1     -41.359   2.165  79.764  1.00  0.00     0.211 HD
ENDBRANCH  30  38
ENDBRANCH   1  25
TORSDOF 11
ENDMDL
