MODEL 1
REMARK VINA RESULT:    -4.382      0.000      0.000
REMARK INTER + INTRA:         -14.081
REMARK INTER:                 -10.018
REMARK INTRA:                  -4.063
REMARK UNBOUND:                -4.063
REMARK SMILES CCCCCCCCCCCCCCCCCCCCCCCC(=O)[O-]
REMARK SMILES IDX 13 1 14 2 15 3 16 4 17 5 18 6 19 7 20 8 21 9 22 10 23 11
REMARK SMILES IDX 24 12 25 13 26 14 12 15 11 16 10 17 9 18 8 19 7 20 6 21 5 22
REMARK SMILES IDX 4 23 3 24 2 25 1 26
REMARK H PARENT
REMARK Flexibility Score: inf
ROOT
ATOM      1  C   UNL     1       1.337  25.176  54.253  1.00  0.00     0.000 C 
ENDROOT
BRANCH   1   2
ATOM      2  C   UNL     1      -0.079  24.673  53.937  1.00  0.00     0.000 C 
BRANCH   2   3
ATOM      3  C   UNL     1      -1.114  25.337  54.858  1.00  0.00     0.000 C 
BRANCH   3   4
ATOM      4  C   UNL     1      -2.289  24.406  55.213  1.00  0.00     0.000 C 
BRANCH   4   5
ATOM      5  C   UNL     1      -2.127  23.631  56.534  1.00  0.00     0.000 C 
BRANCH   5   6
ATOM      6  C   UNL     1      -1.017  24.207  57.430  1.00  0.00     0.000 C 
BRANCH   6   7
ATOM      7  C   UNL     1      -0.048  23.133  57.957  1.00  0.00     0.000 C 
BRANCH   7   8
ATOM      8  C   UNL     1       0.828  22.457  56.886  1.00  0.00     0.000 C 
BRANCH   8   9
ATOM      9  C   UNL     1       2.303  22.888  56.955  1.00  0.00     0.000 C 
BRANCH   9  10
ATOM     10  C   UNL     1       3.109  22.082  57.985  1.00  0.00     0.006 C 
BRANCH  10  11
ATOM     11  C   UNL     1       4.437  21.561  57.418  1.00  0.00     0.053 C 
BRANCH  11  12
ATOM     12  C   UNL     1       5.557  22.488  57.773  1.00  0.00     0.041 C 
ATOM     13  O   UNL     1       5.391  23.377  58.649  1.00  0.00    -0.550 OA
ATOM     14  O   UNL     1       6.800  22.339  57.169  1.00  0.00    -0.550 OA
ENDBRANCH  11  12
ENDBRANCH  10  11
ENDBRANCH   9  10
ENDBRANCH   8   9
ENDBRANCH   7   8
ENDBRANCH   6   7
ENDBRANCH   5   6
ENDBRANCH   4   5
ENDBRANCH   3   4
ENDBRANCH   2   3
ENDBRANCH   1   2
BRANCH   1  15
ATOM     15  C   UNL     1       1.917  26.076  53.146  1.00  0.00     0.000 C 
BRANCH  15  16
ATOM     16  C   UNL     1       1.272  25.908  51.757  1.00  0.00     0.000 C 
BRANCH  16  17
ATOM     17  C   UNL     1       2.206  25.229  50.741  1.00  0.00     0.000 C 
BRANCH  17  18
ATOM     18  C   UNL     1       1.640  23.902  50.202  1.00  0.00    -0.000 C 
BRANCH  18  19
ATOM     19  C   UNL     1       1.604  22.743  51.220  1.00  0.00    -0.000 C 
BRANCH  19  20
ATOM     20  C   UNL     1       2.713  21.685  51.050  1.00  0.00    -0.000 C 
BRANCH  20  21
ATOM     21  C   UNL     1       3.349  21.192  52.362  1.00  0.00    -0.000 C 
BRANCH  21  22
ATOM     22  C   UNL     1       3.174  22.185  53.521  1.00  0.00    -0.000 C 
BRANCH  22  23
ATOM     23  C   UNL     1       4.522  22.789  53.936  1.00  0.00    -0.000 C 
BRANCH  23  24
ATOM     24  C   UNL     1       4.944  23.979  53.056  1.00  0.00    -0.000 C 
BRANCH  24  25
ATOM     25  C   UNL     1       6.257  23.776  52.276  1.00  0.00    -0.003 C 
ATOM     26  C   UNL     1       6.033  23.456  50.799  1.00  0.00     0.004 C 
ENDBRANCH  24  25
ENDBRANCH  23  24
ENDBRANCH  22  23
ENDBRANCH  21  22
ENDBRANCH  20  21
ENDBRANCH  19  20
ENDBRANCH  18  19
ENDBRANCH  17  18
ENDBRANCH  16  17
ENDBRANCH  15  16
ENDBRANCH   1  15
TORSDOF 22
ENDMDL
MODEL 2
REMARK VINA RESULT:    -4.340      1.176      5.733
REMARK INTER + INTRA:         -13.984
REMARK INTER:                  -9.913
REMARK INTRA:                  -4.071
REMARK UNBOUND:                -4.063
REMARK SMILES CCCCCCCCCCCCCCCCCCCCCCCC(=O)[O-]
REMARK SMILES IDX 13 1 14 2 15 3 16 4 17 5 18 6 19 7 20 8 21 9 22 10 23 11
REMARK SMILES IDX 24 12 25 13 26 14 12 15 11 16 10 17 9 18 8 19 7 20 6 21 5 22
REMARK SMILES IDX 4 23 3 24 2 25 1 26
REMARK H PARENT
REMARK Flexibility Score: inf
ROOT
ATOM      1  C   UNL     1       1.861  22.153  52.454  1.00  0.00     0.000 C 
ENDROOT
BRANCH   1   2
ATOM      2  C   UNL     1       2.871  21.506  51.496  1.00  0.00     0.000 C 
BRANCH   2   3
ATOM      3  C   UNL     1       3.160  22.426  50.300  1.00  0.00     0.000 C 
BRANCH   3   4
ATOM      4  C   UNL     1       4.020  23.648  50.677  1.00  0.00     0.000 C 
BRANCH   4   5
ATOM      5  C   UNL     1       5.511  23.343  50.916  1.00  0.00     0.000 C 
BRANCH   5   6
ATOM      6  C   UNL     1       5.901  23.409  52.403  1.00  0.00     0.000 C 
BRANCH   6   7
ATOM      7  C   UNL     1       4.889  24.193  53.258  1.00  0.00     0.000 C 
BRANCH   7   8
ATOM      8  C   UNL     1       4.733  23.698  54.707  1.00  0.00     0.000 C 
BRANCH   8   9
ATOM      9  C   UNL     1       4.516  22.178  54.804  1.00  0.00     0.000 C 
BRANCH   9  10
ATOM     10  C   UNL     1       5.126  21.572  56.078  1.00  0.00     0.006 C 
BRANCH  10  11
ATOM     11  C   UNL     1       4.656  22.285  57.353  1.00  0.00     0.053 C 
BRANCH  11  12
ATOM     12  C   UNL     1       5.806  22.965  58.027  1.00  0.00     0.041 C 
ATOM     13  O   UNL     1       5.604  23.737  59.002  1.00  0.00    -0.550 OA
ATOM     14  O   UNL     1       7.107  22.710  57.608  1.00  0.00    -0.550 OA
ENDBRANCH  11  12
ENDBRANCH  10  11
ENDBRANCH   9  10
ENDBRANCH   8   9
ENDBRANCH   7   8
ENDBRANCH   6   7
ENDBRANCH   5   6
ENDBRANCH   4   5
ENDBRANCH   3   4
ENDBRANCH   2   3
ENDBRANCH   1   2
BRANCH   1  15
ATOM     15  C   UNL     1       0.594  22.662  51.741  1.00  0.00     0.000 C 
BRANCH  15  16
ATOM     16  C   UNL     1       0.459  24.194  51.655  1.00  0.00     0.000 C 
BRANCH  16  17
ATOM     17  C   UNL     1       1.299  24.931  52.711  1.00  0.00     0.000 C 
BRANCH  17  18
ATOM     18  C   UNL     1       0.595  25.025  54.077  1.00  0.00    -0.000 C 
BRANCH  18  19
ATOM     19  C   UNL     1       1.453  25.606  55.220  1.00  0.00    -0.000 C 
BRANCH  19  20
ATOM     20  C   UNL     1       1.563  24.717  56.475  1.00  0.00    -0.000 C 
BRANCH  20  21
ATOM     21  C   UNL     1       1.374  23.210  56.224  1.00  0.00    -0.000 C 
BRANCH  21  22
ATOM     22  C   UNL     1       0.256  22.597  57.082  1.00  0.00    -0.000 C 
BRANCH  22  23
ATOM     23  C   UNL     1      -0.744  23.670  57.531  1.00  0.00    -0.000 C 
BRANCH  23  24
ATOM     24  C   UNL     1      -2.031  23.683  56.686  1.00  0.00    -0.000 C 
BRANCH  24  25
ATOM     25  C   UNL     1      -2.516  25.081  56.263  1.00  0.00    -0.003 C 
ATOM     26  C   UNL     1      -1.845  26.210  57.046  1.00  0.00     0.004 C 
ENDBRANCH  24  25
ENDBRANCH  23  24
ENDBRANCH  22  23
ENDBRANCH  21  22
ENDBRANCH  20  21
ENDBRANCH  19  20
ENDBRANCH  18  19
ENDBRANCH  17  18
ENDBRANCH  16  17
ENDBRANCH  15  16
ENDBRANCH   1  15
TORSDOF 22
ENDMDL
MODEL 3
REMARK VINA RESULT:    -4.231      1.257      2.462
REMARK INTER + INTRA:         -13.735
REMARK INTER:                  -9.316
REMARK INTRA:                  -4.420
REMARK UNBOUND:                -4.063
REMARK SMILES CCCCCCCCCCCCCCCCCCCCCCCC(=O)[O-]
REMARK SMILES IDX 13 1 14 2 15 3 16 4 17 5 18 6 19 7 20 8 21 9 22 10 23 11
REMARK SMILES IDX 24 12 25 13 26 14 12 15 11 16 10 17 9 18 8 19 7 20 6 21 5 22
REMARK SMILES IDX 4 23 3 24 2 25 1 26
REMARK H PARENT
REMARK Flexibility Score: inf
ROOT
ATOM      1  C   UNL     1       1.935  24.663  55.240  1.00  0.00     0.000 C 
ENDROOT
BRANCH   1   2
ATOM      2  C   UNL     1       0.862  25.660  54.777  1.00  0.00     0.000 C 
BRANCH   2   3
ATOM      3  C   UNL     1      -0.453  24.937  54.451  1.00  0.00     0.000 C 
BRANCH   3   4
ATOM      4  C   UNL     1      -1.685  25.620  55.075  1.00  0.00     0.000 C 
BRANCH   4   5
ATOM      5  C   UNL     1      -2.163  25.009  56.405  1.00  0.00     0.000 C 
BRANCH   5   6
ATOM      6  C   UNL     1      -1.647  23.576  56.621  1.00  0.00     0.000 C 
BRANCH   6   7
ATOM      7  C   UNL     1      -1.149  23.323  58.056  1.00  0.00     0.000 C 
BRANCH   7   8
ATOM      8  C   UNL     1       0.370  23.473  58.259  1.00  0.00     0.000 C 
BRANCH   8   9
ATOM      9  C   UNL     1       1.014  22.242  58.919  1.00  0.00     0.000 C 
BRANCH   9  10
ATOM     10  C   UNL     1       1.908  21.450  57.953  1.00  0.00     0.006 C 
BRANCH  10  11
ATOM     11  C   UNL     1       3.361  21.352  58.440  1.00  0.00     0.053 C 
BRANCH  11  12
ATOM     12  C   UNL     1       4.310  21.640  57.320  1.00  0.00     0.041 C 
ATOM     13  O   UNL     1       4.515  22.828  56.952  1.00  0.00    -0.550 OA
ATOM     14  O   UNL     1       5.003  20.601  56.712  1.00  0.00    -0.550 OA
ENDBRANCH  11  12
ENDBRANCH  10  11
ENDBRANCH   9  10
ENDBRANCH   8   9
ENDBRANCH   7   8
ENDBRANCH   6   7
ENDBRANCH   5   6
ENDBRANCH   4   5
ENDBRANCH   3   4
ENDBRANCH   2   3
ENDBRANCH   1   2
BRANCH   1  15
ATOM     15  C   UNL     1       1.663  23.223  54.766  1.00  0.00     0.000 C 
BRANCH  15  16
ATOM     16  C   UNL     1       2.767  22.601  53.889  1.00  0.00     0.000 C 
BRANCH  16  17
ATOM     17  C   UNL     1       2.208  21.795  52.704  1.00  0.00     0.000 C 
BRANCH  17  18
ATOM     18  C   UNL     1       3.000  22.016  51.403  1.00  0.00    -0.000 C 
BRANCH  18  19
ATOM     19  C   UNL     1       2.300  22.901  50.351  1.00  0.00    -0.000 C 
BRANCH  19  20
ATOM     20  C   UNL     1       1.046  23.647  50.849  1.00  0.00    -0.000 C 
BRANCH  20  21
ATOM     21  C   UNL     1       1.260  25.136  51.172  1.00  0.00    -0.000 C 
BRANCH  21  22
ATOM     22  C   UNL     1       2.682  25.620  50.849  1.00  0.00    -0.000 C 
BRANCH  22  23
ATOM     23  C   UNL     1       3.448  25.970  52.131  1.00  0.00    -0.000 C 
BRANCH  23  24
ATOM     24  C   UNL     1       4.790  25.224  52.252  1.00  0.00    -0.000 C 
BRANCH  24  25
ATOM     25  C   UNL     1       5.470  24.890  50.911  1.00  0.00    -0.003 C 
ATOM     26  C   UNL     1       6.294  23.605  50.962  1.00  0.00     0.004 C 
ENDBRANCH  24  25
ENDBRANCH  23  24
ENDBRANCH  22  23
ENDBRANCH  21  22
ENDBRANCH  20  21
ENDBRANCH  19  20
ENDBRANCH  18  19
ENDBRANCH  17  18
ENDBRANCH  16  17
ENDBRANCH  15  16
ENDBRANCH   1  15
TORSDOF 22
ENDMDL
MODEL 4
REMARK VINA RESULT:    -4.229      3.644      6.293
REMARK INTER + INTRA:         -13.732
REMARK INTER:                 -10.362
REMARK INTRA:                  -3.370
REMARK UNBOUND:                -4.063
REMARK SMILES CCCCCCCCCCCCCCCCCCCCCCCC(=O)[O-]
REMARK SMILES IDX 13 1 14 2 15 3 16 4 17 5 18 6 19 7 20 8 21 9 22 10 23 11
REMARK SMILES IDX 24 12 25 13 26 14 12 15 11 16 10 17 9 18 8 19 7 20 6 21 5 22
REMARK SMILES IDX 4 23 3 24 2 25 1 26
REMARK H PARENT
REMARK Flexibility Score: inf
ROOT
ATOM      1  C   UNL     1       1.202  22.231  51.828  1.00  0.00     0.000 C 
ENDROOT
BRANCH   1   2
ATOM      2  C   UNL     1       2.368  22.121  50.835  1.00  0.00     0.000 C 
BRANCH   2   3
ATOM      3  C   UNL     1       3.710  22.013  51.576  1.00  0.00     0.000 C 
BRANCH   3   4
ATOM      4  C   UNL     1       4.688  23.146  51.214  1.00  0.00     0.000 C 
BRANCH   4   5
ATOM      5  C   UNL     1       5.388  23.808  52.417  1.00  0.00     0.000 C 
BRANCH   5   6
ATOM      6  C   UNL     1       4.555  24.941  53.040  1.00  0.00     0.000 C 
BRANCH   6   7
ATOM      7  C   UNL     1       4.152  24.661  54.500  1.00  0.00     0.000 C 
BRANCH   7   8
ATOM      8  C   UNL     1       2.676  24.276  54.709  1.00  0.00     0.000 C 
BRANCH   8   9
ATOM      9  C   UNL     1       2.500  22.984  55.526  1.00  0.00     0.000 C 
BRANCH   9  10
ATOM     10  C   UNL     1       1.025  22.599  55.717  1.00  0.00     0.006 C 
BRANCH  10  11
ATOM     11  C   UNL     1       0.357  23.375  56.861  1.00  0.00     0.053 C 
BRANCH  11  12
ATOM     12  C   UNL     1      -0.687  24.302  56.324  1.00  0.00     0.041 C 
ATOM     13  O   UNL     1      -1.192  25.187  57.066  1.00  0.00    -0.550 OA
ATOM     14  O   UNL     1      -1.070  24.221  54.990  1.00  0.00    -0.550 OA
ENDBRANCH  11  12
ENDBRANCH  10  11
ENDBRANCH   9  10
ENDBRANCH   8   9
ENDBRANCH   7   8
ENDBRANCH   6   7
ENDBRANCH   5   6
ENDBRANCH   4   5
ENDBRANCH   3   4
ENDBRANCH   2   3
ENDBRANCH   1   2
BRANCH   1  15
ATOM     15  C   UNL     1       0.281  23.432  51.546  1.00  0.00     0.000 C 
BRANCH  15  16
ATOM     16  C   UNL     1       0.850  24.805  51.951  1.00  0.00     0.000 C 
BRANCH  16  17
ATOM     17  C   UNL     1       0.858  25.817  50.792  1.00  0.00     0.000 C 
BRANCH  17  18
ATOM     18  C   UNL     1       2.260  26.028  50.193  1.00  0.00    -0.000 C 
BRANCH  18  19
ATOM     19  C   UNL     1       2.509  25.327  48.842  1.00  0.00    -0.000 C 
BRANCH  19  20
ATOM     20  C   UNL     1       1.257  24.726  48.173  1.00  0.00    -0.000 C 
BRANCH  20  21
ATOM     21  C   UNL     1       1.477  24.179  46.752  1.00  0.00    -0.000 C 
BRANCH  21  22
ATOM     22  C   UNL     1       2.278  25.138  45.858  1.00  0.00    -0.000 C 
BRANCH  22  23
ATOM     23  C   UNL     1       2.787  24.423  44.599  1.00  0.00    -0.000 C 
BRANCH  23  24
ATOM     24  C   UNL     1       2.585  22.898  44.652  1.00  0.00    -0.000 C 
BRANCH  24  25
ATOM     25  C   UNL     1       2.578  22.196  43.282  1.00  0.00    -0.003 C 
ATOM     26  C   UNL     1       1.425  21.207  43.121  1.00  0.00     0.004 C 
ENDBRANCH  24  25
ENDBRANCH  23  24
ENDBRANCH  22  23
ENDBRANCH  21  22
ENDBRANCH  20  21
ENDBRANCH  19  20
ENDBRANCH  18  19
ENDBRANCH  17  18
ENDBRANCH  16  17
ENDBRANCH  15  16
ENDBRANCH   1  15
TORSDOF 22
ENDMDL
MODEL 5
REMARK VINA RESULT:    -4.226      2.486      4.445
REMARK INTER + INTRA:         -13.724
REMARK INTER:                 -10.816
REMARK INTRA:                  -2.908
REMARK UNBOUND:                -4.063
REMARK SMILES CCCCCCCCCCCCCCCCCCCCCCCC(=O)[O-]
REMARK SMILES IDX 13 1 14 2 15 3 16 4 17 5 18 6 19 7 20 8 21 9 22 10 23 11
REMARK SMILES IDX 24 12 25 13 26 14 12 15 11 16 10 17 9 18 8 19 7 20 6 21 5 22
REMARK SMILES IDX 4 23 3 24 2 25 1 26
REMARK H PARENT
REMARK Flexibility Score: inf
ROOT
ATOM      1  C   UNL     1       1.724  22.342  52.471  1.00  0.00     0.000 C 
ENDROOT
BRANCH   1   2
ATOM      2  C   UNL     1       0.605  23.355  52.755  1.00  0.00     0.000 C 
BRANCH   2   3
ATOM      3  C   UNL     1       1.042  24.370  53.822  1.00  0.00     0.000 C 
BRANCH   3   4
ATOM      4  C   UNL     1      -0.116  25.253  54.322  1.00  0.00     0.000 C 
BRANCH   4   5
ATOM      5  C   UNL     1      -1.426  24.498  54.618  1.00  0.00     0.000 C 
BRANCH   5   6
ATOM      6  C   UNL     1      -2.065  24.916  55.954  1.00  0.00     0.000 C 
BRANCH   6   7
ATOM      7  C   UNL     1      -1.778  23.925  57.096  1.00  0.00     0.000 C 
BRANCH   7   8
ATOM      8  C   UNL     1      -0.366  24.018  57.705  1.00  0.00     0.000 C 
BRANCH   8   9
ATOM      9  C   UNL     1       0.268  22.641  57.967  1.00  0.00     0.000 C 
BRANCH   9  10
ATOM     10  C   UNL     1       1.247  22.219  56.860  1.00  0.00     0.006 C 
BRANCH  10  11
ATOM     11  C   UNL     1       2.543  23.040  56.874  1.00  0.00     0.053 C 
BRANCH  11  12
ATOM     12  C   UNL     1       3.722  22.153  57.123  1.00  0.00     0.041 C 
ATOM     13  O   UNL     1       4.498  21.850  56.178  1.00  0.00    -0.550 OA
ATOM     14  O   UNL     1       3.992  21.699  58.408  1.00  0.00    -0.550 OA
ENDBRANCH  11  12
ENDBRANCH  10  11
ENDBRANCH   9  10
ENDBRANCH   8   9
ENDBRANCH   7   8
ENDBRANCH   6   7
ENDBRANCH   5   6
ENDBRANCH   4   5
ENDBRANCH   3   4
ENDBRANCH   2   3
ENDBRANCH   1   2
BRANCH   1  15
ATOM     15  C   UNL     1       2.130  22.291  50.987  1.00  0.00     0.000 C 
BRANCH  15  16
ATOM     16  C   UNL     1       3.556  22.786  50.679  1.00  0.00     0.000 C 
BRANCH  16  17
ATOM     17  C   UNL     1       3.912  24.088  51.416  1.00  0.00     0.000 C 
BRANCH  17  18
ATOM     18  C   UNL     1       3.673  25.344  50.559  1.00  0.00    -0.000 C 
BRANCH  18  19
ATOM     19  C   UNL     1       2.315  26.042  50.781  1.00  0.00    -0.000 C 
BRANCH  19  20
ATOM     20  C   UNL     1       1.287  25.853  49.648  1.00  0.00    -0.000 C 
BRANCH  20  21
ATOM     21  C   UNL     1       1.891  25.589  48.257  1.00  0.00    -0.000 C 
BRANCH  21  22
ATOM     22  C   UNL     1       1.617  24.166  47.746  1.00  0.00    -0.000 C 
BRANCH  22  23
ATOM     23  C   UNL     1       1.149  24.187  46.285  1.00  0.00    -0.000 C 
BRANCH  23  24
ATOM     24  C   UNL     1       2.306  24.048  45.281  1.00  0.00    -0.000 C 
BRANCH  24  25
ATOM     25  C   UNL     1       2.765  22.602  45.014  1.00  0.00    -0.003 C 
ATOM     26  C   UNL     1       1.978  21.921  43.896  1.00  0.00     0.004 C 
ENDBRANCH  24  25
ENDBRANCH  23  24
ENDBRANCH  22  23
ENDBRANCH  21  22
ENDBRANCH  20  21
ENDBRANCH  19  20
ENDBRANCH  18  19
ENDBRANCH  17  18
ENDBRANCH  16  17
ENDBRANCH  15  16
ENDBRANCH   1  15
TORSDOF 22
ENDMDL
MODEL 6
REMARK VINA RESULT:    -4.196      2.585      5.874
REMARK INTER + INTRA:         -13.656
REMARK INTER:                  -9.156
REMARK INTRA:                  -4.500
REMARK UNBOUND:                -4.063
REMARK SMILES CCCCCCCCCCCCCCCCCCCCCCCC(=O)[O-]
REMARK SMILES IDX 13 1 14 2 15 3 16 4 17 5 18 6 19 7 20 8 21 9 22 10 23 11
REMARK SMILES IDX 24 12 25 13 26 14 12 15 11 16 10 17 9 18 8 19 7 20 6 21 5 22
REMARK SMILES IDX 4 23 3 24 2 25 1 26
REMARK H PARENT
REMARK Flexibility Score: inf
ROOT
ATOM      1  C   UNL     1       0.871  22.497  59.121  1.00  0.00     0.000 C 
ENDROOT
BRANCH   1   2
ATOM      2  C   UNL     1       1.216  22.083  57.683  1.00  0.00     0.000 C 
BRANCH   2   3
ATOM      3  C   UNL     1       0.235  22.713  56.682  1.00  0.00     0.000 C 
BRANCH   3   4
ATOM      4  C   UNL     1      -0.778  23.662  57.349  1.00  0.00     0.000 C 
BRANCH   4   5
ATOM      5  C   UNL     1      -2.098  23.848  56.578  1.00  0.00     0.000 C 
BRANCH   5   6
ATOM      6  C   UNL     1      -1.878  24.192  55.095  1.00  0.00     0.000 C 
BRANCH   6   7
ATOM      7  C   UNL     1      -1.254  25.584  54.884  1.00  0.00     0.000 C 
BRANCH   7   8
ATOM      8  C   UNL     1       0.049  25.601  54.063  1.00  0.00     0.000 C 
BRANCH   8   9
ATOM      9  C   UNL     1       0.283  24.299  53.278  1.00  0.00     0.000 C 
BRANCH   9  10
ATOM     10  C   UNL     1       1.719  23.772  53.418  1.00  0.00     0.006 C 
BRANCH  10  11
ATOM     11  C   UNL     1       1.787  22.239  53.424  1.00  0.00     0.053 C 
BRANCH  11  12
ATOM     12  C   UNL     1       2.745  21.752  52.383  1.00  0.00     0.041 C 
ATOM     13  O   UNL     1       3.843  21.236  52.723  1.00  0.00    -0.550 OA
ATOM     14  O   UNL     1       2.406  21.825  51.038  1.00  0.00    -0.550 OA
ENDBRANCH  11  12
ENDBRANCH  10  11
ENDBRANCH   9  10
ENDBRANCH   8   9
ENDBRANCH   7   8
ENDBRANCH   6   7
ENDBRANCH   5   6
ENDBRANCH   4   5
ENDBRANCH   3   4
ENDBRANCH   2   3
ENDBRANCH   1   2
BRANCH   1  15
ATOM     15  C   UNL     1       2.116  22.766  59.986  1.00  0.00     0.000 C 
BRANCH  15  16
ATOM     16  C   UNL     1       2.280  24.221  60.466  1.00  0.00     0.000 C 
BRANCH  16  17
ATOM     17  C   UNL     1       1.559  25.236  59.564  1.00  0.00     0.000 C 
BRANCH  17  18
ATOM     18  C   UNL     1       2.516  25.977  58.613  1.00  0.00    -0.000 C 
BRANCH  18  19
ATOM     19  C   UNL     1       2.271  25.728  57.110  1.00  0.00    -0.000 C 
BRANCH  19  20
ATOM     20  C   UNL     1       3.508  25.272  56.311  1.00  0.00    -0.000 C 
BRANCH  20  21
ATOM     21  C   UNL     1       4.302  24.114  56.943  1.00  0.00    -0.000 C 
BRANCH  21  22
ATOM     22  C   UNL     1       4.139  22.791  56.180  1.00  0.00    -0.000 C 
BRANCH  22  23
ATOM     23  C   UNL     1       5.446  21.987  56.187  1.00  0.00    -0.000 C 
BRANCH  23  24
ATOM     24  C   UNL     1       5.294  20.598  56.834  1.00  0.00    -0.000 C 
BRANCH  24  25
ATOM     25  C   UNL     1       4.665  20.602  58.240  1.00  0.00    -0.003 C 
ATOM     26  C   UNL     1       3.776  19.387  58.501  1.00  0.00     0.004 C 
ENDBRANCH  24  25
ENDBRANCH  23  24
ENDBRANCH  22  23
ENDBRANCH  21  22
ENDBRANCH  20  21
ENDBRANCH  19  20
ENDBRANCH  18  19
ENDBRANCH  17  18
ENDBRANCH  16  17
ENDBRANCH  15  16
ENDBRANCH   1  15
TORSDOF 22
ENDMDL
MODEL 7
REMARK VINA RESULT:    -4.190      1.800      3.120
REMARK INTER + INTRA:         -13.641
REMARK INTER:                  -9.020
REMARK INTRA:                  -4.621
REMARK UNBOUND:                -4.063
REMARK SMILES CCCCCCCCCCCCCCCCCCCCCCCC(=O)[O-]
REMARK SMILES IDX 13 1 14 2 15 3 16 4 17 5 18 6 19 7 20 8 21 9 22 10 23 11
REMARK SMILES IDX 24 12 25 13 26 14 12 15 11 16 10 17 9 18 8 19 7 20 6 21 5 22
REMARK SMILES IDX 4 23 3 24 2 25 1 26
REMARK H PARENT
REMARK Flexibility Score: inf
ROOT
ATOM      1  C   UNL     1       0.437  22.737  56.895  1.00  0.00     0.000 C 
ENDROOT
BRANCH   1   2
ATOM      2  C   UNL     1      -0.865  23.328  57.455  1.00  0.00     0.000 C 
BRANCH   2   3
ATOM      3  C   UNL     1      -1.802  23.764  56.318  1.00  0.00     0.000 C 
BRANCH   3   4
ATOM      4  C   UNL     1      -2.422  25.155  56.549  1.00  0.00     0.000 C 
BRANCH   4   5
ATOM      5  C   UNL     1      -1.441  26.334  56.410  1.00  0.00     0.000 C 
BRANCH   5   6
ATOM      6  C   UNL     1      -1.103  26.990  57.760  1.00  0.00     0.000 C 
BRANCH   6   7
ATOM      7  C   UNL     1       0.387  26.874  58.131  1.00  0.00     0.000 C 
BRANCH   7   8
ATOM      8  C   UNL     1       0.670  26.469  59.590  1.00  0.00     0.000 C 
BRANCH   8   9
ATOM      9  C   UNL     1       1.274  25.060  59.717  1.00  0.00     0.000 C 
BRANCH   9  10
ATOM     10  C   UNL     1       2.660  24.947  59.062  1.00  0.00     0.006 C 
BRANCH  10  11
ATOM     11  C   UNL     1       3.327  23.590  59.323  1.00  0.00     0.053 C 
BRANCH  11  12
ATOM     12  C   UNL     1       4.054  23.120  58.103  1.00  0.00     0.041 C 
ATOM     13  O   UNL     1       3.814  21.982  57.620  1.00  0.00    -0.550 OA
ATOM     14  O   UNL     1       4.965  23.959  57.471  1.00  0.00    -0.550 OA
ENDBRANCH  11  12
ENDBRANCH  10  11
ENDBRANCH   9  10
ENDBRANCH   8   9
ENDBRANCH   7   8
ENDBRANCH   6   7
ENDBRANCH   5   6
ENDBRANCH   4   5
ENDBRANCH   3   4
ENDBRANCH   2   3
ENDBRANCH   1   2
BRANCH   1  15
ATOM     15  C   UNL     1       0.828  23.327  55.528  1.00  0.00     0.000 C 
BRANCH  15  16
ATOM     16  C   UNL     1       1.734  24.572  55.584  1.00  0.00     0.000 C 
BRANCH  16  17
ATOM     17  C   UNL     1       1.614  25.459  54.333  1.00  0.00     0.000 C 
BRANCH  17  18
ATOM     18  C   UNL     1       0.435  25.059  53.428  1.00  0.00    -0.000 C 
BRANCH  18  19
ATOM     19  C   UNL     1       0.828  24.534  52.031  1.00  0.00    -0.000 C 
BRANCH  19  20
ATOM     20  C   UNL     1       0.480  23.055  51.765  1.00  0.00    -0.000 C 
BRANCH  20  21
ATOM     21  C   UNL     1       1.637  22.203  51.214  1.00  0.00    -0.000 C 
BRANCH  21  22
ATOM     22  C   UNL     1       2.868  23.040  50.834  1.00  0.00    -0.000 C 
BRANCH  22  23
ATOM     23  C   UNL     1       4.135  22.491  51.502  1.00  0.00    -0.000 C 
BRANCH  23  24
ATOM     24  C   UNL     1       3.834  21.594  52.717  1.00  0.00    -0.000 C 
BRANCH  24  25
ATOM     25  C   UNL     1       4.117  22.239  54.086  1.00  0.00    -0.003 C 
ATOM     26  C   UNL     1       4.966  23.505  53.988  1.00  0.00     0.004 C 
ENDBRANCH  24  25
ENDBRANCH  23  24
ENDBRANCH  22  23
ENDBRANCH  21  22
ENDBRANCH  20  21
ENDBRANCH  19  20
ENDBRANCH  18  19
ENDBRANCH  17  18
ENDBRANCH  16  17
ENDBRANCH  15  16
ENDBRANCH   1  15
TORSDOF 22
ENDMDL
MODEL 8
REMARK VINA RESULT:    -4.182      1.950      5.714
REMARK INTER + INTRA:         -13.624
REMARK INTER:                 -10.301
REMARK INTRA:                  -3.323
REMARK UNBOUND:                -4.063
REMARK SMILES CCCCCCCCCCCCCCCCCCCCCCCC(=O)[O-]
REMARK SMILES IDX 13 1 14 2 15 3 16 4 17 5 18 6 19 7 20 8 21 9 22 10 23 11
REMARK SMILES IDX 24 12 25 13 26 14 12 15 11 16 10 17 9 18 8 19 7 20 6 21 5 22
REMARK SMILES IDX 4 23 3 24 2 25 1 26
REMARK H PARENT
REMARK Flexibility Score: inf
ROOT
ATOM      1  C   UNL     1      -1.021  25.944  54.563  1.00  0.00     0.000 C 
ENDROOT
BRANCH   1   2
ATOM      2  C   UNL     1       0.492  25.697  54.464  1.00  0.00     0.000 C 
BRANCH   2   3
ATOM      3  C   UNL     1       0.796  24.533  53.509  1.00  0.00     0.000 C 
BRANCH   3   4
ATOM      4  C   UNL     1       0.838  24.965  52.031  1.00  0.00     0.000 C 
BRANCH   4   5
ATOM      5  C   UNL     1       0.893  23.806  51.017  1.00  0.00     0.000 C 
BRANCH   5   6
ATOM      6  C   UNL     1       1.040  22.431  51.693  1.00  0.00     0.000 C 
BRANCH   6   7
ATOM      7  C   UNL     1       2.283  21.657  51.219  1.00  0.00     0.000 C 
BRANCH   7   8
ATOM      8  C   UNL     1       3.193  21.127  52.343  1.00  0.00     0.000 C 
BRANCH   8   9
ATOM      9  C   UNL     1       3.208  22.037  53.584  1.00  0.00     0.000 C 
BRANCH   9  10
ATOM     10  C   UNL     1       4.536  22.794  53.748  1.00  0.00     0.006 C 
BRANCH  10  11
ATOM     11  C   UNL     1       4.696  23.930  52.729  1.00  0.00     0.053 C 
BRANCH  11  12
ATOM     12  C   UNL     1       5.837  23.646  51.803  1.00  0.00     0.041 C 
ATOM     13  O   UNL     1       7.007  23.994  52.114  1.00  0.00    -0.550 OA
ATOM     14  O   UNL     1       5.615  22.957  50.617  1.00  0.00    -0.550 OA
ENDBRANCH  11  12
ENDBRANCH  10  11
ENDBRANCH   9  10
ENDBRANCH   8   9
ENDBRANCH   7   8
ENDBRANCH   6   7
ENDBRANCH   5   6
ENDBRANCH   4   5
ENDBRANCH   3   4
ENDBRANCH   2   3
ENDBRANCH   1   2
BRANCH   1  15
ATOM     15  C   UNL     1      -1.608  25.547  55.929  1.00  0.00     0.000 C 
BRANCH  15  16
ATOM     16  C   UNL     1      -2.198  24.125  56.002  1.00  0.00     0.000 C 
BRANCH  16  17
ATOM     17  C   UNL     1      -1.766  23.360  57.264  1.00  0.00     0.000 C 
BRANCH  17  18
ATOM     18  C   UNL     1      -0.257  23.477  57.547  1.00  0.00    -0.000 C 
BRANCH  18  19
ATOM     19  C   UNL     1       0.648  22.610  56.647  1.00  0.00    -0.000 C 
BRANCH  19  20
ATOM     20  C   UNL     1       2.152  22.661  56.986  1.00  0.00    -0.000 C 
BRANCH  20  21
ATOM     21  C   UNL     1       2.514  22.212  58.413  1.00  0.00    -0.000 C 
BRANCH  21  22
ATOM     22  C   UNL     1       2.312  20.706  58.636  1.00  0.00    -0.000 C 
BRANCH  22  23
ATOM     23  C   UNL     1       3.636  19.945  58.488  1.00  0.00    -0.000 C 
BRANCH  23  24
ATOM     24  C   UNL     1       4.841  20.722  59.048  1.00  0.00    -0.000 C 
BRANCH  24  25
ATOM     25  C   UNL     1       5.953  21.021  58.025  1.00  0.00    -0.003 C 
ATOM     26  C   UNL     1       5.514  20.793  56.580  1.00  0.00     0.004 C 
ENDBRANCH  24  25
ENDBRANCH  23  24
ENDBRANCH  22  23
ENDBRANCH  21  22
ENDBRANCH  20  21
ENDBRANCH  19  20
ENDBRANCH  18  19
ENDBRANCH  17  18
ENDBRANCH  16  17
ENDBRANCH  15  16
ENDBRANCH   1  15
TORSDOF 22
ENDMDL
MODEL 9
REMARK VINA RESULT:    -4.181      1.582      3.851
REMARK INTER + INTRA:         -13.622
REMARK INTER:                  -9.791
REMARK INTRA:                  -3.831
REMARK UNBOUND:                -4.063
REMARK SMILES CCCCCCCCCCCCCCCCCCCCCCCC(=O)[O-]
REMARK SMILES IDX 13 1 14 2 15 3 16 4 17 5 18 6 19 7 20 8 21 9 22 10 23 11
REMARK SMILES IDX 24 12 25 13 26 14 12 15 11 16 10 17 9 18 8 19 7 20 6 21 5 22
REMARK SMILES IDX 4 23 3 24 2 25 1 26
REMARK H PARENT
REMARK Flexibility Score: inf
ROOT
ATOM      1  C   UNL     1      -1.778  23.570  57.048  1.00  0.00     0.000 C 
ENDROOT
BRANCH   1   2
ATOM      2  C   UNL     1      -0.330  23.499  57.556  1.00  0.00     0.000 C 
BRANCH   2   3
ATOM      3  C   UNL     1       0.530  22.620  56.636  1.00  0.00     0.000 C 
BRANCH   3   4
ATOM      4  C   UNL     1       2.038  22.907  56.767  1.00  0.00     0.000 C 
BRANCH   4   5
ATOM      5  C   UNL     1       2.477  24.303  56.286  1.00  0.00     0.000 C 
BRANCH   5   6
ATOM      6  C   UNL     1       3.802  24.761  56.920  1.00  0.00     0.000 C 
BRANCH   6   7
ATOM      7  C   UNL     1       4.190  23.943  58.166  1.00  0.00     0.000 C 
BRANCH   7   8
ATOM      8  C   UNL     1       5.559  23.242  58.089  1.00  0.00     0.000 C 
BRANCH   8   9
ATOM      9  C   UNL     1       5.834  22.605  56.716  1.00  0.00     0.000 C 
BRANCH   9  10
ATOM     10  C   UNL     1       5.470  21.113  56.670  1.00  0.00     0.006 C 
BRANCH  10  11
ATOM     11  C   UNL     1       5.426  20.474  58.065  1.00  0.00     0.053 C 
BRANCH  11  12
ATOM     12  C   UNL     1       6.611  19.583  58.271  1.00  0.00     0.041 C 
ATOM     13  O   UNL     1       6.468  18.451  58.805  1.00  0.00    -0.550 OA
ATOM     14  O   UNL     1       7.866  19.983  57.829  1.00  0.00    -0.550 OA
ENDBRANCH  11  12
ENDBRANCH  10  11
ENDBRANCH   9  10
ENDBRANCH   8   9
ENDBRANCH   7   8
ENDBRANCH   6   7
ENDBRANCH   5   6
ENDBRANCH   4   5
ENDBRANCH   3   4
ENDBRANCH   2   3
ENDBRANCH   1   2
BRANCH   1  15
ATOM     15  C   UNL     1      -2.113  24.910  56.368  1.00  0.00     0.000 C 
BRANCH  15  16
ATOM     16  C   UNL     1      -1.739  25.000  54.875  1.00  0.00     0.000 C 
BRANCH  16  17
ATOM     17  C   UNL     1      -0.526  25.908  54.614  1.00  0.00     0.000 C 
BRANCH  17  18
ATOM     18  C   UNL     1       0.280  25.487  53.372  1.00  0.00    -0.000 C 
BRANCH  18  19
ATOM     19  C   UNL     1       0.457  23.966  53.189  1.00  0.00    -0.000 C 
BRANCH  19  20
ATOM     20  C   UNL     1       0.444  23.474  51.727  1.00  0.00    -0.000 C 
BRANCH  20  21
ATOM     21  C   UNL     1       1.646  23.924  50.878  1.00  0.00    -0.000 C 
BRANCH  21  22
ATOM     22  C   UNL     1       2.473  22.746  50.340  1.00  0.00    -0.000 C 
BRANCH  22  23
ATOM     23  C   UNL     1       2.583  21.628  51.386  1.00  0.00    -0.000 C 
BRANCH  23  24
ATOM     24  C   UNL     1       3.921  21.647  52.147  1.00  0.00    -0.000 C 
BRANCH  24  25
ATOM     25  C   UNL     1       3.911  22.452  53.459  1.00  0.00    -0.003 C 
ATOM     26  C   UNL     1       4.727  23.741  53.377  1.00  0.00     0.004 C 
ENDBRANCH  24  25
ENDBRANCH  23  24
ENDBRANCH  22  23
ENDBRANCH  21  22
ENDBRANCH  20  21
ENDBRANCH  19  20
ENDBRANCH  18  19
ENDBRANCH  17  18
ENDBRANCH  16  17
ENDBRANCH  15  16
ENDBRANCH   1  15
TORSDOF 22
ENDMDL
