MODEL 1
REMARK VINA RESULT:    65.877      0.000      0.000
REMARK INTER + INTRA:          87.055
REMARK INTER:                  87.058
REMARK INTRA:                  -0.003
REMARK UNBOUND:                -0.003
REMARK SMILES CC[C@H](C=C[C@@H](C)[C@H]1CC[C@@H]2C3=CC[C@@H]4C[C@@H](O)CC[C@]4(C)[C@H]3CC[C@@]21C)C(C)C
REMARK SMILES IDX 6 1 7 2 5 3 4 4 3 5 2 6 1 7 28 8 29 9 30 10 8 11 9 12 26 13
REMARK SMILES IDX 10 14 11 15 25 16 27 17 12 18 24 19 23 20 13 21 21 22 14 23
REMARK SMILES IDX 15 24 20 25 22 26 16 27 19 28 17 29 18 30
REMARK H PARENT 18 31
REMARK Flexibility Score: inf
ROOT
ATOM      1  C   UNL     1     -31.327  30.964  -1.843  1.00  0.00     0.012 C 
ATOM      2  C   UNL     1     -31.036  31.311  -0.364  1.00  0.00     0.012 C 
ENDROOT
BRANCH   1   3
ATOM      3  C   UNL     1     -31.914  29.572  -1.986  1.00  0.00    -0.028 C 
ATOM      4  C   UNL     1     -33.208  29.273  -2.227  1.00  0.00    -0.027 C 
BRANCH   4   5
ATOM      5  C   UNL     1     -34.344  30.270  -2.417  1.00  0.00     0.014 C 
BRANCH   5   6
ATOM      6  C   UNL     1     -34.352  30.946  -3.824  1.00  0.00     0.004 C 
ATOM      7  C   UNL     1     -34.191  29.987  -5.010  1.00  0.00     0.004 C 
ENDBRANCH   5   6
BRANCH   5   8
ATOM      8  C   UNL     1     -35.710  29.620  -2.018  1.00  0.00    -0.011 C 
ATOM      9  C   UNL     1     -36.811  29.899  -3.053  1.00  0.00     0.008 C 
ATOM     10  C   UNL     1     -35.625  28.111  -1.733  1.00  0.00     0.008 C 
ENDBRANCH   5   8
ENDBRANCH   4   5
ENDBRANCH   1   3
BRANCH   1  11
ATOM     11  C   UNL     1     -30.122  31.197  -2.830  1.00  0.00     0.002 C 
ATOM     12  C   UNL     1     -30.228  32.564  -3.538  1.00  0.00     0.005 C 
ATOM     13  C   UNL     1     -28.625  31.044  -2.347  1.00  0.00    -0.023 C 
ATOM     14  C   UNL     1     -28.898  33.280  -3.358  1.00  0.00     0.009 C 
ATOM     15  C   UNL     1     -27.854  32.220  -3.025  1.00  0.00     0.021 C 
ATOM     16  C   UNL     1     -27.995  29.671  -2.765  1.00  0.00     0.008 C 
ATOM     17  C   UNL     1     -28.450  31.183  -0.811  1.00  0.00     0.012 C 
ATOM     18  C   UNL     1     -27.093  31.778  -4.274  1.00  0.00    -0.067 C 
ATOM     19  C   UNL     1     -27.877  29.428  -4.292  1.00  0.00     0.009 C 
ATOM     20  C   UNL     1     -27.743  30.724  -5.139  1.00  0.00     0.021 C 
ATOM     21  C   UNL     1     -25.793  32.094  -4.411  1.00  0.00    -0.027 C 
ATOM     22  C   UNL     1     -27.065  30.544  -6.547  1.00  0.00    -0.023 C 
ATOM     23  C   UNL     1     -24.931  31.629  -5.551  1.00  0.00     0.031 C 
ATOM     24  C   UNL     1     -25.518  30.459  -6.388  1.00  0.00     0.002 C 
ATOM     25  C   UNL     1     -27.410  31.767  -7.450  1.00  0.00     0.010 C 
ATOM     26  C   UNL     1     -27.635  29.255  -7.209  1.00  0.00     0.012 C 
ATOM     27  C   UNL     1     -24.808  30.379  -7.764  1.00  0.00     0.036 C 
ATOM     28  C   UNL     1     -26.711  31.731  -8.825  1.00  0.00     0.032 C 
ATOM     29  C   UNL     1     -25.190  31.534  -8.721  1.00  0.00     0.114 C 
BRANCH  29  30
ATOM     30  O   UNL     1     -24.687  31.267 -10.004  1.00  0.00    -0.393 OA
ATOM     31  H   UNL     1     -24.953  30.336 -10.227  1.00  0.00     0.210 HD
ENDBRANCH  29  30
ENDBRANCH   1  11
TORSDOF 6
ENDMDL
