MODEL 1
REMARK VINA RESULT:    -3.569      0.000      0.000
REMARK INTER + INTRA:          -7.975
REMARK INTER:                  -6.072
REMARK INTRA:                  -1.903
REMARK UNBOUND:                -1.903
REMARK SMILES CCCCCCCCCCCCCC(=O)[O-]
REMARK SMILES IDX 8 1 9 2 10 3 11 4 12 5 13 6 14 7 15 8 16 9 7 10 6 11 5 12
REMARK SMILES IDX 4 13 3 14 2 15 1 16
REMARK H PARENT
REMARK Flexibility Score: inf
ROOT
ATOM      1  C   UNL     1     -45.434 -51.640  40.169  1.00  0.00     0.000 C 
ENDROOT
BRANCH   1   2
ATOM      2  C   UNL     1     -46.610 -50.815  40.721  1.00  0.00     0.000 C 
BRANCH   2   3
ATOM      3  C   UNL     1     -47.334 -51.510  41.887  1.00  0.00     0.000 C 
BRANCH   3   4
ATOM      4  C   UNL     1     -48.808 -51.815  41.571  1.00  0.00     0.000 C 
BRANCH   4   5
ATOM      5  C   UNL     1     -48.986 -53.135  40.804  1.00  0.00     0.006 C 
BRANCH   5   6
ATOM      6  C   UNL     1     -48.049 -54.236  41.320  1.00  0.00     0.053 C 
BRANCH   6   7
ATOM      7  C   UNL     1     -47.291 -54.890  40.206  1.00  0.00     0.041 C 
ATOM      8  O   UNL     1     -46.144 -55.368  40.416  1.00  0.00    -0.550 OA
ATOM      9  O   UNL     1     -47.836 -54.944  38.930  1.00  0.00    -0.550 OA
ENDBRANCH   6   7
ENDBRANCH   5   6
ENDBRANCH   4   5
ENDBRANCH   3   4
ENDBRANCH   2   3
ENDBRANCH   1   2
BRANCH   1  10
ATOM     10  C   UNL     1     -45.546 -52.019  38.681  1.00  0.00     0.000 C 
BRANCH  10  11
ATOM     11  C   UNL     1     -46.878 -51.582  38.050  1.00  0.00    -0.000 C 
BRANCH  11  12
ATOM     12  C   UNL     1     -46.724 -50.354  37.137  1.00  0.00    -0.000 C 
BRANCH  12  13
ATOM     13  C   UNL     1     -45.342 -50.280  36.469  1.00  0.00    -0.000 C 
BRANCH  13  14
ATOM     14  C   UNL     1     -44.568 -49.043  36.951  1.00  0.00    -0.000 C 
BRANCH  14  15
ATOM     15  C   UNL     1     -45.384 -48.177  37.922  1.00  0.00    -0.003 C 
ATOM     16  C   UNL     1     -44.636 -47.881  39.222  1.00  0.00     0.004 C 
ENDBRANCH  14  15
ENDBRANCH  13  14
ENDBRANCH  12  13
ENDBRANCH  11  12
ENDBRANCH  10  11
ENDBRANCH   1  10
TORSDOF 12
ENDMDL
MODEL 2
REMARK VINA RESULT:    -3.556      3.459      6.227
REMARK INTER + INTRA:          -7.953
REMARK INTER:                  -6.627
REMARK INTRA:                  -1.326
REMARK UNBOUND:                -1.903
REMARK SMILES CCCCCCCCCCCCCC(=O)[O-]
REMARK SMILES IDX 8 1 9 2 10 3 11 4 12 5 13 6 14 7 15 8 16 9 7 10 6 11 5 12
REMARK SMILES IDX 4 13 3 14 2 15 1 16
REMARK H PARENT
REMARK Flexibility Score: inf
ROOT
ATOM      1  C   UNL     1     -46.789 -52.311  38.031  1.00  0.00     0.000 C 
ENDROOT
BRANCH   1   2
ATOM      2  C   UNL     1     -47.196 -51.167  37.084  1.00  0.00     0.000 C 
BRANCH   2   3
ATOM      3  C   UNL     1     -46.822 -49.778  37.629  1.00  0.00     0.000 C 
BRANCH   3   4
ATOM      4  C   UNL     1     -45.345 -49.426  37.389  1.00  0.00     0.000 C 
BRANCH   4   5
ATOM      5  C   UNL     1     -44.966 -48.050  37.962  1.00  0.00     0.006 C 
BRANCH   5   6
ATOM      6  C   UNL     1     -44.577 -48.127  39.445  1.00  0.00     0.053 C 
BRANCH   6   7
ATOM      7  C   UNL     1     -43.800 -46.924  39.881  1.00  0.00     0.041 C 
ATOM      8  O   UNL     1     -42.544 -46.914  39.790  1.00  0.00    -0.550 OA
ATOM      9  O   UNL     1     -44.460 -45.825  40.416  1.00  0.00    -0.550 OA
ENDBRANCH   6   7
ENDBRANCH   5   6
ENDBRANCH   4   5
ENDBRANCH   3   4
ENDBRANCH   2   3
ENDBRANCH   1   2
BRANCH   1  10
ATOM     10  C   UNL     1     -47.924 -53.282  38.405  1.00  0.00     0.000 C 
BRANCH  10  11
ATOM     11  C   UNL     1     -47.476 -54.378  39.385  1.00  0.00    -0.000 C 
BRANCH  11  12
ATOM     12  C   UNL     1     -48.289 -54.372  40.691  1.00  0.00    -0.000 C 
BRANCH  12  13
ATOM     13  C   UNL     1     -49.097 -53.078  40.881  1.00  0.00    -0.000 C 
BRANCH  13  14
ATOM     14  C   UNL     1     -48.475 -52.202  41.979  1.00  0.00    -0.000 C 
BRANCH  14  15
ATOM     15  C   UNL     1     -47.945 -50.865  41.439  1.00  0.00    -0.003 C 
ATOM     16  C   UNL     1     -46.425 -50.850  41.283  1.00  0.00     0.004 C 
ENDBRANCH  14  15
ENDBRANCH  13  14
ENDBRANCH  12  13
ENDBRANCH  11  12
ENDBRANCH  10  11
ENDBRANCH   1  10
TORSDOF 12
ENDMDL
MODEL 3
REMARK VINA RESULT:    -3.527      3.236      5.840
REMARK INTER + INTRA:          -7.903
REMARK INTER:                  -6.286
REMARK INTRA:                  -1.618
REMARK UNBOUND:                -1.903
REMARK SMILES CCCCCCCCCCCCCC(=O)[O-]
REMARK SMILES IDX 8 1 9 2 10 3 11 4 12 5 13 6 14 7 15 8 16 9 7 10 6 11 5 12
REMARK SMILES IDX 4 13 3 14 2 15 1 16
REMARK H PARENT
REMARK Flexibility Score: inf
ROOT
ATOM      1  C   UNL     1     -46.641 -53.922  38.448  1.00  0.00     0.000 C 
ENDROOT
BRANCH   1   2
ATOM      2  C   UNL     1     -46.165 -52.713  37.623  1.00  0.00     0.000 C 
BRANCH   2   3
ATOM      3  C   UNL     1     -47.233 -51.612  37.504  1.00  0.00     0.000 C 
BRANCH   3   4
ATOM      4  C   UNL     1     -46.634 -50.242  37.147  1.00  0.00     0.000 C 
BRANCH   4   5
ATOM      5  C   UNL     1     -45.235 -50.355  36.519  1.00  0.00     0.006 C 
BRANCH   5   6
ATOM      6  C   UNL     1     -44.512 -49.002  36.468  1.00  0.00     0.053 C 
BRANCH   6   7
ATOM      7  C   UNL     1     -43.179 -49.108  35.793  1.00  0.00     0.041 C 
ATOM      8  O   UNL     1     -42.313 -49.914  36.225  1.00  0.00    -0.550 OA
ATOM      9  O   UNL     1     -42.882 -48.295  34.707  1.00  0.00    -0.550 OA
ENDBRANCH   6   7
ENDBRANCH   5   6
ENDBRANCH   4   5
ENDBRANCH   3   4
ENDBRANCH   2   3
ENDBRANCH   1   2
BRANCH   1  10
ATOM     10  C   UNL     1     -48.110 -53.862  38.904  1.00  0.00     0.000 C 
BRANCH  10  11
ATOM     11  C   UNL     1     -48.275 -54.055  40.420  1.00  0.00    -0.000 C 
BRANCH  11  12
ATOM     12  C   UNL     1     -49.161 -52.973  41.060  1.00  0.00    -0.000 C 
BRANCH  12  13
ATOM     13  C   UNL     1     -48.379 -52.045  42.003  1.00  0.00    -0.000 C 
BRANCH  13  14
ATOM     14  C   UNL     1     -47.565 -51.015  41.205  1.00  0.00    -0.000 C 
BRANCH  14  15
ATOM     15  C   UNL     1     -46.052 -51.271  41.280  1.00  0.00    -0.003 C 
ATOM     16  C   UNL     1     -45.237 -50.229  40.513  1.00  0.00     0.004 C 
ENDBRANCH  14  15
ENDBRANCH  13  14
ENDBRANCH  12  13
ENDBRANCH  11  12
ENDBRANCH  10  11
ENDBRANCH   1  10
TORSDOF 12
ENDMDL
MODEL 4
REMARK VINA RESULT:    -3.497      3.463      6.322
REMARK INTER + INTRA:          -7.854
REMARK INTER:                  -6.563
REMARK INTRA:                  -1.291
REMARK UNBOUND:                -1.903
REMARK SMILES CCCCCCCCCCCCCC(=O)[O-]
REMARK SMILES IDX 8 1 9 2 10 3 11 4 12 5 13 6 14 7 15 8 16 9 7 10 6 11 5 12
REMARK SMILES IDX 4 13 3 14 2 15 1 16
REMARK H PARENT
REMARK Flexibility Score: inf
ROOT
ATOM      1  C   UNL     1     -47.228 -52.610  37.179  1.00  0.00     0.000 C 
ENDROOT
BRANCH   1   2
ATOM      2  C   UNL     1     -47.033 -51.137  37.580  1.00  0.00     0.000 C 
BRANCH   2   3
ATOM      3  C   UNL     1     -45.566 -50.788  37.883  1.00  0.00     0.000 C 
BRANCH   3   4
ATOM      4  C   UNL     1     -45.373 -49.308  38.253  1.00  0.00     0.000 C 
BRANCH   4   5
ATOM      5  C   UNL     1     -44.231 -48.647  37.463  1.00  0.00     0.006 C 
BRANCH   5   6
ATOM      6  C   UNL     1     -44.148 -49.165  36.021  1.00  0.00     0.053 C 
BRANCH   6   7
ATOM      7  C   UNL     1     -42.838 -48.824  35.380  1.00  0.00     0.041 C 
ATOM      8  O   UNL     1     -42.812 -48.204  34.284  1.00  0.00    -0.550 OA
ATOM      9  O   UNL     1     -41.647 -49.217  35.977  1.00  0.00    -0.550 OA
ENDBRANCH   6   7
ENDBRANCH   5   6
ENDBRANCH   4   5
ENDBRANCH   3   4
ENDBRANCH   2   3
ENDBRANCH   1   2
BRANCH   1  10
ATOM     10  C   UNL     1     -48.107 -53.435  38.137  1.00  0.00     0.000 C 
BRANCH  10  11
ATOM     11  C   UNL     1     -47.305 -54.083  39.278  1.00  0.00    -0.000 C 
BRANCH  11  12
ATOM     12  C   UNL     1     -48.139 -54.263  40.557  1.00  0.00    -0.000 C 
BRANCH  12  13
ATOM     13  C   UNL     1     -49.142 -53.120  40.780  1.00  0.00    -0.000 C 
BRANCH  13  14
ATOM     14  C   UNL     1     -48.707 -52.232  41.956  1.00  0.00    -0.000 C 
BRANCH  14  15
ATOM     15  C   UNL     1     -48.037 -50.928  41.497  1.00  0.00    -0.003 C 
ATOM     16  C   UNL     1     -46.519 -51.053  41.380  1.00  0.00     0.004 C 
ENDBRANCH  14  15
ENDBRANCH  13  14
ENDBRANCH  12  13
ENDBRANCH  11  12
ENDBRANCH  10  11
ENDBRANCH   1  10
TORSDOF 12
ENDMDL
MODEL 5
REMARK VINA RESULT:    -3.450      1.092      1.876
REMARK INTER + INTRA:          -7.773
REMARK INTER:                  -5.742
REMARK INTRA:                  -2.031
REMARK UNBOUND:                -1.903
REMARK SMILES CCCCCCCCCCCCCC(=O)[O-]
REMARK SMILES IDX 8 1 9 2 10 3 11 4 12 5 13 6 14 7 15 8 16 9 7 10 6 11 5 12
REMARK SMILES IDX 4 13 3 14 2 15 1 16
REMARK H PARENT
REMARK Flexibility Score: inf
ROOT
ATOM      1  C   UNL     1     -45.165 -52.641  39.699  1.00  0.00     0.000 C 
ENDROOT
BRANCH   1   2
ATOM      2  C   UNL     1     -44.791 -51.253  40.250  1.00  0.00     0.000 C 
BRANCH   2   3
ATOM      3  C   UNL     1     -45.903 -50.634  41.114  1.00  0.00     0.000 C 
BRANCH   3   4
ATOM      4  C   UNL     1     -47.312 -50.978  40.603  1.00  0.00     0.000 C 
BRANCH   4   5
ATOM      5  C   UNL     1     -48.222 -51.531  41.712  1.00  0.00     0.006 C 
BRANCH   5   6
ATOM      6  C   UNL     1     -49.021 -52.757  41.248  1.00  0.00     0.053 C 
BRANCH   6   7
ATOM      7  C   UNL     1     -48.186 -54.000  41.250  1.00  0.00     0.041 C 
ATOM      8  O   UNL     1     -48.083 -54.696  40.205  1.00  0.00    -0.550 OA
ATOM      9  O   UNL     1     -47.547 -54.408  42.414  1.00  0.00    -0.550 OA
ENDBRANCH   6   7
ENDBRANCH   5   6
ENDBRANCH   4   5
ENDBRANCH   3   4
ENDBRANCH   2   3
ENDBRANCH   1   2
BRANCH   1  10
ATOM     10  C   UNL     1     -45.093 -52.774  38.167  1.00  0.00     0.000 C 
BRANCH  10  11
ATOM     11  C   UNL     1     -46.462 -53.056  37.525  1.00  0.00    -0.000 C 
BRANCH  11  12
ATOM     12  C   UNL     1     -47.225 -51.768  37.172  1.00  0.00    -0.000 C 
BRANCH  12  13
ATOM     13  C   UNL     1     -46.292 -50.619  36.758  1.00  0.00    -0.000 C 
BRANCH  13  14
ATOM     14  C   UNL     1     -46.730 -49.298  37.409  1.00  0.00    -0.000 C 
BRANCH  14  15
ATOM     15  C   UNL     1     -45.539 -48.448  37.878  1.00  0.00    -0.003 C 
ATOM     16  C   UNL     1     -44.255 -48.750  37.106  1.00  0.00     0.004 C 
ENDBRANCH  14  15
ENDBRANCH  13  14
ENDBRANCH  12  13
ENDBRANCH  11  12
ENDBRANCH  10  11
ENDBRANCH   1  10
TORSDOF 12
ENDMDL
MODEL 6
REMARK VINA RESULT:    -3.436      2.157      3.337
REMARK INTER + INTRA:          -7.749
REMARK INTER:                  -5.898
REMARK INTRA:                  -1.851
REMARK UNBOUND:                -1.903
REMARK SMILES CCCCCCCCCCCCCC(=O)[O-]
REMARK SMILES IDX 8 1 9 2 10 3 11 4 12 5 13 6 14 7 15 8 16 9 7 10 6 11 5 12
REMARK SMILES IDX 4 13 3 14 2 15 1 16
REMARK H PARENT
REMARK Flexibility Score: inf
ROOT
ATOM      1  C   UNL     1     -47.780 -54.410  40.558  1.00  0.00     0.000 C 
ENDROOT
BRANCH   1   2
ATOM      2  C   UNL     1     -48.853 -53.396  40.995  1.00  0.00     0.000 C 
BRANCH   2   3
ATOM      3  C   UNL     1     -48.363 -52.445  42.100  1.00  0.00     0.000 C 
BRANCH   3   4
ATOM      4  C   UNL     1     -48.214 -50.995  41.610  1.00  0.00     0.000 C 
BRANCH   4   5
ATOM      5  C   UNL     1     -46.942 -50.784  40.771  1.00  0.00     0.006 C 
BRANCH   5   6
ATOM      6  C   UNL     1     -45.696 -51.363  41.453  1.00  0.00     0.053 C 
BRANCH   6   7
ATOM      7  C   UNL     1     -44.437 -50.967  40.744  1.00  0.00     0.041 C 
ATOM      8  O   UNL     1     -43.798 -51.815  40.066  1.00  0.00    -0.550 OA
ATOM      9  O   UNL     1     -43.954 -49.670  40.855  1.00  0.00    -0.550 OA
ENDBRANCH   6   7
ENDBRANCH   5   6
ENDBRANCH   4   5
ENDBRANCH   3   4
ENDBRANCH   2   3
ENDBRANCH   1   2
BRANCH   1  10
ATOM     10  C   UNL     1     -47.165 -54.151  39.171  1.00  0.00     0.000 C 
BRANCH  10  11
ATOM     11  C   UNL     1     -48.192 -53.642  38.146  1.00  0.00    -0.000 C 
BRANCH  11  12
ATOM     12  C   UNL     1     -47.624 -52.538  37.239  1.00  0.00    -0.000 C 
BRANCH  12  13
ATOM     13  C   UNL     1     -46.132 -52.271  37.491  1.00  0.00    -0.000 C 
BRANCH  13  14
ATOM     14  C   UNL     1     -45.687 -50.968  36.808  1.00  0.00    -0.000 C 
BRANCH  14  15
ATOM     15  C   UNL     1     -46.574 -49.771  37.183  1.00  0.00    -0.003 C 
ATOM     16  C   UNL     1     -45.794 -48.647  37.864  1.00  0.00     0.004 C 
ENDBRANCH  14  15
ENDBRANCH  13  14
ENDBRANCH  12  13
ENDBRANCH  11  12
ENDBRANCH  10  11
ENDBRANCH   1  10
TORSDOF 12
ENDMDL
MODEL 7
REMARK VINA RESULT:    -3.407      3.163      5.200
REMARK INTER + INTRA:          -7.701
REMARK INTER:                  -6.229
REMARK INTRA:                  -1.472
REMARK UNBOUND:                -1.903
REMARK SMILES CCCCCCCCCCCCCC(=O)[O-]
REMARK SMILES IDX 8 1 9 2 10 3 11 4 12 5 13 6 14 7 15 8 16 9 7 10 6 11 5 12
REMARK SMILES IDX 4 13 3 14 2 15 1 16
REMARK H PARENT
REMARK Flexibility Score: inf
ROOT
ATOM      1  C   UNL     1     -48.629 -52.216  42.026  1.00  0.00     0.000 C 
ENDROOT
BRANCH   1   2
ATOM      2  C   UNL     1     -48.103 -50.814  41.669  1.00  0.00     0.000 C 
BRANCH   2   3
ATOM      3  C   UNL     1     -46.977 -50.845  40.622  1.00  0.00     0.000 C 
BRANCH   3   4
ATOM      4  C   UNL     1     -45.591 -51.067  41.249  1.00  0.00     0.000 C 
BRANCH   4   5
ATOM      5  C   UNL     1     -44.477 -50.317  40.499  1.00  0.00     0.006 C 
BRANCH   5   6
ATOM      6  C   UNL     1     -45.033 -49.214  39.589  1.00  0.00     0.053 C 
BRANCH   6   7
ATOM      7  C   UNL     1     -44.138 -48.014  39.556  1.00  0.00     0.041 C 
ATOM      8  O   UNL     1     -44.585 -46.880  39.875  1.00  0.00    -0.550 OA
ATOM      9  O   UNL     1     -42.818 -48.141  39.144  1.00  0.00    -0.550 OA
ENDBRANCH   6   7
ENDBRANCH   5   6
ENDBRANCH   4   5
ENDBRANCH   3   4
ENDBRANCH   2   3
ENDBRANCH   1   2
BRANCH   1  10
ATOM     10  C   UNL     1     -48.940 -53.121  40.820  1.00  0.00     0.000 C 
BRANCH  10  11
ATOM     11  C   UNL     1     -47.949 -54.288  40.676  1.00  0.00    -0.000 C 
BRANCH  11  12
ATOM     12  C   UNL     1     -47.723 -54.693  39.209  1.00  0.00    -0.000 C 
BRANCH  12  13
ATOM     13  C   UNL     1     -46.785 -53.730  38.464  1.00  0.00    -0.000 C 
BRANCH  13  14
ATOM     14  C   UNL     1     -47.568 -52.876  37.454  1.00  0.00    -0.000 C 
BRANCH  14  15
ATOM     15  C   UNL     1     -46.893 -51.524  37.176  1.00  0.00    -0.003 C 
ATOM     16  C   UNL     1     -45.387 -51.651  36.946  1.00  0.00     0.004 C 
ENDBRANCH  14  15
ENDBRANCH  13  14
ENDBRANCH  12  13
ENDBRANCH  11  12
ENDBRANCH  10  11
ENDBRANCH   1  10
TORSDOF 12
ENDMDL
MODEL 8
REMARK VINA RESULT:    -3.404      5.150      6.679
REMARK INTER + INTRA:          -7.694
REMARK INTER:                  -6.253
REMARK INTRA:                  -1.441
REMARK UNBOUND:                -1.903
REMARK SMILES CCCCCCCCCCCCCC(=O)[O-]
REMARK SMILES IDX 8 1 9 2 10 3 11 4 12 5 13 6 14 7 15 8 16 9 7 10 6 11 5 12
REMARK SMILES IDX 4 13 3 14 2 15 1 16
REMARK H PARENT
REMARK Flexibility Score: inf
ROOT
ATOM      1  C   UNL     1     -43.992 -50.560  36.537  1.00  0.00     0.000 C 
ENDROOT
BRANCH   1   2
ATOM      2  C   UNL     1     -45.440 -50.090  36.758  1.00  0.00     0.000 C 
BRANCH   2   3
ATOM      3  C   UNL     1     -45.525 -48.702  37.415  1.00  0.00     0.000 C 
BRANCH   3   4
ATOM      4  C   UNL     1     -44.919 -48.677  38.828  1.00  0.00     0.000 C 
BRANCH   4   5
ATOM      5  C   UNL     1     -43.604 -47.881  38.892  1.00  0.00     0.006 C 
BRANCH   5   6
ATOM      6  C   UNL     1     -43.314 -47.353  40.303  1.00  0.00     0.053 C 
BRANCH   6   7
ATOM      7  C   UNL     1     -43.488 -45.868  40.389  1.00  0.00     0.041 C 
ATOM      8  O   UNL     1     -42.481 -45.112  40.401  1.00  0.00    -0.550 OA
ATOM      9  O   UNL     1     -44.760 -45.320  40.489  1.00  0.00    -0.550 OA
ENDBRANCH   6   7
ENDBRANCH   5   6
ENDBRANCH   4   5
ENDBRANCH   3   4
ENDBRANCH   2   3
ENDBRANCH   1   2
BRANCH   1  10
ATOM     10  C   UNL     1     -43.618 -50.850  35.072  1.00  0.00     0.000 C 
BRANCH  10  11
ATOM     11  C   UNL     1     -43.446 -49.572  34.234  1.00  0.00    -0.000 C 
BRANCH  11  12
ATOM     12  C   UNL     1     -42.756 -48.442  35.016  1.00  0.00    -0.000 C 
BRANCH  12  13
ATOM     13  C   UNL     1     -41.366 -48.095  34.458  1.00  0.00    -0.000 C 
BRANCH  13  14
ATOM     14  C   UNL     1     -40.272 -48.387  35.496  1.00  0.00    -0.000 C 
BRANCH  14  15
ATOM     15  C   UNL     1     -40.843 -48.670  36.894  1.00  0.00    -0.003 C 
ATOM     16  C   UNL     1     -40.326 -49.978  37.491  1.00  0.00     0.004 C 
ENDBRANCH  14  15
ENDBRANCH  13  14
ENDBRANCH  12  13
ENDBRANCH  11  12
ENDBRANCH  10  11
ENDBRANCH   1  10
TORSDOF 12
ENDMDL
MODEL 9
REMARK VINA RESULT:    -3.394      2.537      5.603
REMARK INTER + INTRA:          -7.678
REMARK INTER:                  -5.685
REMARK INTRA:                  -1.993
REMARK UNBOUND:                -1.903
REMARK SMILES CCCCCCCCCCCCCC(=O)[O-]
REMARK SMILES IDX 8 1 9 2 10 3 11 4 12 5 13 6 14 7 15 8 16 9 7 10 6 11 5 12
REMARK SMILES IDX 4 13 3 14 2 15 1 16
REMARK H PARENT
REMARK Flexibility Score: inf
ROOT
ATOM      1  C   UNL     1     -45.837 -50.637  40.766  1.00  0.00     0.000 C 
ENDROOT
BRANCH   1   2
ATOM      2  C   UNL     1     -44.987 -51.915  40.887  1.00  0.00     0.000 C 
BRANCH   2   3
ATOM      3  C   UNL     1     -44.609 -52.514  39.521  1.00  0.00     0.000 C 
BRANCH   3   4
ATOM      4  C   UNL     1     -44.098 -51.454  38.531  1.00  0.00     0.000 C 
BRANCH   4   5
ATOM      5  C   UNL     1     -44.850 -51.489  37.190  1.00  0.00     0.006 C 
BRANCH   5   6
ATOM      6  C   UNL     1     -44.995 -50.093  36.570  1.00  0.00     0.053 C 
BRANCH   6   7
ATOM      7  C   UNL     1     -46.047 -49.282  37.261  1.00  0.00     0.041 C 
ATOM      8  O   UNL     1     -47.248 -49.662  37.252  1.00  0.00    -0.550 OA
ATOM      9  O   UNL     1     -45.707 -48.090  37.889  1.00  0.00    -0.550 OA
ENDBRANCH   6   7
ENDBRANCH   5   6
ENDBRANCH   4   5
ENDBRANCH   3   4
ENDBRANCH   2   3
ENDBRANCH   1   2
BRANCH   1  10
ATOM     10  C   UNL     1     -47.356 -50.873  40.668  1.00  0.00     0.000 C 
BRANCH  10  11
ATOM     11  C   UNL     1     -47.974 -51.350  41.993  1.00  0.00    -0.000 C 
BRANCH  11  12
ATOM     12  C   UNL     1     -48.483 -52.800  41.918  1.00  0.00    -0.000 C 
BRANCH  12  13
ATOM     13  C   UNL     1     -48.760 -53.259  40.478  1.00  0.00    -0.000 C 
BRANCH  13  14
ATOM     14  C   UNL     1     -47.882 -54.465  40.110  1.00  0.00    -0.000 C 
BRANCH  14  15
ATOM     15  C   UNL     1     -47.550 -54.518  38.611  1.00  0.00    -0.003 C 
ATOM     16  C   UNL     1     -47.967 -53.249  37.867  1.00  0.00     0.004 C 
ENDBRANCH  14  15
ENDBRANCH  13  14
ENDBRANCH  12  13
ENDBRANCH  11  12
ENDBRANCH  10  11
ENDBRANCH   1  10
TORSDOF 12
ENDMDL
