MODEL 1
REMARK VINA RESULT:    -3.497      0.000      0.000
REMARK INTER + INTRA:         -14.653
REMARK INTER:                  -8.811
REMARK INTRA:                  -5.842
REMARK UNBOUND:                -5.842
REMARK SMILES CCCCCCCCCCCCCCCCCCCCCCCCCCCC(=O)[O-]
REMARK SMILES IDX 15 1 16 2 17 3 18 4 19 5 20 6 21 7 22 8 23 9 24 10 25 11
REMARK SMILES IDX 26 12 27 13 28 14 29 15 30 16 14 17 13 18 12 19 11 20 10 21
REMARK SMILES IDX 9 22 8 23 7 24 6 25 5 26 4 27 3 28 2 29 1 30
REMARK H PARENT
REMARK Flexibility Score: inf
ROOT
ATOM      1  C   UNL     1     130.106 144.392 112.241  1.00  0.00     0.000 C 
ENDROOT
BRANCH   1   2
ATOM      2  C   UNL     1     128.592 144.235 112.008  1.00  0.00     0.000 C 
BRANCH   2   3
ATOM      3  C   UNL     1     128.263 143.179 110.940  1.00  0.00     0.000 C 
BRANCH   3   4
ATOM      4  C   UNL     1     127.638 143.793 109.678  1.00  0.00     0.000 C 
BRANCH   4   5
ATOM      5  C   UNL     1     127.358 145.288 109.869  1.00  0.00     0.000 C 
BRANCH   5   6
ATOM      6  C   UNL     1     127.625 146.067 108.572  1.00  0.00     0.000 C 
BRANCH   6   7
ATOM      7  C   UNL     1     126.978 145.413 107.342  1.00  0.00     0.000 C 
BRANCH   7   8
ATOM      8  C   UNL     1     127.788 145.645 106.055  1.00  0.00     0.000 C 
BRANCH   8   9
ATOM      9  C   UNL     1     128.127 144.336 105.326  1.00  0.00     0.000 C 
BRANCH   9  10
ATOM     10  C   UNL     1     127.455 143.109 105.960  1.00  0.00     0.000 C 
BRANCH  10  11
ATOM     11  C   UNL     1     128.490 142.218 106.665  1.00  0.00     0.000 C 
BRANCH  11  12
ATOM     12  C   UNL     1     129.721 141.923 105.786  1.00  0.00     0.006 C 
BRANCH  12  13
ATOM     13  C   UNL     1     130.793 141.061 106.470  1.00  0.00     0.053 C 
BRANCH  13  14
ATOM     14  C   UNL     1     130.615 139.604 106.172  1.00  0.00     0.041 C 
ATOM     15  O   UNL     1     129.759 138.929 106.802  1.00  0.00    -0.550 OA
ATOM     16  O   UNL     1     131.417 138.986 105.221  1.00  0.00    -0.550 OA
ENDBRANCH  13  14
ENDBRANCH  12  13
ENDBRANCH  11  12
ENDBRANCH  10  11
ENDBRANCH   9  10
ENDBRANCH   8   9
ENDBRANCH   7   8
ENDBRANCH   6   7
ENDBRANCH   5   6
ENDBRANCH   4   5
ENDBRANCH   3   4
ENDBRANCH   2   3
ENDBRANCH   1   2
BRANCH   1  17
ATOM     17  C   UNL     1     130.619 145.784 111.814  1.00  0.00     0.000 C 
BRANCH  17  18
ATOM     18  C   UNL     1     131.164 145.834 110.377  1.00  0.00     0.000 C 
BRANCH  18  19
ATOM     19  C   UNL     1     131.460 144.439 109.798  1.00  0.00     0.000 C 
BRANCH  19  20
ATOM     20  C   UNL     1     131.144 144.336 108.291  1.00  0.00     0.000 C 
BRANCH  20  21
ATOM     21  C   UNL     1     131.085 145.692 107.563  1.00  0.00     0.000 C 
BRANCH  21  22
ATOM     22  C   UNL     1     131.683 145.706 106.146  1.00  0.00    -0.000 C 
BRANCH  22  23
ATOM     23  C   UNL     1     132.388 144.388 105.782  1.00  0.00    -0.000 C 
BRANCH  23  24
ATOM     24  C   UNL     1     133.804 144.603 105.212  1.00  0.00    -0.000 C 
BRANCH  24  25
ATOM     25  C   UNL     1     134.421 145.984 105.503  1.00  0.00    -0.000 C 
BRANCH  25  26
ATOM     26  C   UNL     1     135.824 145.896 106.123  1.00  0.00    -0.000 C 
BRANCH  26  27
ATOM     27  C   UNL     1     135.798 146.296 107.605  1.00  0.00    -0.000 C 
BRANCH  27  28
ATOM     28  C   UNL     1     134.781 145.485 108.425  1.00  0.00    -0.000 C 
BRANCH  28  29
ATOM     29  C   UNL     1     135.353 144.169 108.994  1.00  0.00    -0.003 C 
ATOM     30  C   UNL     1     134.607 142.940 108.473  1.00  0.00     0.004 C 
ENDBRANCH  28  29
ENDBRANCH  27  28
ENDBRANCH  26  27
ENDBRANCH  25  26
ENDBRANCH  24  25
ENDBRANCH  23  24
ENDBRANCH  22  23
ENDBRANCH  21  22
ENDBRANCH  20  21
ENDBRANCH  19  20
ENDBRANCH  18  19
ENDBRANCH  17  18
ENDBRANCH   1  17
TORSDOF 26
ENDMDL
MODEL 2
REMARK VINA RESULT:    -3.437      1.658      4.629
REMARK INTER + INTRA:         -14.502
REMARK INTER:                  -8.836
REMARK INTRA:                  -5.666
REMARK UNBOUND:                -5.842
REMARK SMILES CCCCCCCCCCCCCCCCCCCCCCCCCCCC(=O)[O-]
REMARK SMILES IDX 15 1 16 2 17 3 18 4 19 5 20 6 21 7 22 8 23 9 24 10 25 11
REMARK SMILES IDX 26 12 27 13 28 14 29 15 30 16 14 17 13 18 12 19 11 20 10 21
REMARK SMILES IDX 9 22 8 23 7 24 6 25 5 26 4 27 3 28 2 29 1 30
REMARK H PARENT
REMARK Flexibility Score: inf
ROOT
ATOM      1  C   UNL     1     132.368 143.048 106.549  1.00  0.00     0.000 C 
ENDROOT
BRANCH   1   2
ATOM      2  C   UNL     1     131.352 143.879 105.744  1.00  0.00     0.000 C 
BRANCH   2   3
ATOM      3  C   UNL     1     131.361 145.366 106.134  1.00  0.00     0.000 C 
BRANCH   3   4
ATOM      4  C   UNL     1     129.990 146.033 105.944  1.00  0.00     0.000 C 
BRANCH   4   5
ATOM      5  C   UNL     1     129.042 145.689 107.099  1.00  0.00     0.000 C 
BRANCH   5   6
ATOM      6  C   UNL     1     127.603 145.506 106.592  1.00  0.00     0.000 C 
BRANCH   6   7
ATOM      7  C   UNL     1     127.531 145.300 105.071  1.00  0.00     0.000 C 
BRANCH   7   8
ATOM      8  C   UNL     1     127.691 143.824 104.667  1.00  0.00     0.000 C 
BRANCH   8   9
ATOM      9  C   UNL     1     127.249 142.857 105.775  1.00  0.00     0.000 C 
BRANCH   9  10
ATOM     10  C   UNL     1     128.358 141.878 106.190  1.00  0.00     0.000 C 
BRANCH  10  11
ATOM     11  C   UNL     1     128.712 142.046 107.676  1.00  0.00     0.000 C 
BRANCH  11  12
ATOM     12  C   UNL     1     129.610 140.913 108.208  1.00  0.00     0.006 C 
BRANCH  12  13
ATOM     13  C   UNL     1     128.884 139.903 109.111  1.00  0.00     0.053 C 
BRANCH  13  14
ATOM     14  C   UNL     1     128.424 138.700 108.348  1.00  0.00     0.041 C 
ATOM     15  O   UNL     1     129.171 137.692 108.244  1.00  0.00    -0.550 OA
ATOM     16  O   UNL     1     127.182 138.703 107.727  1.00  0.00    -0.550 OA
ENDBRANCH  13  14
ENDBRANCH  12  13
ENDBRANCH  11  12
ENDBRANCH  10  11
ENDBRANCH   9  10
ENDBRANCH   8   9
ENDBRANCH   7   8
ENDBRANCH   6   7
ENDBRANCH   5   6
ENDBRANCH   4   5
ENDBRANCH   3   4
ENDBRANCH   2   3
ENDBRANCH   1   2
BRANCH   1  17
ATOM     17  C   UNL     1     133.362 142.298 105.637  1.00  0.00     0.000 C 
BRANCH  17  18
ATOM     18  C   UNL     1     133.585 142.972 104.272  1.00  0.00     0.000 C 
BRANCH  18  19
ATOM     19  C   UNL     1     134.891 143.785 104.211  1.00  0.00     0.000 C 
BRANCH  19  20
ATOM     20  C   UNL     1     134.649 145.309 104.228  1.00  0.00     0.000 C 
BRANCH  20  21
ATOM     21  C   UNL     1     134.924 145.979 105.587  1.00  0.00     0.000 C 
BRANCH  21  22
ATOM     22  C   UNL     1     135.668 145.108 106.613  1.00  0.00    -0.000 C 
BRANCH  22  23
ATOM     23  C   UNL     1     135.385 145.525 108.067  1.00  0.00    -0.000 C 
BRANCH  23  24
ATOM     24  C   UNL     1     134.067 146.308 108.222  1.00  0.00    -0.000 C 
BRANCH  24  25
ATOM     25  C   UNL     1     133.080 145.727 109.251  1.00  0.00    -0.000 C 
BRANCH  25  26
ATOM     26  C   UNL     1     133.538 144.380 109.829  1.00  0.00    -0.000 C 
BRANCH  26  27
ATOM     27  C   UNL     1     132.337 143.527 110.262  1.00  0.00    -0.000 C 
BRANCH  27  28
ATOM     28  C   UNL     1     130.987 144.179 109.917  1.00  0.00    -0.000 C 
BRANCH  28  29
ATOM     29  C   UNL     1     129.828 143.723 110.829  1.00  0.00    -0.003 C 
ATOM     30  C   UNL     1     128.544 144.512 110.573  1.00  0.00     0.004 C 
ENDBRANCH  28  29
ENDBRANCH  27  28
ENDBRANCH  26  27
ENDBRANCH  25  26
ENDBRANCH  24  25
ENDBRANCH  23  24
ENDBRANCH  22  23
ENDBRANCH  21  22
ENDBRANCH  20  21
ENDBRANCH  19  20
ENDBRANCH  18  19
ENDBRANCH  17  18
ENDBRANCH   1  17
TORSDOF 26
ENDMDL
MODEL 3
REMARK VINA RESULT:    -3.398      3.008      7.270
REMARK INTER + INTRA:         -14.404
REMARK INTER:                  -9.635
REMARK INTRA:                  -4.769
REMARK UNBOUND:                -5.842
REMARK SMILES CCCCCCCCCCCCCCCCCCCCCCCCCCCC(=O)[O-]
REMARK SMILES IDX 15 1 16 2 17 3 18 4 19 5 20 6 21 7 22 8 23 9 24 10 25 11
REMARK SMILES IDX 26 12 27 13 28 14 29 15 30 16 14 17 13 18 12 19 11 20 10 21
REMARK SMILES IDX 9 22 8 23 7 24 6 25 5 26 4 27 3 28 2 29 1 30
REMARK H PARENT
REMARK Flexibility Score: inf
ROOT
ATOM      1  C   UNL     1     130.447 143.101 107.623  1.00  0.00     0.000 C 
ENDROOT
BRANCH   1   2
ATOM      2  C   UNL     1     130.957 143.587 106.253  1.00  0.00     0.000 C 
BRANCH   2   3
ATOM      3  C   UNL     1     130.945 145.119 106.125  1.00  0.00     0.000 C 
BRANCH   3   4
ATOM      4  C   UNL     1     131.601 145.815 107.327  1.00  0.00     0.000 C 
BRANCH   4   5
ATOM      5  C   UNL     1     132.749 146.727 106.879  1.00  0.00     0.000 C 
BRANCH   5   6
ATOM      6  C   UNL     1     132.962 146.636 105.361  1.00  0.00     0.000 C 
BRANCH   6   7
ATOM      7  C   UNL     1     134.371 146.151 104.986  1.00  0.00     0.000 C 
BRANCH   7   8
ATOM      8  C   UNL     1     134.375 144.710 104.445  1.00  0.00     0.000 C 
BRANCH   8   9
ATOM      9  C   UNL     1     135.365 143.802 105.191  1.00  0.00     0.000 C 
BRANCH   9  10
ATOM     10  C   UNL     1     134.683 142.917 106.246  1.00  0.00     0.000 C 
BRANCH  10  11
ATOM     11  C   UNL     1     134.606 143.639 107.601  1.00  0.00     0.000 C 
BRANCH  11  12
ATOM     12  C   UNL     1     135.971 144.174 108.072  1.00  0.00     0.006 C 
BRANCH  12  13
ATOM     13  C   UNL     1     135.993 145.683 108.357  1.00  0.00     0.053 C 
BRANCH  13  14
ATOM     14  C   UNL     1     137.241 146.332 107.844  1.00  0.00     0.041 C 
ATOM     15  O   UNL     1     138.115 146.750 108.648  1.00  0.00    -0.550 OA
ATOM     16  O   UNL     1     137.425 146.503 106.478  1.00  0.00    -0.550 OA
ENDBRANCH  13  14
ENDBRANCH  12  13
ENDBRANCH  11  12
ENDBRANCH  10  11
ENDBRANCH   9  10
ENDBRANCH   8   9
ENDBRANCH   7   8
ENDBRANCH   6   7
ENDBRANCH   5   6
ENDBRANCH   4   5
ENDBRANCH   3   4
ENDBRANCH   2   3
ENDBRANCH   1   2
BRANCH   1  17
ATOM     17  C   UNL     1     129.119 142.323 107.507  1.00  0.00     0.000 C 
BRANCH  17  18
ATOM     18  C   UNL     1     128.589 142.204 106.068  1.00  0.00     0.000 C 
BRANCH  18  19
ATOM     19  C   UNL     1     127.333 143.058 105.818  1.00  0.00     0.000 C 
BRANCH  19  20
ATOM     20  C   UNL     1     127.623 144.315 104.972  1.00  0.00     0.000 C 
BRANCH  20  21
ATOM     21  C   UNL     1     127.348 145.645 105.699  1.00  0.00     0.000 C 
BRANCH  21  22
ATOM     22  C   UNL     1     126.875 145.515 107.156  1.00  0.00    -0.000 C 
BRANCH  22  23
ATOM     23  C   UNL     1     127.940 145.964 108.172  1.00  0.00    -0.000 C 
BRANCH  23  24
ATOM     24  C   UNL     1     127.866 145.185 109.500  1.00  0.00    -0.000 C 
BRANCH  24  25
ATOM     25  C   UNL     1     129.147 145.231 110.355  1.00  0.00    -0.000 C 
BRANCH  25  26
ATOM     26  C   UNL     1     129.291 144.018 111.285  1.00  0.00    -0.000 C 
BRANCH  26  27
ATOM     27  C   UNL     1     128.370 144.147 112.507  1.00  0.00    -0.000 C 
BRANCH  27  28
ATOM     28  C   UNL     1     129.145 144.303 113.826  1.00  0.00    -0.000 C 
BRANCH  28  29
ATOM     29  C   UNL     1     128.608 145.432 114.731  1.00  0.00    -0.003 C 
ATOM     30  C   UNL     1     127.280 145.063 115.391  1.00  0.00     0.004 C 
ENDBRANCH  28  29
ENDBRANCH  27  28
ENDBRANCH  26  27
ENDBRANCH  25  26
ENDBRANCH  24  25
ENDBRANCH  23  24
ENDBRANCH  22  23
ENDBRANCH  21  22
ENDBRANCH  20  21
ENDBRANCH  19  20
ENDBRANCH  18  19
ENDBRANCH  17  18
ENDBRANCH   1  17
TORSDOF 26
ENDMDL
MODEL 4
REMARK VINA RESULT:    -3.384      3.054      6.249
REMARK INTER + INTRA:         -14.369
REMARK INTER:                 -10.372
REMARK INTRA:                  -3.997
REMARK UNBOUND:                -5.842
REMARK SMILES CCCCCCCCCCCCCCCCCCCCCCCCCCCC(=O)[O-]
REMARK SMILES IDX 15 1 16 2 17 3 18 4 19 5 20 6 21 7 22 8 23 9 24 10 25 11
REMARK SMILES IDX 26 12 27 13 28 14 29 15 30 16 14 17 13 18 12 19 11 20 10 21
REMARK SMILES IDX 9 22 8 23 7 24 6 25 5 26 4 27 3 28 2 29 1 30
REMARK H PARENT
REMARK Flexibility Score: inf
ROOT
ATOM      1  C   UNL     1     129.391 142.126 105.862  1.00  0.00     0.000 C 
ENDROOT
BRANCH   1   2
ATOM      2  C   UNL     1     128.112 141.313 106.138  1.00  0.00     0.000 C 
BRANCH   2   3
ATOM      3  C   UNL     1     128.144 140.602 107.500  1.00  0.00     0.000 C 
BRANCH   3   4
ATOM      4  C   UNL     1     128.997 141.351 108.536  1.00  0.00     0.000 C 
BRANCH   4   5
ATOM      5  C   UNL     1     128.277 141.436 109.888  1.00  0.00     0.000 C 
BRANCH   5   6
ATOM      6  C   UNL     1     128.695 142.702 110.652  1.00  0.00     0.000 C 
BRANCH   6   7
ATOM      7  C   UNL     1     127.495 143.475 111.222  1.00  0.00     0.000 C 
BRANCH   7   8
ATOM      8  C   UNL     1     127.893 144.414 112.375  1.00  0.00     0.000 C 
BRANCH   8   9
ATOM      9  C   UNL     1     129.396 144.732 112.386  1.00  0.00     0.000 C 
BRANCH   9  10
ATOM     10  C   UNL     1     130.012 144.652 113.791  1.00  0.00     0.000 C 
BRANCH  10  11
ATOM     11  C   UNL     1     129.987 146.025 114.481  1.00  0.00     0.000 C 
BRANCH  11  12
ATOM     12  C   UNL     1     131.068 146.982 113.947  1.00  0.00     0.006 C 
BRANCH  12  13
ATOM     13  C   UNL     1     132.498 146.424 114.018  1.00  0.00     0.053 C 
BRANCH  13  14
ATOM     14  C   UNL     1     133.065 146.160 112.658  1.00  0.00     0.041 C 
ATOM     15  O   UNL     1     134.224 145.683 112.536  1.00  0.00    -0.550 OA
ATOM     16  O   UNL     1     132.325 146.469 111.524  1.00  0.00    -0.550 OA
ENDBRANCH  13  14
ENDBRANCH  12  13
ENDBRANCH  11  12
ENDBRANCH  10  11
ENDBRANCH   9  10
ENDBRANCH   8   9
ENDBRANCH   7   8
ENDBRANCH   6   7
ENDBRANCH   5   6
ENDBRANCH   4   5
ENDBRANCH   3   4
ENDBRANCH   2   3
ENDBRANCH   1   2
BRANCH   1  17
ATOM     17  C   UNL     1     129.100 143.420 105.073  1.00  0.00     0.000 C 
BRANCH  17  18
ATOM     18  C   UNL     1     127.608 143.786 105.004  1.00  0.00     0.000 C 
BRANCH  18  19
ATOM     19  C   UNL     1     127.260 145.043 105.823  1.00  0.00     0.000 C 
BRANCH  19  20
ATOM     20  C   UNL     1     127.257 144.785 107.344  1.00  0.00     0.000 C 
BRANCH  20  21
ATOM     21  C   UNL     1     127.554 146.032 108.198  1.00  0.00     0.000 C 
BRANCH  21  22
ATOM     22  C   UNL     1     128.911 146.030 108.920  1.00  0.00    -0.000 C 
BRANCH  22  23
ATOM     23  C   UNL     1     129.914 145.039 108.304  1.00  0.00    -0.000 C 
BRANCH  23  24
ATOM     24  C   UNL     1     131.127 145.737 107.659  1.00  0.00    -0.000 C 
BRANCH  24  25
ATOM     25  C   UNL     1     130.898 146.250 106.225  1.00  0.00    -0.000 C 
BRANCH  25  26
ATOM     26  C   UNL     1     132.152 146.888 105.609  1.00  0.00    -0.000 C 
BRANCH  26  27
ATOM     27  C   UNL     1     133.389 146.008 105.840  1.00  0.00    -0.000 C 
BRANCH  27  28
ATOM     28  C   UNL     1     134.402 146.087 104.685  1.00  0.00    -0.000 C 
BRANCH  28  29
ATOM     29  C   UNL     1     134.735 144.717 104.058  1.00  0.00    -0.003 C 
ATOM     30  C   UNL     1     134.677 143.582 105.080  1.00  0.00     0.004 C 
ENDBRANCH  28  29
ENDBRANCH  27  28
ENDBRANCH  26  27
ENDBRANCH  25  26
ENDBRANCH  24  25
ENDBRANCH  23  24
ENDBRANCH  22  23
ENDBRANCH  21  22
ENDBRANCH  20  21
ENDBRANCH  19  20
ENDBRANCH  18  19
ENDBRANCH  17  18
ENDBRANCH   1  17
TORSDOF 26
ENDMDL
MODEL 5
REMARK VINA RESULT:    -3.367      1.285      4.838
REMARK INTER + INTRA:         -14.328
REMARK INTER:                  -8.715
REMARK INTRA:                  -5.613
REMARK UNBOUND:                -5.842
REMARK SMILES CCCCCCCCCCCCCCCCCCCCCCCCCCCC(=O)[O-]
REMARK SMILES IDX 15 1 16 2 17 3 18 4 19 5 20 6 21 7 22 8 23 9 24 10 25 11
REMARK SMILES IDX 26 12 27 13 28 14 29 15 30 16 14 17 13 18 12 19 11 20 10 21
REMARK SMILES IDX 9 22 8 23 7 24 6 25 5 26 4 27 3 28 2 29 1 30
REMARK H PARENT
REMARK Flexibility Score: inf
ROOT
ATOM      1  C   UNL     1     127.689 141.136 107.954  1.00  0.00     0.000 C 
ENDROOT
BRANCH   1   2
ATOM      2  C   UNL     1     128.701 141.924 108.806  1.00  0.00     0.000 C 
BRANCH   2   3
ATOM      3  C   UNL     1     128.070 142.526 110.072  1.00  0.00     0.000 C 
BRANCH   3   4
ATOM      4  C   UNL     1     129.117 142.901 111.132  1.00  0.00     0.000 C 
BRANCH   4   5
ATOM      5  C   UNL     1     128.799 144.260 111.767  1.00  0.00     0.000 C 
BRANCH   5   6
ATOM      6  C   UNL     1     130.059 144.884 112.386  1.00  0.00     0.000 C 
BRANCH   6   7
ATOM      7  C   UNL     1     130.808 145.804 111.409  1.00  0.00     0.000 C 
BRANCH   7   8
ATOM      8  C   UNL     1     132.333 145.600 111.458  1.00  0.00     0.000 C 
BRANCH   8   9
ATOM      9  C   UNL     1     132.804 144.453 110.551  1.00  0.00     0.000 C 
BRANCH   9  10
ATOM     10  C   UNL     1     133.680 144.936 109.385  1.00  0.00     0.000 C 
BRANCH  10  11
ATOM     11  C   UNL     1     134.117 143.757 108.502  1.00  0.00     0.000 C 
BRANCH  11  12
ATOM     12  C   UNL     1     133.123 142.582 108.538  1.00  0.00     0.006 C 
BRANCH  12  13
ATOM     13  C   UNL     1     132.135 142.553 107.362  1.00  0.00     0.053 C 
BRANCH  13  14
ATOM     14  C   UNL     1     132.085 141.208 106.705  1.00  0.00     0.041 C 
ATOM     15  O   UNL     1     132.621 141.033 105.578  1.00  0.00    -0.550 OA
ATOM     16  O   UNL     1     131.420 140.157 107.322  1.00  0.00    -0.550 OA
ENDBRANCH  13  14
ENDBRANCH  12  13
ENDBRANCH  11  12
ENDBRANCH  10  11
ENDBRANCH   9  10
ENDBRANCH   8   9
ENDBRANCH   7   8
ENDBRANCH   6   7
ENDBRANCH   5   6
ENDBRANCH   4   5
ENDBRANCH   3   4
ENDBRANCH   2   3
ENDBRANCH   1   2
BRANCH   1  17
ATOM     17  C   UNL     1     127.474 141.776 106.566  1.00  0.00     0.000 C 
BRANCH  17  18
ATOM     18  C   UNL     1     128.768 142.277 105.903  1.00  0.00     0.000 C 
BRANCH  18  19
ATOM     19  C   UNL     1     128.548 143.514 105.014  1.00  0.00     0.000 C 
BRANCH  19  20
ATOM     20  C   UNL     1     127.205 144.221 105.294  1.00  0.00     0.000 C 
BRANCH  20  21
ATOM     21  C   UNL     1     127.334 145.524 106.106  1.00  0.00     0.000 C 
BRANCH  21  22
ATOM     22  C   UNL     1     127.167 145.372 107.627  1.00  0.00    -0.000 C 
BRANCH  22  23
ATOM     23  C   UNL     1     128.367 145.921 108.418  1.00  0.00    -0.000 C 
BRANCH  23  24
ATOM     24  C   UNL     1     129.678 145.171 108.115  1.00  0.00    -0.000 C 
BRANCH  24  25
ATOM     25  C   UNL     1     130.851 146.061 107.665  1.00  0.00    -0.000 C 
BRANCH  25  26
ATOM     26  C   UNL     1     131.067 146.046 106.144  1.00  0.00    -0.000 C 
BRANCH  26  27
ATOM     27  C   UNL     1     132.471 146.553 105.781  1.00  0.00    -0.000 C 
BRANCH  27  28
ATOM     28  C   UNL     1     133.418 145.423 105.343  1.00  0.00    -0.000 C 
BRANCH  28  29
ATOM     29  C   UNL     1     134.730 145.927 104.705  1.00  0.00    -0.003 C 
ATOM     30  C   UNL     1     135.822 146.177 105.746  1.00  0.00     0.004 C 
ENDBRANCH  28  29
ENDBRANCH  27  28
ENDBRANCH  26  27
ENDBRANCH  25  26
ENDBRANCH  24  25
ENDBRANCH  23  24
ENDBRANCH  22  23
ENDBRANCH  21  22
ENDBRANCH  20  21
ENDBRANCH  19  20
ENDBRANCH  18  19
ENDBRANCH  17  18
ENDBRANCH   1  17
TORSDOF 26
ENDMDL
MODEL 6
REMARK VINA RESULT:    -3.339      2.734      7.151
REMARK INTER + INTRA:         -14.256
REMARK INTER:                  -8.994
REMARK INTRA:                  -5.261
REMARK UNBOUND:                -5.842
REMARK SMILES CCCCCCCCCCCCCCCCCCCCCCCCCCCC(=O)[O-]
REMARK SMILES IDX 15 1 16 2 17 3 18 4 19 5 20 6 21 7 22 8 23 9 24 10 25 11
REMARK SMILES IDX 26 12 27 13 28 14 29 15 30 16 14 17 13 18 12 19 11 20 10 21
REMARK SMILES IDX 9 22 8 23 7 24 6 25 5 26 4 27 3 28 2 29 1 30
REMARK H PARENT
REMARK Flexibility Score: inf
ROOT
ATOM      1  C   UNL     1     131.143 146.017 106.766  1.00  0.00     0.000 C 
ENDROOT
BRANCH   1   2
ATOM      2  C   UNL     1     132.129 146.735 105.825  1.00  0.00     0.000 C 
BRANCH   2   3
ATOM      3  C   UNL     1     133.589 146.324 106.073  1.00  0.00     0.000 C 
BRANCH   3   4
ATOM      4  C   UNL     1     134.336 145.988 104.773  1.00  0.00     0.000 C 
BRANCH   4   5
ATOM      5  C   UNL     1     134.987 144.602 104.851  1.00  0.00     0.000 C 
BRANCH   5   6
ATOM      6  C   UNL     1     134.265 143.604 103.933  1.00  0.00     0.000 C 
BRANCH   6   7
ATOM      7  C   UNL     1     133.125 142.858 104.645  1.00  0.00     0.000 C 
BRANCH   7   8
ATOM      8  C   UNL     1     133.336 142.774 106.167  1.00  0.00     0.000 C 
BRANCH   8   9
ATOM      9  C   UNL     1     132.140 142.139 106.894  1.00  0.00     0.000 C 
BRANCH   9  10
ATOM     10  C   UNL     1     132.299 142.147 108.422  1.00  0.00     0.000 C 
BRANCH  10  11
ATOM     11  C   UNL     1     132.665 143.551 108.929  1.00  0.00     0.000 C 
BRANCH  11  12
ATOM     12  C   UNL     1     131.939 143.923 110.236  1.00  0.00     0.006 C 
BRANCH  12  13
ATOM     13  C   UNL     1     131.561 145.408 110.348  1.00  0.00     0.053 C 
BRANCH  13  14
ATOM     14  C   UNL     1     130.078 145.611 110.324  1.00  0.00     0.041 C 
ATOM     15  O   UNL     1     129.582 146.586 109.700  1.00  0.00    -0.550 OA
ATOM     16  O   UNL     1     129.245 144.743 111.018  1.00  0.00    -0.550 OA
ENDBRANCH  13  14
ENDBRANCH  12  13
ENDBRANCH  11  12
ENDBRANCH  10  11
ENDBRANCH   9  10
ENDBRANCH   8   9
ENDBRANCH   7   8
ENDBRANCH   6   7
ENDBRANCH   5   6
ENDBRANCH   4   5
ENDBRANCH   3   4
ENDBRANCH   2   3
ENDBRANCH   1   2
BRANCH   1  17
ATOM     17  C   UNL     1     130.223 145.037 106.007  1.00  0.00     0.000 C 
BRANCH  17  18
ATOM     18  C   UNL     1     128.795 145.565 105.787  1.00  0.00     0.000 C 
BRANCH  18  19
ATOM     19  C   UNL     1     127.862 144.523 105.146  1.00  0.00     0.000 C 
BRANCH  19  20
ATOM     20  C   UNL     1     128.368 143.076 105.322  1.00  0.00     0.000 C 
BRANCH  20  21
ATOM     21  C   UNL     1     127.358 142.131 106.001  1.00  0.00     0.000 C 
BRANCH  21  22
ATOM     22  C   UNL     1     127.230 142.287 107.525  1.00  0.00    -0.000 C 
BRANCH  22  23
ATOM     23  C   UNL     1     128.579 142.564 108.213  1.00  0.00    -0.000 C 
BRANCH  23  24
ATOM     24  C   UNL     1     128.842 141.634 109.413  1.00  0.00    -0.000 C 
BRANCH  24  25
ATOM     25  C   UNL     1     128.712 140.129 109.113  1.00  0.00    -0.000 C 
BRANCH  25  26
ATOM     26  C   UNL     1     130.045 139.375 109.230  1.00  0.00    -0.000 C 
BRANCH  26  27
ATOM     27  C   UNL     1     130.395 138.664 107.915  1.00  0.00    -0.000 C 
BRANCH  27  28
ATOM     28  C   UNL     1     129.793 139.360 106.682  1.00  0.00    -0.000 C 
BRANCH  28  29
ATOM     29  C   UNL     1     129.226 138.380 105.633  1.00  0.00    -0.003 C 
ATOM     30  C   UNL     1     127.706 138.482 105.506  1.00  0.00     0.004 C 
ENDBRANCH  28  29
ENDBRANCH  27  28
ENDBRANCH  26  27
ENDBRANCH  25  26
ENDBRANCH  24  25
ENDBRANCH  23  24
ENDBRANCH  22  23
ENDBRANCH  21  22
ENDBRANCH  20  21
ENDBRANCH  19  20
ENDBRANCH  18  19
ENDBRANCH  17  18
ENDBRANCH   1  17
TORSDOF 26
ENDMDL
MODEL 7
REMARK VINA RESULT:    -3.329      1.947      5.589
REMARK INTER + INTRA:         -14.231
REMARK INTER:                  -8.429
REMARK INTRA:                  -5.801
REMARK UNBOUND:                -5.842
REMARK SMILES CCCCCCCCCCCCCCCCCCCCCCCCCCCC(=O)[O-]
REMARK SMILES IDX 15 1 16 2 17 3 18 4 19 5 20 6 21 7 22 8 23 9 24 10 25 11
REMARK SMILES IDX 26 12 27 13 28 14 29 15 30 16 14 17 13 18 12 19 11 20 10 21
REMARK SMILES IDX 9 22 8 23 7 24 6 25 5 26 4 27 3 28 2 29 1 30
REMARK H PARENT
REMARK Flexibility Score: inf
ROOT
ATOM      1  C   UNL     1     131.953 145.973 107.245  1.00  0.00     0.000 C 
ENDROOT
BRANCH   1   2
ATOM      2  C   UNL     1     133.383 146.074 106.682  1.00  0.00     0.000 C 
BRANCH   2   3
ATOM      3  C   UNL     1     133.409 146.463 105.195  1.00  0.00     0.000 C 
BRANCH   3   4
ATOM      4  C   UNL     1     134.598 145.844 104.444  1.00  0.00     0.000 C 
BRANCH   4   5
ATOM      5  C   UNL     1     135.389 144.892 105.349  1.00  0.00     0.000 C 
BRANCH   5   6
ATOM      6  C   UNL     1     135.416 143.473 104.762  1.00  0.00     0.000 C 
BRANCH   6   7
ATOM      7  C   UNL     1     134.075 143.065 104.132  1.00  0.00     0.000 C 
BRANCH   7   8
ATOM      8  C   UNL     1     133.093 142.478 105.161  1.00  0.00     0.000 C 
BRANCH   8   9
ATOM      9  C   UNL     1     131.654 142.977 104.957  1.00  0.00     0.000 C 
BRANCH   9  10
ATOM     10  C   UNL     1     130.619 142.146 105.730  1.00  0.00     0.000 C 
BRANCH  10  11
ATOM     11  C   UNL     1     131.187 140.765 106.096  1.00  0.00     0.000 C 
BRANCH  11  12
ATOM     12  C   UNL     1     130.283 139.987 107.070  1.00  0.00     0.006 C 
BRANCH  12  13
ATOM     13  C   UNL     1     129.042 139.360 106.417  1.00  0.00     0.053 C 
BRANCH  13  14
ATOM     14  C   UNL     1     128.220 138.588 107.401  1.00  0.00     0.041 C 
ATOM     15  O   UNL     1     128.472 138.661 108.633  1.00  0.00    -0.550 OA
ATOM     16  O   UNL     1     127.196 137.762 106.956  1.00  0.00    -0.550 OA
ENDBRANCH  13  14
ENDBRANCH  12  13
ENDBRANCH  11  12
ENDBRANCH  10  11
ENDBRANCH   9  10
ENDBRANCH   8   9
ENDBRANCH   7   8
ENDBRANCH   6   7
ENDBRANCH   5   6
ENDBRANCH   4   5
ENDBRANCH   3   4
ENDBRANCH   2   3
ENDBRANCH   1   2
BRANCH   1  17
ATOM     17  C   UNL     1     130.882 146.093 106.140  1.00  0.00     0.000 C 
BRANCH  17  18
ATOM     18  C   UNL     1     129.478 145.648 106.582  1.00  0.00     0.000 C 
BRANCH  18  19
ATOM     19  C   UNL     1     128.520 145.420 105.398  1.00  0.00     0.000 C 
BRANCH  19  20
ATOM     20  C   UNL     1     127.602 144.197 105.598  1.00  0.00     0.000 C 
BRANCH  20  21
ATOM     21  C   UNL     1     127.256 143.898 107.069  1.00  0.00     0.000 C 
BRANCH  21  22
ATOM     22  C   UNL     1     127.292 142.413 107.467  1.00  0.00    -0.000 C 
BRANCH  22  23
ATOM     23  C   UNL     1     127.999 142.171 108.812  1.00  0.00    -0.000 C 
BRANCH  23  24
ATOM     24  C   UNL     1     128.871 143.362 109.254  1.00  0.00    -0.000 C 
BRANCH  24  25
ATOM     25  C   UNL     1     130.390 143.141 109.130  1.00  0.00    -0.000 C 
BRANCH  25  26
ATOM     26  C   UNL     1     131.188 143.807 110.260  1.00  0.00    -0.000 C 
BRANCH  26  27
ATOM     27  C   UNL     1     132.695 143.768 109.969  1.00  0.00    -0.000 C 
BRANCH  27  28
ATOM     28  C   UNL     1     133.048 142.876 108.767  1.00  0.00    -0.000 C 
BRANCH  28  29
ATOM     29  C   UNL     1     133.991 141.706 109.120  1.00  0.00    -0.003 C 
ATOM     30  C   UNL     1     134.962 141.381 107.984  1.00  0.00     0.004 C 
ENDBRANCH  28  29
ENDBRANCH  27  28
ENDBRANCH  26  27
ENDBRANCH  25  26
ENDBRANCH  24  25
ENDBRANCH  23  24
ENDBRANCH  22  23
ENDBRANCH  21  22
ENDBRANCH  20  21
ENDBRANCH  19  20
ENDBRANCH  18  19
ENDBRANCH  17  18
ENDBRANCH   1  17
TORSDOF 26
ENDMDL
MODEL 8
REMARK VINA RESULT:    -3.296      1.847      4.063
REMARK INTER + INTRA:         -14.147
REMARK INTER:                  -8.737
REMARK INTRA:                  -5.410
REMARK UNBOUND:                -5.842
REMARK SMILES CCCCCCCCCCCCCCCCCCCCCCCCCCCC(=O)[O-]
REMARK SMILES IDX 15 1 16 2 17 3 18 4 19 5 20 6 21 7 22 8 23 9 24 10 25 11
REMARK SMILES IDX 26 12 27 13 28 14 29 15 30 16 14 17 13 18 12 19 11 20 10 21
REMARK SMILES IDX 9 22 8 23 7 24 6 25 5 26 4 27 3 28 2 29 1 30
REMARK H PARENT
REMARK Flexibility Score: inf
ROOT
ATOM      1  C   UNL     1     130.306 144.162 106.100  1.00  0.00     0.000 C 
ENDROOT
BRANCH   1   2
ATOM      2  C   UNL     1     128.850 144.031 105.616  1.00  0.00     0.000 C 
BRANCH   2   3
ATOM      3  C   UNL     1     128.151 145.391 105.462  1.00  0.00     0.000 C 
BRANCH   3   4
ATOM      4  C   UNL     1     127.171 145.683 106.609  1.00  0.00     0.000 C 
BRANCH   4   5
ATOM      5  C   UNL     1     127.149 144.535 107.625  1.00  0.00     0.000 C 
BRANCH   5   6
ATOM      6  C   UNL     1     127.730 144.985 108.974  1.00  0.00     0.000 C 
BRANCH   6   7
ATOM      7  C   UNL     1     128.071 143.805 109.897  1.00  0.00     0.000 C 
BRANCH   7   8
ATOM      8  C   UNL     1     129.539 143.360 109.767  1.00  0.00     0.000 C 
BRANCH   8   9
ATOM      9  C   UNL     1     129.683 141.997 109.072  1.00  0.00     0.000 C 
BRANCH   9  10
ATOM     10  C   UNL     1     128.354 141.232 108.978  1.00  0.00     0.000 C 
BRANCH  10  11
ATOM     11  C   UNL     1     128.003 140.919 107.515  1.00  0.00     0.000 C 
BRANCH  11  12
ATOM     12  C   UNL     1     127.768 139.417 107.266  1.00  0.00     0.006 C 
BRANCH  12  13
ATOM     13  C   UNL     1     127.951 138.984 105.803  1.00  0.00     0.053 C 
BRANCH  13  14
ATOM     14  C   UNL     1     127.979 137.493 105.659  1.00  0.00     0.041 C 
ATOM     15  O   UNL     1     128.956 136.833 106.100  1.00  0.00    -0.550 OA
ATOM     16  O   UNL     1     126.940 136.837 105.012  1.00  0.00    -0.550 OA
ENDBRANCH  13  14
ENDBRANCH  12  13
ENDBRANCH  11  12
ENDBRANCH  10  11
ENDBRANCH   9  10
ENDBRANCH   8   9
ENDBRANCH   7   8
ENDBRANCH   6   7
ENDBRANCH   5   6
ENDBRANCH   4   5
ENDBRANCH   3   4
ENDBRANCH   2   3
ENDBRANCH   1   2
BRANCH   1  17
ATOM     17  C   UNL     1     130.782 145.630 106.123  1.00  0.00     0.000 C 
BRANCH  17  18
ATOM     18  C   UNL     1     131.609 145.998 107.367  1.00  0.00     0.000 C 
BRANCH  18  19
ATOM     19  C   UNL     1     132.214 144.769 108.070  1.00  0.00     0.000 C 
BRANCH  19  20
ATOM     20  C   UNL     1     133.727 144.914 108.332  1.00  0.00     0.000 C 
BRANCH  20  21
ATOM     21  C   UNL     1     134.376 146.128 107.641  1.00  0.00     0.000 C 
BRANCH  21  22
ATOM     22  C   UNL     1     135.667 145.831 106.860  1.00  0.00    -0.000 C 
BRANCH  22  23
ATOM     23  C   UNL     1     135.548 146.158 105.361  1.00  0.00    -0.000 C 
BRANCH  23  24
ATOM     24  C   UNL     1     134.320 145.505 104.701  1.00  0.00    -0.000 C 
BRANCH  24  25
ATOM     25  C   UNL     1     134.525 144.051 104.233  1.00  0.00    -0.000 C 
BRANCH  25  26
ATOM     26  C   UNL     1     133.350 143.132 104.596  1.00  0.00    -0.000 C 
BRANCH  26  27
ATOM     27  C   UNL     1     133.826 141.928 105.422  1.00  0.00    -0.000 C 
BRANCH  27  28
ATOM     28  C   UNL     1     132.867 141.576 106.571  1.00  0.00    -0.000 C 
BRANCH  28  29
ATOM     29  C   UNL     1     131.638 140.756 106.124  1.00  0.00    -0.003 C 
ATOM     30  C   UNL     1     131.509 139.440 106.890  1.00  0.00     0.004 C 
ENDBRANCH  28  29
ENDBRANCH  27  28
ENDBRANCH  26  27
ENDBRANCH  25  26
ENDBRANCH  24  25
ENDBRANCH  23  24
ENDBRANCH  22  23
ENDBRANCH  21  22
ENDBRANCH  20  21
ENDBRANCH  19  20
ENDBRANCH  18  19
ENDBRANCH  17  18
ENDBRANCH   1  17
TORSDOF 26
ENDMDL
MODEL 9
REMARK VINA RESULT:    -3.294      1.626      4.214
REMARK INTER + INTRA:         -14.142
REMARK INTER:                  -9.024
REMARK INTRA:                  -5.118
REMARK UNBOUND:                -5.842
REMARK SMILES CCCCCCCCCCCCCCCCCCCCCCCCCCCC(=O)[O-]
REMARK SMILES IDX 15 1 16 2 17 3 18 4 19 5 20 6 21 7 22 8 23 9 24 10 25 11
REMARK SMILES IDX 26 12 27 13 28 14 29 15 30 16 14 17 13 18 12 19 11 20 10 21
REMARK SMILES IDX 9 22 8 23 7 24 6 25 5 26 4 27 3 28 2 29 1 30
REMARK H PARENT
REMARK Flexibility Score: inf
ROOT
ATOM      1  C   UNL     1     128.502 142.309 106.139  1.00  0.00     0.000 C 
ENDROOT
BRANCH   1   2
ATOM      2  C   UNL     1     127.264 143.094 105.667  1.00  0.00     0.000 C 
BRANCH   2   3
ATOM      3  C   UNL     1     127.619 144.236 104.702  1.00  0.00     0.000 C 
BRANCH   3   4
ATOM      4  C   UNL     1     127.024 145.584 105.139  1.00  0.00     0.000 C 
BRANCH   4   5
ATOM      5  C   UNL     1     127.240 145.824 106.638  1.00  0.00     0.000 C 
BRANCH   5   6
ATOM      6  C   UNL     1     128.732 145.999 106.956  1.00  0.00     0.000 C 
BRANCH   6   7
ATOM      7  C   UNL     1     129.105 145.491 108.358  1.00  0.00     0.000 C 
BRANCH   7   8
ATOM      8  C   UNL     1     127.979 144.667 109.006  1.00  0.00     0.000 C 
BRANCH   8   9
ATOM      9  C   UNL     1     128.143 144.536 110.528  1.00  0.00     0.000 C 
BRANCH   9  10
ATOM     10  C   UNL     1     128.192 143.074 110.999  1.00  0.00     0.000 C 
BRANCH  10  11
ATOM     11  C   UNL     1     129.115 142.238 110.099  1.00  0.00     0.000 C 
BRANCH  11  12
ATOM     12  C   UNL     1     128.418 140.992 109.520  1.00  0.00     0.006 C 
BRANCH  12  13
ATOM     13  C   UNL     1     129.372 139.980 108.868  1.00  0.00     0.053 C 
BRANCH  13  14
ATOM     14  C   UNL     1     128.680 139.138 107.842  1.00  0.00     0.041 C 
ATOM     15  O   UNL     1     129.351 138.428 107.047  1.00  0.00    -0.550 OA
ATOM     16  O   UNL     1     127.295 139.160 107.743  1.00  0.00    -0.550 OA
ENDBRANCH  13  14
ENDBRANCH  12  13
ENDBRANCH  11  12
ENDBRANCH  10  11
ENDBRANCH   9  10
ENDBRANCH   8   9
ENDBRANCH   7   8
ENDBRANCH   6   7
ENDBRANCH   5   6
ENDBRANCH   4   5
ENDBRANCH   3   4
ENDBRANCH   2   3
ENDBRANCH   1   2
BRANCH   1  17
ATOM     17  C   UNL     1     129.790 142.768 105.423  1.00  0.00     0.000 C 
BRANCH  17  18
ATOM     18  C   UNL     1     130.951 143.095 106.378  1.00  0.00     0.000 C 
BRANCH  18  19
ATOM     19  C   UNL     1     132.048 142.015 106.381  1.00  0.00     0.000 C 
BRANCH  19  20
ATOM     20  C   UNL     1     133.438 142.572 106.009  1.00  0.00     0.000 C 
BRANCH  20  21
ATOM     21  C   UNL     1     133.422 143.602 104.864  1.00  0.00     0.000 C 
BRANCH  21  22
ATOM     22  C   UNL     1     134.673 144.490 104.759  1.00  0.00    -0.000 C 
BRANCH  22  23
ATOM     23  C   UNL     1     134.402 145.953 105.151  1.00  0.00    -0.000 C 
BRANCH  23  24
ATOM     24  C   UNL     1     132.900 146.270 105.285  1.00  0.00    -0.000 C 
BRANCH  24  25
ATOM     25  C   UNL     1     132.423 146.577 106.717  1.00  0.00    -0.000 C 
BRANCH  25  26
ATOM     26  C   UNL     1     133.482 146.260 107.784  1.00  0.00    -0.000 C 
BRANCH  26  27
ATOM     27  C   UNL     1     132.999 145.151 108.729  1.00  0.00    -0.000 C 
BRANCH  27  28
ATOM     28  C   UNL     1     133.070 145.556 110.211  1.00  0.00    -0.000 C 
BRANCH  28  29
ATOM     29  C   UNL     1     132.264 146.829 110.544  1.00  0.00    -0.003 C 
ATOM     30  C   UNL     1     131.066 146.537 111.447  1.00  0.00     0.004 C 
ENDBRANCH  28  29
ENDBRANCH  27  28
ENDBRANCH  26  27
ENDBRANCH  25  26
ENDBRANCH  24  25
ENDBRANCH  23  24
ENDBRANCH  22  23
ENDBRANCH  21  22
ENDBRANCH  20  21
ENDBRANCH  19  20
ENDBRANCH  18  19
ENDBRANCH  17  18
ENDBRANCH   1  17
TORSDOF 26
ENDMDL
