MODEL 1
REMARK VINA RESULT:    -3.859      0.000      0.000
REMARK INTER + INTRA:         -11.801
REMARK INTER:                  -8.370
REMARK INTRA:                  -3.431
REMARK UNBOUND:                -3.431
REMARK SMILES CCCCCCCCCCCCCCCCCCCCCC(=O)[O-]
REMARK SMILES IDX 12 1 11 2 10 3 9 4 8 5 7 6 6 7 5 8 4 9 3 10 2 11 1 12 13 13
REMARK SMILES IDX 14 14 15 15 16 16 17 17 18 18 19 19 20 20 21 21 22 22 23 23
REMARK SMILES IDX 24 24
REMARK H PARENT
REMARK Flexibility Score: inf
ROOT
ATOM      1  C   UNL     1      -0.768 -36.019  47.029  1.00  0.00     0.000 C 
ENDROOT
BRANCH   1   2
ATOM      2  C   UNL     1      -1.290 -35.333  48.308  1.00  0.00     0.000 C 
BRANCH   2   3
ATOM      3  C   UNL     1      -2.437 -34.324  48.071  1.00  0.00     0.000 C 
BRANCH   3   4
ATOM      4  C   UNL     1      -3.830 -34.847  48.472  1.00  0.00    -0.000 C 
BRANCH   4   5
ATOM      5  C   UNL     1      -3.915 -36.383  48.590  1.00  0.00    -0.000 C 
BRANCH   5   6
ATOM      6  C   UNL     1      -4.775 -37.032  47.486  1.00  0.00    -0.000 C 
BRANCH   6   7
ATOM      7  C   UNL     1      -4.082 -37.084  46.112  1.00  0.00    -0.000 C 
BRANCH   7   8
ATOM      8  C   UNL     1      -4.944 -36.470  44.996  1.00  0.00    -0.000 C 
BRANCH   8   9
ATOM      9  C   UNL     1      -4.807 -34.938  44.909  1.00  0.00    -0.000 C 
BRANCH   9  10
ATOM     10  C   UNL     1      -6.137 -34.165  44.918  1.00  0.00    -0.000 C 
BRANCH  10  11
ATOM     11  C   UNL     1      -7.026 -34.520  46.120  1.00  0.00    -0.003 C 
ATOM     12  C   UNL     1      -6.908 -33.471  47.223  1.00  0.00     0.004 C 
ENDBRANCH  10  11
ENDBRANCH   9  10
ENDBRANCH   8   9
ENDBRANCH   7   8
ENDBRANCH   6   7
ENDBRANCH   5   6
ENDBRANCH   4   5
ENDBRANCH   3   4
ENDBRANCH   2   3
ENDBRANCH   1   2
BRANCH   1  13
ATOM     13  C   UNL     1      -0.879 -35.175  45.746  1.00  0.00     0.000 C 
BRANCH  13  14
ATOM     14  C   UNL     1       0.267 -34.153  45.568  1.00  0.00     0.000 C 
BRANCH  14  15
ATOM     15  C   UNL     1       1.378 -34.654  44.627  1.00  0.00     0.000 C 
BRANCH  15  16
ATOM     16  C   UNL     1       1.321 -36.178  44.369  1.00  0.00     0.000 C 
BRANCH  16  17
ATOM     17  C   UNL     1       2.490 -36.961  44.997  1.00  0.00     0.000 C 
BRANCH  17  18
ATOM     18  C   UNL     1       3.247 -36.206  46.102  1.00  0.00     0.000 C 
BRANCH  18  19
ATOM     19  C   UNL     1       2.787 -36.602  47.517  1.00  0.00     0.000 C 
BRANCH  19  20
ATOM     20  C   UNL     1       2.628 -35.393  48.457  1.00  0.00     0.006 C 
BRANCH  20  21
ATOM     21  C   UNL     1       3.203 -34.082  47.891  1.00  0.00     0.053 C 
BRANCH  21  22
ATOM     22  C   UNL     1       2.445 -32.872  48.347  1.00  0.00     0.041 C 
ATOM     23  O   UNL     1       2.846 -31.718  48.040  1.00  0.00    -0.550 OA
ATOM     24  O   UNL     1       1.303 -33.021  49.125  1.00  0.00    -0.550 OA
ENDBRANCH  21  22
ENDBRANCH  20  21
ENDBRANCH  19  20
ENDBRANCH  18  19
ENDBRANCH  17  18
ENDBRANCH  16  17
ENDBRANCH  15  16
ENDBRANCH  14  15
ENDBRANCH  13  14
ENDBRANCH   1  13
TORSDOF 20
ENDMDL
MODEL 2
REMARK VINA RESULT:    -3.678      2.883      7.509
REMARK INTER + INTRA:         -11.408
REMARK INTER:                  -7.970
REMARK INTRA:                  -3.439
REMARK UNBOUND:                -3.431
REMARK SMILES CCCCCCCCCCCCCCCCCCCCCC(=O)[O-]
REMARK SMILES IDX 12 1 11 2 10 3 9 4 8 5 7 6 6 7 5 8 4 9 3 10 2 11 1 12 13 13
REMARK SMILES IDX 14 14 15 15 16 16 17 17 18 18 19 19 20 20 21 21 22 22 23 23
REMARK SMILES IDX 24 24
REMARK H PARENT
REMARK Flexibility Score: inf
ROOT
ATOM      1  C   UNL     1      -0.908 -34.151  46.596  1.00  0.00     0.000 C 
ENDROOT
BRANCH   1   2
ATOM      2  C   UNL     1      -0.202 -35.008  47.666  1.00  0.00     0.000 C 
BRANCH   2   3
ATOM      3  C   UNL     1       0.851 -34.248  48.504  1.00  0.00     0.000 C 
BRANCH   3   4
ATOM      4  C   UNL     1       1.784 -33.344  47.675  1.00  0.00    -0.000 C 
BRANCH   4   5
ATOM      5  C   UNL     1       3.248 -33.832  47.623  1.00  0.00    -0.000 C 
BRANCH   5   6
ATOM      6  C   UNL     1       3.507 -35.076  48.497  1.00  0.00    -0.000 C 
BRANCH   6   7
ATOM      7  C   UNL     1       4.003 -36.298  47.701  1.00  0.00    -0.000 C 
BRANCH   7   8
ATOM      8  C   UNL     1       2.847 -37.123  47.112  1.00  0.00    -0.000 C 
BRANCH   8   9
ATOM      9  C   UNL     1       2.771 -37.033  45.575  1.00  0.00    -0.000 C 
BRANCH   9  10
ATOM     10  C   UNL     1       1.347 -36.949  44.999  1.00  0.00    -0.000 C 
BRANCH  10  11
ATOM     11  C   UNL     1       1.219 -35.914  43.871  1.00  0.00    -0.003 C 
ATOM     12  C   UNL     1       1.859 -34.585  44.265  1.00  0.00     0.004 C 
ENDBRANCH  10  11
ENDBRANCH   9  10
ENDBRANCH   8   9
ENDBRANCH   7   8
ENDBRANCH   6   7
ENDBRANCH   5   6
ENDBRANCH   4   5
ENDBRANCH   3   4
ENDBRANCH   2   3
ENDBRANCH   1   2
BRANCH   1  13
ATOM     13  C   UNL     1      -2.066 -34.853  45.862  1.00  0.00     0.000 C 
BRANCH  13  14
ATOM     14  C   UNL     1      -2.018 -36.395  45.949  1.00  0.00     0.000 C 
BRANCH  14  15
ATOM     15  C   UNL     1      -3.261 -36.998  46.629  1.00  0.00     0.000 C 
BRANCH  15  16
ATOM     16  C   UNL     1      -3.184 -36.977  48.174  1.00  0.00     0.000 C 
BRANCH  16  17
ATOM     17  C   UNL     1      -3.831 -35.732  48.813  1.00  0.00     0.000 C 
BRANCH  17  18
ATOM     18  C   UNL     1      -5.154 -35.295  48.166  1.00  0.00     0.000 C 
BRANCH  18  19
ATOM     19  C   UNL     1      -5.159 -33.808  47.765  1.00  0.00     0.000 C 
BRANCH  19  20
ATOM     20  C   UNL     1      -6.366 -33.426  46.888  1.00  0.00     0.006 C 
BRANCH  20  21
ATOM     21  C   UNL     1      -6.884 -34.575  46.005  1.00  0.00     0.053 C 
BRANCH  21  22
ATOM     22  C   UNL     1      -6.222 -34.618  44.662  1.00  0.00     0.041 C 
ATOM     23  O   UNL     1      -6.480 -33.738  43.797  1.00  0.00    -0.550 OA
ATOM     24  O   UNL     1      -5.330 -35.639  44.359  1.00  0.00    -0.550 OA
ENDBRANCH  21  22
ENDBRANCH  20  21
ENDBRANCH  19  20
ENDBRANCH  18  19
ENDBRANCH  17  18
ENDBRANCH  16  17
ENDBRANCH  15  16
ENDBRANCH  14  15
ENDBRANCH  13  14
ENDBRANCH   1  13
TORSDOF 20
ENDMDL
MODEL 3
REMARK VINA RESULT:    -3.594      2.374      7.189
REMARK INTER + INTRA:         -11.227
REMARK INTER:                  -8.280
REMARK INTRA:                  -2.947
REMARK UNBOUND:                -3.431
REMARK SMILES CCCCCCCCCCCCCCCCCCCCCC(=O)[O-]
REMARK SMILES IDX 12 1 11 2 10 3 9 4 8 5 7 6 6 7 5 8 4 9 3 10 2 11 1 12 13 13
REMARK SMILES IDX 14 14 15 15 16 16 17 17 18 18 19 19 20 20 21 21 22 22 23 23
REMARK SMILES IDX 24 24
REMARK H PARENT
REMARK Flexibility Score: inf
ROOT
ATOM      1  C   UNL     1      -1.181 -35.614  47.505  1.00  0.00     0.000 C 
ENDROOT
BRANCH   1   2
ATOM      2  C   UNL     1      -0.036 -35.544  48.536  1.00  0.00     0.000 C 
BRANCH   2   3
ATOM      3  C   UNL     1       0.586 -34.140  48.709  1.00  0.00     0.000 C 
BRANCH   3   4
ATOM      4  C   UNL     1       2.126 -34.119  48.643  1.00  0.00    -0.000 C 
BRANCH   4   5
ATOM      5  C   UNL     1       2.764 -35.507  48.421  1.00  0.00    -0.000 C 
BRANCH   5   6
ATOM      6  C   UNL     1       3.832 -35.515  47.309  1.00  0.00    -0.000 C 
BRANCH   6   7
ATOM      7  C   UNL     1       3.706 -36.705  46.340  1.00  0.00    -0.000 C 
BRANCH   7   8
ATOM      8  C   UNL     1       2.244 -37.125  46.113  1.00  0.00    -0.000 C 
BRANCH   8   9
ATOM      9  C   UNL     1       1.761 -36.855  44.675  1.00  0.00    -0.000 C 
BRANCH   9  10
ATOM     10  C   UNL     1       0.460 -36.040  44.569  1.00  0.00    -0.000 C 
BRANCH  10  11
ATOM     11  C   UNL     1       0.710 -34.526  44.493  1.00  0.00    -0.003 C 
ATOM     12  C   UNL     1       2.177 -34.221  44.201  1.00  0.00     0.004 C 
ENDBRANCH  10  11
ENDBRANCH   9  10
ENDBRANCH   8   9
ENDBRANCH   7   8
ENDBRANCH   6   7
ENDBRANCH   5   6
ENDBRANCH   4   5
ENDBRANCH   3   4
ENDBRANCH   2   3
ENDBRANCH   1   2
BRANCH   1  13
ATOM     13  C   UNL     1      -1.819 -34.259  47.148  1.00  0.00     0.000 C 
BRANCH  13  14
ATOM     14  C   UNL     1      -3.083 -34.375  46.267  1.00  0.00     0.000 C 
BRANCH  14  15
ATOM     15  C   UNL     1      -3.061 -35.607  45.342  1.00  0.00     0.000 C 
BRANCH  15  16
ATOM     16  C   UNL     1      -4.464 -36.204  45.086  1.00  0.00     0.000 C 
BRANCH  16  17
ATOM     17  C   UNL     1      -5.382 -35.300  44.240  1.00  0.00     0.000 C 
BRANCH  17  18
ATOM     18  C   UNL     1      -6.461 -34.554  45.042  1.00  0.00     0.000 C 
BRANCH  18  19
ATOM     19  C   UNL     1      -6.757 -35.214  46.400  1.00  0.00     0.000 C 
BRANCH  19  20
ATOM     20  C   UNL     1      -6.599 -34.246  47.587  1.00  0.00     0.006 C 
BRANCH  20  21
ATOM     21  C   UNL     1      -6.578 -32.761  47.182  1.00  0.00     0.053 C 
BRANCH  21  22
ATOM     22  C   UNL     1      -5.901 -31.893  48.199  1.00  0.00     0.041 C 
ATOM     23  O   UNL     1      -6.436 -30.813  48.569  1.00  0.00    -0.550 OA
ATOM     24  O   UNL     1      -4.673 -32.269  48.727  1.00  0.00    -0.550 OA
ENDBRANCH  21  22
ENDBRANCH  20  21
ENDBRANCH  19  20
ENDBRANCH  18  19
ENDBRANCH  17  18
ENDBRANCH  16  17
ENDBRANCH  15  16
ENDBRANCH  14  15
ENDBRANCH  13  14
ENDBRANCH   1  13
TORSDOF 20
ENDMDL
MODEL 4
REMARK VINA RESULT:    -3.557      2.796      7.717
REMARK INTER + INTRA:         -11.146
REMARK INTER:                  -8.967
REMARK INTRA:                  -2.179
REMARK UNBOUND:                -3.431
REMARK SMILES CCCCCCCCCCCCCCCCCCCCCC(=O)[O-]
REMARK SMILES IDX 12 1 11 2 10 3 9 4 8 5 7 6 6 7 5 8 4 9 3 10 2 11 1 12 13 13
REMARK SMILES IDX 14 14 15 15 16 16 17 17 18 18 19 19 20 20 21 21 22 22 23 23
REMARK SMILES IDX 24 24
REMARK H PARENT
REMARK Flexibility Score: inf
ROOT
ATOM      1  C   UNL     1      -1.338 -36.700  44.893  1.00  0.00     0.000 C 
ENDROOT
BRANCH   1   2
ATOM      2  C   UNL     1       0.069 -36.348  44.371  1.00  0.00     0.000 C 
BRANCH   2   3
ATOM      3  C   UNL     1       0.482 -34.875  44.584  1.00  0.00     0.000 C 
BRANCH   3   4
ATOM      4  C   UNL     1       1.950 -34.572  44.223  1.00  0.00    -0.000 C 
BRANCH   4   5
ATOM      5  C   UNL     1       2.905 -34.555  45.436  1.00  0.00    -0.000 C 
BRANCH   5   6
ATOM      6  C   UNL     1       3.223 -35.963  45.980  1.00  0.00    -0.000 C 
BRANCH   6   7
ATOM      7  C   UNL     1       2.511 -36.288  47.307  1.00  0.00    -0.000 C 
BRANCH   7   8
ATOM      8  C   UNL     1       2.667 -35.165  48.346  1.00  0.00    -0.000 C 
BRANCH   8   9
ATOM      9  C   UNL     1       1.465 -34.201  48.370  1.00  0.00    -0.000 C 
BRANCH   9  10
ATOM     10  C   UNL     1       1.763 -32.806  48.947  1.00  0.00    -0.000 C 
BRANCH  10  11
ATOM     11  C   UNL     1       2.936 -32.107  48.244  1.00  0.00    -0.003 C 
ATOM     12  C   UNL     1       2.985 -30.621  48.594  1.00  0.00     0.004 C 
ENDBRANCH  10  11
ENDBRANCH   9  10
ENDBRANCH   8   9
ENDBRANCH   7   8
ENDBRANCH   6   7
ENDBRANCH   5   6
ENDBRANCH   4   5
ENDBRANCH   3   4
ENDBRANCH   2   3
ENDBRANCH   1   2
BRANCH   1  13
ATOM     13  C   UNL     1      -1.744 -35.990  46.198  1.00  0.00     0.000 C 
BRANCH  13  14
ATOM     14  C   UNL     1      -1.325 -36.746  47.478  1.00  0.00     0.000 C 
BRANCH  14  15
ATOM     15  C   UNL     1      -2.341 -36.595  48.626  1.00  0.00     0.000 C 
BRANCH  15  16
ATOM     16  C   UNL     1      -3.808 -36.786  48.174  1.00  0.00     0.000 C 
BRANCH  16  17
ATOM     17  C   UNL     1      -4.748 -35.644  48.606  1.00  0.00     0.000 C 
BRANCH  17  18
ATOM     18  C   UNL     1      -4.208 -34.231  48.329  1.00  0.00     0.000 C 
BRANCH  18  19
ATOM     19  C   UNL     1      -4.982 -33.505  47.213  1.00  0.00     0.000 C 
BRANCH  19  20
ATOM     20  C   UNL     1      -6.481 -33.856  47.195  1.00  0.00     0.006 C 
BRANCH  20  21
ATOM     21  C   UNL     1      -6.888 -34.799  46.048  1.00  0.00     0.053 C 
BRANCH  21  22
ATOM     22  C   UNL     1      -6.021 -34.643  44.835  1.00  0.00     0.041 C 
ATOM     23  O   UNL     1      -6.193 -33.672  44.051  1.00  0.00    -0.550 OA
ATOM     24  O   UNL     1      -5.032 -35.581  44.564  1.00  0.00    -0.550 OA
ENDBRANCH  21  22
ENDBRANCH  20  21
ENDBRANCH  19  20
ENDBRANCH  18  19
ENDBRANCH  17  18
ENDBRANCH  16  17
ENDBRANCH  15  16
ENDBRANCH  14  15
ENDBRANCH  13  14
ENDBRANCH   1  13
TORSDOF 20
ENDMDL
MODEL 5
REMARK VINA RESULT:    -3.271      1.179      2.597
REMARK INTER + INTRA:         -10.526
REMARK INTER:                  -8.304
REMARK INTRA:                  -2.222
REMARK UNBOUND:                -3.431
REMARK SMILES CCCCCCCCCCCCCCCCCCCCCC(=O)[O-]
REMARK SMILES IDX 12 1 11 2 10 3 9 4 8 5 7 6 6 7 5 8 4 9 3 10 2 11 1 12 13 13
REMARK SMILES IDX 14 14 15 15 16 16 17 17 18 18 19 19 20 20 21 21 22 22 23 23
REMARK SMILES IDX 24 24
REMARK H PARENT
REMARK Flexibility Score: inf
ROOT
ATOM      1  C   UNL     1      -2.442 -34.158  47.955  1.00  0.00     0.000 C 
ENDROOT
BRANCH   1   2
ATOM      2  C   UNL     1      -3.815 -34.667  48.440  1.00  0.00     0.000 C 
BRANCH   2   3
ATOM      3  C   UNL     1      -4.252 -36.016  47.827  1.00  0.00     0.000 C 
BRANCH   3   4
ATOM      4  C   UNL     1      -3.615 -36.323  46.457  1.00  0.00    -0.000 C 
BRANCH   4   5
ATOM      5  C   UNL     1      -4.528 -37.125  45.505  1.00  0.00    -0.000 C 
BRANCH   5   6
ATOM      6  C   UNL     1      -5.325 -36.234  44.531  1.00  0.00    -0.000 C 
BRANCH   6   7
ATOM      7  C   UNL     1      -4.916 -34.750  44.576  1.00  0.00    -0.000 C 
BRANCH   7   8
ATOM      8  C   UNL     1      -6.101 -33.825  44.902  1.00  0.00    -0.000 C 
BRANCH   8   9
ATOM      9  C   UNL     1      -7.075 -34.440  45.926  1.00  0.00    -0.000 C 
BRANCH   9  10
ATOM     10  C   UNL     1      -7.252 -33.630  47.222  1.00  0.00    -0.000 C 
BRANCH  10  11
ATOM     11  C   UNL     1      -6.093 -32.656  47.480  1.00  0.00    -0.003 C 
ATOM     12  C   UNL     1      -6.554 -31.452  48.298  1.00  0.00     0.004 C 
ENDBRANCH  10  11
ENDBRANCH   9  10
ENDBRANCH   8   9
ENDBRANCH   7   8
ENDBRANCH   6   7
ENDBRANCH   5   6
ENDBRANCH   4   5
ENDBRANCH   3   4
ENDBRANCH   2   3
ENDBRANCH   1   2
BRANCH   1  13
ATOM     13  C   UNL     1      -1.264 -34.469  48.898  1.00  0.00     0.000 C 
BRANCH  13  14
ATOM     14  C   UNL     1      -0.019 -35.035  48.178  1.00  0.00     0.000 C 
BRANCH  14  15
ATOM     15  C   UNL     1      -0.221 -35.187  46.658  1.00  0.00     0.000 C 
BRANCH  15  16
ATOM     16  C   UNL     1       0.424 -34.044  45.839  1.00  0.00     0.000 C 
BRANCH  16  17
ATOM     17  C   UNL     1       1.102 -34.515  44.538  1.00  0.00     0.000 C 
BRANCH  17  18
ATOM     18  C   UNL     1       2.627 -34.687  44.637  1.00  0.00     0.000 C 
BRANCH  18  19
ATOM     19  C   UNL     1       3.164 -34.443  46.059  1.00  0.00     0.000 C 
BRANCH  19  20
ATOM     20  C   UNL     1       3.383 -35.745  46.851  1.00  0.00     0.006 C 
BRANCH  20  21
ATOM     21  C   UNL     1       3.633 -35.526  48.354  1.00  0.00     0.053 C 
BRANCH  21  22
ATOM     22  C   UNL     1       3.881 -34.088  48.697  1.00  0.00     0.041 C 
ATOM     23  O   UNL     1       5.059 -33.653  48.800  1.00  0.00    -0.550 OA
ATOM     24  O   UNL     1       2.809 -33.233  48.918  1.00  0.00    -0.550 OA
ENDBRANCH  21  22
ENDBRANCH  20  21
ENDBRANCH  19  20
ENDBRANCH  18  19
ENDBRANCH  17  18
ENDBRANCH  16  17
ENDBRANCH  15  16
ENDBRANCH  14  15
ENDBRANCH  13  14
ENDBRANCH   1  13
TORSDOF 20
ENDMDL
MODEL 6
REMARK VINA RESULT:    -3.252      2.625      8.073
REMARK INTER + INTRA:         -10.484
REMARK INTER:                  -8.964
REMARK INTRA:                  -1.520
REMARK UNBOUND:                -3.431
REMARK SMILES CCCCCCCCCCCCCCCCCCCCCC(=O)[O-]
REMARK SMILES IDX 12 1 11 2 10 3 9 4 8 5 7 6 6 7 5 8 4 9 3 10 2 11 1 12 13 13
REMARK SMILES IDX 14 14 15 15 16 16 17 17 18 18 19 19 20 20 21 21 22 22 23 23
REMARK SMILES IDX 24 24
REMARK H PARENT
REMARK Flexibility Score: inf
ROOT
ATOM      1  C   UNL     1      -0.645 -34.991  47.155  1.00  0.00     0.000 C 
ENDROOT
BRANCH   1   2
ATOM      2  C   UNL     1      -0.539 -34.626  45.661  1.00  0.00     0.000 C 
BRANCH   2   3
ATOM      3  C   UNL     1      -0.274 -35.826  44.725  1.00  0.00     0.000 C 
BRANCH   3   4
ATOM      4  C   UNL     1       1.156 -35.875  44.150  1.00  0.00    -0.000 C 
BRANCH   4   5
ATOM      5  C   UNL     1       1.985 -34.600  44.418  1.00  0.00    -0.000 C 
BRANCH   5   6
ATOM      6  C   UNL     1       3.158 -34.831  45.391  1.00  0.00    -0.000 C 
BRANCH   6   7
ATOM      7  C   UNL     1       2.995 -36.084  46.271  1.00  0.00    -0.000 C 
BRANCH   7   8
ATOM      8  C   UNL     1       3.633 -35.912  47.660  1.00  0.00    -0.000 C 
BRANCH   8   9
ATOM      9  C   UNL     1       3.128 -34.659  48.400  1.00  0.00    -0.000 C 
BRANCH   9  10
ATOM     10  C   UNL     1       3.956 -33.384  48.159  1.00  0.00    -0.000 C 
BRANCH  10  11
ATOM     11  C   UNL     1       3.593 -32.245  49.124  1.00  0.00    -0.003 C 
ATOM     12  C   UNL     1       2.883 -31.107  48.394  1.00  0.00     0.004 C 
ENDBRANCH  10  11
ENDBRANCH   9  10
ENDBRANCH   8   9
ENDBRANCH   7   8
ENDBRANCH   6   7
ENDBRANCH   5   6
ENDBRANCH   4   5
ENDBRANCH   3   4
ENDBRANCH   2   3
ENDBRANCH   1   2
BRANCH   1  13
ATOM     13  C   UNL     1      -1.857 -35.866  47.526  1.00  0.00     0.000 C 
BRANCH  13  14
ATOM     14  C   UNL     1      -2.628 -35.372  48.771  1.00  0.00     0.000 C 
BRANCH  14  15
ATOM     15  C   UNL     1      -2.411 -33.873  49.057  1.00  0.00     0.000 C 
BRANCH  15  16
ATOM     16  C   UNL     1      -3.652 -33.005  48.743  1.00  0.00     0.000 C 
BRANCH  16  17
ATOM     17  C   UNL     1      -4.796 -33.777  48.057  1.00  0.00     0.000 C 
BRANCH  17  18
ATOM     18  C   UNL     1      -5.821 -32.891  47.331  1.00  0.00     0.000 C 
BRANCH  18  19
ATOM     19  C   UNL     1      -7.206 -33.553  47.216  1.00  0.00     0.000 C 
BRANCH  19  20
ATOM     20  C   UNL     1      -7.187 -34.847  46.384  1.00  0.00     0.006 C 
BRANCH  20  21
ATOM     21  C   UNL     1      -6.110 -34.866  45.283  1.00  0.00     0.053 C 
BRANCH  21  22
ATOM     22  C   UNL     1      -5.136 -35.994  45.445  1.00  0.00     0.041 C 
ATOM     23  O   UNL     1      -5.301 -36.850  46.355  1.00  0.00    -0.550 OA
ATOM     24  O   UNL     1      -4.038 -36.090  44.599  1.00  0.00    -0.550 OA
ENDBRANCH  21  22
ENDBRANCH  20  21
ENDBRANCH  19  20
ENDBRANCH  18  19
ENDBRANCH  17  18
ENDBRANCH  16  17
ENDBRANCH  15  16
ENDBRANCH  14  15
ENDBRANCH  13  14
ENDBRANCH   1  13
TORSDOF 20
ENDMDL
MODEL 7
REMARK VINA RESULT:    -3.235      1.128      2.354
REMARK INTER + INTRA:         -10.447
REMARK INTER:                  -8.949
REMARK INTRA:                  -1.498
REMARK UNBOUND:                -3.431
REMARK SMILES CCCCCCCCCCCCCCCCCCCCCC(=O)[O-]
REMARK SMILES IDX 12 1 11 2 10 3 9 4 8 5 7 6 6 7 5 8 4 9 3 10 2 11 1 12 13 13
REMARK SMILES IDX 14 14 15 15 16 16 17 17 18 18 19 19 20 20 21 21 22 22 23 23
REMARK SMILES IDX 24 24
REMARK H PARENT
REMARK Flexibility Score: inf
ROOT
ATOM      1  C   UNL     1      -0.827 -36.466  46.475  1.00  0.00     0.000 C 
ENDROOT
BRANCH   1   2
ATOM      2  C   UNL     1      -1.947 -36.182  47.497  1.00  0.00     0.000 C 
BRANCH   2   3
ATOM      3  C   UNL     1      -1.780 -34.861  48.281  1.00  0.00     0.000 C 
BRANCH   3   4
ATOM      4  C   UNL     1      -2.386 -33.630  47.580  1.00  0.00    -0.000 C 
BRANCH   4   5
ATOM      5  C   UNL     1      -3.110 -32.656  48.535  1.00  0.00    -0.000 C 
BRANCH   5   6
ATOM      6  C   UNL     1      -4.642 -32.660  48.362  1.00  0.00    -0.000 C 
BRANCH   6   7
ATOM      7  C   UNL     1      -5.192 -33.962  47.752  1.00  0.00    -0.000 C 
BRANCH   7   8
ATOM      8  C   UNL     1      -6.584 -33.774  47.126  1.00  0.00    -0.000 C 
BRANCH   8   9
ATOM      9  C   UNL     1      -6.720 -34.461  45.753  1.00  0.00    -0.000 C 
BRANCH   9  10
ATOM     10  C   UNL     1      -5.457 -34.414  44.875  1.00  0.00    -0.000 C 
BRANCH  10  11
ATOM     11  C   UNL     1      -5.044 -35.796  44.349  1.00  0.00    -0.003 C 
ATOM     12  C   UNL     1      -4.887 -36.798  45.491  1.00  0.00     0.004 C 
ENDBRANCH  10  11
ENDBRANCH   9  10
ENDBRANCH   8   9
ENDBRANCH   7   8
ENDBRANCH   6   7
ENDBRANCH   5   6
ENDBRANCH   4   5
ENDBRANCH   3   4
ENDBRANCH   2   3
ENDBRANCH   1   2
BRANCH   1  13
ATOM     13  C   UNL     1      -0.997 -35.768  45.113  1.00  0.00     0.000 C 
BRANCH  13  14
ATOM     14  C   UNL     1       0.161 -34.810  44.752  1.00  0.00     0.000 C 
BRANCH  14  15
ATOM     15  C   UNL     1       1.332 -35.521  44.047  1.00  0.00     0.000 C 
BRANCH  15  16
ATOM     16  C   UNL     1       1.791 -36.808  44.770  1.00  0.00     0.000 C 
BRANCH  16  17
ATOM     17  C   UNL     1       2.786 -36.556  45.920  1.00  0.00     0.000 C 
BRANCH  17  18
ATOM     18  C   UNL     1       3.427 -35.159  45.918  1.00  0.00     0.000 C 
BRANCH  18  19
ATOM     19  C   UNL     1       2.914 -34.266  47.062  1.00  0.00     0.000 C 
BRANCH  19  20
ATOM     20  C   UNL     1       3.855 -34.249  48.280  1.00  0.00     0.006 C 
BRANCH  20  21
ATOM     21  C   UNL     1       4.091 -32.845  48.867  1.00  0.00     0.053 C 
BRANCH  21  22
ATOM     22  C   UNL     1       2.882 -31.965  48.766  1.00  0.00     0.041 C 
ATOM     23  O   UNL     1       1.752 -32.393  49.123  1.00  0.00    -0.550 OA
ATOM     24  O   UNL     1       3.003 -30.675  48.264  1.00  0.00    -0.550 OA
ENDBRANCH  21  22
ENDBRANCH  20  21
ENDBRANCH  19  20
ENDBRANCH  18  19
ENDBRANCH  17  18
ENDBRANCH  16  17
ENDBRANCH  15  16
ENDBRANCH  14  15
ENDBRANCH  13  14
ENDBRANCH   1  13
TORSDOF 20
ENDMDL
MODEL 8
REMARK VINA RESULT:    -3.094      2.234      4.148
REMARK INTER + INTRA:         -10.141
REMARK INTER:                  -8.069
REMARK INTRA:                  -2.072
REMARK UNBOUND:                -3.431
REMARK SMILES CCCCCCCCCCCCCCCCCCCCCC(=O)[O-]
REMARK SMILES IDX 12 1 11 2 10 3 9 4 8 5 7 6 6 7 5 8 4 9 3 10 2 11 1 12 13 13
REMARK SMILES IDX 14 14 15 15 16 16 17 17 18 18 19 19 20 20 21 21 22 22 23 23
REMARK SMILES IDX 24 24
REMARK H PARENT
REMARK Flexibility Score: inf
ROOT
ATOM      1  C   UNL     1      -1.754 -36.031  47.228  1.00  0.00     0.000 C 
ENDROOT
BRANCH   1   2
ATOM      2  C   UNL     1      -2.925 -36.995  46.950  1.00  0.00     0.000 C 
BRANCH   2   3
ATOM      3  C   UNL     1      -3.385 -37.038  45.476  1.00  0.00     0.000 C 
BRANCH   3   4
ATOM      4  C   UNL     1      -4.894 -36.790  45.277  1.00  0.00    -0.000 C 
BRANCH   4   5
ATOM      5  C   UNL     1      -5.219 -35.696  44.237  1.00  0.00    -0.000 C 
BRANCH   5   6
ATOM      6  C   UNL     1      -5.447 -34.307  44.865  1.00  0.00    -0.000 C 
BRANCH   6   7
ATOM      7  C   UNL     1      -6.866 -34.109  45.429  1.00  0.00    -0.000 C 
BRANCH   7   8
ATOM      8  C   UNL     1      -6.897 -34.147  46.966  1.00  0.00    -0.000 C 
BRANCH   8   9
ATOM      9  C   UNL     1      -6.864 -32.742  47.600  1.00  0.00    -0.000 C 
BRANCH   9  10
ATOM     10  C   UNL     1      -5.457 -32.189  47.881  1.00  0.00    -0.000 C 
BRANCH  10  11
ATOM     11  C   UNL     1      -4.465 -33.275  48.324  1.00  0.00    -0.003 C 
ATOM     12  C   UNL     1      -3.039 -32.925  47.909  1.00  0.00     0.004 C 
ENDBRANCH  10  11
ENDBRANCH   9  10
ENDBRANCH   8   9
ENDBRANCH   7   8
ENDBRANCH   6   7
ENDBRANCH   5   6
ENDBRANCH   4   5
ENDBRANCH   3   4
ENDBRANCH   2   3
ENDBRANCH   1   2
BRANCH   1  13
ATOM     13  C   UNL     1      -1.180 -36.100  48.655  1.00  0.00     0.000 C 
BRANCH  13  14
ATOM     14  C   UNL     1       0.298 -36.548  48.713  1.00  0.00     0.000 C 
BRANCH  14  15
ATOM     15  C   UNL     1       1.272 -35.379  48.956  1.00  0.00     0.000 C 
BRANCH  15  16
ATOM     16  C   UNL     1       0.918 -34.110  48.147  1.00  0.00     0.000 C 
BRANCH  16  17
ATOM     17  C   UNL     1       2.094 -33.543  47.329  1.00  0.00     0.000 C 
BRANCH  17  18
ATOM     18  C   UNL     1       3.269 -34.516  47.138  1.00  0.00     0.000 C 
BRANCH  18  19
ATOM     19  C   UNL     1       3.188 -35.295  45.812  1.00  0.00     0.000 C 
BRANCH  19  20
ATOM     20  C   UNL     1       2.466 -34.515  44.699  1.00  0.00     0.006 C 
BRANCH  20  21
ATOM     21  C   UNL     1       1.001 -34.942  44.487  1.00  0.00     0.053 C 
BRANCH  21  22
ATOM     22  C   UNL     1       0.858 -36.411  44.229  1.00  0.00     0.041 C 
ATOM     23  O   UNL     1       0.156 -37.125  44.994  1.00  0.00    -0.550 OA
ATOM     24  O   UNL     1       1.511 -36.993  43.150  1.00  0.00    -0.550 OA
ENDBRANCH  21  22
ENDBRANCH  20  21
ENDBRANCH  19  20
ENDBRANCH  18  19
ENDBRANCH  17  18
ENDBRANCH  16  17
ENDBRANCH  15  16
ENDBRANCH  14  15
ENDBRANCH  13  14
ENDBRANCH   1  13
TORSDOF 20
ENDMDL
MODEL 9
REMARK VINA RESULT:    -3.090      1.798      3.255
REMARK INTER + INTRA:         -10.133
REMARK INTER:                  -7.702
REMARK INTRA:                  -2.431
REMARK UNBOUND:                -3.431
REMARK SMILES CCCCCCCCCCCCCCCCCCCCCC(=O)[O-]
REMARK SMILES IDX 12 1 11 2 10 3 9 4 8 5 7 6 6 7 5 8 4 9 3 10 2 11 1 12 13 13
REMARK SMILES IDX 14 14 15 15 16 16 17 17 18 18 19 19 20 20 21 21 22 22 23 23
REMARK SMILES IDX 24 24
REMARK H PARENT
REMARK Flexibility Score: inf
ROOT
ATOM      1  C   UNL     1      -1.146 -34.786  47.064  1.00  0.00     0.000 C 
ENDROOT
BRANCH   1   2
ATOM      2  C   UNL     1      -1.309 -36.318  47.128  1.00  0.00     0.000 C 
BRANCH   2   3
ATOM      3  C   UNL     1      -2.774 -36.805  47.189  1.00  0.00     0.000 C 
BRANCH   3   4
ATOM      4  C   UNL     1      -3.349 -36.902  48.615  1.00  0.00    -0.000 C 
BRANCH   4   5
ATOM      5  C   UNL     1      -4.628 -36.066  48.835  1.00  0.00    -0.000 C 
BRANCH   5   6
ATOM      6  C   UNL     1      -4.375 -34.545  48.804  1.00  0.00    -0.000 C 
BRANCH   6   7
ATOM      7  C   UNL     1      -4.794 -33.875  47.482  1.00  0.00    -0.000 C 
BRANCH   7   8
ATOM      8  C   UNL     1      -6.320 -33.732  47.355  1.00  0.00    -0.000 C 
BRANCH   8   9
ATOM      9  C   UNL     1      -6.925 -34.686  46.307  1.00  0.00    -0.000 C 
BRANCH   9  10
ATOM     10  C   UNL     1      -5.907 -35.580  45.578  1.00  0.00    -0.000 C 
BRANCH  10  11
ATOM     11  C   UNL     1      -5.754 -35.221  44.092  1.00  0.00    -0.003 C 
ATOM     12  C   UNL     1      -6.207 -33.789  43.819  1.00  0.00     0.004 C 
ENDBRANCH  10  11
ENDBRANCH   9  10
ENDBRANCH   8   9
ENDBRANCH   7   8
ENDBRANCH   6   7
ENDBRANCH   5   6
ENDBRANCH   4   5
ENDBRANCH   3   4
ENDBRANCH   2   3
ENDBRANCH   1   2
BRANCH   1  13
ATOM     13  C   UNL     1      -0.870 -34.104  48.417  1.00  0.00     0.000 C 
BRANCH  13  14
ATOM     14  C   UNL     1       0.629 -34.034  48.788  1.00  0.00     0.000 C 
BRANCH  14  15
ATOM     15  C   UNL     1       1.497 -33.427  47.669  1.00  0.00     0.000 C 
BRANCH  15  16
ATOM     16  C   UNL     1       2.905 -33.006  48.150  1.00  0.00     0.000 C 
BRANCH  16  17
ATOM     17  C   UNL     1       4.026 -33.973  47.721  1.00  0.00     0.000 C 
BRANCH  17  18
ATOM     18  C   UNL     1       3.695 -35.462  47.913  1.00  0.00     0.000 C 
BRANCH  18  19
ATOM     19  C   UNL     1       3.661 -36.241  46.585  1.00  0.00     0.000 C 
BRANCH  19  20
ATOM     20  C   UNL     1       2.238 -36.645  46.162  1.00  0.00     0.006 C 
BRANCH  20  21
ATOM     21  C   UNL     1       1.947 -36.430  44.665  1.00  0.00     0.053 C 
BRANCH  21  22
ATOM     22  C   UNL     1       1.656 -34.999  44.331  1.00  0.00     0.041 C 
ATOM     23  O   UNL     1       2.596 -34.204  44.063  1.00  0.00    -0.550 OA
ATOM     24  O   UNL     1       0.345 -34.539  44.331  1.00  0.00    -0.550 OA
ENDBRANCH  21  22
ENDBRANCH  20  21
ENDBRANCH  19  20
ENDBRANCH  18  19
ENDBRANCH  17  18
ENDBRANCH  16  17
ENDBRANCH  15  16
ENDBRANCH  14  15
ENDBRANCH  13  14
ENDBRANCH   1  13
TORSDOF 20
ENDMDL
