MODEL 1
REMARK VINA RESULT:    -4.478      0.000      0.000
REMARK INTER + INTRA:          -9.681
REMARK INTER:                  -8.142
REMARK INTRA:                  -1.539
REMARK UNBOUND:                -1.539
REMARK SMILES CCCCCCCCCCCCCCCC(=O)[O-]
REMARK SMILES IDX 9 1 10 2 11 3 12 4 13 5 14 6 15 7 16 8 17 9 18 10 8 11 7 12
REMARK SMILES IDX 6 13 5 14 4 15 3 16 2 17 1 18
REMARK H PARENT
REMARK Flexibility Score: inf
ROOT
ATOM      1  C   UNL     1      59.093  34.479  80.440  1.00  0.00     0.000 C 
ENDROOT
BRANCH   1   2
ATOM      2  C   UNL     1      57.842  33.705  79.994  1.00  0.00     0.000 C 
BRANCH   2   3
ATOM      3  C   UNL     1      58.007  33.055  78.613  1.00  0.00     0.000 C 
BRANCH   3   4
ATOM      4  C   UNL     1      57.843  34.096  77.495  1.00  0.00     0.000 C 
BRANCH   4   5
ATOM      5  C   UNL     1      57.693  33.463  76.099  1.00  0.00     0.000 C 
BRANCH   5   6
ATOM      6  C   UNL     1      57.855  31.933  76.060  1.00  0.00     0.006 C 
BRANCH   6   7
ATOM      7  C   UNL     1      57.385  31.315  74.736  1.00  0.00     0.053 C 
BRANCH   7   8
ATOM      8  C   UNL     1      56.689  30.014  74.985  1.00  0.00     0.041 C 
ATOM      9  O   UNL     1      57.089  29.247  75.898  1.00  0.00    -0.550 OA
ATOM     10  O   UNL     1      55.568  29.673  74.239  1.00  0.00    -0.550 OA
ENDBRANCH   7   8
ENDBRANCH   6   7
ENDBRANCH   5   6
ENDBRANCH   4   5
ENDBRANCH   3   4
ENDBRANCH   2   3
ENDBRANCH   1   2
BRANCH   1  11
ATOM     11  C   UNL     1      58.748  35.779  81.188  1.00  0.00     0.000 C 
BRANCH  11  12
ATOM     12  C   UNL     1      58.449  36.946  80.233  1.00  0.00    -0.000 C 
BRANCH  12  13
ATOM     13  C   UNL     1      56.942  37.230  80.094  1.00  0.00    -0.000 C 
BRANCH  13  14
ATOM     14  C   UNL     1      56.475  37.252  78.629  1.00  0.00    -0.000 C 
BRANCH  14  15
ATOM     15  C   UNL     1      57.380  38.116  77.735  1.00  0.00    -0.000 C 
BRANCH  15  16
ATOM     16  C   UNL     1      57.299  37.727  76.247  1.00  0.00    -0.000 C 
BRANCH  16  17
ATOM     17  C   UNL     1      56.062  36.897  75.859  1.00  0.00    -0.003 C 
ATOM     18  C   UNL     1      55.808  36.869  74.353  1.00  0.00     0.004 C 
ENDBRANCH  16  17
ENDBRANCH  15  16
ENDBRANCH  14  15
ENDBRANCH  13  14
ENDBRANCH  12  13
ENDBRANCH  11  12
ENDBRANCH   1  11
TORSDOF 14
ENDMDL
MODEL 2
REMARK VINA RESULT:    -4.375      1.213      2.008
REMARK INTER + INTRA:          -9.495
REMARK INTER:                  -7.521
REMARK INTRA:                  -1.974
REMARK UNBOUND:                -1.539
REMARK SMILES CCCCCCCCCCCCCCCC(=O)[O-]
REMARK SMILES IDX 9 1 10 2 11 3 12 4 13 5 14 6 15 7 16 8 17 9 18 10 8 11 7 12
REMARK SMILES IDX 6 13 5 14 4 15 3 16 2 17 1 18
REMARK H PARENT
REMARK Flexibility Score: inf
ROOT
ATOM      1  C   UNL     1      59.040  35.545  81.051  1.00  0.00     0.000 C 
ENDROOT
BRANCH   1   2
ATOM      2  C   UNL     1      58.259  34.373  80.436  1.00  0.00     0.000 C 
BRANCH   2   3
ATOM      3  C   UNL     1      58.845  33.908  79.095  1.00  0.00     0.000 C 
BRANCH   3   4
ATOM      4  C   UNL     1      57.767  33.236  78.230  1.00  0.00     0.000 C 
BRANCH   4   5
ATOM      5  C   UNL     1      57.966  33.480  76.723  1.00  0.00     0.000 C 
BRANCH   5   6
ATOM      6  C   UNL     1      58.550  32.288  75.943  1.00  0.00     0.006 C 
BRANCH   6   7
ATOM      7  C   UNL     1      58.174  30.931  76.554  1.00  0.00     0.053 C 
BRANCH   7   8
ATOM      8  C   UNL     1      57.293  30.164  75.619  1.00  0.00     0.041 C 
ATOM      9  O   UNL     1      56.825  29.047  75.964  1.00  0.00    -0.550 OA
ATOM     10  O   UNL     1      56.950  30.703  74.386  1.00  0.00    -0.550 OA
ENDBRANCH   7   8
ENDBRANCH   6   7
ENDBRANCH   5   6
ENDBRANCH   4   5
ENDBRANCH   3   4
ENDBRANCH   2   3
ENDBRANCH   1   2
BRANCH   1  11
ATOM     11  C   UNL     1      58.367  36.904  80.793  1.00  0.00     0.000 C 
BRANCH  11  12
ATOM     12  C   UNL     1      56.890  36.763  80.391  1.00  0.00    -0.000 C 
BRANCH  12  13
ATOM     13  C   UNL     1      56.531  37.596  79.147  1.00  0.00    -0.000 C 
BRANCH  13  14
ATOM     14  C   UNL     1      56.465  36.750  77.866  1.00  0.00    -0.000 C 
BRANCH  14  15
ATOM     15  C   UNL     1      57.539  37.147  76.840  1.00  0.00    -0.000 C 
BRANCH  15  16
ATOM     16  C   UNL     1      57.982  38.616  76.975  1.00  0.00    -0.000 C 
BRANCH  16  17
ATOM     17  C   UNL     1      59.498  38.825  77.140  1.00  0.00    -0.003 C 
ATOM     18  C   UNL     1      60.208  37.614  77.744  1.00  0.00     0.004 C 
ENDBRANCH  16  17
ENDBRANCH  15  16
ENDBRANCH  14  15
ENDBRANCH  13  14
ENDBRANCH  12  13
ENDBRANCH  11  12
ENDBRANCH   1  11
TORSDOF 14
ENDMDL
MODEL 3
REMARK VINA RESULT:    -4.286      1.286      2.627
REMARK INTER + INTRA:          -9.333
REMARK INTER:                  -7.938
REMARK INTRA:                  -1.396
REMARK UNBOUND:                -1.539
REMARK SMILES CCCCCCCCCCCCCCCC(=O)[O-]
REMARK SMILES IDX 9 1 10 2 11 3 12 4 13 5 14 6 15 7 16 8 17 9 18 10 8 11 7 12
REMARK SMILES IDX 6 13 5 14 4 15 3 16 2 17 1 18
REMARK H PARENT
REMARK Flexibility Score: inf
ROOT
ATOM      1  C   UNL     1      58.029  33.659  78.152  1.00  0.00     0.000 C 
ENDROOT
BRANCH   1   2
ATOM      2  C   UNL     1      58.185  32.347  77.365  1.00  0.00     0.000 C 
BRANCH   2   3
ATOM      3  C   UNL     1      58.386  32.578  75.860  1.00  0.00     0.000 C 
BRANCH   3   4
ATOM      4  C   UNL     1      59.396  31.575  75.283  1.00  0.00     0.000 C 
BRANCH   4   5
ATOM      5  C   UNL     1      59.275  30.172  75.906  1.00  0.00     0.000 C 
BRANCH   5   6
ATOM      6  C   UNL     1      58.450  29.165  75.085  1.00  0.00     0.006 C 
BRANCH   6   7
ATOM      7  C   UNL     1      57.019  28.993  75.614  1.00  0.00     0.053 C 
BRANCH   7   8
ATOM      8  C   UNL     1      56.044  29.686  74.715  1.00  0.00     0.041 C 
ATOM      9  O   UNL     1      56.455  30.446  73.800  1.00  0.00    -0.550 OA
ATOM     10  O   UNL     1      54.682  29.454  74.858  1.00  0.00    -0.550 OA
ENDBRANCH   7   8
ENDBRANCH   6   7
ENDBRANCH   5   6
ENDBRANCH   4   5
ENDBRANCH   3   4
ENDBRANCH   2   3
ENDBRANCH   1   2
BRANCH   1  11
ATOM     11  C   UNL     1      58.921  33.707  79.404  1.00  0.00     0.000 C 
BRANCH  11  12
ATOM     12  C   UNL     1      58.218  34.362  80.604  1.00  0.00    -0.000 C 
BRANCH  12  13
ATOM     13  C   UNL     1      58.946  35.623  81.104  1.00  0.00    -0.000 C 
BRANCH  13  14
ATOM     14  C   UNL     1      58.111  36.901  80.923  1.00  0.00    -0.000 C 
BRANCH  14  15
ATOM     15  C   UNL     1      58.367  37.586  79.571  1.00  0.00    -0.000 C 
BRANCH  15  16
ATOM     16  C   UNL     1      57.108  37.652  78.685  1.00  0.00    -0.000 C 
BRANCH  16  17
ATOM     17  C   UNL     1      57.284  37.087  77.263  1.00  0.00    -0.003 C 
ATOM     18  C   UNL     1      56.016  36.431  76.719  1.00  0.00     0.004 C 
ENDBRANCH  16  17
ENDBRANCH  15  16
ENDBRANCH  14  15
ENDBRANCH  13  14
ENDBRANCH  12  13
ENDBRANCH  11  12
ENDBRANCH   1  11
TORSDOF 14
ENDMDL
MODEL 4
REMARK VINA RESULT:    -4.220      3.349      6.862
REMARK INTER + INTRA:          -9.213
REMARK INTER:                  -7.829
REMARK INTRA:                  -1.384
REMARK UNBOUND:                -1.539
REMARK SMILES CCCCCCCCCCCCCCCC(=O)[O-]
REMARK SMILES IDX 9 1 10 2 11 3 12 4 13 5 14 6 15 7 16 8 17 9 18 10 8 11 7 12
REMARK SMILES IDX 6 13 5 14 4 15 3 16 2 17 1 18
REMARK H PARENT
REMARK Flexibility Score: inf
ROOT
ATOM      1  C   UNL     1      57.188  35.420  75.464  1.00  0.00     0.000 C 
ENDROOT
BRANCH   1   2
ATOM      2  C   UNL     1      57.339  34.602  76.757  1.00  0.00     0.000 C 
BRANCH   2   3
ATOM      3  C   UNL     1      58.032  33.251  76.527  1.00  0.00     0.000 C 
BRANCH   3   4
ATOM      4  C   UNL     1      58.283  32.530  77.860  1.00  0.00     0.000 C 
BRANCH   4   5
ATOM      5  C   UNL     1      57.906  33.382  79.085  1.00  0.00     0.000 C 
BRANCH   5   6
ATOM      6  C   UNL     1      59.099  33.917  79.897  1.00  0.00     0.006 C 
BRANCH   6   7
ATOM      7  C   UNL     1      58.741  35.139  80.754  1.00  0.00     0.053 C 
BRANCH   7   8
ATOM      8  C   UNL     1      58.514  36.336  79.886  1.00  0.00     0.041 C 
ATOM      9  O   UNL     1      59.433  36.759  79.137  1.00  0.00    -0.550 OA
ATOM     10  O   UNL     1      57.271  36.956  79.869  1.00  0.00    -0.550 OA
ENDBRANCH   7   8
ENDBRANCH   6   7
ENDBRANCH   5   6
ENDBRANCH   4   5
ENDBRANCH   3   4
ENDBRANCH   2   3
ENDBRANCH   1   2
BRANCH   1  11
ATOM     11  C   UNL     1      56.306  34.717  74.419  1.00  0.00     0.000 C 
BRANCH  11  12
ATOM     12  C   UNL     1      56.876  34.828  72.995  1.00  0.00    -0.000 C 
BRANCH  12  13
ATOM     13  C   UNL     1      57.153  33.454  72.357  1.00  0.00    -0.000 C 
BRANCH  13  14
ATOM     14  C   UNL     1      57.076  32.303  73.373  1.00  0.00    -0.000 C 
BRANCH  14  15
ATOM     15  C   UNL     1      56.047  31.232  72.974  1.00  0.00    -0.000 C 
BRANCH  15  16
ATOM     16  C   UNL     1      55.731  30.249  74.117  1.00  0.00    -0.000 C 
BRANCH  16  17
ATOM     17  C   UNL     1      56.840  30.106  75.176  1.00  0.00    -0.003 C 
ATOM     18  C   UNL     1      57.557  28.758  75.113  1.00  0.00     0.004 C 
ENDBRANCH  16  17
ENDBRANCH  15  16
ENDBRANCH  14  15
ENDBRANCH  13  14
ENDBRANCH  12  13
ENDBRANCH  11  12
ENDBRANCH   1  11
TORSDOF 14
ENDMDL
MODEL 5
REMARK VINA RESULT:    -4.214      3.079      6.806
REMARK INTER + INTRA:          -9.201
REMARK INTER:                  -7.882
REMARK INTRA:                  -1.319
REMARK UNBOUND:                -1.539
REMARK SMILES CCCCCCCCCCCCCCCC(=O)[O-]
REMARK SMILES IDX 9 1 10 2 11 3 12 4 13 5 14 6 15 7 16 8 17 9 18 10 8 11 7 12
REMARK SMILES IDX 6 13 5 14 4 15 3 16 2 17 1 18
REMARK H PARENT
REMARK Flexibility Score: inf
ROOT
ATOM      1  C   UNL     1      57.878  33.257  77.660  1.00  0.00     0.000 C 
ENDROOT
BRANCH   1   2
ATOM      2  C   UNL     1      58.811  33.456  78.865  1.00  0.00     0.000 C 
BRANCH   2   3
ATOM      3  C   UNL     1      58.046  33.687  80.176  1.00  0.00     0.000 C 
BRANCH   3   4
ATOM      4  C   UNL     1      58.736  34.761  81.031  1.00  0.00     0.000 C 
BRANCH   4   5
ATOM      5  C   UNL     1      58.955  36.084  80.275  1.00  0.00     0.000 C 
BRANCH   5   6
ATOM      6  C   UNL     1      58.057  37.248  80.731  1.00  0.00     0.006 C 
BRANCH   6   7
ATOM      7  C   UNL     1      56.674  37.234  80.065  1.00  0.00     0.053 C 
BRANCH   7   8
ATOM      8  C   UNL     1      56.806  37.400  78.584  1.00  0.00     0.041 C 
ATOM      9  O   UNL     1      56.397  36.497  77.807  1.00  0.00    -0.550 OA
ATOM     10  O   UNL     1      57.336  38.572  78.060  1.00  0.00    -0.550 OA
ENDBRANCH   7   8
ENDBRANCH   6   7
ENDBRANCH   5   6
ENDBRANCH   4   5
ENDBRANCH   3   4
ENDBRANCH   2   3
ENDBRANCH   1   2
BRANCH   1  11
ATOM     11  C   UNL     1      58.446  32.266  76.630  1.00  0.00     0.000 C 
BRANCH  11  12
ATOM     12  C   UNL     1      58.564  32.878  75.224  1.00  0.00    -0.000 C 
BRANCH  12  13
ATOM     13  C   UNL     1      57.210  32.957  74.495  1.00  0.00    -0.000 C 
BRANCH  13  14
ATOM     14  C   UNL     1      57.214  32.200  73.156  1.00  0.00    -0.000 C 
BRANCH  14  15
ATOM     15  C   UNL     1      56.060  31.190  73.047  1.00  0.00    -0.000 C 
BRANCH  15  16
ATOM     16  C   UNL     1      55.813  30.419  74.357  1.00  0.00    -0.000 C 
BRANCH  16  17
ATOM     17  C   UNL     1      56.419  29.005  74.402  1.00  0.00    -0.003 C 
ATOM     18  C   UNL     1      57.730  28.940  75.185  1.00  0.00     0.004 C 
ENDBRANCH  16  17
ENDBRANCH  15  16
ENDBRANCH  14  15
ENDBRANCH  13  14
ENDBRANCH  12  13
ENDBRANCH  11  12
ENDBRANCH   1  11
TORSDOF 14
ENDMDL
MODEL 6
REMARK VINA RESULT:    -4.189      1.198      2.267
REMARK INTER + INTRA:          -9.156
REMARK INTER:                  -7.411
REMARK INTRA:                  -1.745
REMARK UNBOUND:                -1.539
REMARK SMILES CCCCCCCCCCCCCCCC(=O)[O-]
REMARK SMILES IDX 9 1 10 2 11 3 12 4 13 5 14 6 15 7 16 8 17 9 18 10 8 11 7 12
REMARK SMILES IDX 6 13 5 14 4 15 3 16 2 17 1 18
REMARK H PARENT
REMARK Flexibility Score: inf
ROOT
ATOM      1  C   UNL     1      58.064  33.031  78.523  1.00  0.00     0.000 C 
ENDROOT
BRANCH   1   2
ATOM      2  C   UNL     1      57.636  34.063  77.467  1.00  0.00     0.000 C 
BRANCH   2   3
ATOM      3  C   UNL     1      58.205  33.757  76.073  1.00  0.00     0.000 C 
BRANCH   3   4
ATOM      4  C   UNL     1      57.417  34.500  74.984  1.00  0.00     0.000 C 
BRANCH   4   5
ATOM      5  C   UNL     1      56.935  33.574  73.852  1.00  0.00     0.000 C 
BRANCH   5   6
ATOM      6  C   UNL     1      57.578  32.176  73.838  1.00  0.00     0.006 C 
BRANCH   6   7
ATOM      7  C   UNL     1      56.547  31.042  73.912  1.00  0.00     0.053 C 
BRANCH   7   8
ATOM      8  C   UNL     1      56.958  30.026  74.931  1.00  0.00     0.041 C 
ATOM      9  O   UNL     1      57.319  30.392  76.079  1.00  0.00    -0.550 OA
ATOM     10  O   UNL     1      56.897  28.672  74.627  1.00  0.00    -0.550 OA
ENDBRANCH   7   8
ENDBRANCH   6   7
ENDBRANCH   5   6
ENDBRANCH   4   5
ENDBRANCH   3   4
ENDBRANCH   2   3
ENDBRANCH   1   2
BRANCH   1  11
ATOM     11  C   UNL     1      58.258  33.657  79.915  1.00  0.00     0.000 C 
BRANCH  11  12
ATOM     12  C   UNL     1      59.065  34.964  79.867  1.00  0.00    -0.000 C 
BRANCH  12  13
ATOM     13  C   UNL     1      58.795  35.875  81.078  1.00  0.00    -0.000 C 
BRANCH  13  14
ATOM     14  C   UNL     1      57.856  37.046  80.742  1.00  0.00    -0.000 C 
BRANCH  14  15
ATOM     15  C   UNL     1      58.132  37.642  79.352  1.00  0.00    -0.000 C 
BRANCH  15  16
ATOM     16  C   UNL     1      56.909  37.574  78.418  1.00  0.00    -0.000 C 
BRANCH  16  17
ATOM     17  C   UNL     1      57.220  37.781  76.924  1.00  0.00    -0.003 C 
ATOM     18  C   UNL     1      58.701  37.608  76.591  1.00  0.00     0.004 C 
ENDBRANCH  16  17
ENDBRANCH  15  16
ENDBRANCH  14  15
ENDBRANCH  13  14
ENDBRANCH  12  13
ENDBRANCH  11  12
ENDBRANCH   1  11
TORSDOF 14
ENDMDL
MODEL 7
REMARK VINA RESULT:    -4.172      2.470      5.862
REMARK INTER + INTRA:          -9.126
REMARK INTER:                  -7.746
REMARK INTRA:                  -1.380
REMARK UNBOUND:                -1.539
REMARK SMILES CCCCCCCCCCCCCCCC(=O)[O-]
REMARK SMILES IDX 9 1 10 2 11 3 12 4 13 5 14 6 15 7 16 8 17 9 18 10 8 11 7 12
REMARK SMILES IDX 6 13 5 14 4 15 3 16 2 17 1 18
REMARK H PARENT
REMARK Flexibility Score: inf
ROOT
ATOM      1  C   UNL     1      58.608  34.151  80.019  1.00  0.00     0.000 C 
ENDROOT
BRANCH   1   2
ATOM      2  C   UNL     1      58.684  35.570  79.433  1.00  0.00     0.000 C 
BRANCH   2   3
ATOM      3  C   UNL     1      58.084  36.631  80.367  1.00  0.00     0.000 C 
BRANCH   3   4
ATOM      4  C   UNL     1      56.984  37.431  79.652  1.00  0.00     0.000 C 
BRANCH   4   5
ATOM      5  C   UNL     1      56.667  36.894  78.244  1.00  0.00     0.000 C 
BRANCH   5   6
ATOM      6  C   UNL     1      57.131  37.795  77.086  1.00  0.00     0.006 C 
BRANCH   6   7
ATOM      7  C   UNL     1      57.485  37.005  75.818  1.00  0.00     0.053 C 
BRANCH   7   8
ATOM      8  C   UNL     1      56.243  36.493  75.158  1.00  0.00     0.041 C 
ATOM      9  O   UNL     1      56.069  35.256  75.011  1.00  0.00    -0.550 OA
ATOM     10  O   UNL     1      55.257  37.381  74.750  1.00  0.00    -0.550 OA
ENDBRANCH   7   8
ENDBRANCH   6   7
ENDBRANCH   5   6
ENDBRANCH   4   5
ENDBRANCH   3   4
ENDBRANCH   2   3
ENDBRANCH   1   2
BRANCH   1  11
ATOM     11  C   UNL     1      57.975  33.143  79.046  1.00  0.00     0.000 C 
BRANCH  11  12
ATOM     12  C   UNL     1      57.838  33.705  77.621  1.00  0.00    -0.000 C 
BRANCH  12  13
ATOM     13  C   UNL     1      58.288  32.704  76.541  1.00  0.00    -0.000 C 
BRANCH  13  14
ATOM     14  C   UNL     1      58.270  31.249  77.037  1.00  0.00    -0.000 C 
BRANCH  14  15
ATOM     15  C   UNL     1      59.146  30.322  76.179  1.00  0.00    -0.000 C 
BRANCH  15  16
ATOM     16  C   UNL     1      58.326  29.446  75.215  1.00  0.00    -0.000 C 
BRANCH  16  17
ATOM     17  C   UNL     1      56.837  29.297  75.579  1.00  0.00    -0.003 C 
ATOM     18  C   UNL     1      55.900  29.638  74.421  1.00  0.00     0.004 C 
ENDBRANCH  16  17
ENDBRANCH  15  16
ENDBRANCH  14  15
ENDBRANCH  13  14
ENDBRANCH  12  13
ENDBRANCH  11  12
ENDBRANCH   1  11
TORSDOF 14
ENDMDL
MODEL 8
REMARK VINA RESULT:    -4.138      1.748      3.289
REMARK INTER + INTRA:          -9.064
REMARK INTER:                  -7.156
REMARK INTRA:                  -1.908
REMARK UNBOUND:                -1.539
REMARK SMILES CCCCCCCCCCCCCCCC(=O)[O-]
REMARK SMILES IDX 9 1 10 2 11 3 12 4 13 5 14 6 15 7 16 8 17 9 18 10 8 11 7 12
REMARK SMILES IDX 6 13 5 14 4 15 3 16 2 17 1 18
REMARK H PARENT
REMARK Flexibility Score: inf
ROOT
ATOM      1  C   UNL     1      57.230  36.878  80.147  1.00  0.00     0.000 C 
ENDROOT
BRANCH   1   2
ATOM      2  C   UNL     1      58.728  36.592  80.336  1.00  0.00     0.000 C 
BRANCH   2   3
ATOM      3  C   UNL     1      58.992  35.347  81.195  1.00  0.00     0.000 C 
BRANCH   3   4
ATOM      4  C   UNL     1      58.312  34.110  80.590  1.00  0.00     0.000 C 
BRANCH   4   5
ATOM      5  C   UNL     1      58.913  33.695  79.234  1.00  0.00     0.000 C 
BRANCH   5   6
ATOM      6  C   UNL     1      57.922  33.038  78.257  1.00  0.00     0.006 C 
BRANCH   6   7
ATOM      7  C   UNL     1      58.582  31.995  77.345  1.00  0.00     0.053 C 
BRANCH   7   8
ATOM      8  C   UNL     1      57.894  31.952  76.017  1.00  0.00     0.041 C 
ATOM      9  O   UNL     1      57.885  32.969  75.276  1.00  0.00    -0.550 OA
ATOM     10  O   UNL     1      57.306  30.773  75.577  1.00  0.00    -0.550 OA
ENDBRANCH   7   8
ENDBRANCH   6   7
ENDBRANCH   5   6
ENDBRANCH   4   5
ENDBRANCH   3   4
ENDBRANCH   2   3
ENDBRANCH   1   2
BRANCH   1  11
ATOM     11  C   UNL     1      56.911  37.471  78.764  1.00  0.00     0.000 C 
BRANCH  11  12
ATOM     12  C   UNL     1      56.494  36.398  77.745  1.00  0.00    -0.000 C 
BRANCH  12  13
ATOM     13  C   UNL     1      57.384  36.394  76.488  1.00  0.00    -0.000 C 
BRANCH  13  14
ATOM     14  C   UNL     1      58.875  36.577  76.817  1.00  0.00    -0.000 C 
BRANCH  14  15
ATOM     15  C   UNL     1      59.410  37.951  76.383  1.00  0.00    -0.000 C 
BRANCH  15  16
ATOM     16  C   UNL     1      58.400  38.748  75.536  1.00  0.00    -0.000 C 
BRANCH  16  17
ATOM     17  C   UNL     1      57.878  40.040  76.191  1.00  0.00    -0.003 C 
ATOM     18  C   UNL     1      58.997  40.934  76.724  1.00  0.00     0.004 C 
ENDBRANCH  16  17
ENDBRANCH  15  16
ENDBRANCH  14  15
ENDBRANCH  13  14
ENDBRANCH  12  13
ENDBRANCH  11  12
ENDBRANCH   1  11
TORSDOF 14
ENDMDL
MODEL 9
REMARK VINA RESULT:    -4.137      3.596      6.903
REMARK INTER + INTRA:          -9.062
REMARK INTER:                  -7.748
REMARK INTRA:                  -1.314
REMARK UNBOUND:                -1.539
REMARK SMILES CCCCCCCCCCCCCCCC(=O)[O-]
REMARK SMILES IDX 9 1 10 2 11 3 12 4 13 5 14 6 15 7 16 8 17 9 18 10 8 11 7 12
REMARK SMILES IDX 6 13 5 14 4 15 3 16 2 17 1 18
REMARK H PARENT
REMARK Flexibility Score: inf
ROOT
ATOM      1  C   UNL     1      60.095  31.002  75.868  1.00  0.00     0.000 C 
ENDROOT
BRANCH   1   2
ATOM      2  C   UNL     1      59.203  32.171  76.318  1.00  0.00     0.000 C 
BRANCH   2   3
ATOM      3  C   UNL     1      58.276  31.795  77.483  1.00  0.00     0.000 C 
BRANCH   3   4
ATOM      4  C   UNL     1      58.006  33.012  78.383  1.00  0.00     0.000 C 
BRANCH   4   5
ATOM      5  C   UNL     1      57.624  34.274  77.589  1.00  0.00     0.000 C 
BRANCH   5   6
ATOM      6  C   UNL     1      57.579  35.572  78.415  1.00  0.00     0.006 C 
BRANCH   6   7
ATOM      7  C   UNL     1      58.915  35.894  79.097  1.00  0.00     0.053 C 
BRANCH   7   8
ATOM      8  C   UNL     1      58.711  36.132  80.560  1.00  0.00     0.041 C 
ATOM      9  O   UNL     1      58.111  37.165  80.956  1.00  0.00    -0.550 OA
ATOM     10  O   UNL     1      59.140  35.188  81.485  1.00  0.00    -0.550 OA
ENDBRANCH   7   8
ENDBRANCH   6   7
ENDBRANCH   5   6
ENDBRANCH   4   5
ENDBRANCH   3   4
ENDBRANCH   2   3
ENDBRANCH   1   2
BRANCH   1  11
ATOM     11  C   UNL     1      59.546  29.635  76.312  1.00  0.00     0.000 C 
BRANCH  11  12
ATOM     12  C   UNL     1      58.714  28.950  75.216  1.00  0.00    -0.000 C 
BRANCH  12  13
ATOM     13  C   UNL     1      57.254  28.712  75.640  1.00  0.00    -0.000 C 
BRANCH  13  14
ATOM     14  C   UNL     1      56.264  29.622  74.894  1.00  0.00    -0.000 C 
BRANCH  14  15
ATOM     15  C   UNL     1      56.971  30.681  74.032  1.00  0.00    -0.000 C 
BRANCH  15  16
ATOM     16  C   UNL     1      55.988  31.568  73.246  1.00  0.00    -0.000 C 
BRANCH  16  17
ATOM     17  C   UNL     1      56.449  33.022  73.036  1.00  0.00    -0.003 C 
ATOM     18  C   UNL     1      57.708  33.133  72.179  1.00  0.00     0.004 C 
ENDBRANCH  16  17
ENDBRANCH  15  16
ENDBRANCH  14  15
ENDBRANCH  13  14
ENDBRANCH  12  13
ENDBRANCH  11  12
ENDBRANCH   1  11
TORSDOF 14
ENDMDL
