MODEL 1
REMARK VINA RESULT:     3.402      0.000      0.000
REMARK INTER + INTRA:           4.492
REMARK INTER:                   3.999
REMARK INTRA:                   0.494
REMARK UNBOUND:                 0.494
REMARK SMILES O=c1c(O)c(-c2ccc(O)cc2)oc2cc(O)cc(O)c12
REMARK SMILES IDX 5 1 3 2 2 3 1 4 21 5 19 6 18 7 16 8 15 9 14 10 13 11 6 12
REMARK SMILES IDX 7 13 8 14 9 15 12 16 11 17 10 18 4 20 20 22 17 24
REMARK H PARENT 10 19 4 21 20 23 17 25
REMARK Flexibility Score: inf
ROOT
ATOM      1  C   UNL     1     -34.286 -36.091 -34.655  1.00  0.00     0.180 A 
ATOM      2  C   UNL     1     -35.586 -36.047 -34.114  1.00  0.00     0.208 A 
ATOM      3  C   UNL     1     -36.683 -36.001 -34.989  1.00  0.00     0.238 A 
ATOM      4  O   UNL     1     -37.852 -35.950 -34.516  1.00  0.00    -0.285 OA
ATOM      5  C   UNL     1     -36.465 -36.020 -36.381  1.00  0.00     0.111 A 
ATOM      6  C   UNL     1     -37.515 -35.981 -37.330  1.00  0.00     0.134 A 
ATOM      7  C   UNL     1     -37.217 -36.013 -38.700  1.00  0.00     0.093 A 
ATOM      8  C   UNL     1     -35.893 -36.085 -39.140  1.00  0.00     0.123 A 
ATOM      9  C   UNL     1     -34.851 -36.124 -38.207  1.00  0.00     0.094 A 
ATOM     10  C   UNL     1     -35.127 -36.091 -36.838  1.00  0.00     0.146 A 
ATOM     11  O   UNL     1     -34.120 -36.123 -35.973  1.00  0.00    -0.452 OA
ENDROOT
BRANCH   1  12
ATOM     12  C   UNL     1     -33.078 -36.123 -33.798  1.00  0.00     0.021 A 
ATOM     13  C   UNL     1     -33.174 -36.120 -32.394  1.00  0.00     0.016 A 
ATOM     14  C   UNL     1     -32.019 -36.125 -31.607  1.00  0.00     0.047 A 
ATOM     15  C   UNL     1     -30.755 -36.119 -32.211  1.00  0.00     0.115 A 
ATOM     16  C   UNL     1     -31.807 -36.095 -34.394  1.00  0.00     0.016 A 
ATOM     17  C   UNL     1     -30.653 -36.100 -33.605  1.00  0.00     0.047 A 
BRANCH  15  18
ATOM     18  O   UNL     1     -29.598 -36.125 -31.436  1.00  0.00    -0.508 OA
ATOM     19  H   UNL     1     -29.546 -35.623 -30.556  1.00  0.00     0.293 HD
ENDBRANCH  15  18
ENDBRANCH   1  12
BRANCH   2  20
ATOM     20  O   UNL     1     -35.777 -36.078 -32.730  1.00  0.00    -0.502 OA
ATOM     21  H   UNL     1     -35.895 -35.236 -32.180  1.00  0.00     0.293 HD
ENDBRANCH   2  20
BRANCH   6  22
ATOM     22  O   UNL     1     -38.848 -35.910 -36.923  1.00  0.00    -0.507 OA
ATOM     23  H   UNL     1     -39.367 -36.737 -36.649  1.00  0.00     0.293 HD
ENDBRANCH   6  22
BRANCH   8  24
ATOM     24  O   UNL     1     -35.624 -36.118 -40.506  1.00  0.00    -0.508 OA
ATOM     25  H   UNL     1     -35.758 -36.960 -41.053  1.00  0.00     0.293 HD
ENDBRANCH   8  24
TORSDOF 5
ENDMDL
MODEL 2
REMARK VINA RESULT:     5.603      3.380      4.636
REMARK INTER + INTRA:           7.079
REMARK INTER:                   6.883
REMARK INTRA:                   0.196
REMARK UNBOUND:                 0.494
REMARK SMILES O=c1c(O)c(-c2ccc(O)cc2)oc2cc(O)cc(O)c12
REMARK SMILES IDX 5 1 3 2 2 3 1 4 21 5 19 6 18 7 16 8 15 9 14 10 13 11 6 12
REMARK SMILES IDX 7 13 8 14 9 15 12 16 11 17 10 18 4 20 20 22 17 24
REMARK H PARENT 10 19 4 21 20 23 17 25
REMARK Flexibility Score: inf
ROOT
ATOM      1  C   UNL     1     -37.592 -35.605 -34.981  1.00  0.00     0.180 A 
ATOM      2  C   UNL     1     -38.654 -35.869 -35.868  1.00  0.00     0.208 A 
ATOM      3  C   UNL     1     -38.393 -35.900 -37.247  1.00  0.00     0.238 A 
ATOM      4  O   UNL     1     -39.339 -36.125 -38.052  1.00  0.00    -0.285 OA
ATOM      5  C   UNL     1     -37.080 -35.688 -37.713  1.00  0.00     0.111 A 
ATOM      6  C   UNL     1     -36.734 -35.706 -39.086  1.00  0.00     0.134 A 
ATOM      7  C   UNL     1     -35.401 -35.495 -39.470  1.00  0.00     0.093 A 
ATOM      8  C   UNL     1     -34.411 -35.267 -38.512  1.00  0.00     0.123 A 
ATOM      9  C   UNL     1     -34.747 -35.247 -37.154  1.00  0.00     0.094 A 
ATOM     10  C   UNL     1     -36.070 -35.453 -36.751  1.00  0.00     0.146 A 
ATOM     11  O   UNL     1     -36.364 -35.424 -35.456  1.00  0.00    -0.452 OA
ENDROOT
BRANCH   1  12
ATOM     12  C   UNL     1     -37.790 -35.537 -33.515  1.00  0.00     0.021 A 
ATOM     13  C   UNL     1     -36.873 -36.123 -32.623  1.00  0.00     0.016 A 
ATOM     14  C   UNL     1     -37.095 -36.067 -31.244  1.00  0.00     0.047 A 
ATOM     15  C   UNL     1     -38.241 -35.438 -30.739  1.00  0.00     0.115 A 
ATOM     16  C   UNL     1     -38.946 -34.927 -33.001  1.00  0.00     0.016 A 
ATOM     17  C   UNL     1     -39.166 -34.872 -31.622  1.00  0.00     0.047 A 
BRANCH  15  18
ATOM     18  O   UNL     1     -38.471 -35.375 -29.367  1.00  0.00    -0.508 OA
ATOM     19  H   UNL     1     -39.241 -34.840 -28.982  1.00  0.00     0.293 HD
ENDBRANCH  15  18
ENDBRANCH   1  12
BRANCH   2  20
ATOM     20  O   UNL     1     -39.937 -36.125 -35.377  1.00  0.00    -0.502 OA
ATOM     21  H   UNL     1     -40.773 -35.794 -35.845  1.00  0.00     0.293 HD
ENDBRANCH   2  20
BRANCH   6  22
ATOM     22  O   UNL     1     -37.699 -35.933 -40.067  1.00  0.00    -0.507 OA
ATOM     23  H   UNL     1     -37.733 -36.800 -40.592  1.00  0.00     0.293 HD
ENDBRANCH   6  22
BRANCH   8  24
ATOM     24  O   UNL     1     -33.095 -35.061 -38.919  1.00  0.00    -0.508 OA
ATOM     25  H   UNL     1     -32.359 -35.719 -38.687  1.00  0.00     0.293 HD
ENDBRANCH   8  24
TORSDOF 5
ENDMDL
MODEL 3
REMARK VINA RESULT:     6.046      1.605      3.532
REMARK INTER + INTRA:           7.600
REMARK INTER:                   7.028
REMARK INTRA:                   0.573
REMARK UNBOUND:                 0.494
REMARK SMILES O=c1c(O)c(-c2ccc(O)cc2)oc2cc(O)cc(O)c12
REMARK SMILES IDX 5 1 3 2 2 3 1 4 21 5 19 6 18 7 16 8 15 9 14 10 13 11 6 12
REMARK SMILES IDX 7 13 8 14 9 15 12 16 11 17 10 18 4 20 20 22 17 24
REMARK H PARENT 10 19 4 21 20 23 17 25
REMARK Flexibility Score: inf
ROOT
ATOM      1  C   UNL     1     -34.209 -36.039 -34.153  1.00  0.00     0.180 A 
ATOM      2  C   UNL     1     -34.484 -36.084 -35.533  1.00  0.00     0.208 A 
ATOM      3  C   UNL     1     -35.821 -36.056 -35.960  1.00  0.00     0.238 A 
ATOM      4  O   UNL     1     -36.079 -36.107 -37.194  1.00  0.00    -0.285 OA
ATOM      5  C   UNL     1     -36.855 -35.965 -35.006  1.00  0.00     0.111 A 
ATOM      6  C   UNL     1     -38.227 -35.929 -35.353  1.00  0.00     0.134 A 
ATOM      7  C   UNL     1     -39.198 -35.828 -34.345  1.00  0.00     0.093 A 
ATOM      8  C   UNL     1     -38.824 -35.762 -33.001  1.00  0.00     0.123 A 
ATOM      9  C   UNL     1     -37.470 -35.799 -32.652  1.00  0.00     0.094 A 
ATOM     10  C   UNL     1     -36.488 -35.900 -33.641  1.00  0.00     0.146 A 
ATOM     11  O   UNL     1     -35.210 -35.939 -33.283  1.00  0.00    -0.452 OA
ENDROOT
BRANCH   1  12
ATOM     12  C   UNL     1     -32.826 -36.083 -33.624  1.00  0.00     0.021 A 
ATOM     13  C   UNL     1     -32.568 -36.041 -32.241  1.00  0.00     0.016 A 
ATOM     14  C   UNL     1     -31.253 -36.059 -31.767  1.00  0.00     0.047 A 
ATOM     15  C   UNL     1     -30.181 -36.105 -32.667  1.00  0.00     0.115 A 
ATOM     16  C   UNL     1     -31.744 -36.107 -34.519  1.00  0.00     0.016 A 
ATOM     17  C   UNL     1     -30.431 -36.125 -34.043  1.00  0.00     0.047 A 
BRANCH  15  18
ATOM     18  O   UNL     1     -28.866 -36.124 -32.206  1.00  0.00    -0.508 OA
ATOM     19  H   UNL     1     -28.649 -36.018 -31.221  1.00  0.00     0.293 HD
ENDBRANCH  15  18
ENDBRANCH   1  12
BRANCH   2  20
ATOM     20  O   UNL     1     -33.439 -36.124 -36.460  1.00  0.00    -0.502 OA
ATOM     21  H   UNL     1     -32.672 -35.462 -36.442  1.00  0.00     0.293 HD
ENDBRANCH   2  20
BRANCH   6  22
ATOM     22  O   UNL     1     -38.633 -35.991 -36.687  1.00  0.00    -0.507 OA
ATOM     23  H   UNL     1     -38.202 -36.629 -37.347  1.00  0.00     0.293 HD
ENDBRANCH   6  22
BRANCH   8  24
ATOM     24  O   UNL     1     -39.807 -35.661 -32.019  1.00  0.00    -0.508 OA
ATOM     25  H   UNL     1     -40.386 -34.834 -31.932  1.00  0.00     0.293 HD
ENDBRANCH   8  24
TORSDOF 5
ENDMDL
