MODEL 1
REMARK VINA RESULT:    -3.296      0.000      0.000
REMARK INTER + INTRA:          -6.215
REMARK INTER:                  -5.607
REMARK INTRA:                  -0.607
REMARK UNBOUND:                -0.607
REMARK SMILES CCCCCCCCCCCCCC(=O)[O-]
REMARK SMILES IDX 8 1 9 2 10 3 11 4 12 5 13 6 14 7 15 8 16 9 7 10 6 11 5 12
REMARK SMILES IDX 4 13 3 14 2 15 1 16
REMARK H PARENT
REMARK Flexibility Score: inf
ROOT
ATOM      1  C   UNL     1       6.631   7.588  34.421  1.00  0.00     0.000 C 
ENDROOT
BRANCH   1   2
ATOM      2  C   UNL     1       6.402   6.140  33.964  1.00  0.00     0.000 C 
BRANCH   2   3
ATOM      3  C   UNL     1       5.960   5.214  35.111  1.00  0.00     0.000 C 
BRANCH   3   4
ATOM      4  C   UNL     1       6.275   5.729  36.531  1.00  0.00     0.000 C 
BRANCH   4   5
ATOM      5  C   UNL     1       7.613   5.247  37.118  1.00  0.00     0.006 C 
BRANCH   5   6
ATOM      6  C   UNL     1       8.829   5.852  36.404  1.00  0.00     0.053 C 
BRANCH   6   7
ATOM      7  C   UNL     1       9.818   4.783  36.065  1.00  0.00     0.041 C 
ATOM      8  O   UNL     1      10.391   4.782  34.943  1.00  0.00    -0.550 OA
ATOM      9  O   UNL     1      10.073   3.758  36.969  1.00  0.00    -0.550 OA
ENDBRANCH   6   7
ENDBRANCH   5   6
ENDBRANCH   4   5
ENDBRANCH   3   4
ENDBRANCH   2   3
ENDBRANCH   1   2
BRANCH   1  10
ATOM     10  C   UNL     1       7.861   8.193  33.729  1.00  0.00     0.000 C 
BRANCH  10  11
ATOM     11  C   UNL     1       7.549   9.510  32.996  1.00  0.00    -0.000 C 
BRANCH  11  12
ATOM     12  C   UNL     1       6.123  10.057  33.207  1.00  0.00    -0.000 C 
BRANCH  12  13
ATOM     13  C   UNL     1       6.038  11.358  34.025  1.00  0.00    -0.000 C 
BRANCH  13  14
ATOM     14  C   UNL     1       5.875  12.606  33.145  1.00  0.00    -0.000 C 
BRANCH  14  15
ATOM     15  C   UNL     1       6.081  13.885  33.964  1.00  0.00    -0.003 C 
ATOM     16  C   UNL     1       5.968  13.606  35.460  1.00  0.00     0.004 C 
ENDBRANCH  14  15
ENDBRANCH  13  14
ENDBRANCH  12  13
ENDBRANCH  11  12
ENDBRANCH  10  11
ENDBRANCH   1  10
TORSDOF 12
ENDMDL
MODEL 2
REMARK VINA RESULT:    -3.287      1.787      2.843
REMARK INTER + INTRA:          -6.200
REMARK INTER:                  -5.842
REMARK INTRA:                  -0.358
REMARK UNBOUND:                -0.607
REMARK SMILES CCCCCCCCCCCCCC(=O)[O-]
REMARK SMILES IDX 8 1 9 2 10 3 11 4 12 5 13 6 14 7 15 8 16 9 7 10 6 11 5 12
REMARK SMILES IDX 4 13 3 14 2 15 1 16
REMARK H PARENT
REMARK Flexibility Score: inf
ROOT
ATOM      1  C   UNL     1       7.010   9.585  33.531  1.00  0.00     0.000 C 
ENDROOT
BRANCH   1   2
ATOM      2  C   UNL     1       6.386   8.320  34.139  1.00  0.00     0.000 C 
BRANCH   2   3
ATOM      3  C   UNL     1       7.174   7.042  33.800  1.00  0.00     0.000 C 
BRANCH   3   4
ATOM      4  C   UNL     1       6.801   5.800  34.635  1.00  0.00     0.000 C 
BRANCH   4   5
ATOM      5  C   UNL     1       6.793   6.015  36.159  1.00  0.00     0.006 C 
BRANCH   5   6
ATOM      6  C   UNL     1       7.972   5.330  36.862  1.00  0.00     0.053 C 
BRANCH   6   7
ATOM      7  C   UNL     1       7.965   3.862  36.580  1.00  0.00     0.041 C 
ATOM      8  O   UNL     1       6.976   3.157  36.915  1.00  0.00    -0.550 OA
ATOM      9  O   UNL     1       9.072   3.261  35.991  1.00  0.00    -0.550 OA
ENDBRANCH   6   7
ENDBRANCH   5   6
ENDBRANCH   4   5
ENDBRANCH   3   4
ENDBRANCH   2   3
ENDBRANCH   1   2
BRANCH   1  10
ATOM     10  C   UNL     1       5.929  10.626  33.204  1.00  0.00     0.000 C 
BRANCH  10  11
ATOM     11  C   UNL     1       5.876  11.776  34.225  1.00  0.00    -0.000 C 
BRANCH  11  12
ATOM     12  C   UNL     1       5.892  13.194  33.619  1.00  0.00    -0.000 C 
BRANCH  12  13
ATOM     13  C   UNL     1       6.219  14.325  34.611  1.00  0.00    -0.000 C 
BRANCH  13  14
ATOM     14  C   UNL     1       6.494  15.666  33.917  1.00  0.00    -0.000 C 
BRANCH  14  15
ATOM     15  C   UNL     1       5.902  16.830  34.720  1.00  0.00    -0.003 C 
ATOM     16  C   UNL     1       6.427  18.171  34.215  1.00  0.00     0.004 C 
ENDBRANCH  14  15
ENDBRANCH  13  14
ENDBRANCH  12  13
ENDBRANCH  11  12
ENDBRANCH  10  11
ENDBRANCH   1  10
TORSDOF 12
ENDMDL
MODEL 3
REMARK VINA RESULT:    -3.114     22.394     24.323
REMARK INTER + INTRA:          -5.905
REMARK INTER:                  -4.921
REMARK INTRA:                  -0.985
REMARK UNBOUND:                -0.607
REMARK SMILES CCCCCCCCCCCCCC(=O)[O-]
REMARK SMILES IDX 8 1 9 2 10 3 11 4 12 5 13 6 14 7 15 8 16 9 7 10 6 11 5 12
REMARK SMILES IDX 4 13 3 14 2 15 1 16
REMARK H PARENT
REMARK Flexibility Score: inf
ROOT
ATOM      1  C   UNL     1      20.579  20.630  20.694  1.00  0.00     0.000 C 
ENDROOT
BRANCH   1   2
ATOM      2  C   UNL     1      21.363  21.915  20.995  1.00  0.00     0.000 C 
BRANCH   2   3
ATOM      3  C   UNL     1      22.854  21.806  20.627  1.00  0.00     0.000 C 
BRANCH   3   4
ATOM      4  C   UNL     1      23.142  21.307  19.196  1.00  0.00     0.000 C 
BRANCH   4   5
ATOM      5  C   UNL     1      24.446  20.506  19.033  1.00  0.00     0.006 C 
BRANCH   5   6
ATOM      6  C   UNL     1      24.316  19.055  19.514  1.00  0.00     0.053 C 
BRANCH   6   7
ATOM      7  C   UNL     1      25.347  18.757  20.555  1.00  0.00     0.041 C 
ATOM      8  O   UNL     1      25.653  19.628  21.412  1.00  0.00    -0.550 OA
ATOM      9  O   UNL     1      26.006  17.533  20.551  1.00  0.00    -0.550 OA
ENDBRANCH   6   7
ENDBRANCH   5   6
ENDBRANCH   4   5
ENDBRANCH   3   4
ENDBRANCH   2   3
ENDBRANCH   1   2
BRANCH   1  10
ATOM     10  C   UNL     1      19.069  20.908  20.646  1.00  0.00     0.000 C 
BRANCH  10  11
ATOM     11  C   UNL     1      18.680  21.917  19.552  1.00  0.00    -0.000 C 
BRANCH  11  12
ATOM     12  C   UNL     1      18.008  21.307  18.305  1.00  0.00    -0.000 C 
BRANCH  12  13
ATOM     13  C   UNL     1      16.894  20.286  18.597  1.00  0.00    -0.000 C 
BRANCH  13  14
ATOM     14  C   UNL     1      17.114  18.943  17.887  1.00  0.00    -0.000 C 
BRANCH  14  15
ATOM     15  C   UNL     1      17.942  17.991  18.758  1.00  0.00    -0.003 C 
ATOM     16  C   UNL     1      18.475  16.818  17.940  1.00  0.00     0.004 C 
ENDBRANCH  14  15
ENDBRANCH  13  14
ENDBRANCH  12  13
ENDBRANCH  11  12
ENDBRANCH  10  11
ENDBRANCH   1  10
TORSDOF 12
ENDMDL
MODEL 4
REMARK VINA RESULT:    -2.897     22.225     24.537
REMARK INTER + INTRA:          -5.537
REMARK INTER:                  -4.435
REMARK INTRA:                  -1.102
REMARK UNBOUND:                -0.607
REMARK SMILES CCCCCCCCCCCCCC(=O)[O-]
REMARK SMILES IDX 8 1 9 2 10 3 11 4 12 5 13 6 14 7 15 8 16 9 7 10 6 11 5 12
REMARK SMILES IDX 4 13 3 14 2 15 1 16
REMARK H PARENT
REMARK Flexibility Score: inf
ROOT
ATOM      1  C   UNL     1      20.885  20.652  20.562  1.00  0.00     0.000 C 
ENDROOT
BRANCH   1   2
ATOM      2  C   UNL     1      19.997  21.238  19.455  1.00  0.00     0.000 C 
BRANCH   2   3
ATOM      3  C   UNL     1      18.496  21.169  19.792  1.00  0.00     0.000 C 
BRANCH   3   4
ATOM      4  C   UNL     1      17.566  20.882  18.595  1.00  0.00     0.000 C 
BRANCH   4   5
ATOM      5  C   UNL     1      16.860  19.516  18.629  1.00  0.00     0.006 C 
BRANCH   5   6
ATOM      6  C   UNL     1      17.759  18.394  19.162  1.00  0.00     0.053 C 
BRANCH   6   7
ATOM      7  C   UNL     1      18.381  17.641  18.030  1.00  0.00     0.041 C 
ATOM      8  O   UNL     1      18.416  16.383  18.049  1.00  0.00    -0.550 OA
ATOM      9  O   UNL     1      18.967  18.331  16.974  1.00  0.00    -0.550 OA
ENDBRANCH   6   7
ENDBRANCH   5   6
ENDBRANCH   4   5
ENDBRANCH   3   4
ENDBRANCH   2   3
ENDBRANCH   1   2
BRANCH   1  10
ATOM     10  C   UNL     1      22.243  21.366  20.610  1.00  0.00     0.000 C 
BRANCH  10  11
ATOM     11  C   UNL     1      22.598  22.069  19.287  1.00  0.00    -0.000 C 
BRANCH  11  12
ATOM     12  C   UNL     1      23.762  21.434  18.499  1.00  0.00    -0.000 C 
BRANCH  12  13
ATOM     13  C   UNL     1      23.706  19.902  18.372  1.00  0.00    -0.000 C 
BRANCH  13  14
ATOM     14  C   UNL     1      25.000  19.217  18.835  1.00  0.00    -0.000 C 
BRANCH  14  15
ATOM     15  C   UNL     1      24.867  18.710  20.276  1.00  0.00    -0.003 C 
ATOM     16  C   UNL     1      25.611  19.620  21.250  1.00  0.00     0.004 C 
ENDBRANCH  14  15
ENDBRANCH  13  14
ENDBRANCH  12  13
ENDBRANCH  11  12
ENDBRANCH  10  11
ENDBRANCH   1  10
TORSDOF 12
ENDMDL
MODEL 5
REMARK VINA RESULT:    -2.894     21.325     22.876
REMARK INTER + INTRA:          -5.532
REMARK INTER:                  -3.617
REMARK INTRA:                  -1.915
REMARK UNBOUND:                -0.607
REMARK SMILES CCCCCCCCCCCCCC(=O)[O-]
REMARK SMILES IDX 8 1 9 2 10 3 11 4 12 5 13 6 14 7 15 8 16 9 7 10 6 11 5 12
REMARK SMILES IDX 4 13 3 14 2 15 1 16
REMARK H PARENT
REMARK Flexibility Score: inf
ROOT
ATOM      1  C   UNL     1      20.680   3.711  20.566  1.00  0.00     0.000 C 
ENDROOT
BRANCH   1   2
ATOM      2  C   UNL     1      21.419   2.378  20.754  1.00  0.00     0.000 C 
BRANCH   2   3
ATOM      3  C   UNL     1      22.950   2.541  20.776  1.00  0.00     0.000 C 
BRANCH   3   4
ATOM      4  C   UNL     1      23.454   3.994  20.895  1.00  0.00     0.000 C 
BRANCH   4   5
ATOM      5  C   UNL     1      24.887   4.147  21.435  1.00  0.00     0.006 C 
BRANCH   5   6
ATOM      6  C   UNL     1      25.918   3.361  20.614  1.00  0.00     0.053 C 
BRANCH   6   7
ATOM      7  C   UNL     1      25.936   3.845  19.199  1.00  0.00     0.041 C 
ATOM      8  O   UNL     1      25.825   3.027  18.248  1.00  0.00    -0.550 OA
ATOM      9  O   UNL     1      26.125   5.195  18.928  1.00  0.00    -0.550 OA
ENDBRANCH   6   7
ENDBRANCH   5   6
ENDBRANCH   4   5
ENDBRANCH   3   4
ENDBRANCH   2   3
ENDBRANCH   1   2
BRANCH   1  10
ATOM     10  C   UNL     1      19.708   3.636  19.379  1.00  0.00     0.000 C 
BRANCH  10  11
ATOM     11  C   UNL     1      20.138   2.609  18.317  1.00  0.00    -0.000 C 
BRANCH  11  12
ATOM     12  C   UNL     1      20.874   3.197  17.095  1.00  0.00    -0.000 C 
BRANCH  12  13
ATOM     13  C   UNL     1      22.408   3.240  17.215  1.00  0.00    -0.000 C 
BRANCH  13  14
ATOM     14  C   UNL     1      22.990   4.630  16.925  1.00  0.00    -0.000 C 
BRANCH  14  15
ATOM     15  C   UNL     1      22.525   5.649  17.972  1.00  0.00    -0.003 C 
ATOM     16  C   UNL     1      21.734   6.783  17.324  1.00  0.00     0.004 C 
ENDBRANCH  14  15
ENDBRANCH  13  14
ENDBRANCH  12  13
ENDBRANCH  11  12
ENDBRANCH  10  11
ENDBRANCH   1  10
TORSDOF 12
ENDMDL
MODEL 6
REMARK VINA RESULT:    -2.798     22.693     24.503
REMARK INTER + INTRA:          -5.368
REMARK INTER:                  -3.933
REMARK INTRA:                  -1.435
REMARK UNBOUND:                -0.607
REMARK SMILES CCCCCCCCCCCCCC(=O)[O-]
REMARK SMILES IDX 8 1 9 2 10 3 11 4 12 5 13 6 14 7 15 8 16 9 7 10 6 11 5 12
REMARK SMILES IDX 4 13 3 14 2 15 1 16
REMARK H PARENT
REMARK Flexibility Score: inf
ROOT
ATOM      1  C   UNL     1      19.063  20.770  20.199  1.00  0.00     0.000 C 
ENDROOT
BRANCH   1   2
ATOM      2  C   UNL     1      19.758  21.299  21.462  1.00  0.00     0.000 C 
BRANCH   2   3
ATOM      3  C   UNL     1      21.085  22.019  21.158  1.00  0.00     0.000 C 
BRANCH   3   4
ATOM      4  C   UNL     1      22.007  21.300  20.152  1.00  0.00     0.000 C 
BRANCH   4   5
ATOM      5  C   UNL     1      22.220  22.038  18.819  1.00  0.00     0.006 C 
BRANCH   5   6
ATOM      6  C   UNL     1      23.143  21.276  17.858  1.00  0.00     0.053 C 
BRANCH   6   7
ATOM      7  C   UNL     1      22.526  19.970  17.469  1.00  0.00     0.041 C 
ATOM      8  O   UNL     1      23.233  18.931  17.399  1.00  0.00    -0.550 OA
ATOM      9  O   UNL     1      21.177  19.910  17.136  1.00  0.00    -0.550 OA
ENDBRANCH   6   7
ENDBRANCH   5   6
ENDBRANCH   4   5
ENDBRANCH   3   4
ENDBRANCH   2   3
ENDBRANCH   1   2
BRANCH   1  10
ATOM     10  C   UNL     1      18.283  21.889  19.493  1.00  0.00     0.000 C 
BRANCH  10  11
ATOM     11  C   UNL     1      18.591  21.977  17.988  1.00  0.00    -0.000 C 
BRANCH  11  12
ATOM     12  C   UNL     1      17.616  21.207  17.073  1.00  0.00    -0.000 C 
BRANCH  12  13
ATOM     13  C   UNL     1      16.302  20.766  17.743  1.00  0.00    -0.000 C 
BRANCH  13  14
ATOM     14  C   UNL     1      16.255  19.258  18.027  1.00  0.00    -0.000 C 
BRANCH  14  15
ATOM     15  C   UNL     1      17.431  18.536  17.360  1.00  0.00    -0.003 C 
ATOM     16  C   UNL     1      18.176  17.655  18.359  1.00  0.00     0.004 C 
ENDBRANCH  14  15
ENDBRANCH  13  14
ENDBRANCH  12  13
ENDBRANCH  11  12
ENDBRANCH  10  11
ENDBRANCH   1  10
TORSDOF 12
ENDMDL
MODEL 7
REMARK VINA RESULT:    -2.693     21.251     23.058
REMARK INTER + INTRA:          -5.190
REMARK INTER:                  -3.828
REMARK INTRA:                  -1.362
REMARK UNBOUND:                -0.607
REMARK SMILES CCCCCCCCCCCCCC(=O)[O-]
REMARK SMILES IDX 8 1 9 2 10 3 11 4 12 5 13 6 14 7 15 8 16 9 7 10 6 11 5 12
REMARK SMILES IDX 4 13 3 14 2 15 1 16
REMARK H PARENT
REMARK Flexibility Score: inf
ROOT
ATOM      1  C   UNL     1      20.658   3.496  20.610  1.00  0.00     0.000 C 
ENDROOT
BRANCH   1   2
ATOM      2  C   UNL     1      19.746   3.489  19.375  1.00  0.00     0.000 C 
BRANCH   2   3
ATOM      3  C   UNL     1      20.044   2.321  18.418  1.00  0.00     0.000 C 
BRANCH   3   4
ATOM      4  C   UNL     1      20.664   2.723  17.064  1.00  0.00     0.000 C 
BRANCH   4   5
ATOM      5  C   UNL     1      20.931   4.228  16.889  1.00  0.00     0.006 C 
BRANCH   5   6
ATOM      6  C   UNL     1      22.403   4.600  17.107  1.00  0.00     0.053 C 
BRANCH   6   7
ATOM      7  C   UNL     1      22.522   6.032  17.524  1.00  0.00     0.041 C 
ATOM      8  O   UNL     1      21.653   6.547  18.276  1.00  0.00    -0.550 OA
ATOM      9  O   UNL     1      23.568   6.812  17.044  1.00  0.00    -0.550 OA
ENDBRANCH   6   7
ENDBRANCH   5   6
ENDBRANCH   4   5
ENDBRANCH   3   4
ENDBRANCH   2   3
ENDBRANCH   1   2
BRANCH   1  10
ATOM     10  C   UNL     1      21.526   2.231  20.657  1.00  0.00     0.000 C 
BRANCH  10  11
ATOM     11  C   UNL     1      23.033   2.539  20.706  1.00  0.00    -0.000 C 
BRANCH  11  12
ATOM     12  C   UNL     1      23.398   4.038  20.685  1.00  0.00    -0.000 C 
BRANCH  12  13
ATOM     13  C   UNL     1      24.634   4.421  21.517  1.00  0.00    -0.000 C 
BRANCH  13  14
ATOM     14  C   UNL     1      25.920   4.484  20.681  1.00  0.00    -0.000 C 
BRANCH  14  15
ATOM     15  C   UNL     1      25.682   3.945  19.266  1.00  0.00    -0.003 C 
ATOM     16  C   UNL     1      26.125   4.954  18.210  1.00  0.00     0.004 C 
ENDBRANCH  14  15
ENDBRANCH  13  14
ENDBRANCH  12  13
ENDBRANCH  11  12
ENDBRANCH  10  11
ENDBRANCH   1  10
TORSDOF 12
ENDMDL
MODEL 8
REMARK VINA RESULT:    -2.692     20.909     22.512
REMARK INTER + INTRA:          -5.187
REMARK INTER:                  -3.548
REMARK INTRA:                  -1.639
REMARK UNBOUND:                -0.607
REMARK SMILES CCCCCCCCCCCCCC(=O)[O-]
REMARK SMILES IDX 8 1 9 2 10 3 11 4 12 5 13 6 14 7 15 8 16 9 7 10 6 11 5 12
REMARK SMILES IDX 4 13 3 14 2 15 1 16
REMARK H PARENT
REMARK Flexibility Score: inf
ROOT
ATOM      1  C   UNL     1      21.665   4.482  20.608  1.00  0.00     0.000 C 
ENDROOT
BRANCH   1   2
ATOM      2  C   UNL     1      22.982   3.899  21.143  1.00  0.00     0.000 C 
BRANCH   2   3
ATOM      3  C   UNL     1      23.354   2.559  20.484  1.00  0.00     0.000 C 
BRANCH   3   4
ATOM      4  C   UNL     1      24.596   2.600  19.569  1.00  0.00     0.000 C 
BRANCH   4   5
ATOM      5  C   UNL     1      25.925   2.898  20.285  1.00  0.00     0.006 C 
BRANCH   5   6
ATOM      6  C   UNL     1      26.083   2.118  21.596  1.00  0.00     0.053 C 
BRANCH   6   7
ATOM      7  C   UNL     1      26.125   3.057  22.759  1.00  0.00     0.041 C 
ATOM      8  O   UNL     1      26.115   2.608  23.936  1.00  0.00    -0.550 OA
ATOM      9  O   UNL     1      26.125   4.430  22.545  1.00  0.00    -0.550 OA
ENDBRANCH   6   7
ENDBRANCH   5   6
ENDBRANCH   4   5
ENDBRANCH   3   4
ENDBRANCH   2   3
ENDBRANCH   1   2
BRANCH   1  10
ATOM     10  C   UNL     1      20.573   3.404  20.549  1.00  0.00     0.000 C 
BRANCH  10  11
ATOM     11  C   UNL     1      19.866   3.341  19.184  1.00  0.00    -0.000 C 
BRANCH  11  12
ATOM     12  C   UNL     1      20.725   2.795  18.025  1.00  0.00    -0.000 C 
BRANCH  12  13
ATOM     13  C   UNL     1      21.091   3.826  16.942  1.00  0.00    -0.000 C 
BRANCH  13  14
ATOM     14  C   UNL     1      22.553   4.288  17.028  1.00  0.00    -0.000 C 
BRANCH  14  15
ATOM     15  C   UNL     1      22.639   5.768  17.418  1.00  0.00    -0.003 C 
ATOM     16  C   UNL     1      21.253   6.407  17.462  1.00  0.00     0.004 C 
ENDBRANCH  14  15
ENDBRANCH  13  14
ENDBRANCH  12  13
ENDBRANCH  11  12
ENDBRANCH  10  11
ENDBRANCH   1  10
TORSDOF 12
ENDMDL
MODEL 9
REMARK VINA RESULT:    -2.646     22.290     24.391
REMARK INTER + INTRA:          -5.110
REMARK INTER:                  -4.161
REMARK INTRA:                  -0.949
REMARK UNBOUND:                -0.607
REMARK SMILES CCCCCCCCCCCCCC(=O)[O-]
REMARK SMILES IDX 8 1 9 2 10 3 11 4 12 5 13 6 14 7 15 8 16 9 7 10 6 11 5 12
REMARK SMILES IDX 4 13 3 14 2 15 1 16
REMARK H PARENT
REMARK Flexibility Score: inf
ROOT
ATOM      1  C   UNL     1      20.804  20.669  20.583  1.00  0.00     0.000 C 
ENDROOT
BRANCH   1   2
ATOM      2  C   UNL     1      21.451  21.973  20.094  1.00  0.00     0.000 C 
BRANCH   2   3
ATOM      3  C   UNL     1      22.650  21.732  19.159  1.00  0.00     0.000 C 
BRANCH   3   4
ATOM      4  C   UNL     1      22.609  20.410  18.366  1.00  0.00     0.000 C 
BRANCH   4   5
ATOM      5  C   UNL     1      23.928  19.617  18.349  1.00  0.00     0.006 C 
BRANCH   5   6
ATOM      6  C   UNL     1      24.997  20.223  19.267  1.00  0.00     0.053 C 
BRANCH   6   7
ATOM      7  C   UNL     1      25.371  19.253  20.343  1.00  0.00     0.041 C 
ATOM      8  O   UNL     1      25.333  18.014  20.121  1.00  0.00    -0.550 OA
ATOM      9  O   UNL     1      25.713  19.717  21.608  1.00  0.00    -0.550 OA
ENDBRANCH   6   7
ENDBRANCH   5   6
ENDBRANCH   4   5
ENDBRANCH   3   4
ENDBRANCH   2   3
ENDBRANCH   1   2
BRANCH   1  10
ATOM     10  C   UNL     1      19.357  20.553  20.081  1.00  0.00     0.000 C 
BRANCH  10  11
ATOM     11  C   UNL     1      19.192  19.509  18.963  1.00  0.00    -0.000 C 
BRANCH  11  12
ATOM     12  C   UNL     1      17.946  18.609  19.084  1.00  0.00    -0.000 C 
BRANCH  12  13
ATOM     13  C   UNL     1      16.598  19.332  18.910  1.00  0.00    -0.000 C 
BRANCH  13  14
ATOM     14  C   UNL     1      16.053  19.242  17.478  1.00  0.00    -0.000 C 
BRANCH  14  15
ATOM     15  C   UNL     1      15.851  20.638  16.878  1.00  0.00    -0.003 C 
ATOM     16  C   UNL     1      16.335  21.724  17.836  1.00  0.00     0.004 C 
ENDBRANCH  14  15
ENDBRANCH  13  14
ENDBRANCH  12  13
ENDBRANCH  11  12
ENDBRANCH  10  11
ENDBRANCH   1  10
TORSDOF 12
ENDMDL
