MODEL 1
REMARK VINA RESULT:    -5.058      0.000      0.000
REMARK INTER + INTRA:         -16.312
REMARK INTER:                 -12.746
REMARK INTRA:                  -3.566
REMARK UNBOUND:                -3.566
REMARK SMILES CCCCCCCCCCCCCCCCCCCCCCCCCCCC(=O)[O-]
REMARK SMILES IDX 15 1 16 2 17 3 18 4 19 5 20 6 21 7 22 8 23 9 24 10 25 11
REMARK SMILES IDX 26 12 27 13 28 14 29 15 30 16 14 17 13 18 12 19 11 20 10 21
REMARK SMILES IDX 9 22 8 23 7 24 6 25 5 26 4 27 3 28 2 29 1 30
REMARK H PARENT
REMARK Flexibility Score: inf
ROOT
ATOM      1  C   UNL     1      24.627  12.641  36.355  1.00  0.00     0.000 C 
ENDROOT
BRANCH   1   2
ATOM      2  C   UNL     1      25.864  12.626  35.439  1.00  0.00     0.000 C 
BRANCH   2   3
ATOM      3  C   UNL     1      26.865  13.745  35.769  1.00  0.00     0.000 C 
BRANCH   3   4
ATOM      4  C   UNL     1      27.771  14.109  34.579  1.00  0.00     0.000 C 
BRANCH   4   5
ATOM      5  C   UNL     1      28.743  13.002  34.120  1.00  0.00     0.000 C 
BRANCH   5   6
ATOM      6  C   UNL     1      28.324  12.242  32.847  1.00  0.00     0.000 C 
BRANCH   6   7
ATOM      7  C   UNL     1      28.637  13.019  31.558  1.00  0.00     0.000 C 
BRANCH   7   8
ATOM      8  C   UNL     1      27.429  13.112  30.606  1.00  0.00     0.000 C 
BRANCH   8   9
ATOM      9  C   UNL     1      26.058  13.221  31.299  1.00  0.00     0.000 C 
BRANCH   9  10
ATOM     10  C   UNL     1      25.079  12.115  30.871  1.00  0.00     0.000 C 
BRANCH  10  11
ATOM     11  C   UNL     1      25.771  10.740  30.758  1.00  0.00     0.000 C 
BRANCH  11  12
ATOM     12  C   UNL     1      24.790   9.565  30.605  1.00  0.00     0.006 C 
BRANCH  12  13
ATOM     13  C   UNL     1      23.356   9.927  31.015  1.00  0.00     0.053 C 
BRANCH  13  14
ATOM     14  C   UNL     1      22.413   8.826  30.648  1.00  0.00     0.041 C 
ATOM     15  O   UNL     1      21.168   9.001  30.739  1.00  0.00    -0.550 OA
ATOM     16  O   UNL     1      22.906   7.589  30.255  1.00  0.00    -0.550 OA
ENDBRANCH  13  14
ENDBRANCH  12  13
ENDBRANCH  11  12
ENDBRANCH  10  11
ENDBRANCH   9  10
ENDBRANCH   8   9
ENDBRANCH   7   8
ENDBRANCH   6   7
ENDBRANCH   5   6
ENDBRANCH   4   5
ENDBRANCH   3   4
ENDBRANCH   2   3
ENDBRANCH   1   2
BRANCH   1  17
ATOM     17  C   UNL     1      23.272  12.650  35.623  1.00  0.00     0.000 C 
BRANCH  17  18
ATOM     18  C   UNL     1      23.412  12.508  34.100  1.00  0.00     0.000 C 
BRANCH  18  19
ATOM     19  C   UNL     1      22.034  12.395  33.431  1.00  0.00     0.000 C 
BRANCH  19  20
ATOM     20  C   UNL     1      21.842  13.397  32.278  1.00  0.00     0.000 C 
BRANCH  20  21
ATOM     21  C   UNL     1      20.967  14.618  32.616  1.00  0.00     0.000 C 
BRANCH  21  22
ATOM     22  C   UNL     1      20.445  14.670  34.065  1.00  0.00    -0.000 C 
BRANCH  22  23
ATOM     23  C   UNL     1      18.937  14.367  34.193  1.00  0.00    -0.000 C 
BRANCH  23  24
ATOM     24  C   UNL     1      18.564  13.806  35.577  1.00  0.00    -0.000 C 
BRANCH  24  25
ATOM     25  C   UNL     1      19.725  13.048  36.241  1.00  0.00    -0.000 C 
BRANCH  25  26
ATOM     26  C   UNL     1      19.324  11.626  36.675  1.00  0.00    -0.000 C 
BRANCH  26  27
ATOM     27  C   UNL     1      18.934  10.732  35.485  1.00  0.00    -0.000 C 
BRANCH  27  28
ATOM     28  C   UNL     1      18.934   9.223  35.792  1.00  0.00    -0.000 C 
BRANCH  28  29
ATOM     29  C   UNL     1      18.779   8.922  37.291  1.00  0.00    -0.003 C 
ATOM     30  C   UNL     1      19.285   7.521  37.628  1.00  0.00     0.004 C 
ENDBRANCH  28  29
ENDBRANCH  27  28
ENDBRANCH  26  27
ENDBRANCH  25  26
ENDBRANCH  24  25
ENDBRANCH  23  24
ENDBRANCH  22  23
ENDBRANCH  21  22
ENDBRANCH  20  21
ENDBRANCH  19  20
ENDBRANCH  18  19
ENDBRANCH  17  18
ENDBRANCH   1  17
TORSDOF 26
ENDMDL
MODEL 2
REMARK VINA RESULT:    -4.856      2.376      7.898
REMARK INTER + INTRA:         -15.804
REMARK INTER:                 -10.795
REMARK INTRA:                  -5.009
REMARK UNBOUND:                -3.566
REMARK SMILES CCCCCCCCCCCCCCCCCCCCCCCCCCCC(=O)[O-]
REMARK SMILES IDX 15 1 16 2 17 3 18 4 19 5 20 6 21 7 22 8 23 9 24 10 25 11
REMARK SMILES IDX 26 12 27 13 28 14 29 15 30 16 14 17 13 18 12 19 11 20 10 21
REMARK SMILES IDX 9 22 8 23 7 24 6 25 5 26 4 27 3 28 2 29 1 30
REMARK H PARENT
REMARK Flexibility Score: inf
ROOT
ATOM      1  C   UNL     1      23.437  12.605  34.500  1.00  0.00     0.000 C 
ENDROOT
BRANCH   1   2
ATOM      2  C   UNL     1      22.081  13.332  34.482  1.00  0.00     0.000 C 
BRANCH   2   3
ATOM      3  C   UNL     1      21.227  13.033  35.725  1.00  0.00     0.000 C 
BRANCH   3   4
ATOM      4  C   UNL     1      20.016  13.974  35.861  1.00  0.00     0.000 C 
BRANCH   4   5
ATOM      5  C   UNL     1      18.670  13.285  36.167  1.00  0.00     0.000 C 
BRANCH   5   6
ATOM      6  C   UNL     1      18.770  11.947  36.924  1.00  0.00     0.000 C 
BRANCH   6   7
ATOM      7  C   UNL     1      18.190  10.766  36.129  1.00  0.00     0.000 C 
BRANCH   7   8
ATOM      8  C   UNL     1      19.152  10.243  35.045  1.00  0.00     0.000 C 
BRANCH   8   9
ATOM      9  C   UNL     1      18.662  10.418  33.596  1.00  0.00     0.000 C 
BRANCH   9  10
ATOM     10  C   UNL     1      19.516  11.409  32.788  1.00  0.00     0.000 C 
BRANCH  10  11
ATOM     11  C   UNL     1      18.770  12.732  32.518  1.00  0.00     0.000 C 
BRANCH  11  12
ATOM     12  C   UNL     1      19.589  13.750  31.705  1.00  0.00     0.006 C 
BRANCH  12  13
ATOM     13  C   UNL     1      19.752  15.095  32.423  1.00  0.00     0.053 C 
BRANCH  13  14
ATOM     14  C   UNL     1      20.829  15.907  31.777  1.00  0.00     0.041 C 
ATOM     15  O   UNL     1      21.066  17.078  32.178  1.00  0.00    -0.550 OA
ATOM     16  O   UNL     1      21.537  15.392  30.700  1.00  0.00    -0.550 OA
ENDBRANCH  13  14
ENDBRANCH  12  13
ENDBRANCH  11  12
ENDBRANCH  10  11
ENDBRANCH   9  10
ENDBRANCH   8   9
ENDBRANCH   7   8
ENDBRANCH   6   7
ENDBRANCH   5   6
ENDBRANCH   4   5
ENDBRANCH   3   4
ENDBRANCH   2   3
ENDBRANCH   1   2
BRANCH   1  17
ATOM     17  C   UNL     1      23.804  11.874  33.195  1.00  0.00     0.000 C 
BRANCH  17  18
ATOM     18  C   UNL     1      23.382  12.646  31.936  1.00  0.00     0.000 C 
BRANCH  18  19
ATOM     19  C   UNL     1      22.687  11.717  30.930  1.00  0.00     0.000 C 
BRANCH  19  20
ATOM     20  C   UNL     1      22.735  10.235  31.349  1.00  0.00     0.000 C 
BRANCH  20  21
ATOM     21  C   UNL     1      23.250   9.269  30.266  1.00  0.00     0.000 C 
BRANCH  21  22
ATOM     22  C   UNL     1      24.717   8.825  30.428  1.00  0.00    -0.000 C 
BRANCH  22  23
ATOM     23  C   UNL     1      25.742   9.935  30.112  1.00  0.00    -0.000 C 
BRANCH  23  24
ATOM     24  C   UNL     1      26.495  10.415  31.365  1.00  0.00    -0.000 C 
BRANCH  24  25
ATOM     25  C   UNL     1      27.588  11.446  31.040  1.00  0.00    -0.000 C 
BRANCH  25  26
ATOM     26  C   UNL     1      27.076  12.895  31.143  1.00  0.00    -0.000 C 
BRANCH  26  27
ATOM     27  C   UNL     1      27.105  13.431  32.586  1.00  0.00    -0.000 C 
BRANCH  27  28
ATOM     28  C   UNL     1      28.398  13.113  33.360  1.00  0.00    -0.000 C 
BRANCH  28  29
ATOM     29  C   UNL     1      28.140  12.784  34.838  1.00  0.00    -0.003 C 
ATOM     30  C   UNL     1      27.075  11.699  34.984  1.00  0.00     0.004 C 
ENDBRANCH  28  29
ENDBRANCH  27  28
ENDBRANCH  26  27
ENDBRANCH  25  26
ENDBRANCH  24  25
ENDBRANCH  23  24
ENDBRANCH  22  23
ENDBRANCH  21  22
ENDBRANCH  20  21
ENDBRANCH  19  20
ENDBRANCH  18  19
ENDBRANCH  17  18
ENDBRANCH   1  17
TORSDOF 26
ENDMDL
MODEL 3
REMARK VINA RESULT:    -4.847      2.734      5.917
REMARK INTER + INTRA:         -15.781
REMARK INTER:                 -11.201
REMARK INTRA:                  -4.580
REMARK UNBOUND:                -3.566
REMARK SMILES CCCCCCCCCCCCCCCCCCCCCCCCCCCC(=O)[O-]
REMARK SMILES IDX 15 1 16 2 17 3 18 4 19 5 20 6 21 7 22 8 23 9 24 10 25 11
REMARK SMILES IDX 26 12 27 13 28 14 29 15 30 16 14 17 13 18 12 19 11 20 10 21
REMARK SMILES IDX 9 22 8 23 7 24 6 25 5 26 4 27 3 28 2 29 1 30
REMARK H PARENT
REMARK Flexibility Score: inf
ROOT
ATOM      1  C   UNL     1      26.892  13.326  32.062  1.00  0.00     0.000 C 
ENDROOT
BRANCH   1   2
ATOM      2  C   UNL     1      26.778  12.180  31.041  1.00  0.00     0.000 C 
BRANCH   2   3
ATOM      3  C   UNL     1      26.692  10.795  31.704  1.00  0.00     0.000 C 
BRANCH   3   4
ATOM      4  C   UNL     1      25.504   9.960  31.194  1.00  0.00     0.000 C 
BRANCH   4   5
ATOM      5  C   UNL     1      24.535  10.693  30.243  1.00  0.00     0.000 C 
BRANCH   5   6
ATOM      6  C   UNL     1      23.223  11.180  30.884  1.00  0.00     0.000 C 
BRANCH   6   7
ATOM      7  C   UNL     1      22.205  10.048  31.096  1.00  0.00     0.000 C 
BRANCH   7   8
ATOM      8  C   UNL     1      20.916  10.524  31.794  1.00  0.00     0.000 C 
BRANCH   8   9
ATOM      9  C   UNL     1      20.300  11.813  31.221  1.00  0.00     0.000 C 
BRANCH   9  10
ATOM     10  C   UNL     1      19.093  12.314  32.031  1.00  0.00     0.000 C 
BRANCH  10  11
ATOM     11  C   UNL     1      19.155  13.836  32.282  1.00  0.00     0.000 C 
BRANCH  11  12
ATOM     12  C   UNL     1      20.540  14.451  32.015  1.00  0.00     0.006 C 
BRANCH  12  13
ATOM     13  C   UNL     1      20.749  15.788  32.737  1.00  0.00     0.053 C 
BRANCH  13  14
ATOM     14  C   UNL     1      20.549  16.931  31.793  1.00  0.00     0.041 C 
ATOM     15  O   UNL     1      21.475  17.763  31.602  1.00  0.00    -0.550 OA
ATOM     16  O   UNL     1      19.325  17.108  31.163  1.00  0.00    -0.550 OA
ENDBRANCH  13  14
ENDBRANCH  12  13
ENDBRANCH  11  12
ENDBRANCH  10  11
ENDBRANCH   9  10
ENDBRANCH   8   9
ENDBRANCH   7   8
ENDBRANCH   6   7
ENDBRANCH   5   6
ENDBRANCH   4   5
ENDBRANCH   3   4
ENDBRANCH   2   3
ENDBRANCH   1   2
BRANCH   1  17
ATOM     17  C   UNL     1      28.138  13.276  32.965  1.00  0.00     0.000 C 
BRANCH  17  18
ATOM     18  C   UNL     1      28.052  14.239  34.159  1.00  0.00     0.000 C 
BRANCH  18  19
ATOM     19  C   UNL     1      27.788  13.473  35.464  1.00  0.00     0.000 C 
BRANCH  19  20
ATOM     20  C   UNL     1      26.569  14.010  36.238  1.00  0.00     0.000 C 
BRANCH  20  21
ATOM     21  C   UNL     1      25.346  13.075  36.256  1.00  0.00     0.000 C 
BRANCH  21  22
ATOM     22  C   UNL     1      25.436  11.859  35.314  1.00  0.00    -0.000 C 
BRANCH  22  23
ATOM     23  C   UNL     1      24.364  11.851  34.204  1.00  0.00    -0.000 C 
BRANCH  23  24
ATOM     24  C   UNL     1      23.347  12.996  34.359  1.00  0.00    -0.000 C 
BRANCH  24  25
ATOM     25  C   UNL     1      21.902  12.490  34.498  1.00  0.00    -0.000 C 
BRANCH  25  26
ATOM     26  C   UNL     1      21.349  12.681  35.921  1.00  0.00    -0.000 C 
BRANCH  26  27
ATOM     27  C   UNL     1      19.839  12.983  35.934  1.00  0.00    -0.000 C 
BRANCH  27  28
ATOM     28  C   UNL     1      18.989  11.960  36.710  1.00  0.00    -0.000 C 
BRANCH  28  29
ATOM     29  C   UNL     1      19.343  10.507  36.359  1.00  0.00    -0.003 C 
ATOM     30  C   UNL     1      18.828  10.134  34.971  1.00  0.00     0.004 C 
ENDBRANCH  28  29
ENDBRANCH  27  28
ENDBRANCH  26  27
ENDBRANCH  25  26
ENDBRANCH  24  25
ENDBRANCH  23  24
ENDBRANCH  22  23
ENDBRANCH  21  22
ENDBRANCH  20  21
ENDBRANCH  19  20
ENDBRANCH  18  19
ENDBRANCH  17  18
ENDBRANCH   1  17
TORSDOF 26
ENDMDL
MODEL 4
REMARK VINA RESULT:    -4.800      2.310      7.699
REMARK INTER + INTRA:         -15.661
REMARK INTER:                 -11.152
REMARK INTRA:                  -4.509
REMARK UNBOUND:                -3.566
REMARK SMILES CCCCCCCCCCCCCCCCCCCCCCCCCCCC(=O)[O-]
REMARK SMILES IDX 15 1 16 2 17 3 18 4 19 5 20 6 21 7 22 8 23 9 24 10 25 11
REMARK SMILES IDX 26 12 27 13 28 14 29 15 30 16 14 17 13 18 12 19 11 20 10 21
REMARK SMILES IDX 9 22 8 23 7 24 6 25 5 26 4 27 3 28 2 29 1 30
REMARK H PARENT
REMARK Flexibility Score: inf
ROOT
ATOM      1  C   UNL     1      24.359  12.617  34.601  1.00  0.00     0.000 C 
ENDROOT
BRANCH   1   2
ATOM      2  C   UNL     1      23.484  12.566  35.866  1.00  0.00     0.000 C 
BRANCH   2   3
ATOM      3  C   UNL     1      21.991  12.376  35.552  1.00  0.00     0.000 C 
BRANCH   3   4
ATOM      4  C   UNL     1      21.231  13.709  35.424  1.00  0.00     0.000 C 
BRANCH   4   5
ATOM      5  C   UNL     1      19.737  13.662  35.809  1.00  0.00     0.000 C 
BRANCH   5   6
ATOM      6  C   UNL     1      18.749  13.881  34.648  1.00  0.00     0.000 C 
BRANCH   6   7
ATOM      7  C   UNL     1      19.439  14.356  33.359  1.00  0.00     0.000 C 
BRANCH   7   8
ATOM      8  C   UNL     1      19.830  13.195  32.426  1.00  0.00     0.000 C 
BRANCH   8   9
ATOM      9  C   UNL     1      18.914  11.960  32.499  1.00  0.00     0.000 C 
BRANCH   9  10
ATOM     10  C   UNL     1      19.591  10.748  33.161  1.00  0.00     0.000 C 
BRANCH  10  11
ATOM     11  C   UNL     1      18.576   9.848  33.897  1.00  0.00     0.000 C 
BRANCH  11  12
ATOM     12  C   UNL     1      18.310  10.276  35.351  1.00  0.00     0.006 C 
BRANCH  12  13
ATOM     13  C   UNL     1      19.443   9.880  36.306  1.00  0.00     0.053 C 
BRANCH  13  14
ATOM     14  C   UNL     1      19.016   8.747  37.185  1.00  0.00     0.041 C 
ATOM     15  O   UNL     1      18.101   8.916  38.036  1.00  0.00    -0.550 OA
ATOM     16  O   UNL     1      19.659   7.521  37.101  1.00  0.00    -0.550 OA
ENDBRANCH  13  14
ENDBRANCH  12  13
ENDBRANCH  11  12
ENDBRANCH  10  11
ENDBRANCH   9  10
ENDBRANCH   8   9
ENDBRANCH   7   8
ENDBRANCH   6   7
ENDBRANCH   5   6
ENDBRANCH   4   5
ENDBRANCH   3   4
ENDBRANCH   2   3
ENDBRANCH   1   2
BRANCH   1  17
ATOM     17  C   UNL     1      23.833  11.796  33.409  1.00  0.00     0.000 C 
BRANCH  17  18
ATOM     18  C   UNL     1      23.457  12.666  32.200  1.00  0.00     0.000 C 
BRANCH  18  19
ATOM     19  C   UNL     1      22.980  11.799  31.026  1.00  0.00     0.000 C 
BRANCH  19  20
ATOM     20  C   UNL     1      22.859  10.307  31.393  1.00  0.00     0.000 C 
BRANCH  20  21
ATOM     21  C   UNL     1      23.497   9.335  30.383  1.00  0.00     0.000 C 
BRANCH  21  22
ATOM     22  C   UNL     1      24.981   9.007  30.636  1.00  0.00    -0.000 C 
BRANCH  22  23
ATOM     23  C   UNL     1      25.959  10.035  30.028  1.00  0.00    -0.000 C 
BRANCH  23  24
ATOM     24  C   UNL     1      26.677  10.872  31.101  1.00  0.00    -0.000 C 
BRANCH  24  25
ATOM     25  C   UNL     1      27.962  11.532  30.575  1.00  0.00    -0.000 C 
BRANCH  25  26
ATOM     26  C   UNL     1      28.349  12.785  31.383  1.00  0.00    -0.000 C 
BRANCH  26  27
ATOM     27  C   UNL     1      27.206  13.285  32.283  1.00  0.00    -0.000 C 
BRANCH  27  28
ATOM     28  C   UNL     1      27.658  13.804  33.661  1.00  0.00    -0.000 C 
BRANCH  28  29
ATOM     29  C   UNL     1      28.636  12.850  34.363  1.00  0.00    -0.003 C 
ATOM     30  C   UNL     1      27.890  11.735  35.094  1.00  0.00     0.004 C 
ENDBRANCH  28  29
ENDBRANCH  27  28
ENDBRANCH  26  27
ENDBRANCH  25  26
ENDBRANCH  24  25
ENDBRANCH  23  24
ENDBRANCH  22  23
ENDBRANCH  21  22
ENDBRANCH  20  21
ENDBRANCH  19  20
ENDBRANCH  18  19
ENDBRANCH  17  18
ENDBRANCH   1  17
TORSDOF 26
ENDMDL
MODEL 5
REMARK VINA RESULT:    -4.772      2.311      4.466
REMARK INTER + INTRA:         -15.591
REMARK INTER:                 -12.337
REMARK INTRA:                  -3.254
REMARK UNBOUND:                -3.566
REMARK SMILES CCCCCCCCCCCCCCCCCCCCCCCCCCCC(=O)[O-]
REMARK SMILES IDX 15 1 16 2 17 3 18 4 19 5 20 6 21 7 22 8 23 9 24 10 25 11
REMARK SMILES IDX 26 12 27 13 28 14 29 15 30 16 14 17 13 18 12 19 11 20 10 21
REMARK SMILES IDX 9 22 8 23 7 24 6 25 5 26 4 27 3 28 2 29 1 30
REMARK H PARENT
REMARK Flexibility Score: inf
ROOT
ATOM      1  C   UNL     1      28.421  12.130  33.262  1.00  0.00     0.000 C 
ENDROOT
BRANCH   1   2
ATOM      2  C   UNL     1      28.606  13.392  32.401  1.00  0.00     0.000 C 
BRANCH   2   3
ATOM      3  C   UNL     1      29.139  13.082  30.993  1.00  0.00     0.000 C 
BRANCH   3   4
ATOM      4  C   UNL     1      28.410  11.903  30.323  1.00  0.00     0.000 C 
BRANCH   4   5
ATOM      5  C   UNL     1      26.951  12.177  29.902  1.00  0.00     0.000 C 
BRANCH   5   6
ATOM      6  C   UNL     1      25.892  11.282  30.571  1.00  0.00     0.000 C 
BRANCH   6   7
ATOM      7  C   UNL     1      25.261  11.929  31.815  1.00  0.00     0.000 C 
BRANCH   7   8
ATOM      8  C   UNL     1      24.011  11.179  32.312  1.00  0.00     0.000 C 
BRANCH   8   9
ATOM      9  C   UNL     1      23.391  10.199  31.300  1.00  0.00     0.000 C 
BRANCH   9  10
ATOM     10  C   UNL     1      21.909  10.490  31.012  1.00  0.00     0.000 C 
BRANCH  10  11
ATOM     11  C   UNL     1      21.262  11.351  32.118  1.00  0.00     0.000 C 
BRANCH  11  12
ATOM     12  C   UNL     1      20.625  12.651  31.597  1.00  0.00     0.006 C 
BRANCH  12  13
ATOM     13  C   UNL     1      21.614  13.823  31.552  1.00  0.00     0.053 C 
BRANCH  13  14
ATOM     14  C   UNL     1      20.885  15.116  31.367  1.00  0.00     0.041 C 
ATOM     15  O   UNL     1      19.717  15.255  31.819  1.00  0.00    -0.550 OA
ATOM     16  O   UNL     1      21.472  16.150  30.650  1.00  0.00    -0.550 OA
ENDBRANCH  13  14
ENDBRANCH  12  13
ENDBRANCH  11  12
ENDBRANCH  10  11
ENDBRANCH   9  10
ENDBRANCH   8   9
ENDBRANCH   7   8
ENDBRANCH   6   7
ENDBRANCH   5   6
ENDBRANCH   4   5
ENDBRANCH   3   4
ENDBRANCH   2   3
ENDBRANCH   1   2
BRANCH   1  17
ATOM     17  C   UNL     1      28.320  12.382  34.778  1.00  0.00     0.000 C 
BRANCH  17  18
ATOM     18  C   UNL     1      27.988  13.841  35.123  1.00  0.00     0.000 C 
BRANCH  18  19
ATOM     19  C   UNL     1      26.742  13.924  36.017  1.00  0.00     0.000 C 
BRANCH  19  20
ATOM     20  C   UNL     1      25.682  12.862  35.669  1.00  0.00     0.000 C 
BRANCH  20  21
ATOM     21  C   UNL     1      24.383  12.946  36.492  1.00  0.00     0.000 C 
BRANCH  21  22
ATOM     22  C   UNL     1      23.172  12.213  35.882  1.00  0.00    -0.000 C 
BRANCH  22  23
ATOM     23  C   UNL     1      22.268  13.117  35.017  1.00  0.00    -0.000 C 
BRANCH  23  24
ATOM     24  C   UNL     1      20.877  13.328  35.640  1.00  0.00    -0.000 C 
BRANCH  24  25
ATOM     25  C   UNL     1      20.223  12.011  36.087  1.00  0.00    -0.000 C 
BRANCH  25  26
ATOM     26  C   UNL     1      18.805  12.222  36.648  1.00  0.00    -0.000 C 
BRANCH  26  27
ATOM     27  C   UNL     1      18.255  10.971  37.356  1.00  0.00    -0.000 C 
BRANCH  27  28
ATOM     28  C   UNL     1      19.166   9.733  37.263  1.00  0.00    -0.000 C 
BRANCH  28  29
ATOM     29  C   UNL     1      18.375   8.420  37.158  1.00  0.00    -0.003 C 
ATOM     30  C   UNL     1      19.298   7.209  37.276  1.00  0.00     0.004 C 
ENDBRANCH  28  29
ENDBRANCH  27  28
ENDBRANCH  26  27
ENDBRANCH  25  26
ENDBRANCH  24  25
ENDBRANCH  23  24
ENDBRANCH  22  23
ENDBRANCH  21  22
ENDBRANCH  20  21
ENDBRANCH  19  20
ENDBRANCH  18  19
ENDBRANCH  17  18
ENDBRANCH   1  17
TORSDOF 26
ENDMDL
MODEL 6
REMARK VINA RESULT:    -4.747      2.890      5.208
REMARK INTER + INTRA:         -15.527
REMARK INTER:                 -11.285
REMARK INTRA:                  -4.242
REMARK UNBOUND:                -3.566
REMARK SMILES CCCCCCCCCCCCCCCCCCCCCCCCCCCC(=O)[O-]
REMARK SMILES IDX 15 1 16 2 17 3 18 4 19 5 20 6 21 7 22 8 23 9 24 10 25 11
REMARK SMILES IDX 26 12 27 13 28 14 29 15 30 16 14 17 13 18 12 19 11 20 10 21
REMARK SMILES IDX 9 22 8 23 7 24 6 25 5 26 4 27 3 28 2 29 1 30
REMARK H PARENT
REMARK Flexibility Score: inf
ROOT
ATOM      1  C   UNL     1      23.650  12.726  35.152  1.00  0.00     0.000 C 
ENDROOT
BRANCH   1   2
ATOM      2  C   UNL     1      24.222  11.883  33.998  1.00  0.00     0.000 C 
BRANCH   2   3
ATOM      3  C   UNL     1      24.068  12.564  32.629  1.00  0.00     0.000 C 
BRANCH   3   4
ATOM      4  C   UNL     1      22.979  11.915  31.755  1.00  0.00     0.000 C 
BRANCH   4   5
ATOM      5  C   UNL     1      23.198  10.426  31.417  1.00  0.00     0.000 C 
BRANCH   5   6
ATOM      6  C   UNL     1      24.164  10.149  30.250  1.00  0.00     0.000 C 
BRANCH   6   7
ATOM      7  C   UNL     1      25.404   9.347  30.677  1.00  0.00     0.000 C 
BRANCH   7   8
ATOM      8  C   UNL     1      26.444  10.204  31.422  1.00  0.00     0.000 C 
BRANCH   8   9
ATOM      9  C   UNL     1      26.809  11.534  30.737  1.00  0.00     0.000 C 
BRANCH   9  10
ATOM     10  C   UNL     1      28.316  11.836  30.775  1.00  0.00     0.000 C 
BRANCH  10  11
ATOM     11  C   UNL     1      28.634  13.092  31.614  1.00  0.00     0.000 C 
BRANCH  11  12
ATOM     12  C   UNL     1      27.694  13.287  32.817  1.00  0.00     0.006 C 
BRANCH  12  13
ATOM     13  C   UNL     1      28.374  12.989  34.159  1.00  0.00     0.053 C 
BRANCH  13  14
ATOM     14  C   UNL     1      27.786  13.835  35.243  1.00  0.00     0.041 C 
ATOM     15  O   UNL     1      28.305  14.947  35.529  1.00  0.00    -0.550 OA
ATOM     16  O   UNL     1      26.699  13.376  35.973  1.00  0.00    -0.550 OA
ENDBRANCH  13  14
ENDBRANCH  12  13
ENDBRANCH  11  12
ENDBRANCH  10  11
ENDBRANCH   9  10
ENDBRANCH   8   9
ENDBRANCH   7   8
ENDBRANCH   6   7
ENDBRANCH   5   6
ENDBRANCH   4   5
ENDBRANCH   3   4
ENDBRANCH   2   3
ENDBRANCH   1   2
BRANCH   1  17
ATOM     17  C   UNL     1      22.136  12.569  35.388  1.00  0.00     0.000 C 
BRANCH  17  18
ATOM     18  C   UNL     1      21.300  13.605  34.623  1.00  0.00     0.000 C 
BRANCH  18  19
ATOM     19  C   UNL     1      20.227  14.223  35.532  1.00  0.00     0.000 C 
BRANCH  19  20
ATOM     20  C   UNL     1      18.793  13.863  35.099  1.00  0.00     0.000 C 
BRANCH  20  21
ATOM     21  C   UNL     1      17.875  13.371  36.234  1.00  0.00     0.000 C 
BRANCH  21  22
ATOM     22  C   UNL     1      18.579  12.570  37.346  1.00  0.00    -0.000 C 
BRANCH  22  23
ATOM     23  C   UNL     1      18.294  11.053  37.295  1.00  0.00    -0.000 C 
BRANCH  23  24
ATOM     24  C   UNL     1      19.320  10.289  36.440  1.00  0.00    -0.000 C 
BRANCH  24  25
ATOM     25  C   UNL     1      18.658   9.346  35.423  1.00  0.00    -0.000 C 
BRANCH  25  26
ATOM     26  C   UNL     1      18.309  10.058  34.104  1.00  0.00    -0.000 C 
BRANCH  26  27
ATOM     27  C   UNL     1      19.536  10.710  33.441  1.00  0.00    -0.000 C 
BRANCH  27  28
ATOM     28  C   UNL     1      19.405  10.919  31.921  1.00  0.00    -0.000 C 
BRANCH  28  29
ATOM     29  C   UNL     1      18.627  12.195  31.562  1.00  0.00    -0.003 C 
ATOM     30  C   UNL     1      19.565  13.393  31.428  1.00  0.00     0.004 C 
ENDBRANCH  28  29
ENDBRANCH  27  28
ENDBRANCH  26  27
ENDBRANCH  25  26
ENDBRANCH  24  25
ENDBRANCH  23  24
ENDBRANCH  22  23
ENDBRANCH  21  22
ENDBRANCH  20  21
ENDBRANCH  19  20
ENDBRANCH  18  19
ENDBRANCH  17  18
ENDBRANCH   1  17
TORSDOF 26
ENDMDL
MODEL 7
REMARK VINA RESULT:    -4.685      2.160      4.601
REMARK INTER + INTRA:         -15.371
REMARK INTER:                 -12.352
REMARK INTRA:                  -3.020
REMARK UNBOUND:                -3.566
REMARK SMILES CCCCCCCCCCCCCCCCCCCCCCCCCCCC(=O)[O-]
REMARK SMILES IDX 15 1 16 2 17 3 18 4 19 5 20 6 21 7 22 8 23 9 24 10 25 11
REMARK SMILES IDX 26 12 27 13 28 14 29 15 30 16 14 17 13 18 12 19 11 20 10 21
REMARK SMILES IDX 9 22 8 23 7 24 6 25 5 26 4 27 3 28 2 29 1 30
REMARK H PARENT
REMARK Flexibility Score: inf
ROOT
ATOM      1  C   UNL     1      22.401  10.810  31.621  1.00  0.00     0.000 C 
ENDROOT
BRANCH   1   2
ATOM      2  C   UNL     1      22.783  10.046  30.341  1.00  0.00     0.000 C 
BRANCH   2   3
ATOM      3  C   UNL     1      23.480   8.706  30.631  1.00  0.00     0.000 C 
BRANCH   3   4
ATOM      4  C   UNL     1      24.918   8.649  30.086  1.00  0.00     0.000 C 
BRANCH   4   5
ATOM      5  C   UNL     1      25.680   9.991  30.076  1.00  0.00     0.000 C 
BRANCH   5   6
ATOM      6  C   UNL     1      26.276  10.420  31.430  1.00  0.00     0.000 C 
BRANCH   6   7
ATOM      7  C   UNL     1      25.636  11.702  31.985  1.00  0.00     0.000 C 
BRANCH   7   8
ATOM      8  C   UNL     1      26.409  12.976  31.595  1.00  0.00     0.000 C 
BRANCH   8   9
ATOM      9  C   UNL     1      27.927  12.791  31.419  1.00  0.00     0.000 C 
BRANCH   9  10
ATOM     10  C   UNL     1      28.720  13.084  32.704  1.00  0.00     0.000 C 
BRANCH  10  11
ATOM     11  C   UNL     1      27.956  14.030  33.654  1.00  0.00     0.000 C 
BRANCH  11  12
ATOM     12  C   UNL     1      28.074  13.645  35.139  1.00  0.00     0.006 C 
BRANCH  12  13
ATOM     13  C   UNL     1      26.728  13.677  35.873  1.00  0.00     0.053 C 
BRANCH  13  14
ATOM     14  C   UNL     1      25.887  12.506  35.477  1.00  0.00     0.041 C 
ATOM     15  O   UNL     1      26.418  11.377  35.297  1.00  0.00    -0.550 OA
ATOM     16  O   UNL     1      24.526  12.668  35.257  1.00  0.00    -0.550 OA
ENDBRANCH  13  14
ENDBRANCH  12  13
ENDBRANCH  11  12
ENDBRANCH  10  11
ENDBRANCH   9  10
ENDBRANCH   8   9
ENDBRANCH   7   8
ENDBRANCH   6   7
ENDBRANCH   5   6
ENDBRANCH   4   5
ENDBRANCH   3   4
ENDBRANCH   2   3
ENDBRANCH   1   2
BRANCH   1  17
ATOM     17  C   UNL     1      20.889  10.898  31.903  1.00  0.00     0.000 C 
BRANCH  17  18
ATOM     18  C   UNL     1      20.186  11.981  31.071  1.00  0.00     0.000 C 
BRANCH  18  19
ATOM     19  C   UNL     1      20.793  13.365  31.348  1.00  0.00     0.000 C 
BRANCH  19  20
ATOM     20  C   UNL     1      20.117  14.093  32.524  1.00  0.00     0.000 C 
BRANCH  20  21
ATOM     21  C   UNL     1      21.065  14.505  33.666  1.00  0.00     0.000 C 
BRANCH  21  22
ATOM     22  C   UNL     1      21.279  13.438  34.758  1.00  0.00    -0.000 C 
BRANCH  22  23
ATOM     23  C   UNL     1      20.204  13.457  35.865  1.00  0.00    -0.000 C 
BRANCH  23  24
ATOM     24  C   UNL     1      19.090  12.424  35.621  1.00  0.00    -0.000 C 
BRANCH  24  25
ATOM     25  C   UNL     1      19.637  11.050  35.202  1.00  0.00    -0.000 C 
BRANCH  25  26
ATOM     26  C   UNL     1      18.751   9.891  35.694  1.00  0.00    -0.000 C 
BRANCH  26  27
ATOM     27  C   UNL     1      18.090  10.187  37.053  1.00  0.00    -0.000 C 
BRANCH  27  28
ATOM     28  C   UNL     1      18.244   9.066  38.096  1.00  0.00    -0.000 C 
BRANCH  28  29
ATOM     29  C   UNL     1      19.399   8.106  37.771  1.00  0.00    -0.003 C 
ATOM     30  C   UNL     1      18.877   6.714  37.420  1.00  0.00     0.004 C 
ENDBRANCH  28  29
ENDBRANCH  27  28
ENDBRANCH  26  27
ENDBRANCH  25  26
ENDBRANCH  24  25
ENDBRANCH  23  24
ENDBRANCH  22  23
ENDBRANCH  21  22
ENDBRANCH  20  21
ENDBRANCH  19  20
ENDBRANCH  18  19
ENDBRANCH  17  18
ENDBRANCH   1  17
TORSDOF 26
ENDMDL
MODEL 8
REMARK VINA RESULT:    -4.684      1.359      2.209
REMARK INTER + INTRA:         -15.368
REMARK INTER:                 -11.961
REMARK INTRA:                  -3.407
REMARK UNBOUND:                -3.566
REMARK SMILES CCCCCCCCCCCCCCCCCCCCCCCCCCCC(=O)[O-]
REMARK SMILES IDX 15 1 16 2 17 3 18 4 19 5 20 6 21 7 22 8 23 9 24 10 25 11
REMARK SMILES IDX 26 12 27 13 28 14 29 15 30 16 14 17 13 18 12 19 11 20 10 21
REMARK SMILES IDX 9 22 8 23 7 24 6 25 5 26 4 27 3 28 2 29 1 30
REMARK H PARENT
REMARK Flexibility Score: inf
ROOT
ATOM      1  C   UNL     1      23.574  12.664  35.245  1.00  0.00     0.000 C 
ENDROOT
BRANCH   1   2
ATOM      2  C   UNL     1      24.553  11.887  34.346  1.00  0.00     0.000 C 
BRANCH   2   3
ATOM      3  C   UNL     1      25.997  11.913  34.872  1.00  0.00     0.000 C 
BRANCH   3   4
ATOM      4  C   UNL     1      26.238  13.028  35.906  1.00  0.00     0.000 C 
BRANCH   4   5
ATOM      5  C   UNL     1      27.563  13.804  35.750  1.00  0.00     0.000 C 
BRANCH   5   6
ATOM      6  C   UNL     1      28.470  13.335  34.597  1.00  0.00     0.000 C 
BRANCH   6   7
ATOM      7  C   UNL     1      28.048  13.909  33.234  1.00  0.00     0.000 C 
BRANCH   7   8
ATOM      8  C   UNL     1      28.790  13.255  32.053  1.00  0.00     0.000 C 
BRANCH   8   9
ATOM      9  C   UNL     1      27.932  13.004  30.800  1.00  0.00     0.000 C 
BRANCH   9  10
ATOM     10  C   UNL     1      26.622  12.259  31.109  1.00  0.00     0.000 C 
BRANCH  10  11
ATOM     11  C   UNL     1      26.797  10.727  31.040  1.00  0.00     0.000 C 
BRANCH  11  12
ATOM     12  C   UNL     1      25.512   9.943  31.361  1.00  0.00     0.006 C 
BRANCH  12  13
ATOM     13  C   UNL     1      24.431  10.103  30.285  1.00  0.00     0.053 C 
BRANCH  13  14
ATOM     14  C   UNL     1      23.137  10.529  30.902  1.00  0.00     0.041 C 
ATOM     15  O   UNL     1      22.941  11.740  31.189  1.00  0.00    -0.550 OA
ATOM     16  O   UNL     1      22.167   9.585  31.207  1.00  0.00    -0.550 OA
ENDBRANCH  13  14
ENDBRANCH  12  13
ENDBRANCH  11  12
ENDBRANCH  10  11
ENDBRANCH   9  10
ENDBRANCH   8   9
ENDBRANCH   7   8
ENDBRANCH   6   7
ENDBRANCH   5   6
ENDBRANCH   4   5
ENDBRANCH   3   4
ENDBRANCH   2   3
ENDBRANCH   1   2
BRANCH   1  17
ATOM     17  C   UNL     1      22.191  12.935  34.625  1.00  0.00     0.000 C 
BRANCH  17  18
ATOM     18  C   UNL     1      21.084  13.098  35.678  1.00  0.00     0.000 C 
BRANCH  18  19
ATOM     19  C   UNL     1      20.063  14.158  35.240  1.00  0.00     0.000 C 
BRANCH  19  20
ATOM     20  C   UNL     1      20.511  14.944  33.993  1.00  0.00     0.000 C 
BRANCH  20  21
ATOM     21  C   UNL     1      19.505  14.941  32.827  1.00  0.00     0.000 C 
BRANCH  21  22
ATOM     22  C   UNL     1      18.648  13.667  32.703  1.00  0.00    -0.000 C 
BRANCH  22  23
ATOM     23  C   UNL     1      19.359  12.507  31.973  1.00  0.00    -0.000 C 
BRANCH  23  24
ATOM     24  C   UNL     1      19.495  11.252  32.853  1.00  0.00    -0.000 C 
BRANCH  24  25
ATOM     25  C   UNL     1      18.426  11.183  33.955  1.00  0.00    -0.000 C 
BRANCH  25  26
ATOM     26  C   UNL     1      18.415   9.823  34.677  1.00  0.00    -0.000 C 
BRANCH  26  27
ATOM     27  C   UNL     1      19.216   9.844  35.991  1.00  0.00    -0.000 C 
BRANCH  27  28
ATOM     28  C   UNL     1      18.519   9.148  37.175  1.00  0.00    -0.000 C 
BRANCH  28  29
ATOM     29  C   UNL     1      19.428   8.134  37.886  1.00  0.00    -0.003 C 
ATOM     30  C   UNL     1      19.113   6.707  37.444  1.00  0.00     0.004 C 
ENDBRANCH  28  29
ENDBRANCH  27  28
ENDBRANCH  26  27
ENDBRANCH  25  26
ENDBRANCH  24  25
ENDBRANCH  23  24
ENDBRANCH  22  23
ENDBRANCH  21  22
ENDBRANCH  20  21
ENDBRANCH  19  20
ENDBRANCH  18  19
ENDBRANCH  17  18
ENDBRANCH   1  17
TORSDOF 26
ENDMDL
MODEL 9
REMARK VINA RESULT:    -4.679      3.129      7.823
REMARK INTER + INTRA:         -15.358
REMARK INTER:                 -10.152
REMARK INTRA:                  -5.206
REMARK UNBOUND:                -3.566
REMARK SMILES CCCCCCCCCCCCCCCCCCCCCCCCCCCC(=O)[O-]
REMARK SMILES IDX 15 1 16 2 17 3 18 4 19 5 20 6 21 7 22 8 23 9 24 10 25 11
REMARK SMILES IDX 26 12 27 13 28 14 29 15 30 16 14 17 13 18 12 19 11 20 10 21
REMARK SMILES IDX 9 22 8 23 7 24 6 25 5 26 4 27 3 28 2 29 1 30
REMARK H PARENT
REMARK Flexibility Score: inf
ROOT
ATOM      1  C   UNL     1      23.606  12.477  31.695  1.00  0.00     0.000 C 
ENDROOT
BRANCH   1   2
ATOM      2  C   UNL     1      23.244  12.938  30.272  1.00  0.00     0.000 C 
BRANCH   2   3
ATOM      3  C   UNL     1      21.910  13.700  30.211  1.00  0.00     0.000 C 
BRANCH   3   4
ATOM      4  C   UNL     1      20.715  12.790  29.875  1.00  0.00     0.000 C 
BRANCH   4   5
ATOM      5  C   UNL     1      19.823  12.395  31.071  1.00  0.00     0.000 C 
BRANCH   5   6
ATOM      6  C   UNL     1      19.876  10.909  31.471  1.00  0.00     0.000 C 
BRANCH   6   7
ATOM      7  C   UNL     1      19.738  10.693  32.987  1.00  0.00     0.000 C 
BRANCH   7   8
ATOM      8  C   UNL     1      19.813  12.007  33.788  1.00  0.00     0.000 C 
BRANCH   8   9
ATOM      9  C   UNL     1      21.163  12.276  34.478  1.00  0.00     0.000 C 
BRANCH   9  10
ATOM     10  C   UNL     1      21.610  13.743  34.372  1.00  0.00     0.000 C 
BRANCH  10  11
ATOM     11  C   UNL     1      20.442  14.680  33.998  1.00  0.00     0.000 C 
BRANCH  11  12
ATOM     12  C   UNL     1      20.844  15.822  33.049  1.00  0.00     0.006 C 
BRANCH  12  13
ATOM     13  C   UNL     1      19.807  16.078  31.949  1.00  0.00     0.053 C 
BRANCH  13  14
ATOM     14  C   UNL     1      20.220  17.236  31.098  1.00  0.00     0.041 C 
ATOM     15  O   UNL     1      21.371  17.266  30.584  1.00  0.00    -0.550 OA
ATOM     16  O   UNL     1      19.358  18.307  30.913  1.00  0.00    -0.550 OA
ENDBRANCH  13  14
ENDBRANCH  12  13
ENDBRANCH  11  12
ENDBRANCH  10  11
ENDBRANCH   9  10
ENDBRANCH   8   9
ENDBRANCH   7   8
ENDBRANCH   6   7
ENDBRANCH   5   6
ENDBRANCH   4   5
ENDBRANCH   3   4
ENDBRANCH   2   3
ENDBRANCH   1   2
BRANCH   1  17
ATOM     17  C   UNL     1      23.586  10.953  31.914  1.00  0.00     0.000 C 
BRANCH  17  18
ATOM     18  C   UNL     1      24.061  10.165  30.684  1.00  0.00     0.000 C 
BRANCH  18  19
ATOM     19  C   UNL     1      25.361   9.406  30.987  1.00  0.00     0.000 C 
BRANCH  19  20
ATOM     20  C   UNL     1      26.543  10.342  31.301  1.00  0.00     0.000 C 
BRANCH  20  21
ATOM     21  C   UNL     1      27.331  10.832  30.071  1.00  0.00     0.000 C 
BRANCH  21  22
ATOM     22  C   UNL     1      28.098  12.153  30.267  1.00  0.00    -0.000 C 
BRANCH  22  23
ATOM     23  C   UNL     1      27.184  13.373  30.513  1.00  0.00    -0.000 C 
BRANCH  23  24
ATOM     24  C   UNL     1      26.994  13.674  32.010  1.00  0.00    -0.000 C 
BRANCH  24  25
ATOM     25  C   UNL     1      28.220  13.288  32.853  1.00  0.00    -0.000 C 
BRANCH  25  26
ATOM     26  C   UNL     1      27.954  13.409  34.364  1.00  0.00    -0.000 C 
BRANCH  26  27
ATOM     27  C   UNL     1      27.780  12.040  35.046  1.00  0.00    -0.000 C 
BRANCH  27  28
ATOM     28  C   UNL     1      26.367  11.441  34.925  1.00  0.00    -0.000 C 
BRANCH  28  29
ATOM     29  C   UNL     1      25.263  12.508  34.969  1.00  0.00    -0.003 C 
ATOM     30  C   UNL     1      24.921  12.888  36.409  1.00  0.00     0.004 C 
ENDBRANCH  28  29
ENDBRANCH  27  28
ENDBRANCH  26  27
ENDBRANCH  25  26
ENDBRANCH  24  25
ENDBRANCH  23  24
ENDBRANCH  22  23
ENDBRANCH  21  22
ENDBRANCH  20  21
ENDBRANCH  19  20
ENDBRANCH  18  19
ENDBRANCH  17  18
ENDBRANCH   1  17
TORSDOF 26
ENDMDL
