MODEL 1
REMARK VINA RESULT:    -5.502      0.000      0.000
REMARK INTER + INTRA:         -11.802
REMARK INTER:                 -10.005
REMARK INTRA:                  -1.797
REMARK UNBOUND:                -1.797
REMARK SMILES CCCCCCCCCCCCCCCC(=O)[O-]
REMARK SMILES IDX 9 1 10 2 11 3 12 4 13 5 14 6 15 7 16 8 17 9 18 10 8 11 7 12
REMARK SMILES IDX 6 13 5 14 4 15 3 16 2 17 1 18
REMARK H PARENT
REMARK Flexibility Score: inf
ROOT
ATOM      1  C   UNL     1      15.565  -4.785  15.374  1.00  0.00     0.000 C 
ENDROOT
BRANCH   1   2
ATOM      2  C   UNL     1      15.104  -3.896  16.541  1.00  0.00     0.000 C 
BRANCH   2   3
ATOM      3  C   UNL     1      13.680  -3.353  16.346  1.00  0.00     0.000 C 
BRANCH   3   4
ATOM      4  C   UNL     1      13.124  -3.751  14.973  1.00  0.00     0.000 C 
BRANCH   4   5
ATOM      5  C   UNL     1      11.947  -2.849  14.573  1.00  0.00     0.000 C 
BRANCH   5   6
ATOM      6  C   UNL     1      12.392  -1.595  13.799  1.00  0.00     0.006 C 
BRANCH   6   7
ATOM      7  C   UNL     1      13.115  -1.891  12.475  1.00  0.00     0.053 C 
BRANCH   7   8
ATOM      8  C   UNL     1      14.231  -0.927  12.214  1.00  0.00     0.041 C 
ATOM      9  O   UNL     1      14.049   0.064  11.461  1.00  0.00    -0.550 OA
ATOM     10  O   UNL     1      15.483  -1.142  12.777  1.00  0.00    -0.550 OA
ENDBRANCH   7   8
ENDBRANCH   6   7
ENDBRANCH   5   6
ENDBRANCH   4   5
ENDBRANCH   3   4
ENDBRANCH   2   3
ENDBRANCH   1   2
BRANCH   1  11
ATOM     11  C   UNL     1      15.890  -6.222  15.819  1.00  0.00     0.000 C 
BRANCH  11  12
ATOM     12  C   UNL     1      15.067  -7.275  15.057  1.00  0.00    -0.000 C 
BRANCH  12  13
ATOM     13  C   UNL     1      15.071  -7.039  13.537  1.00  0.00    -0.000 C 
BRANCH  13  14
ATOM     14  C   UNL     1      13.663  -6.779  12.971  1.00  0.00    -0.000 C 
BRANCH  14  15
ATOM     15  C   UNL     1      13.581  -5.659  11.913  1.00  0.00    -0.000 C 
BRANCH  15  16
ATOM     16  C   UNL     1      14.938  -5.137  11.404  1.00  0.00    -0.000 C 
BRANCH  16  17
ATOM     17  C   UNL     1      15.164  -5.294   9.889  1.00  0.00    -0.003 C 
ATOM     18  C   UNL     1      13.937  -5.839   9.159  1.00  0.00     0.004 C 
ENDBRANCH  16  17
ENDBRANCH  15  16
ENDBRANCH  14  15
ENDBRANCH  13  14
ENDBRANCH  12  13
ENDBRANCH  11  12
ENDBRANCH   1  11
TORSDOF 14
ENDMDL
MODEL 2
REMARK VINA RESULT:    -5.497      2.414      5.113
REMARK INTER + INTRA:         -11.794
REMARK INTER:                  -9.933
REMARK INTRA:                  -1.860
REMARK UNBOUND:                -1.797
REMARK SMILES CCCCCCCCCCCCCCCC(=O)[O-]
REMARK SMILES IDX 9 1 10 2 11 3 12 4 13 5 14 6 15 7 16 8 17 9 18 10 8 11 7 12
REMARK SMILES IDX 6 13 5 14 4 15 3 16 2 17 1 18
REMARK H PARENT
REMARK Flexibility Score: inf
ROOT
ATOM      1  C   UNL     1      11.763  -3.028  14.668  1.00  0.00     0.000 C 
ENDROOT
BRANCH   1   2
ATOM      2  C   UNL     1      11.426  -3.763  13.361  1.00  0.00     0.000 C 
BRANCH   2   3
ATOM      3  C   UNL     1      12.258  -3.266  12.169  1.00  0.00     0.000 C 
BRANCH   3   4
ATOM      4  C   UNL     1      12.923  -4.439  11.438  1.00  0.00     0.000 C 
BRANCH   4   5
ATOM      5  C   UNL     1      12.997  -5.679  12.342  1.00  0.00     0.000 C 
BRANCH   5   6
ATOM      6  C   UNL     1      14.431  -6.217  12.502  1.00  0.00     0.006 C 
BRANCH   6   7
ATOM      7  C   UNL     1      15.531  -5.191  12.185  1.00  0.00     0.053 C 
BRANCH   7   8
ATOM      8  C   UNL     1      16.452  -5.669  11.105  1.00  0.00     0.041 C 
ATOM      9  O   UNL     1      16.070  -5.679   9.906  1.00  0.00    -0.550 OA
ATOM     10  O   UNL     1      17.720  -6.136  11.428  1.00  0.00    -0.550 OA
ENDBRANCH   7   8
ENDBRANCH   6   7
ENDBRANCH   5   6
ENDBRANCH   4   5
ENDBRANCH   3   4
ENDBRANCH   2   3
ENDBRANCH   1   2
BRANCH   1  11
ATOM     11  C   UNL     1      13.254  -3.130  15.036  1.00  0.00     0.000 C 
BRANCH  11  12
ATOM     12  C   UNL     1      13.474  -3.670  16.460  1.00  0.00    -0.000 C 
BRANCH  12  13
ATOM     13  C   UNL     1      14.877  -3.349  17.002  1.00  0.00    -0.000 C 
BRANCH  13  14
ATOM     14  C   UNL     1      15.991  -3.628  15.977  1.00  0.00    -0.000 C 
BRANCH  14  15
ATOM     15  C   UNL     1      17.210  -4.396  16.529  1.00  0.00    -0.000 C 
BRANCH  15  16
ATOM     16  C   UNL     1      17.072  -5.931  16.532  1.00  0.00    -0.000 C 
BRANCH  16  17
ATOM     17  C   UNL     1      16.044  -6.489  15.531  1.00  0.00    -0.003 C 
ATOM     18  C   UNL     1      14.822  -7.101  16.215  1.00  0.00     0.004 C 
ENDBRANCH  16  17
ENDBRANCH  15  16
ENDBRANCH  14  15
ENDBRANCH  13  14
ENDBRANCH  12  13
ENDBRANCH  11  12
ENDBRANCH   1  11
TORSDOF 14
ENDMDL
MODEL 3
REMARK VINA RESULT:    -5.479      2.247      4.960
REMARK INTER + INTRA:         -11.759
REMARK INTER:                  -9.508
REMARK INTRA:                  -2.251
REMARK UNBOUND:                -1.797
REMARK SMILES CCCCCCCCCCCCCCCC(=O)[O-]
REMARK SMILES IDX 9 1 10 2 11 3 12 4 13 5 14 6 15 7 16 8 17 9 18 10 8 11 7 12
REMARK SMILES IDX 6 13 5 14 4 15 3 16 2 17 1 18
REMARK H PARENT
REMARK Flexibility Score: inf
ROOT
ATOM      1  C   UNL     1      13.712  -6.474  13.122  1.00  0.00     0.000 C 
ENDROOT
BRANCH   1   2
ATOM      2  C   UNL     1      14.150  -5.821  11.801  1.00  0.00     0.000 C 
BRANCH   2   3
ATOM      3  C   UNL     1      15.487  -5.075  11.923  1.00  0.00     0.000 C 
BRANCH   3   4
ATOM      4  C   UNL     1      16.536  -5.671  10.977  1.00  0.00     0.000 C 
BRANCH   4   5
ATOM      5  C   UNL     1      17.832  -6.004  11.731  1.00  0.00     0.000 C 
BRANCH   5   6
ATOM      6  C   UNL     1      18.070  -5.086  12.944  1.00  0.00     0.006 C 
BRANCH   6   7
ATOM      7  C   UNL     1      19.081  -3.956  12.693  1.00  0.00     0.053 C 
BRANCH   7   8
ATOM      8  C   UNL     1      18.590  -2.637  13.207  1.00  0.00     0.041 C 
ATOM      9  O   UNL     1      19.402  -1.800  13.681  1.00  0.00    -0.550 OA
ATOM     10  O   UNL     1      17.231  -2.347  13.194  1.00  0.00    -0.550 OA
ENDBRANCH   7   8
ENDBRANCH   6   7
ENDBRANCH   5   6
ENDBRANCH   4   5
ENDBRANCH   3   4
ENDBRANCH   2   3
ENDBRANCH   1   2
BRANCH   1  11
ATOM     11  C   UNL     1      14.887  -7.108  13.887  1.00  0.00     0.000 C 
BRANCH  11  12
ATOM     12  C   UNL     1      14.524  -7.458  15.340  1.00  0.00    -0.000 C 
BRANCH  12  13
ATOM     13  C   UNL     1      14.879  -6.332  16.325  1.00  0.00    -0.000 C 
BRANCH  13  14
ATOM     14  C   UNL     1      15.691  -5.200  15.669  1.00  0.00    -0.000 C 
BRANCH  14  15
ATOM     15  C   UNL     1      15.069  -3.794  15.791  1.00  0.00    -0.000 C 
BRANCH  15  16
ATOM     16  C   UNL     1      13.574  -3.768  16.163  1.00  0.00    -0.000 C 
BRANCH  16  17
ATOM     17  C   UNL     1      12.634  -3.308  15.034  1.00  0.00    -0.003 C 
ATOM     18  C   UNL     1      13.376  -2.631  13.883  1.00  0.00     0.004 C 
ENDBRANCH  16  17
ENDBRANCH  15  16
ENDBRANCH  14  15
ENDBRANCH  13  14
ENDBRANCH  12  13
ENDBRANCH  11  12
ENDBRANCH   1  11
TORSDOF 14
ENDMDL
MODEL 4
REMARK VINA RESULT:    -5.475      2.873      5.757
REMARK INTER + INTRA:         -11.753
REMARK INTER:                  -9.668
REMARK INTRA:                  -2.085
REMARK UNBOUND:                -1.797
REMARK SMILES CCCCCCCCCCCCCCCC(=O)[O-]
REMARK SMILES IDX 9 1 10 2 11 3 12 4 13 5 14 6 15 7 16 8 17 9 18 10 8 11 7 12
REMARK SMILES IDX 6 13 5 14 4 15 3 16 2 17 1 18
REMARK H PARENT
REMARK Flexibility Score: inf
ROOT
ATOM      1  C   UNL     1      16.460  -2.126  13.654  1.00  0.00     0.000 C 
ENDROOT
BRANCH   1   2
ATOM      2  C   UNL     1      17.766  -2.894  13.396  1.00  0.00     0.000 C 
BRANCH   2   3
ATOM      3  C   UNL     1      17.584  -4.418  13.474  1.00  0.00     0.000 C 
BRANCH   3   4
ATOM      4  C   UNL     1      18.452  -5.128  12.429  1.00  0.00     0.000 C 
BRANCH   4   5
ATOM      5  C   UNL     1      17.643  -6.194  11.674  1.00  0.00     0.000 C 
BRANCH   5   6
ATOM      6  C   UNL     1      16.166  -5.802  11.489  1.00  0.00     0.006 C 
BRANCH   6   7
ATOM      7  C   UNL     1      15.808  -5.336  10.069  1.00  0.00     0.053 C 
BRANCH   7   8
ATOM      8  C   UNL     1      14.331  -5.367   9.821  1.00  0.00     0.041 C 
ATOM      9  O   UNL     1      13.550  -4.720  10.567  1.00  0.00    -0.550 OA
ATOM     10  O   UNL     1      13.814  -6.139   8.789  1.00  0.00    -0.550 OA
ENDBRANCH   7   8
ENDBRANCH   6   7
ENDBRANCH   5   6
ENDBRANCH   4   5
ENDBRANCH   3   4
ENDBRANCH   2   3
ENDBRANCH   1   2
BRANCH   1  11
ATOM     11  C   UNL     1      15.233  -2.822  13.039  1.00  0.00     0.000 C 
BRANCH  11  12
ATOM     12  C   UNL     1      14.124  -3.084  14.072  1.00  0.00    -0.000 C 
BRANCH  12  13
ATOM     13  C   UNL     1      14.162  -4.517  14.628  1.00  0.00    -0.000 C 
BRANCH  13  14
ATOM     14  C   UNL     1      14.348  -4.559  16.156  1.00  0.00    -0.000 C 
BRANCH  14  15
ATOM     15  C   UNL     1      14.419  -3.180  16.844  1.00  0.00    -0.000 C 
BRANCH  15  16
ATOM     16  C   UNL     1      15.693  -2.926  17.674  1.00  0.00    -0.000 C 
BRANCH  16  17
ATOM     17  C   UNL     1      16.978  -3.540  17.089  1.00  0.00    -0.003 C 
ATOM     18  C   UNL     1      18.221  -3.216  17.917  1.00  0.00     0.004 C 
ENDBRANCH  16  17
ENDBRANCH  15  16
ENDBRANCH  14  15
ENDBRANCH  13  14
ENDBRANCH  12  13
ENDBRANCH  11  12
ENDBRANCH   1  11
TORSDOF 14
ENDMDL
MODEL 5
REMARK VINA RESULT:    -5.394      2.420      5.696
REMARK INTER + INTRA:         -11.606
REMARK INTER:                  -9.876
REMARK INTRA:                  -1.730
REMARK UNBOUND:                -1.797
REMARK SMILES CCCCCCCCCCCCCCCC(=O)[O-]
REMARK SMILES IDX 9 1 10 2 11 3 12 4 13 5 14 6 15 7 16 8 17 9 18 10 8 11 7 12
REMARK SMILES IDX 6 13 5 14 4 15 3 16 2 17 1 18
REMARK H PARENT
REMARK Flexibility Score: inf
ROOT
ATOM      1  C   UNL     1      13.445  -6.364  12.910  1.00  0.00     0.000 C 
ENDROOT
BRANCH   1   2
ATOM      2  C   UNL     1      13.981  -5.987  11.519  1.00  0.00     0.000 C 
BRANCH   2   3
ATOM      3  C   UNL     1      15.209  -5.065  11.587  1.00  0.00     0.000 C 
BRANCH   3   4
ATOM      4  C   UNL     1      16.376  -5.647  10.781  1.00  0.00     0.000 C 
BRANCH   4   5
ATOM      5  C   UNL     1      17.528  -6.067  11.707  1.00  0.00     0.000 C 
BRANCH   5   6
ATOM      6  C   UNL     1      17.682  -5.140  12.927  1.00  0.00     0.006 C 
BRANCH   6   7
ATOM      7  C   UNL     1      18.833  -4.128  12.813  1.00  0.00     0.053 C 
BRANCH   7   8
ATOM      8  C   UNL     1      18.407  -2.745  13.198  1.00  0.00     0.041 C 
ATOM      9  O   UNL     1      19.255  -1.916  13.620  1.00  0.00    -0.550 OA
ATOM     10  O   UNL     1      17.068  -2.383  13.123  1.00  0.00    -0.550 OA
ENDBRANCH   7   8
ENDBRANCH   6   7
ENDBRANCH   5   6
ENDBRANCH   4   5
ENDBRANCH   3   4
ENDBRANCH   2   3
ENDBRANCH   1   2
BRANCH   1  11
ATOM     11  C   UNL     1      14.555  -6.837  13.864  1.00  0.00     0.000 C 
BRANCH  11  12
ATOM     12  C   UNL     1      14.493  -6.138  15.233  1.00  0.00    -0.000 C 
BRANCH  12  13
ATOM     13  C   UNL     1      14.487  -4.605  15.112  1.00  0.00    -0.000 C 
BRANCH  13  14
ATOM     14  C   UNL     1      14.248  -3.902  16.461  1.00  0.00    -0.000 C 
BRANCH  14  15
ATOM     15  C   UNL     1      15.480  -3.187  17.053  1.00  0.00    -0.000 C 
BRANCH  15  16
ATOM     16  C   UNL     1      16.841  -3.687  16.533  1.00  0.00    -0.000 C 
BRANCH  16  17
ATOM     17  C   UNL     1      18.049  -3.303  17.408  1.00  0.00    -0.003 C 
ATOM     18  C   UNL     1      17.662  -3.011  18.857  1.00  0.00     0.004 C 
ENDBRANCH  16  17
ENDBRANCH  15  16
ENDBRANCH  14  15
ENDBRANCH  13  14
ENDBRANCH  12  13
ENDBRANCH  11  12
ENDBRANCH   1  11
TORSDOF 14
ENDMDL
MODEL 6
REMARK VINA RESULT:    -5.394      2.101      3.361
REMARK INTER + INTRA:         -11.606
REMARK INTER:                  -9.506
REMARK INTRA:                  -2.100
REMARK UNBOUND:                -1.797
REMARK SMILES CCCCCCCCCCCCCCCC(=O)[O-]
REMARK SMILES IDX 9 1 10 2 11 3 12 4 13 5 14 6 15 7 16 8 17 9 18 10 8 11 7 12
REMARK SMILES IDX 6 13 5 14 4 15 3 16 2 17 1 18
REMARK H PARENT
REMARK Flexibility Score: inf
ROOT
ATOM      1  C   UNL     1      18.101  -4.819  15.766  1.00  0.00     0.000 C 
ENDROOT
BRANCH   1   2
ATOM      2  C   UNL     1      17.226  -3.718  16.387  1.00  0.00     0.000 C 
BRANCH   2   3
ATOM      3  C   UNL     1      15.831  -3.637  15.748  1.00  0.00     0.000 C 
BRANCH   3   4
ATOM      4  C   UNL     1      14.752  -3.412  16.813  1.00  0.00     0.000 C 
BRANCH   4   5
ATOM      5  C   UNL     1      13.350  -3.666  16.238  1.00  0.00     0.000 C 
BRANCH   5   6
ATOM      6  C   UNL     1      13.297  -3.515  14.707  1.00  0.00     0.006 C 
BRANCH   6   7
ATOM      7  C   UNL     1      12.516  -2.284  14.219  1.00  0.00     0.053 C 
BRANCH   7   8
ATOM      8  C   UNL     1      13.100  -1.708  12.965  1.00  0.00     0.041 C 
ATOM      9  O   UNL     1      14.323  -1.420  12.911  1.00  0.00    -0.550 OA
ATOM     10  O   UNL     1      12.284  -1.458  11.869  1.00  0.00    -0.550 OA
ENDBRANCH   7   8
ENDBRANCH   6   7
ENDBRANCH   5   6
ENDBRANCH   4   5
ENDBRANCH   3   4
ENDBRANCH   2   3
ENDBRANCH   1   2
BRANCH   1  11
ATOM     11  C   UNL     1      19.184  -4.255  14.829  1.00  0.00     0.000 C 
BRANCH  11  12
ATOM     12  C   UNL     1      18.673  -4.054  13.392  1.00  0.00    -0.000 C 
BRANCH  12  13
ATOM     13  C   UNL     1      18.951  -5.269  12.491  1.00  0.00    -0.000 C 
BRANCH  13  14
ATOM     14  C   UNL     1      17.664  -5.946  11.988  1.00  0.00    -0.000 C 
BRANCH  14  15
ATOM     15  C   UNL     1      16.355  -5.215  12.352  1.00  0.00    -0.000 C 
BRANCH  15  16
ATOM     16  C   UNL     1      15.223  -6.119  12.878  1.00  0.00    -0.000 C 
BRANCH  16  17
ATOM     17  C   UNL     1      15.696  -7.356  13.663  1.00  0.00    -0.003 C 
ATOM     18  C   UNL     1      15.319  -7.301  15.142  1.00  0.00     0.004 C 
ENDBRANCH  16  17
ENDBRANCH  15  16
ENDBRANCH  14  15
ENDBRANCH  13  14
ENDBRANCH  12  13
ENDBRANCH  11  12
ENDBRANCH   1  11
TORSDOF 14
ENDMDL
MODEL 7
REMARK VINA RESULT:    -5.366      1.984      3.005
REMARK INTER + INTRA:         -11.555
REMARK INTER:                  -9.172
REMARK INTRA:                  -2.383
REMARK UNBOUND:                -1.797
REMARK SMILES CCCCCCCCCCCCCCCC(=O)[O-]
REMARK SMILES IDX 9 1 10 2 11 3 12 4 13 5 14 6 15 7 16 8 17 9 18 10 8 11 7 12
REMARK SMILES IDX 6 13 5 14 4 15 3 16 2 17 1 18
REMARK H PARENT
REMARK Flexibility Score: inf
ROOT
ATOM      1  C   UNL     1      16.683  -6.376  15.577  1.00  0.00     0.000 C 
ENDROOT
BRANCH   1   2
ATOM      2  C   UNL     1      16.660  -5.055  16.362  1.00  0.00     0.000 C 
BRANCH   2   3
ATOM      3  C   UNL     1      15.771  -3.989  15.702  1.00  0.00     0.000 C 
BRANCH   3   4
ATOM      4  C   UNL     1      14.803  -3.376  16.721  1.00  0.00     0.000 C 
BRANCH   4   5
ATOM      5  C   UNL     1      13.350  -3.485  16.235  1.00  0.00     0.000 C 
BRANCH   5   6
ATOM      6  C   UNL     1      13.234  -3.497  14.699  1.00  0.00     0.006 C 
BRANCH   6   7
ATOM      7  C   UNL     1      12.527  -2.267  14.109  1.00  0.00     0.053 C 
BRANCH   7   8
ATOM      8  C   UNL     1      12.727  -2.160  12.628  1.00  0.00     0.041 C 
ATOM      9  O   UNL     1      13.024  -1.053  12.108  1.00  0.00    -0.550 OA
ATOM     10  O   UNL     1      12.551  -3.275  11.819  1.00  0.00    -0.550 OA
ENDBRANCH   7   8
ENDBRANCH   6   7
ENDBRANCH   5   6
ENDBRANCH   4   5
ENDBRANCH   3   4
ENDBRANCH   2   3
ENDBRANCH   1   2
BRANCH   1  11
ATOM     11  C   UNL     1      15.282  -6.816  15.117  1.00  0.00     0.000 C 
BRANCH  11  12
ATOM     12  C   UNL     1      15.242  -7.192  13.625  1.00  0.00    -0.000 C 
BRANCH  12  13
ATOM     13  C   UNL     1      14.616  -6.089  12.756  1.00  0.00    -0.000 C 
BRANCH  13  14
ATOM     14  C   UNL     1      15.669  -5.237  12.023  1.00  0.00    -0.000 C 
BRANCH  14  15
ATOM     15  C   UNL     1      16.881  -6.022  11.478  1.00  0.00    -0.000 C 
BRANCH  15  16
ATOM     16  C   UNL     1      18.235  -5.670  12.125  1.00  0.00    -0.000 C 
BRANCH  16  17
ATOM     17  C   UNL     1      18.257  -4.336  12.893  1.00  0.00    -0.003 C 
ATOM     18  C   UNL     1      19.376  -4.267  13.932  1.00  0.00     0.004 C 
ENDBRANCH  16  17
ENDBRANCH  15  16
ENDBRANCH  14  15
ENDBRANCH  13  14
ENDBRANCH  12  13
ENDBRANCH  11  12
ENDBRANCH   1  11
TORSDOF 14
ENDMDL
MODEL 8
REMARK VINA RESULT:    -5.344      2.385      4.226
REMARK INTER + INTRA:         -11.515
REMARK INTER:                  -9.008
REMARK INTRA:                  -2.507
REMARK UNBOUND:                -1.797
REMARK SMILES CCCCCCCCCCCCCCCC(=O)[O-]
REMARK SMILES IDX 9 1 10 2 11 3 12 4 13 5 14 6 15 7 16 8 17 9 18 10 8 11 7 12
REMARK SMILES IDX 6 13 5 14 4 15 3 16 2 17 1 18
REMARK H PARENT
REMARK Flexibility Score: inf
ROOT
ATOM      1  C   UNL     1      13.049  -3.086  15.024  1.00  0.00     0.000 C 
ENDROOT
BRANCH   1   2
ATOM      2  C   UNL     1      13.839  -3.510  16.273  1.00  0.00     0.000 C 
BRANCH   2   3
ATOM      3  C   UNL     1      14.427  -4.924  16.151  1.00  0.00     0.000 C 
BRANCH   3   4
ATOM      4  C   UNL     1      15.959  -4.877  16.092  1.00  0.00     0.000 C 
BRANCH   4   5
ATOM      5  C   UNL     1      16.501  -3.653  16.845  1.00  0.00     0.000 C 
BRANCH   5   6
ATOM      6  C   UNL     1      17.719  -3.016  16.151  1.00  0.00     0.006 C 
BRANCH   6   7
ATOM      7  C   UNL     1      17.674  -3.074  14.616  1.00  0.00     0.053 C 
BRANCH   7   8
ATOM      8  C   UNL     1      18.873  -3.765  14.043  1.00  0.00     0.041 C 
ATOM      9  O   UNL     1      19.595  -4.491  14.775  1.00  0.00    -0.550 OA
ATOM     10  O   UNL     1      19.213  -3.579  12.709  1.00  0.00    -0.550 OA
ENDBRANCH   7   8
ENDBRANCH   6   7
ENDBRANCH   5   6
ENDBRANCH   4   5
ENDBRANCH   3   4
ENDBRANCH   2   3
ENDBRANCH   1   2
BRANCH   1  11
ATOM     11  C   UNL     1      13.964  -2.717  13.843  1.00  0.00     0.000 C 
BRANCH  11  12
ATOM     12  C   UNL     1      13.375  -3.142  12.487  1.00  0.00    -0.000 C 
BRANCH  12  13
ATOM     13  C   UNL     1      12.548  -4.435  12.582  1.00  0.00    -0.000 C 
BRANCH  13  14
ATOM     14  C   UNL     1      13.260  -5.647  11.956  1.00  0.00    -0.000 C 
BRANCH  14  15
ATOM     15  C   UNL     1      13.799  -6.682  12.966  1.00  0.00    -0.000 C 
BRANCH  15  16
ATOM     16  C   UNL     1      15.334  -6.810  13.018  1.00  0.00    -0.000 C 
BRANCH  16  17
ATOM     17  C   UNL     1      16.103  -5.612  12.431  1.00  0.00    -0.003 C 
ATOM     18  C   UNL     1      17.017  -6.004  11.271  1.00  0.00     0.004 C 
ENDBRANCH  16  17
ENDBRANCH  15  16
ENDBRANCH  14  15
ENDBRANCH  13  14
ENDBRANCH  12  13
ENDBRANCH  11  12
ENDBRANCH   1  11
TORSDOF 14
ENDMDL
MODEL 9
REMARK VINA RESULT:    -5.344      2.615      5.619
REMARK INTER + INTRA:         -11.515
REMARK INTER:                  -9.161
REMARK INTRA:                  -2.354
REMARK UNBOUND:                -1.797
REMARK SMILES CCCCCCCCCCCCCCCC(=O)[O-]
REMARK SMILES IDX 9 1 10 2 11 3 12 4 13 5 14 6 15 7 16 8 17 9 18 10 8 11 7 12
REMARK SMILES IDX 6 13 5 14 4 15 3 16 2 17 1 18
REMARK H PARENT
REMARK Flexibility Score: inf
ROOT
ATOM      1  C   UNL     1      14.358  -4.106  12.924  1.00  0.00     0.000 C 
ENDROOT
BRANCH   1   2
ATOM      2  C   UNL     1      14.615  -5.465  12.254  1.00  0.00     0.000 C 
BRANCH   2   3
ATOM      3  C   UNL     1      15.883  -5.469  11.386  1.00  0.00     0.000 C 
BRANCH   3   4
ATOM      4  C   UNL     1      16.968  -6.358  12.005  1.00  0.00     0.000 C 
BRANCH   4   5
ATOM      5  C   UNL     1      18.285  -5.584  12.169  1.00  0.00     0.000 C 
BRANCH   5   6
ATOM      6  C   UNL     1      18.161  -4.394  13.138  1.00  0.00     0.006 C 
BRANCH   6   7
ATOM      7  C   UNL     1      19.340  -4.246  14.114  1.00  0.00     0.053 C 
BRANCH   7   8
ATOM      8  C   UNL     1      19.312  -2.934  14.836  1.00  0.00     0.041 C 
ATOM      9  O   UNL     1      19.316  -1.855  14.189  1.00  0.00    -0.550 OA
ATOM     10  O   UNL     1      19.316  -2.904  16.225  1.00  0.00    -0.550 OA
ENDBRANCH   7   8
ENDBRANCH   6   7
ENDBRANCH   5   6
ENDBRANCH   4   5
ENDBRANCH   3   4
ENDBRANCH   2   3
ENDBRANCH   1   2
BRANCH   1  11
ATOM     11  C   UNL     1      13.087  -4.105  13.792  1.00  0.00     0.000 C 
BRANCH  11  12
ATOM     12  C   UNL     1      13.143  -3.057  14.917  1.00  0.00    -0.000 C 
BRANCH  12  13
ATOM     13  C   UNL     1      13.354  -3.689  16.302  1.00  0.00    -0.000 C 
BRANCH  13  14
ATOM     14  C   UNL     1      14.710  -3.317  16.928  1.00  0.00    -0.000 C 
BRANCH  14  15
ATOM     15  C   UNL     1      15.947  -3.793  16.139  1.00  0.00    -0.000 C 
BRANCH  15  16
ATOM     16  C   UNL     1      16.463  -5.196  16.512  1.00  0.00    -0.000 C 
BRANCH  16  17
ATOM     17  C   UNL     1      16.021  -6.322  15.560  1.00  0.00    -0.003 C 
ATOM     18  C   UNL     1      14.794  -7.079  16.065  1.00  0.00     0.004 C 
ENDBRANCH  16  17
ENDBRANCH  15  16
ENDBRANCH  14  15
ENDBRANCH  13  14
ENDBRANCH  12  13
ENDBRANCH  11  12
ENDBRANCH   1  11
TORSDOF 14
ENDMDL
