MODEL 1
REMARK VINA RESULT:    -3.674      0.000      0.000
REMARK INTER + INTRA:          -6.787
REMARK INTER:                  -6.251
REMARK INTRA:                  -0.536
REMARK UNBOUND:                -0.536
REMARK SMILES CCCCCCCCCCCCCC(=O)[O-]
REMARK SMILES IDX 8 1 9 2 10 3 11 4 12 5 13 6 14 7 15 8 16 9 7 10 6 11 5 12
REMARK SMILES IDX 4 13 3 14 2 15 1 16
REMARK H PARENT
REMARK Flexibility Score: inf
ROOT
ATOM      1  C   UNL     1      12.502  -7.445   4.866  1.00  0.00     0.000 C 
ENDROOT
BRANCH   1   2
ATOM      2  C   UNL     1      13.938  -7.545   5.410  1.00  0.00     0.000 C 
BRANCH   2   3
ATOM      3  C   UNL     1      14.981  -7.021   4.400  1.00  0.00     0.000 C 
BRANCH   3   4
ATOM      4  C   UNL     1      16.110  -6.203   5.048  1.00  0.00     0.000 C 
BRANCH   4   5
ATOM      5  C   UNL     1      16.503  -6.725   6.441  1.00  0.00     0.006 C 
BRANCH   5   6
ATOM      6  C   UNL     1      17.768  -7.593   6.399  1.00  0.00     0.053 C 
BRANCH   6   7
ATOM      7  C   UNL     1      18.960  -6.869   6.947  1.00  0.00     0.041 C 
ATOM      8  O   UNL     1      19.092  -6.714   8.188  1.00  0.00    -0.550 OA
ATOM      9  O   UNL     1      19.940  -6.392   6.086  1.00  0.00    -0.550 OA
ENDBRANCH   6   7
ENDBRANCH   5   6
ENDBRANCH   4   5
ENDBRANCH   3   4
ENDBRANCH   2   3
ENDBRANCH   1   2
BRANCH   1  10
ATOM     10  C   UNL     1      11.468  -7.159   5.967  1.00  0.00     0.000 C 
BRANCH  10  11
ATOM     11  C   UNL     1      10.038  -7.038   5.420  1.00  0.00    -0.000 C 
BRANCH  11  12
ATOM     12  C   UNL     1       9.317  -8.391   5.464  1.00  0.00    -0.000 C 
BRANCH  12  13
ATOM     13  C   UNL     1       7.800  -8.211   5.338  1.00  0.00    -0.000 C 
BRANCH  13  14
ATOM     14  C   UNL     1       7.065  -8.904   6.495  1.00  0.00    -0.000 C 
BRANCH  14  15
ATOM     15  C   UNL     1       8.015  -9.347   7.618  1.00  0.00    -0.003 C 
ATOM     16  C   UNL     1       7.274  -9.841   8.860  1.00  0.00     0.004 C 
ENDBRANCH  14  15
ENDBRANCH  13  14
ENDBRANCH  12  13
ENDBRANCH  11  12
ENDBRANCH  10  11
ENDBRANCH   1  10
TORSDOF 12
ENDMDL
MODEL 2
REMARK VINA RESULT:    -3.437      1.200      2.163
REMARK INTER + INTRA:          -6.384
REMARK INTER:                  -5.746
REMARK INTRA:                  -0.637
REMARK UNBOUND:                -0.536
REMARK SMILES CCCCCCCCCCCCCC(=O)[O-]
REMARK SMILES IDX 8 1 9 2 10 3 11 4 12 5 13 6 14 7 15 8 16 9 7 10 6 11 5 12
REMARK SMILES IDX 4 13 3 14 2 15 1 16
REMARK H PARENT
REMARK Flexibility Score: inf
ROOT
ATOM      1  C   UNL     1      14.539  -7.831   6.315  1.00  0.00     0.000 C 
ENDROOT
BRANCH   1   2
ATOM      2  C   UNL     1      15.870  -7.118   6.608  1.00  0.00     0.000 C 
BRANCH   2   3
ATOM      3  C   UNL     1      16.431  -6.398   5.365  1.00  0.00     0.000 C 
BRANCH   3   4
ATOM      4  C   UNL     1      17.676  -7.076   4.769  1.00  0.00     0.000 C 
BRANCH   4   5
ATOM      5  C   UNL     1      18.970  -6.714   5.516  1.00  0.00     0.006 C 
BRANCH   5   6
ATOM      6  C   UNL     1      19.582  -7.922   6.236  1.00  0.00     0.053 C 
BRANCH   6   7
ATOM      7  C   UNL     1      19.513  -7.778   7.726  1.00  0.00     0.041 C 
ATOM      8  O   UNL     1      19.983  -8.677   8.472  1.00  0.00    -0.550 OA
ATOM      9  O   UNL     1      18.958  -6.637   8.289  1.00  0.00    -0.550 OA
ENDBRANCH   6   7
ENDBRANCH   5   6
ENDBRANCH   4   5
ENDBRANCH   3   4
ENDBRANCH   2   3
ENDBRANCH   1   2
BRANCH   1  10
ATOM     10  C   UNL     1      13.897  -7.373   4.995  1.00  0.00     0.000 C 
BRANCH  10  11
ATOM     11  C   UNL     1      12.565  -8.081   4.706  1.00  0.00    -0.000 C 
BRANCH  11  12
ATOM     12  C   UNL     1      11.389  -7.309   5.317  1.00  0.00    -0.000 C 
BRANCH  12  13
ATOM     13  C   UNL     1      10.098  -8.133   5.256  1.00  0.00    -0.000 C 
BRANCH  13  14
ATOM     14  C   UNL     1       9.438  -8.226   6.640  1.00  0.00    -0.000 C 
BRANCH  14  15
ATOM     15  C   UNL     1       8.404  -9.359   6.727  1.00  0.00    -0.003 C 
ATOM     16  C   UNL     1       7.726  -9.437   8.095  1.00  0.00     0.004 C 
ENDBRANCH  14  15
ENDBRANCH  13  14
ENDBRANCH  12  13
ENDBRANCH  11  12
ENDBRANCH  10  11
ENDBRANCH   1  10
TORSDOF 12
ENDMDL
MODEL 3
REMARK VINA RESULT:    -3.270      3.993      8.630
REMARK INTER + INTRA:          -6.100
REMARK INTER:                  -4.937
REMARK INTRA:                  -1.163
REMARK UNBOUND:                -0.536
REMARK SMILES CCCCCCCCCCCCCC(=O)[O-]
REMARK SMILES IDX 8 1 9 2 10 3 11 4 12 5 13 6 14 7 15 8 16 9 7 10 6 11 5 12
REMARK SMILES IDX 4 13 3 14 2 15 1 16
REMARK H PARENT
REMARK Flexibility Score: inf
ROOT
ATOM      1  C   UNL     1      15.741  -7.840   6.236  1.00  0.00     0.000 C 
ENDROOT
BRANCH   1   2
ATOM      2  C   UNL     1      14.548  -8.356   5.412  1.00  0.00     0.000 C 
BRANCH   2   3
ATOM      3  C   UNL     1      13.267  -7.534   5.666  1.00  0.00     0.000 C 
BRANCH   3   4
ATOM      4  C   UNL     1      12.472  -7.220   4.387  1.00  0.00     0.000 C 
BRANCH   4   5
ATOM      5  C   UNL     1      11.049  -6.712   4.677  1.00  0.00     0.006 C 
BRANCH   5   6
ATOM      6  C   UNL     1       9.973  -7.670   4.150  1.00  0.00     0.053 C 
BRANCH   6   7
ATOM      7  C   UNL     1       9.440  -8.561   5.231  1.00  0.00     0.041 C 
ATOM      8  O   UNL     1       8.821  -9.616   4.935  1.00  0.00    -0.550 OA
ATOM      9  O   UNL     1       9.656  -8.240   6.565  1.00  0.00    -0.550 OA
ENDBRANCH   6   7
ENDBRANCH   5   6
ENDBRANCH   4   5
ENDBRANCH   3   4
ENDBRANCH   2   3
ENDBRANCH   1   2
BRANCH   1  10
ATOM     10  C   UNL     1      16.155  -6.411   5.851  1.00  0.00     0.000 C 
BRANCH  10  11
ATOM     11  C   UNL     1      16.687  -6.315   4.414  1.00  0.00    -0.000 C 
BRANCH  11  12
ATOM     12  C   UNL     1      18.036  -7.032   4.278  1.00  0.00    -0.000 C 
BRANCH  12  13
ATOM     13  C   UNL     1      19.093  -6.395   5.186  1.00  0.00    -0.000 C 
BRANCH  13  14
ATOM     14  C   UNL     1      19.945  -7.470   5.878  1.00  0.00    -0.000 C 
BRANCH  14  15
ATOM     15  C   UNL     1      19.408  -7.846   7.268  1.00  0.00    -0.003 C 
ATOM     16  C   UNL     1      19.098  -6.623   8.132  1.00  0.00     0.004 C 
ENDBRANCH  14  15
ENDBRANCH  13  14
ENDBRANCH  12  13
ENDBRANCH  11  12
ENDBRANCH  10  11
ENDBRANCH   1  10
TORSDOF 12
ENDMDL
MODEL 4
REMARK VINA RESULT:    -3.236      4.541      8.936
REMARK INTER + INTRA:          -6.042
REMARK INTER:                  -5.485
REMARK INTRA:                  -0.557
REMARK UNBOUND:                -0.536
REMARK SMILES CCCCCCCCCCCCCC(=O)[O-]
REMARK SMILES IDX 8 1 9 2 10 3 11 4 12 5 13 6 14 7 15 8 16 9 7 10 6 11 5 12
REMARK SMILES IDX 4 13 3 14 2 15 1 16
REMARK H PARENT
REMARK Flexibility Score: inf
ROOT
ATOM      1  C   UNL     1      13.247  -7.180   4.858  1.00  0.00     0.000 C 
ENDROOT
BRANCH   1   2
ATOM      2  C   UNL     1      11.943  -7.988   4.973  1.00  0.00     0.000 C 
BRANCH   2   3
ATOM      3  C   UNL     1      10.901  -7.285   5.869  1.00  0.00     0.000 C 
BRANCH   3   4
ATOM      4  C   UNL     1       9.517  -7.146   5.211  1.00  0.00     0.000 C 
BRANCH   4   5
ATOM      5  C   UNL     1       8.622  -8.377   5.435  1.00  0.00     0.006 C 
BRANCH   5   6
ATOM      6  C   UNL     1       8.802  -8.978   6.835  1.00  0.00     0.053 C 
BRANCH   6   7
ATOM      7  C   UNL     1       7.492  -9.372   7.447  1.00  0.00     0.041 C 
ATOM      8  O   UNL     1       6.522  -9.695   6.713  1.00  0.00    -0.550 OA
ATOM      9  O   UNL     1       7.353  -9.410   8.828  1.00  0.00    -0.550 OA
ENDBRANCH   6   7
ENDBRANCH   5   6
ENDBRANCH   4   5
ENDBRANCH   3   4
ENDBRANCH   2   3
ENDBRANCH   1   2
BRANCH   1  10
ATOM     10  C   UNL     1      14.291  -7.863   3.960  1.00  0.00     0.000 C 
BRANCH  10  11
ATOM     11  C   UNL     1      15.703  -7.837   4.566  1.00  0.00    -0.000 C 
BRANCH  11  12
ATOM     12  C   UNL     1      15.942  -6.537   5.345  1.00  0.00    -0.000 C 
BRANCH  12  13
ATOM     13  C   UNL     1      16.846  -6.781   6.558  1.00  0.00    -0.000 C 
BRANCH  13  14
ATOM     14  C   UNL     1      18.076  -7.617   6.169  1.00  0.00    -0.000 C 
BRANCH  14  15
ATOM     15  C   UNL     1      19.252  -7.424   7.138  1.00  0.00    -0.003 C 
ATOM     16  C   UNL     1      18.915  -6.489   8.300  1.00  0.00     0.004 C 
ENDBRANCH  14  15
ENDBRANCH  13  14
ENDBRANCH  12  13
ENDBRANCH  11  12
ENDBRANCH  10  11
ENDBRANCH   1  10
TORSDOF 12
ENDMDL
MODEL 5
REMARK VINA RESULT:    -3.193      4.186      9.437
REMARK INTER + INTRA:          -5.969
REMARK INTER:                  -5.377
REMARK INTRA:                  -0.592
REMARK UNBOUND:                -0.536
REMARK SMILES CCCCCCCCCCCCCC(=O)[O-]
REMARK SMILES IDX 8 1 9 2 10 3 11 4 12 5 13 6 14 7 15 8 16 9 7 10 6 11 5 12
REMARK SMILES IDX 4 13 3 14 2 15 1 16
REMARK H PARENT
REMARK Flexibility Score: inf
ROOT
ATOM      1  C   UNL     1      16.341  -6.931   5.184  1.00  0.00     0.000 C 
ENDROOT
BRANCH   1   2
ATOM      2  C   UNL     1      14.914  -6.811   4.620  1.00  0.00     0.000 C 
BRANCH   2   3
ATOM      3  C   UNL     1      13.888  -7.601   5.460  1.00  0.00     0.000 C 
BRANCH   3   4
ATOM      4  C   UNL     1      12.447  -7.492   4.934  1.00  0.00     0.000 C 
BRANCH   4   5
ATOM      5  C   UNL     1      11.423  -7.216   6.048  1.00  0.00     0.006 C 
BRANCH   5   6
ATOM      6  C   UNL     1       9.990  -7.124   5.509  1.00  0.00     0.053 C 
BRANCH   6   7
ATOM      7  C   UNL     1       9.230  -8.397   5.727  1.00  0.00     0.041 C 
ATOM      8  O   UNL     1       8.846  -9.082   4.744  1.00  0.00    -0.550 OA
ATOM      9  O   UNL     1       8.972  -8.841   7.018  1.00  0.00    -0.550 OA
ENDBRANCH   6   7
ENDBRANCH   5   6
ENDBRANCH   4   5
ENDBRANCH   3   4
ENDBRANCH   2   3
ENDBRANCH   1   2
BRANCH   1  10
ATOM     10  C   UNL     1      16.406  -6.669   6.697  1.00  0.00     0.000 C 
BRANCH  10  11
ATOM     11  C   UNL     1      17.840  -6.717   7.246  1.00  0.00    -0.000 C 
BRANCH  11  12
ATOM     12  C   UNL     1      18.762  -7.504   6.306  1.00  0.00    -0.000 C 
BRANCH  12  13
ATOM     13  C   UNL     1      19.933  -6.638   5.831  1.00  0.00    -0.000 C 
BRANCH  13  14
ATOM     14  C   UNL     1      19.805  -6.312   4.335  1.00  0.00    -0.000 C 
BRANCH  14  15
ATOM     15  C   UNL     1      20.436  -4.959   3.969  1.00  0.00    -0.003 C 
ATOM     16  C   UNL     1      21.962  -5.019   3.896  1.00  0.00     0.004 C 
ENDBRANCH  14  15
ENDBRANCH  13  14
ENDBRANCH  12  13
ENDBRANCH  11  12
ENDBRANCH  10  11
ENDBRANCH   1  10
TORSDOF 12
ENDMDL
MODEL 6
REMARK VINA RESULT:    -3.190      1.386      2.515
REMARK INTER + INTRA:          -5.963
REMARK INTER:                  -5.080
REMARK INTRA:                  -0.883
REMARK UNBOUND:                -0.536
REMARK SMILES CCCCCCCCCCCCCC(=O)[O-]
REMARK SMILES IDX 8 1 9 2 10 3 11 4 12 5 13 6 14 7 15 8 16 9 7 10 6 11 5 12
REMARK SMILES IDX 4 13 3 14 2 15 1 16
REMARK H PARENT
REMARK Flexibility Score: inf
ROOT
ATOM      1  C   UNL     1      10.396  -6.792   4.966  1.00  0.00     0.000 C 
ENDROOT
BRANCH   1   2
ATOM      2  C   UNL     1      11.819  -6.765   4.381  1.00  0.00     0.000 C 
BRANCH   2   3
ATOM      3  C   UNL     1      12.772  -7.725   5.122  1.00  0.00     0.000 C 
BRANCH   3   4
ATOM      4  C   UNL     1      14.251  -7.315   5.034  1.00  0.00     0.000 C 
BRANCH   4   5
ATOM      5  C   UNL     1      15.010  -7.528   6.355  1.00  0.00     0.006 C 
BRANCH   5   6
ATOM      6  C   UNL     1      16.243  -6.622   6.468  1.00  0.00     0.053 C 
BRANCH   6   7
ATOM      7  C   UNL     1      17.519  -7.392   6.302  1.00  0.00     0.041 C 
ATOM      8  O   UNL     1      18.610  -6.900   6.690  1.00  0.00    -0.550 OA
ATOM      9  O   UNL     1      17.495  -8.665   5.748  1.00  0.00    -0.550 OA
ENDBRANCH   6   7
ENDBRANCH   5   6
ENDBRANCH   4   5
ENDBRANCH   3   4
ENDBRANCH   2   3
ENDBRANCH   1   2
BRANCH   1  10
ATOM     10  C   UNL     1      10.271  -7.726   6.180  1.00  0.00     0.000 C 
BRANCH  10  11
ATOM     11  C   UNL     1       9.271  -8.869   5.948  1.00  0.00    -0.000 C 
BRANCH  11  12
ATOM     12  C   UNL     1       8.339  -9.037   7.154  1.00  0.00    -0.000 C 
BRANCH  12  13
ATOM     13  C   UNL     1       6.964  -9.556   6.720  1.00  0.00    -0.000 C 
BRANCH  13  14
ATOM     14  C   UNL     1       6.540  -8.936   5.379  1.00  0.00    -0.000 C 
BRANCH  14  15
ATOM     15  C   UNL     1       5.912  -7.544   5.544  1.00  0.00    -0.003 C 
ATOM     16  C   UNL     1       6.642  -6.467   4.741  1.00  0.00     0.004 C 
ENDBRANCH  14  15
ENDBRANCH  13  14
ENDBRANCH  12  13
ENDBRANCH  11  12
ENDBRANCH  10  11
ENDBRANCH   1  10
TORSDOF 12
ENDMDL
MODEL 7
REMARK VINA RESULT:    -3.117      3.991      9.168
REMARK INTER + INTRA:          -5.840
REMARK INTER:                  -4.961
REMARK INTRA:                  -0.879
REMARK UNBOUND:                -0.536
REMARK SMILES CCCCCCCCCCCCCC(=O)[O-]
REMARK SMILES IDX 8 1 9 2 10 3 11 4 12 5 13 6 14 7 15 8 16 9 7 10 6 11 5 12
REMARK SMILES IDX 4 13 3 14 2 15 1 16
REMARK H PARENT
REMARK Flexibility Score: inf
ROOT
ATOM      1  C   UNL     1      15.695  -6.854   6.509  1.00  0.00     0.000 C 
ENDROOT
BRANCH   1   2
ATOM      2  C   UNL     1      14.865  -8.129   6.739  1.00  0.00     0.000 C 
BRANCH   2   3
ATOM      3  C   UNL     1      14.917  -9.084   5.528  1.00  0.00     0.000 C 
BRANCH   3   4
ATOM      4  C   UNL     1      14.229  -8.523   4.272  1.00  0.00     0.000 C 
BRANCH   4   5
ATOM      5  C   UNL     1      12.695  -8.523   4.379  1.00  0.00     0.006 C 
BRANCH   5   6
ATOM      6  C   UNL     1      12.103  -7.116   4.230  1.00  0.00     0.053 C 
BRANCH   6   7
ATOM      7  C   UNL     1      11.052  -6.840   5.263  1.00  0.00     0.041 C 
ATOM      8  O   UNL     1      11.205  -7.241   6.445  1.00  0.00    -0.550 OA
ATOM      9  O   UNL     1       9.918  -6.113   4.924  1.00  0.00    -0.550 OA
ENDBRANCH   6   7
ENDBRANCH   5   6
ENDBRANCH   4   5
ENDBRANCH   3   4
ENDBRANCH   2   3
ENDBRANCH   1   2
BRANCH   1  10
ATOM     10  C   UNL     1      17.180  -7.151   6.248  1.00  0.00     0.000 C 
BRANCH  10  11
ATOM     11  C   UNL     1      17.635  -6.714   4.848  1.00  0.00    -0.000 C 
BRANCH  11  12
ATOM     12  C   UNL     1      18.868  -7.508   4.398  1.00  0.00    -0.000 C 
BRANCH  12  13
ATOM     13  C   UNL     1      20.161  -6.792   4.802  1.00  0.00    -0.000 C 
BRANCH  13  14
ATOM     14  C   UNL     1      20.231  -5.388   4.182  1.00  0.00    -0.000 C 
BRANCH  14  15
ATOM     15  C   UNL     1      21.656  -4.815   4.176  1.00  0.00    -0.003 C 
ATOM     16  C   UNL     1      22.718  -5.865   4.503  1.00  0.00     0.004 C 
ENDBRANCH  14  15
ENDBRANCH  13  14
ENDBRANCH  12  13
ENDBRANCH  11  12
ENDBRANCH  10  11
ENDBRANCH   1  10
TORSDOF 12
ENDMDL
MODEL 8
REMARK VINA RESULT:    -3.091      2.372      3.992
REMARK INTER + INTRA:          -5.795
REMARK INTER:                  -4.699
REMARK INTRA:                  -1.095
REMARK UNBOUND:                -0.536
REMARK SMILES CCCCCCCCCCCCCC(=O)[O-]
REMARK SMILES IDX 8 1 9 2 10 3 11 4 12 5 13 6 14 7 15 8 16 9 7 10 6 11 5 12
REMARK SMILES IDX 4 13 3 14 2 15 1 16
REMARK H PARENT
REMARK Flexibility Score: inf
ROOT
ATOM      1  C   UNL     1       9.662  -8.184   6.335  1.00  0.00     0.000 C 
ENDROOT
BRANCH   1   2
ATOM      2  C   UNL     1       9.663  -7.760   4.855  1.00  0.00     0.000 C 
BRANCH   2   3
ATOM      3  C   UNL     1      11.008  -8.062   4.164  1.00  0.00     0.000 C 
BRANCH   3   4
ATOM      4  C   UNL     1      11.924  -6.833   4.033  1.00  0.00     0.000 C 
BRANCH   4   5
ATOM      5  C   UNL     1      13.355  -7.099   4.528  1.00  0.00     0.006 C 
BRANCH   5   6
ATOM      6  C   UNL     1      13.379  -7.699   5.940  1.00  0.00     0.053 C 
BRANCH   6   7
ATOM      7  C   UNL     1      14.773  -8.011   6.391  1.00  0.00     0.041 C 
ATOM      8  O   UNL     1      15.114  -9.201   6.617  1.00  0.00    -0.550 OA
ATOM      9  O   UNL     1      15.704  -6.990   6.530  1.00  0.00    -0.550 OA
ENDBRANCH   6   7
ENDBRANCH   5   6
ENDBRANCH   4   5
ENDBRANCH   3   4
ENDBRANCH   2   3
ENDBRANCH   1   2
BRANCH   1  10
ATOM     10  C   UNL     1       8.859  -9.471   6.583  1.00  0.00     0.000 C 
BRANCH  10  11
ATOM     11  C   UNL     1       7.813  -9.312   7.696  1.00  0.00    -0.000 C 
BRANCH  11  12
ATOM     12  C   UNL     1       6.455  -9.875   7.258  1.00  0.00    -0.000 C 
BRANCH  12  13
ATOM     13  C   UNL     1       6.324  -9.871   5.731  1.00  0.00    -0.000 C 
BRANCH  13  14
ATOM     14  C   UNL     1       5.384  -8.749   5.262  1.00  0.00    -0.000 C 
BRANCH  14  15
ATOM     15  C   UNL     1       6.140  -7.466   4.883  1.00  0.00    -0.003 C 
ATOM     16  C   UNL     1       5.426  -6.198   5.354  1.00  0.00     0.004 C 
ENDBRANCH  14  15
ENDBRANCH  13  14
ENDBRANCH  12  13
ENDBRANCH  11  12
ENDBRANCH  10  11
ENDBRANCH   1  10
TORSDOF 12
ENDMDL
MODEL 9
REMARK VINA RESULT:    -3.036      5.177      9.027
REMARK INTER + INTRA:          -5.701
REMARK INTER:                  -4.931
REMARK INTRA:                  -0.771
REMARK UNBOUND:                -0.536
REMARK SMILES CCCCCCCCCCCCCC(=O)[O-]
REMARK SMILES IDX 8 1 9 2 10 3 11 4 12 5 13 6 14 7 15 8 16 9 7 10 6 11 5 12
REMARK SMILES IDX 4 13 3 14 2 15 1 16
REMARK H PARENT
REMARK Flexibility Score: inf
ROOT
ATOM      1  C   UNL     1      10.845  -6.737   4.355  1.00  0.00     0.000 C 
ENDROOT
BRANCH   1   2
ATOM      2  C   UNL     1      10.318  -7.245   5.709  1.00  0.00     0.000 C 
BRANCH   2   3
ATOM      3  C   UNL     1       9.326  -8.416   5.544  1.00  0.00     0.000 C 
BRANCH   3   4
ATOM      4  C   UNL     1       8.722  -8.903   6.872  1.00  0.00     0.000 C 
BRANCH   4   5
ATOM      5  C   UNL     1       7.192  -9.050   6.815  1.00  0.00     0.006 C 
BRANCH   5   6
ATOM      6  C   UNL     1       6.652  -8.936   5.383  1.00  0.00     0.053 C 
BRANCH   6   7
ATOM      7  C   UNL     1       5.633  -7.845   5.256  1.00  0.00     0.041 C 
ATOM      8  O   UNL     1       5.842  -6.719   5.775  1.00  0.00    -0.550 OA
ATOM      9  O   UNL     1       4.465  -8.065   4.536  1.00  0.00    -0.550 OA
ENDBRANCH   6   7
ENDBRANCH   5   6
ENDBRANCH   4   5
ENDBRANCH   3   4
ENDBRANCH   2   3
ENDBRANCH   1   2
BRANCH   1  10
ATOM     10  C   UNL     1      12.367  -6.894   4.214  1.00  0.00     0.000 C 
BRANCH  10  11
ATOM     11  C   UNL     1      13.004  -7.604   5.418  1.00  0.00    -0.000 C 
BRANCH  11  12
ATOM     12  C   UNL     1      14.020  -8.658   4.960  1.00  0.00    -0.000 C 
BRANCH  12  13
ATOM     13  C   UNL     1      15.189  -8.762   5.946  1.00  0.00    -0.000 C 
BRANCH  13  14
ATOM     14  C   UNL     1      15.239  -7.536   6.870  1.00  0.00    -0.000 C 
BRANCH  14  15
ATOM     15  C   UNL     1      16.333  -6.535   6.465  1.00  0.00    -0.003 C 
ATOM     16  C   UNL     1      17.735  -7.143   6.503  1.00  0.00     0.004 C 
ENDBRANCH  14  15
ENDBRANCH  13  14
ENDBRANCH  12  13
ENDBRANCH  11  12
ENDBRANCH  10  11
ENDBRANCH   1  10
TORSDOF 12
ENDMDL
