MODEL 1
REMARK VINA RESULT:    -1.853      0.000      0.000
REMARK INTER + INTRA:          -4.893
REMARK INTER:                  -4.020
REMARK INTRA:                  -0.873
REMARK UNBOUND:                -0.873
REMARK SMILES CCCCCCCCCCCCCCCCCCCCCC(=O)[O-]
REMARK SMILES IDX 12 1 11 2 10 3 9 4 8 5 7 6 6 7 5 8 4 9 3 10 2 11 1 12 13 13
REMARK SMILES IDX 14 14 15 15 16 16 17 17 18 18 19 19 20 20 21 21 22 22 23 23
REMARK SMILES IDX 24 24
REMARK H PARENT
REMARK Flexibility Score: inf
ROOT
ATOM      1  C   UNL     1      18.853   6.362 -10.699  1.00  0.00     0.000 C 
ENDROOT
BRANCH   1   2
ATOM      2  C   UNL     1      20.110   5.695 -10.125  1.00  0.00     0.000 C 
BRANCH   2   3
ATOM      3  C   UNL     1      21.159   6.742  -9.733  1.00  0.00     0.000 C 
BRANCH   3   4
ATOM      4  C   UNL     1      22.217   6.903 -10.837  1.00  0.00    -0.000 C 
BRANCH   4   5
ATOM      5  C   UNL     1      21.630   6.818 -12.259  1.00  0.00    -0.000 C 
BRANCH   5   6
ATOM      6  C   UNL     1      21.850   5.470 -12.969  1.00  0.00    -0.000 C 
BRANCH   6   7
ATOM      7  C   UNL     1      23.310   4.984 -12.898  1.00  0.00    -0.000 C 
BRANCH   7   8
ATOM      8  C   UNL     1      24.287   5.984 -13.543  1.00  0.00    -0.000 C 
BRANCH   8   9
ATOM      9  C   UNL     1      25.132   5.365 -14.675  1.00  0.00    -0.000 C 
BRANCH   9  10
ATOM     10  C   UNL     1      26.188   4.378 -14.148  1.00  0.00    -0.000 C 
BRANCH  10  11
ATOM     11  C   UNL     1      27.514   4.470 -14.920  1.00  0.00    -0.003 C 
ATOM     12  C   UNL     1      28.481   3.337 -14.575  1.00  0.00     0.004 C 
ENDBRANCH  10  11
ENDBRANCH   9  10
ENDBRANCH   8   9
ENDBRANCH   7   8
ENDBRANCH   6   7
ENDBRANCH   5   6
ENDBRANCH   4   5
ENDBRANCH   3   4
ENDBRANCH   2   3
ENDBRANCH   1   2
BRANCH   1  13
ATOM     13  C   UNL     1      17.586   5.811 -10.030  1.00  0.00     0.000 C 
BRANCH  13  14
ATOM     14  C   UNL     1      16.710   4.997 -10.994  1.00  0.00     0.000 C 
BRANCH  14  15
ATOM     15  C   UNL     1      16.715   3.494 -10.678  1.00  0.00     0.000 C 
BRANCH  15  16
ATOM     16  C   UNL     1      17.529   2.721 -11.722  1.00  0.00     0.000 C 
BRANCH  16  17
ATOM     17  C   UNL     1      18.476   3.654 -12.493  1.00  0.00     0.000 C 
BRANCH  17  18
ATOM     18  C   UNL     1      19.276   2.919 -13.581  1.00  0.00     0.000 C 
BRANCH  18  19
ATOM     19  C   UNL     1      18.846   1.451 -13.738  1.00  0.00     0.000 C 
BRANCH  19  20
ATOM     20  C   UNL     1      18.479   1.088 -15.185  1.00  0.00     0.006 C 
BRANCH  20  21
ATOM     21  C   UNL     1      17.114   0.395 -15.298  1.00  0.00     0.053 C 
BRANCH  21  22
ATOM     22  C   UNL     1      17.175  -0.701 -16.314  1.00  0.00     0.041 C 
ATOM     23  O   UNL     1      17.417  -0.436 -17.521  1.00  0.00    -0.550 OA
ATOM     24  O   UNL     1      17.026  -2.023 -15.916  1.00  0.00    -0.550 OA
ENDBRANCH  21  22
ENDBRANCH  20  21
ENDBRANCH  19  20
ENDBRANCH  18  19
ENDBRANCH  17  18
ENDBRANCH  16  17
ENDBRANCH  15  16
ENDBRANCH  14  15
ENDBRANCH  13  14
ENDBRANCH   1  13
TORSDOF 20
ENDMDL
MODEL 2
REMARK VINA RESULT:    -1.472      3.650      7.828
REMARK INTER + INTRA:          -4.066
REMARK INTER:                  -2.178
REMARK INTRA:                  -1.888
REMARK UNBOUND:                -0.873
REMARK SMILES CCCCCCCCCCCCCCCCCCCCCC(=O)[O-]
REMARK SMILES IDX 12 1 11 2 10 3 9 4 8 5 7 6 6 7 5 8 4 9 3 10 2 11 1 12 13 13
REMARK SMILES IDX 14 14 15 15 16 16 17 17 18 18 19 19 20 20 21 21 22 22 23 23
REMARK SMILES IDX 24 24
REMARK H PARENT
REMARK Flexibility Score: inf
ROOT
ATOM      1  C   UNL     1      19.381   7.114  -9.943  1.00  0.00     0.000 C 
ENDROOT
BRANCH   1   2
ATOM      2  C   UNL     1      18.699   6.427 -11.134  1.00  0.00     0.000 C 
BRANCH   2   3
ATOM      3  C   UNL     1      17.459   5.645 -10.683  1.00  0.00     0.000 C 
BRANCH   3   4
ATOM      4  C   UNL     1      17.602   4.150 -11.009  1.00  0.00    -0.000 C 
BRANCH   4   5
ATOM      5  C   UNL     1      18.723   3.852 -12.024  1.00  0.00    -0.000 C 
BRANCH   5   6
ATOM      6  C   UNL     1      18.593   2.503 -12.753  1.00  0.00    -0.000 C 
BRANCH   6   7
ATOM      7  C   UNL     1      19.328   2.477 -14.107  1.00  0.00    -0.000 C 
BRANCH   7   8
ATOM      8  C   UNL     1      18.721   1.449 -15.079  1.00  0.00    -0.000 C 
BRANCH   8   9
ATOM      9  C   UNL     1      17.823   0.409 -14.381  1.00  0.00    -0.000 C 
BRANCH   9  10
ATOM     10  C   UNL     1      17.022  -0.443 -15.382  1.00  0.00    -0.000 C 
BRANCH  10  11
ATOM     11  C   UNL     1      16.819   0.269 -16.728  1.00  0.00    -0.003 C 
ATOM     12  C   UNL     1      17.026  -0.658 -17.926  1.00  0.00     0.004 C 
ENDBRANCH  10  11
ENDBRANCH   9  10
ENDBRANCH   8   9
ENDBRANCH   7   8
ENDBRANCH   6   7
ENDBRANCH   5   6
ENDBRANCH   4   5
ENDBRANCH   3   4
ENDBRANCH   2   3
ENDBRANCH   1   2
BRANCH   1  13
ATOM     13  C   UNL     1      20.361   6.158  -9.248  1.00  0.00     0.000 C 
BRANCH  13  14
ATOM     14  C   UNL     1      21.634   5.908 -10.072  1.00  0.00     0.000 C 
BRANCH  14  15
ATOM     15  C   UNL     1      22.045   7.125 -10.915  1.00  0.00     0.000 C 
BRANCH  15  16
ATOM     16  C   UNL     1      22.250   6.727 -12.381  1.00  0.00     0.000 C 
BRANCH  16  17
ATOM     17  C   UNL     1      21.978   5.229 -12.595  1.00  0.00     0.000 C 
BRANCH  17  18
ATOM     18  C   UNL     1      22.938   4.593 -13.613  1.00  0.00     0.000 C 
BRANCH  18  19
ATOM     19  C   UNL     1      24.270   5.353 -13.722  1.00  0.00     0.000 C 
BRANCH  19  20
ATOM     20  C   UNL     1      25.441   4.449 -14.136  1.00  0.00     0.006 C 
BRANCH  20  21
ATOM     21  C   UNL     1      26.602   5.228 -14.770  1.00  0.00     0.053 C 
BRANCH  21  22
ATOM     22  C   UNL     1      27.829   4.375 -14.821  1.00  0.00     0.041 C 
ATOM     23  O   UNL     1      28.110   3.609 -13.862  1.00  0.00    -0.550 OA
ATOM     24  O   UNL     1      28.631   4.382 -15.954  1.00  0.00    -0.550 OA
ENDBRANCH  21  22
ENDBRANCH  20  21
ENDBRANCH  19  20
ENDBRANCH  18  19
ENDBRANCH  17  18
ENDBRANCH  16  17
ENDBRANCH  15  16
ENDBRANCH  14  15
ENDBRANCH  13  14
ENDBRANCH   1  13
TORSDOF 20
ENDMDL
MODEL 3
REMARK VINA RESULT:    -0.769      0.851      1.681
REMARK INTER + INTRA:          -2.541
REMARK INTER:                  -1.075
REMARK INTRA:                  -1.466
REMARK UNBOUND:                -0.873
REMARK SMILES CCCCCCCCCCCCCCCCCCCCCC(=O)[O-]
REMARK SMILES IDX 12 1 11 2 10 3 9 4 8 5 7 6 6 7 5 8 4 9 3 10 2 11 1 12 13 13
REMARK SMILES IDX 14 14 15 15 16 16 17 17 18 18 19 19 20 20 21 21 22 22 23 23
REMARK SMILES IDX 24 24
REMARK H PARENT
REMARK Flexibility Score: inf
ROOT
ATOM      1  C   UNL     1      20.118   5.721 -10.118  1.00  0.00     0.000 C 
ENDROOT
BRANCH   1   2
ATOM      2  C   UNL     1      21.636   5.928 -10.193  1.00  0.00     0.000 C 
BRANCH   2   3
ATOM      3  C   UNL     1      21.986   7.125 -11.085  1.00  0.00     0.000 C 
BRANCH   3   4
ATOM      4  C   UNL     1      22.546   6.659 -12.439  1.00  0.00    -0.000 C 
BRANCH   4   5
ATOM      5  C   UNL     1      22.302   5.163 -12.716  1.00  0.00    -0.000 C 
BRANCH   5   6
ATOM      6  C   UNL     1      23.390   4.476 -13.560  1.00  0.00    -0.000 C 
BRANCH   6   7
ATOM      7  C   UNL     1      24.482   5.452 -14.041  1.00  0.00    -0.000 C 
BRANCH   7   8
ATOM      8  C   UNL     1      25.899   4.941 -13.723  1.00  0.00    -0.000 C 
BRANCH   8   9
ATOM      9  C   UNL     1      26.493   4.060 -14.840  1.00  0.00    -0.000 C 
BRANCH   9  10
ATOM     10  C   UNL     1      27.808   4.629 -15.402  1.00  0.00    -0.000 C 
BRANCH  10  11
ATOM     11  C   UNL     1      29.042   3.877 -14.882  1.00  0.00    -0.003 C 
ATOM     12  C   UNL     1      28.680   2.649 -14.046  1.00  0.00     0.004 C 
ENDBRANCH  10  11
ENDBRANCH   9  10
ENDBRANCH   8   9
ENDBRANCH   7   8
ENDBRANCH   6   7
ENDBRANCH   5   6
ENDBRANCH   4   5
ENDBRANCH   3   4
ENDBRANCH   2   3
ENDBRANCH   1   2
BRANCH   1  13
ATOM     13  C   UNL     1      19.374   6.882 -10.794  1.00  0.00     0.000 C 
BRANCH  13  14
ATOM     14  C   UNL     1      18.062   6.439 -11.460  1.00  0.00     0.000 C 
BRANCH  14  15
ATOM     15  C   UNL     1      17.200   5.553 -10.548  1.00  0.00     0.000 C 
BRANCH  15  16
ATOM     16  C   UNL     1      16.766   4.278 -11.280  1.00  0.00     0.000 C 
BRANCH  16  17
ATOM     17  C   UNL     1      17.708   3.105 -10.963  1.00  0.00     0.000 C 
BRANCH  17  18
ATOM     18  C   UNL     1      17.799   2.091 -12.115  1.00  0.00     0.000 C 
BRANCH  18  19
ATOM     19  C   UNL     1      18.664   2.599 -13.280  1.00  0.00     0.000 C 
BRANCH  19  20
ATOM     20  C   UNL     1      18.771   1.585 -14.430  1.00  0.00     0.006 C 
BRANCH  20  21
ATOM     21  C   UNL     1      17.764   0.434 -14.306  1.00  0.00     0.053 C 
BRANCH  21  22
ATOM     22  C   UNL     1      17.333  -0.023 -15.663  1.00  0.00     0.041 C 
ATOM     23  O   UNL     1      17.179   0.810 -16.595  1.00  0.00    -0.550 OA
ATOM     24  O   UNL     1      17.161  -1.377 -15.915  1.00  0.00    -0.550 OA
ENDBRANCH  21  22
ENDBRANCH  20  21
ENDBRANCH  19  20
ENDBRANCH  18  19
ENDBRANCH  17  18
ENDBRANCH  16  17
ENDBRANCH  15  16
ENDBRANCH  14  15
ENDBRANCH  13  14
ENDBRANCH   1  13
TORSDOF 20
ENDMDL
MODEL 4
REMARK VINA RESULT:    -0.343      4.120      8.434
REMARK INTER + INTRA:          -1.618
REMARK INTER:                  -0.109
REMARK INTRA:                  -1.509
REMARK UNBOUND:                -0.873
REMARK SMILES CCCCCCCCCCCCCCCCCCCCCC(=O)[O-]
REMARK SMILES IDX 12 1 11 2 10 3 9 4 8 5 7 6 6 7 5 8 4 9 3 10 2 11 1 12 13 13
REMARK SMILES IDX 14 14 15 15 16 16 17 17 18 18 19 19 20 20 21 21 22 22 23 23
REMARK SMILES IDX 24 24
REMARK H PARENT
REMARK Flexibility Score: inf
ROOT
ATOM      1  C   UNL     1      21.072   6.627 -10.704  1.00  0.00     0.000 C 
ENDROOT
BRANCH   1   2
ATOM      2  C   UNL     1      20.165   6.999 -11.885  1.00  0.00     0.000 C 
BRANCH   2   3
ATOM      3  C   UNL     1      18.702   7.119 -11.440  1.00  0.00     0.000 C 
BRANCH   3   4
ATOM      4  C   UNL     1      18.373   6.090 -10.346  1.00  0.00    -0.000 C 
BRANCH   4   5
ATOM      5  C   UNL     1      17.195   5.167 -10.714  1.00  0.00    -0.000 C 
BRANCH   5   6
ATOM      6  C   UNL     1      17.460   3.666 -10.500  1.00  0.00    -0.000 C 
BRANCH   6   7
ATOM      7  C   UNL     1      17.771   2.917 -11.810  1.00  0.00    -0.000 C 
BRANCH   7   8
ATOM      8  C   UNL     1      18.863   3.620 -12.637  1.00  0.00    -0.000 C 
BRANCH   8   9
ATOM      9  C   UNL     1      19.460   2.725 -13.741  1.00  0.00    -0.000 C 
BRANCH   9  10
ATOM     10  C   UNL     1      18.671   1.418 -13.931  1.00  0.00    -0.000 C 
BRANCH  10  11
ATOM     11  C   UNL     1      18.186   1.231 -15.376  1.00  0.00    -0.003 C 
ATOM     12  C   UNL     1      17.442  -0.088 -15.586  1.00  0.00     0.004 C 
ENDBRANCH  10  11
ENDBRANCH   9  10
ENDBRANCH   8   9
ENDBRANCH   7   8
ENDBRANCH   6   7
ENDBRANCH   5   6
ENDBRANCH   4   5
ENDBRANCH   3   4
ENDBRANCH   2   3
ENDBRANCH   1   2
BRANCH   1  13
ATOM     13  C   UNL     1      21.897   5.372 -11.021  1.00  0.00     0.000 C 
BRANCH  13  14
ATOM     14  C   UNL     1      22.103   5.162 -12.529  1.00  0.00     0.000 C 
BRANCH  14  15
ATOM     15  C   UNL     1      23.400   5.801 -13.047  1.00  0.00     0.000 C 
BRANCH  15  16
ATOM     16  C   UNL     1      24.126   4.853 -14.010  1.00  0.00     0.000 C 
BRANCH  16  17
ATOM     17  C   UNL     1      25.420   5.487 -14.545  1.00  0.00     0.000 C 
BRANCH  17  18
ATOM     18  C   UNL     1      26.649   4.586 -14.341  1.00  0.00     0.000 C 
BRANCH  18  19
ATOM     19  C   UNL     1      27.833   4.992 -15.235  1.00  0.00     0.000 C 
BRANCH  19  20
ATOM     20  C   UNL     1      28.777   3.820 -15.545  1.00  0.00     0.006 C 
BRANCH  20  21
ATOM     21  C   UNL     1      28.736   2.723 -14.473  1.00  0.00     0.053 C 
BRANCH  21  22
ATOM     22  C   UNL     1      30.103   2.151 -14.267  1.00  0.00     0.041 C 
ATOM     23  O   UNL     1      30.362   1.480 -13.234  1.00  0.00    -0.550 OA
ATOM     24  O   UNL     1      31.074   2.309 -15.247  1.00  0.00    -0.550 OA
ENDBRANCH  21  22
ENDBRANCH  20  21
ENDBRANCH  19  20
ENDBRANCH  18  19
ENDBRANCH  17  18
ENDBRANCH  16  17
ENDBRANCH  15  16
ENDBRANCH  14  15
ENDBRANCH  13  14
ENDBRANCH   1  13
TORSDOF 20
ENDMDL
MODEL 5
REMARK VINA RESULT:     0.138      3.985      7.794
REMARK INTER + INTRA:          -0.573
REMARK INTER:                   1.423
REMARK INTRA:                  -1.995
REMARK UNBOUND:                -0.873
REMARK SMILES CCCCCCCCCCCCCCCCCCCCCC(=O)[O-]
REMARK SMILES IDX 12 1 11 2 10 3 9 4 8 5 7 6 6 7 5 8 4 9 3 10 2 11 1 12 13 13
REMARK SMILES IDX 14 14 15 15 16 16 17 17 18 18 19 19 20 20 21 21 22 22 23 23
REMARK SMILES IDX 24 24
REMARK H PARENT
REMARK Flexibility Score: inf
ROOT
ATOM      1  C   UNL     1      19.575   2.655 -14.122  1.00  0.00     0.000 C 
ENDROOT
BRANCH   1   2
ATOM      2  C   UNL     1      18.707   1.929 -13.085  1.00  0.00     0.000 C 
BRANCH   2   3
ATOM      3  C   UNL     1      17.602   2.849 -12.552  1.00  0.00     0.000 C 
BRANCH   3   4
ATOM      4  C   UNL     1      17.710   3.015 -11.028  1.00  0.00    -0.000 C 
BRANCH   4   5
ATOM      5  C   UNL     1      16.640   3.957 -10.441  1.00  0.00    -0.000 C 
BRANCH   5   6
ATOM      6  C   UNL     1      16.739   5.419 -10.911  1.00  0.00    -0.000 C 
BRANCH   6   7
ATOM      7  C   UNL     1      18.168   5.825 -11.319  1.00  0.00    -0.000 C 
BRANCH   7   8
ATOM      8  C   UNL     1      18.623   7.125 -10.631  1.00  0.00    -0.000 C 
BRANCH   8   9
ATOM      9  C   UNL     1      19.441   6.880  -9.348  1.00  0.00    -0.000 C 
BRANCH   9  10
ATOM     10  C   UNL     1      19.861   5.408  -9.190  1.00  0.00    -0.000 C 
BRANCH  10  11
ATOM     11  C   UNL     1      21.372   5.251  -8.959  1.00  0.00    -0.003 C 
ATOM     12  C   UNL     1      22.121   6.583  -9.008  1.00  0.00     0.004 C 
ENDBRANCH  10  11
ENDBRANCH   9  10
ENDBRANCH   8   9
ENDBRANCH   7   8
ENDBRANCH   6   7
ENDBRANCH   5   6
ENDBRANCH   4   5
ENDBRANCH   3   4
ENDBRANCH   2   3
ENDBRANCH   1   2
BRANCH   1  13
ATOM     13  C   UNL     1      19.855   4.100 -13.688  1.00  0.00     0.000 C 
BRANCH  13  14
ATOM     14  C   UNL     1      20.958   4.197 -12.622  1.00  0.00     0.000 C 
BRANCH  14  15
ATOM     15  C   UNL     1      21.456   5.635 -12.411  1.00  0.00     0.000 C 
BRANCH  15  16
ATOM     16  C   UNL     1      22.981   5.708 -12.551  1.00  0.00     0.000 C 
BRANCH  16  17
ATOM     17  C   UNL     1      23.412   6.979 -13.300  1.00  0.00     0.000 C 
BRANCH  17  18
ATOM     18  C   UNL     1      24.734   6.797 -14.065  1.00  0.00     0.000 C 
BRANCH  18  19
ATOM     19  C   UNL     1      25.097   5.316 -14.269  1.00  0.00     0.000 C 
BRANCH  19  20
ATOM     20  C   UNL     1      26.611   5.084 -14.384  1.00  0.00     0.006 C 
BRANCH  20  21
ATOM     21  C   UNL     1      26.974   3.608 -14.596  1.00  0.00     0.053 C 
BRANCH  21  22
ATOM     22  C   UNL     1      28.411   3.481 -14.990  1.00  0.00     0.041 C 
ATOM     23  O   UNL     1      28.877   4.183 -15.925  1.00  0.00    -0.550 OA
ATOM     24  O   UNL     1      29.250   2.630 -14.284  1.00  0.00    -0.550 OA
ENDBRANCH  21  22
ENDBRANCH  20  21
ENDBRANCH  19  20
ENDBRANCH  18  19
ENDBRANCH  17  18
ENDBRANCH  16  17
ENDBRANCH  15  16
ENDBRANCH  14  15
ENDBRANCH  13  14
ENDBRANCH   1  13
TORSDOF 20
ENDMDL
MODEL 6
REMARK VINA RESULT:     0.269     16.912     20.620
REMARK INTER + INTRA:          -0.290
REMARK INTER:                   0.918
REMARK INTRA:                  -1.208
REMARK UNBOUND:                -0.873
REMARK SMILES CCCCCCCCCCCCCCCCCCCCCC(=O)[O-]
REMARK SMILES IDX 12 1 11 2 10 3 9 4 8 5 7 6 6 7 5 8 4 9 3 10 2 11 1 12 13 13
REMARK SMILES IDX 14 14 15 15 16 16 17 17 18 18 19 19 20 20 21 21 22 22 23 23
REMARK SMILES IDX 24 24
REMARK H PARENT
REMARK Flexibility Score: inf
ROOT
ATOM      1  C   UNL     1      30.623 -12.246 -27.506  1.00  0.00     0.000 C 
ENDROOT
BRANCH   1   2
ATOM      2  C   UNL     1      30.603 -13.125 -26.248  1.00  0.00     0.000 C 
BRANCH   2   3
ATOM      3  C   UNL     1      30.724 -12.273 -24.979  1.00  0.00     0.000 C 
BRANCH   3   4
ATOM      4  C   UNL     1      29.847 -11.015 -25.073  1.00  0.00    -0.000 C 
BRANCH   4   5
ATOM      5  C   UNL     1      29.867 -10.161 -23.789  1.00  0.00    -0.000 C 
BRANCH   5   6
ATOM      6  C   UNL     1      30.981 -10.523 -22.791  1.00  0.00    -0.000 C 
BRANCH   6   7
ATOM      7  C   UNL     1      31.916  -9.339 -22.478  1.00  0.00    -0.000 C 
BRANCH   7   8
ATOM      8  C   UNL     1      32.320  -9.294 -20.993  1.00  0.00    -0.000 C 
BRANCH   8   9
ATOM      9  C   UNL     1      33.414  -8.251 -20.692  1.00  0.00    -0.000 C 
BRANCH   9  10
ATOM     10  C   UNL     1      32.869  -7.027 -19.936  1.00  0.00    -0.000 C 
BRANCH  10  11
ATOM     11  C   UNL     1      33.466  -5.707 -20.448  1.00  0.00    -0.003 C 
ATOM     12  C   UNL     1      33.543  -5.643 -21.973  1.00  0.00     0.004 C 
ENDBRANCH  10  11
ENDBRANCH   9  10
ENDBRANCH   8   9
ENDBRANCH   7   8
ENDBRANCH   6   7
ENDBRANCH   5   6
ENDBRANCH   4   5
ENDBRANCH   3   4
ENDBRANCH   2   3
ENDBRANCH   1   2
BRANCH   1  13
ATOM     13  C   UNL     1      30.055 -13.005 -28.714  1.00  0.00     0.000 C 
BRANCH  13  14
ATOM     14  C   UNL     1      28.537 -12.821 -28.871  1.00  0.00     0.000 C 
BRANCH  14  15
ATOM     15  C   UNL     1      27.764 -13.125 -27.579  1.00  0.00     0.000 C 
BRANCH  15  16
ATOM     16  C   UNL     1      26.775 -11.997 -27.260  1.00  0.00     0.000 C 
BRANCH  16  17
ATOM     17  C   UNL     1      26.657 -11.772 -25.744  1.00  0.00     0.000 C 
BRANCH  17  18
ATOM     18  C   UNL     1      25.720 -10.606 -25.390  1.00  0.00     0.000 C 
BRANCH  18  19
ATOM     19  C   UNL     1      24.568 -10.448 -26.397  1.00  0.00     0.000 C 
BRANCH  19  20
ATOM     20  C   UNL     1      23.443  -9.539 -25.880  1.00  0.00     0.006 C 
BRANCH  20  21
ATOM     21  C   UNL     1      22.398 -10.297 -25.049  1.00  0.00     0.053 C 
BRANCH  21  22
ATOM     22  C   UNL     1      21.301  -9.371 -24.632  1.00  0.00     0.041 C 
ATOM     23  O   UNL     1      20.701  -9.549 -23.539  1.00  0.00    -0.550 OA
ATOM     24  O   UNL     1      20.982  -8.274 -25.421  1.00  0.00    -0.550 OA
ENDBRANCH  21  22
ENDBRANCH  20  21
ENDBRANCH  19  20
ENDBRANCH  18  19
ENDBRANCH  17  18
ENDBRANCH  16  17
ENDBRANCH  15  16
ENDBRANCH  14  15
ENDBRANCH  13  14
ENDBRANCH   1  13
TORSDOF 20
ENDMDL
MODEL 7
REMARK VINA RESULT:     0.871      5.277      8.394
REMARK INTER + INTRA:           1.017
REMARK INTER:                   2.075
REMARK INTRA:                  -1.058
REMARK UNBOUND:                -0.873
REMARK SMILES CCCCCCCCCCCCCCCCCCCCCC(=O)[O-]
REMARK SMILES IDX 12 1 11 2 10 3 9 4 8 5 7 6 6 7 5 8 4 9 3 10 2 11 1 12 13 13
REMARK SMILES IDX 14 14 15 15 16 16 17 17 18 18 19 19 20 20 21 21 22 22 23 23
REMARK SMILES IDX 24 24
REMARK H PARENT
REMARK Flexibility Score: inf
ROOT
ATOM      1  C   UNL     1      26.295   4.208 -14.475  1.00  0.00     0.000 C 
ENDROOT
BRANCH   1   2
ATOM      2  C   UNL     1      24.852   4.539 -14.071  1.00  0.00     0.000 C 
BRANCH   2   3
ATOM      3  C   UNL     1      24.645   6.055 -13.960  1.00  0.00     0.000 C 
BRANCH   3   4
ATOM      4  C   UNL     1      23.485   6.385 -13.008  1.00  0.00    -0.000 C 
BRANCH   4   5
ATOM      5  C   UNL     1      22.631   5.156 -12.640  1.00  0.00    -0.000 C 
BRANCH   5   6
ATOM      6  C   UNL     1      21.115   5.418 -12.578  1.00  0.00    -0.000 C 
BRANCH   6   7
ATOM      7  C   UNL     1      20.770   6.833 -12.077  1.00  0.00    -0.000 C 
BRANCH   7   8
ATOM      8  C   UNL     1      20.695   6.904 -10.540  1.00  0.00    -0.000 C 
BRANCH   8   9
ATOM      9  C   UNL     1      19.631   5.964  -9.939  1.00  0.00    -0.000 C 
BRANCH   9  10
ATOM     10  C   UNL     1      18.329   5.947 -10.760  1.00  0.00    -0.000 C 
BRANCH  10  11
ATOM     11  C   UNL     1      17.783   4.526 -10.964  1.00  0.00    -0.003 C 
ATOM     12  C   UNL     1      16.284   4.420 -10.683  1.00  0.00     0.004 C 
ENDBRANCH  10  11
ENDBRANCH   9  10
ENDBRANCH   8   9
ENDBRANCH   7   8
ENDBRANCH   6   7
ENDBRANCH   5   6
ENDBRANCH   4   5
ENDBRANCH   3   4
ENDBRANCH   2   3
ENDBRANCH   1   2
BRANCH   1  13
ATOM     13  C   UNL     1      26.489   2.691 -14.615  1.00  0.00     0.000 C 
BRANCH  13  14
ATOM     14  C   UNL     1      25.160   1.930 -14.743  1.00  0.00     0.000 C 
BRANCH  14  15
ATOM     15  C   UNL     1      25.357   0.423 -14.964  1.00  0.00     0.000 C 
BRANCH  15  16
ATOM     16  C   UNL     1      24.521  -0.066 -16.153  1.00  0.00     0.000 C 
BRANCH  16  17
ATOM     17  C   UNL     1      24.268  -1.579 -16.071  1.00  0.00     0.000 C 
BRANCH  17  18
ATOM     18  C   UNL     1      24.731  -2.326 -17.333  1.00  0.00     0.000 C 
BRANCH  18  19
ATOM     19  C   UNL     1      24.282  -1.630 -18.628  1.00  0.00     0.000 C 
BRANCH  19  20
ATOM     20  C   UNL     1      24.309  -2.565 -19.848  1.00  0.00     0.006 C 
BRANCH  20  21
ATOM     21  C   UNL     1      25.734  -2.932 -20.286  1.00  0.00     0.053 C 
BRANCH  21  22
ATOM     22  C   UNL     1      25.829  -4.400 -20.552  1.00  0.00     0.041 C 
ATOM     23  O   UNL     1      25.281  -5.224 -19.773  1.00  0.00    -0.550 OA
ATOM     24  O   UNL     1      26.472  -4.856 -21.695  1.00  0.00    -0.550 OA
ENDBRANCH  21  22
ENDBRANCH  20  21
ENDBRANCH  19  20
ENDBRANCH  18  19
ENDBRANCH  17  18
ENDBRANCH  16  17
ENDBRANCH  15  16
ENDBRANCH  14  15
ENDBRANCH  13  14
ENDBRANCH   1  13
TORSDOF 20
ENDMDL
MODEL 8
REMARK VINA RESULT:     0.884      5.389      7.844
REMARK INTER + INTRA:           1.044
REMARK INTER:                   2.135
REMARK INTRA:                  -1.091
REMARK UNBOUND:                -0.873
REMARK SMILES CCCCCCCCCCCCCCCCCCCCCC(=O)[O-]
REMARK SMILES IDX 12 1 11 2 10 3 9 4 8 5 7 6 6 7 5 8 4 9 3 10 2 11 1 12 13 13
REMARK SMILES IDX 14 14 15 15 16 16 17 17 18 18 19 19 20 20 21 21 22 22 23 23
REMARK SMILES IDX 24 24
REMARK H PARENT
REMARK Flexibility Score: inf
ROOT
ATOM      1  C   UNL     1      25.344   4.872 -14.140  1.00  0.00     0.000 C 
ENDROOT
BRANCH   1   2
ATOM      2  C   UNL     1      25.939   3.505 -14.500  1.00  0.00     0.000 C 
BRANCH   2   3
ATOM      3  C   UNL     1      24.878   2.401 -14.412  1.00  0.00     0.000 C 
BRANCH   3   4
ATOM      4  C   UNL     1      25.422   1.069 -14.952  1.00  0.00    -0.000 C 
BRANCH   4   5
ATOM      5  C   UNL     1      24.414   0.316 -15.843  1.00  0.00    -0.000 C 
BRANCH   5   6
ATOM      6  C   UNL     1      24.674  -1.195 -15.978  1.00  0.00    -0.000 C 
BRANCH   6   7
ATOM      7  C   UNL     1      24.382  -1.731 -17.393  1.00  0.00    -0.000 C 
BRANCH   7   8
ATOM      8  C   UNL     1      25.202  -2.993 -17.718  1.00  0.00    -0.000 C 
BRANCH   8   9
ATOM      9  C   UNL     1      24.688  -3.750 -18.959  1.00  0.00    -0.000 C 
BRANCH   9  10
ATOM     10  C   UNL     1      25.085  -3.059 -20.275  1.00  0.00    -0.000 C 
BRANCH  10  11
ATOM     11  C   UNL     1      26.364  -3.652 -20.886  1.00  0.00    -0.003 C 
ATOM     12  C   UNL     1      26.173  -5.084 -21.388  1.00  0.00     0.004 C 
ENDBRANCH  10  11
ENDBRANCH   9  10
ENDBRANCH   8   9
ENDBRANCH   7   8
ENDBRANCH   6   7
ENDBRANCH   5   6
ENDBRANCH   4   5
ENDBRANCH   3   4
ENDBRANCH   2   3
ENDBRANCH   1   2
BRANCH   1  13
ATOM     13  C   UNL     1      23.877   4.734 -13.707  1.00  0.00     0.000 C 
BRANCH  13  14
ATOM     14  C   UNL     1      23.322   6.018 -13.070  1.00  0.00     0.000 C 
BRANCH  14  15
ATOM     15  C   UNL     1      22.074   5.764 -12.212  1.00  0.00     0.000 C 
BRANCH  15  16
ATOM     16  C   UNL     1      21.957   6.812 -11.098  1.00  0.00     0.000 C 
BRANCH  16  17
ATOM     17  C   UNL     1      21.680   6.152  -9.738  1.00  0.00     0.000 C 
BRANCH  17  18
ATOM     18  C   UNL     1      20.196   5.801  -9.541  1.00  0.00     0.000 C 
BRANCH  18  19
ATOM     19  C   UNL     1      19.257   6.913 -10.037  1.00  0.00     0.000 C 
BRANCH  19  20
ATOM     20  C   UNL     1      18.233   6.413 -11.068  1.00  0.00     0.006 C 
BRANCH  20  21
ATOM     21  C   UNL     1      18.331   4.902 -11.322  1.00  0.00     0.053 C 
BRANCH  21  22
ATOM     22  C   UNL     1      17.103   4.214 -10.816  1.00  0.00     0.041 C 
ATOM     23  O   UNL     1      15.961   4.646 -11.123  1.00  0.00    -0.550 OA
ATOM     24  O   UNL     1      17.221   3.059 -10.055  1.00  0.00    -0.550 OA
ENDBRANCH  21  22
ENDBRANCH  20  21
ENDBRANCH  19  20
ENDBRANCH  18  19
ENDBRANCH  17  18
ENDBRANCH  16  17
ENDBRANCH  15  16
ENDBRANCH  14  15
ENDBRANCH  13  14
ENDBRANCH   1  13
TORSDOF 20
ENDMDL
MODEL 9
REMARK VINA RESULT:     1.080      4.650      7.334
REMARK INTER + INTRA:           1.470
REMARK INTER:                   3.015
REMARK INTRA:                  -1.545
REMARK UNBOUND:                -0.873
REMARK SMILES CCCCCCCCCCCCCCCCCCCCCC(=O)[O-]
REMARK SMILES IDX 12 1 11 2 10 3 9 4 8 5 7 6 6 7 5 8 4 9 3 10 2 11 1 12 13 13
REMARK SMILES IDX 14 14 15 15 16 16 17 17 18 18 19 19 20 20 21 21 22 22 23 23
REMARK SMILES IDX 24 24
REMARK H PARENT
REMARK Flexibility Score: inf
ROOT
ATOM      1  C   UNL     1      20.075   2.928 -14.508  1.00  0.00     0.000 C 
ENDROOT
BRANCH   1   2
ATOM      2  C   UNL     1      19.457   3.796 -13.404  1.00  0.00     0.000 C 
BRANCH   2   3
ATOM      3  C   UNL     1      20.239   5.104 -13.229  1.00  0.00     0.000 C 
BRANCH   3   4
ATOM      4  C   UNL     1      21.738   4.829 -13.034  1.00  0.00    -0.000 C 
BRANCH   4   5
ATOM      5  C   UNL     1      22.489   5.996 -12.364  1.00  0.00    -0.000 C 
BRANCH   5   6
ATOM      6  C   UNL     1      21.605   6.936 -11.525  1.00  0.00    -0.000 C 
BRANCH   6   7
ATOM      7  C   UNL     1      21.520   6.519 -10.044  1.00  0.00    -0.000 C 
BRANCH   7   8
ATOM      8  C   UNL     1      20.100   6.080  -9.644  1.00  0.00    -0.000 C 
BRANCH   8   9
ATOM      9  C   UNL     1      18.993   6.843 -10.397  1.00  0.00    -0.000 C 
BRANCH   9  10
ATOM     10  C   UNL     1      17.820   5.932 -10.800  1.00  0.00    -0.000 C 
BRANCH  10  11
ATOM     11  C   UNL     1      18.080   4.456 -10.462  1.00  0.00    -0.003 C 
ATOM     12  C   UNL     1      16.919   3.543 -10.856  1.00  0.00     0.004 C 
ENDBRANCH  10  11
ENDBRANCH   9  10
ENDBRANCH   8   9
ENDBRANCH   7   8
ENDBRANCH   6   7
ENDBRANCH   5   6
ENDBRANCH   4   5
ENDBRANCH   3   4
ENDBRANCH   2   3
ENDBRANCH   1   2
BRANCH   1  13
ATOM     13  C   UNL     1      19.117   1.801 -14.920  1.00  0.00     0.000 C 
BRANCH  13  14
ATOM     14  C   UNL     1      19.700   0.895 -16.014  1.00  0.00     0.000 C 
BRANCH  14  15
ATOM     15  C   UNL     1      20.966   1.480 -16.660  1.00  0.00     0.000 C 
BRANCH  15  16
ATOM     16  C   UNL     1      21.632   0.451 -17.581  1.00  0.00     0.000 C 
BRANCH  16  17
ATOM     17  C   UNL     1      23.073   0.155 -17.135  1.00  0.00     0.000 C 
BRANCH  17  18
ATOM     18  C   UNL     1      23.696  -1.029 -17.893  1.00  0.00     0.000 C 
BRANCH  18  19
ATOM     19  C   UNL     1      24.421  -2.011 -16.957  1.00  0.00     0.000 C 
BRANCH  19  20
ATOM     20  C   UNL     1      25.465  -2.870 -17.687  1.00  0.00     0.006 C 
BRANCH  20  21
ATOM     21  C   UNL     1      25.238  -2.924 -19.204  1.00  0.00     0.053 C 
BRANCH  21  22
ATOM     22  C   UNL     1      24.829  -4.302 -19.616  1.00  0.00     0.041 C 
ATOM     23  O   UNL     1      25.601  -5.013 -20.311  1.00  0.00    -0.550 OA
ATOM     24  O   UNL     1      23.619  -4.824 -19.179  1.00  0.00    -0.550 OA
ENDBRANCH  21  22
ENDBRANCH  20  21
ENDBRANCH  19  20
ENDBRANCH  18  19
ENDBRANCH  17  18
ENDBRANCH  16  17
ENDBRANCH  15  16
ENDBRANCH  14  15
ENDBRANCH  13  14
ENDBRANCH   1  13
TORSDOF 20
ENDMDL
