MODEL 1
REMARK VINA RESULT:    -5.157      0.000      0.000
REMARK INTER + INTRA:          -6.187
REMARK INTER:                  -5.911
REMARK INTRA:                  -0.276
REMARK UNBOUND:                -0.276
REMARK SMILES O=C([O-])C=Cc1ccc(O)cc1
REMARK SMILES IDX 6 1 7 2 12 3 8 4 11 5 9 6 5 7 4 8 2 9 1 10 3 11 10 12
REMARK H PARENT 10 13
REMARK Flexibility Score: inf
ROOT
ATOM      1  C   UNL     1     -11.813  -0.568 -10.274  1.00  0.00    -0.025 A 
ATOM      2  C   UNL     1     -13.099  -0.909 -10.722  1.00  0.00     0.012 A 
ATOM      3  C   UNL     1     -11.634   0.608  -9.526  1.00  0.00     0.012 A 
ATOM      4  C   UNL     1     -14.197  -0.114 -10.382  1.00  0.00     0.047 A 
ATOM      5  C   UNL     1     -12.735   1.402  -9.188  1.00  0.00     0.047 A 
ATOM      6  C   UNL     1     -14.020   1.040  -9.613  1.00  0.00     0.115 A 
ENDROOT
BRANCH   1   7
ATOM      7  C   UNL     1     -10.660  -1.394 -10.689  1.00  0.00     0.010 C 
ATOM      8  C   UNL     1     -10.177  -2.448 -10.015  1.00  0.00     0.025 C 
BRANCH   8   9
ATOM      9  C   UNL     1     -10.820  -3.087  -8.851  1.00  0.00     0.064 C 
ATOM     10  O   UNL     1     -10.512  -2.705  -7.692  1.00  0.00    -0.545 OA
ATOM     11  O   UNL     1     -11.704  -4.150  -9.001  1.00  0.00    -0.545 OA
ENDBRANCH   8   9
ENDBRANCH   1   7
BRANCH   6  12
ATOM     12  O   UNL     1     -15.125   1.823  -9.281  1.00  0.00    -0.508 OA
ATOM     13  H   UNL     1     -15.861   1.473  -8.679  1.00  0.00     0.293 HD
ENDBRANCH   6  12
TORSDOF 3
ENDMDL
MODEL 2
REMARK VINA RESULT:    -4.892      3.570      6.116
REMARK INTER + INTRA:          -5.884
REMARK INTER:                  -5.622
REMARK INTRA:                  -0.262
REMARK UNBOUND:                -0.276
REMARK SMILES O=C([O-])C=Cc1ccc(O)cc1
REMARK SMILES IDX 6 1 7 2 12 3 8 4 11 5 9 6 5 7 4 8 2 9 1 10 3 11 10 12
REMARK H PARENT 10 13
REMARK Flexibility Score: inf
ROOT
ATOM      1  C   UNL     1     -10.824  -5.496  -7.479  1.00  0.00    -0.025 A 
ATOM      2  C   UNL     1     -10.985  -5.330  -6.095  1.00  0.00     0.012 A 
ATOM      3  C   UNL     1     -11.785  -6.226  -8.200  1.00  0.00     0.012 A 
ATOM      4  C   UNL     1     -12.115  -5.841  -5.450  1.00  0.00     0.047 A 
ATOM      5  C   UNL     1     -12.915  -6.737  -7.553  1.00  0.00     0.047 A 
ATOM      6  C   UNL     1     -13.083  -6.542  -6.175  1.00  0.00     0.115 A 
ENDROOT
BRANCH   1   7
ATOM      7  C   UNL     1      -9.598  -4.993  -8.130  1.00  0.00     0.010 C 
ATOM      8  C   UNL     1      -9.501  -3.856  -8.834  1.00  0.00     0.025 C 
BRANCH   8   9
ATOM      9  C   UNL     1     -10.543  -2.814  -8.923  1.00  0.00     0.064 C 
ATOM     10  O   UNL     1     -10.430  -1.769  -8.232  1.00  0.00    -0.545 OA
ATOM     11  O   UNL     1     -11.684  -2.992  -9.698  1.00  0.00    -0.545 OA
ENDBRANCH   8   9
ENDBRANCH   1   7
BRANCH   6  12
ATOM     12  O   UNL     1     -14.205  -7.046  -5.519  1.00  0.00    -0.508 OA
ATOM     13  H   UNL     1     -14.657  -7.901  -5.822  1.00  0.00     0.293 HD
ENDBRANCH   6  12
TORSDOF 3
ENDMDL
MODEL 3
REMARK VINA RESULT:    -4.831      4.300      6.071
REMARK INTER + INTRA:          -5.813
REMARK INTER:                  -5.642
REMARK INTRA:                  -0.171
REMARK UNBOUND:                -0.276
REMARK SMILES O=C([O-])C=Cc1ccc(O)cc1
REMARK SMILES IDX 6 1 7 2 12 3 8 4 11 5 9 6 5 7 4 8 2 9 1 10 3 11 10 12
REMARK H PARENT 10 13
REMARK Flexibility Score: inf
ROOT
ATOM      1  C   UNL     1     -10.777  -5.201  -6.921  1.00  0.00    -0.025 A 
ATOM      2  C   UNL     1     -10.360  -6.026  -7.977  1.00  0.00     0.012 A 
ATOM      3  C   UNL     1     -10.842  -3.811  -7.119  1.00  0.00     0.012 A 
ATOM      4  C   UNL     1     -10.063  -5.475  -9.227  1.00  0.00     0.047 A 
ATOM      5  C   UNL     1     -10.544  -3.262  -8.370  1.00  0.00     0.047 A 
ATOM      6  C   UNL     1     -10.157  -4.095  -9.429  1.00  0.00     0.115 A 
ENDROOT
BRANCH   1   7
ATOM      7  C   UNL     1     -11.036  -5.799  -5.595  1.00  0.00     0.010 C 
ATOM      8  C   UNL     1     -12.126  -6.503  -5.259  1.00  0.00     0.025 C 
BRANCH   8   9
ATOM      9  C   UNL     1     -13.166  -6.968  -6.196  1.00  0.00     0.064 C 
ATOM     10  O   UNL     1     -14.255  -6.341  -6.269  1.00  0.00    -0.545 OA
ATOM     11  O   UNL     1     -13.000  -8.125  -6.950  1.00  0.00    -0.545 OA
ENDBRANCH   8   9
ENDBRANCH   1   7
BRANCH   6  12
ATOM     12  O   UNL     1      -9.858  -3.560 -10.681  1.00  0.00    -0.508 OA
ATOM     13  H   UNL     1      -9.052  -3.870 -11.211  1.00  0.00     0.293 HD
ENDBRANCH   6  12
TORSDOF 3
ENDMDL
MODEL 4
REMARK VINA RESULT:    -4.813      2.087      5.113
REMARK INTER + INTRA:          -5.793
REMARK INTER:                  -6.575
REMARK INTRA:                   0.782
REMARK UNBOUND:                -0.276
REMARK SMILES O=C([O-])C=Cc1ccc(O)cc1
REMARK SMILES IDX 6 1 7 2 12 3 8 4 11 5 9 6 5 7 4 8 2 9 1 10 3 11 10 12
REMARK H PARENT 10 13
REMARK Flexibility Score: inf
ROOT
ATOM      1  C   UNL     1     -13.641   1.086  -9.624  1.00  0.00    -0.025 A 
ATOM      2  C   UNL     1     -14.077  -0.078 -10.277  1.00  0.00     0.012 A 
ATOM      3  C   UNL     1     -12.304   1.177  -9.200  1.00  0.00     0.012 A 
ATOM      4  C   UNL     1     -13.177  -1.112 -10.548  1.00  0.00     0.047 A 
ATOM      5  C   UNL     1     -11.406   0.140  -9.473  1.00  0.00     0.047 A 
ATOM      6  C   UNL     1     -11.841  -1.006 -10.152  1.00  0.00     0.115 A 
ENDROOT
BRANCH   1   7
ATOM      7  C   UNL     1     -14.620   2.144  -9.301  1.00  0.00     0.010 C 
ATOM      8  C   UNL     1     -14.329   3.329  -8.744  1.00  0.00     0.025 C 
BRANCH   8   9
ATOM      9  C   UNL     1     -12.971   3.863  -8.531  1.00  0.00     0.064 C 
ATOM     10  O   UNL     1     -12.567   4.070  -7.357  1.00  0.00    -0.545 OA
ATOM     11  O   UNL     1     -12.151   4.211  -9.599  1.00  0.00    -0.545 OA
ENDBRANCH   8   9
ENDBRANCH   1   7
BRANCH   6  12
ATOM     12  O   UNL     1     -10.955  -2.046 -10.429  1.00  0.00    -0.508 OA
ATOM     13  H   UNL     1     -10.089  -2.156  -9.915  1.00  0.00     0.293 HD
ENDBRANCH   6  12
TORSDOF 3
ENDMDL
MODEL 5
REMARK VINA RESULT:    -4.791      3.864      5.482
REMARK INTER + INTRA:          -5.768
REMARK INTER:                  -5.497
REMARK INTRA:                  -0.271
REMARK UNBOUND:                -0.276
REMARK SMILES O=C([O-])C=Cc1ccc(O)cc1
REMARK SMILES IDX 6 1 7 2 12 3 8 4 11 5 9 6 5 7 4 8 2 9 1 10 3 11 10 12
REMARK H PARENT 10 13
REMARK Flexibility Score: inf
ROOT
ATOM      1  C   UNL     1     -10.841  -4.663  -7.744  1.00  0.00    -0.025 A 
ATOM      2  C   UNL     1      -9.465  -4.430  -7.894  1.00  0.00     0.012 A 
ATOM      3  C   UNL     1     -11.745  -4.018  -8.605  1.00  0.00     0.012 A 
ATOM      4  C   UNL     1      -8.997  -3.607  -8.922  1.00  0.00     0.047 A 
ATOM      5  C   UNL     1     -11.274  -3.193  -9.633  1.00  0.00     0.047 A 
ATOM      6  C   UNL     1      -9.897  -2.989  -9.795  1.00  0.00     0.115 A 
ENDROOT
BRANCH   1   7
ATOM      7  C   UNL     1     -11.316  -5.495  -6.620  1.00  0.00     0.010 C 
ATOM      8  C   UNL     1     -11.759  -6.757  -6.719  1.00  0.00     0.025 C 
BRANCH   8   9
ATOM      9  C   UNL     1     -11.673  -7.601  -7.927  1.00  0.00     0.064 C 
ATOM     10  O   UNL     1     -10.571  -8.125  -8.235  1.00  0.00    -0.545 OA
ATOM     11  O   UNL     1     -12.764  -7.773  -8.772  1.00  0.00    -0.545 OA
ENDBRANCH   8   9
ENDBRANCH   1   7
BRANCH   6  12
ATOM     12  O   UNL     1      -9.416  -2.171 -10.815  1.00  0.00    -0.508 OA
ATOM     13  H   UNL     1      -9.953  -2.005 -11.659  1.00  0.00     0.293 HD
ENDBRANCH   6  12
TORSDOF 3
ENDMDL
MODEL 6
REMARK VINA RESULT:    -4.785      1.881      2.824
REMARK INTER + INTRA:          -5.761
REMARK INTER:                  -6.294
REMARK INTRA:                   0.533
REMARK UNBOUND:                -0.276
REMARK SMILES O=C([O-])C=Cc1ccc(O)cc1
REMARK SMILES IDX 6 1 7 2 12 3 8 4 11 5 9 6 5 7 4 8 2 9 1 10 3 11 10 12
REMARK H PARENT 10 13
REMARK Flexibility Score: inf
ROOT
ATOM      1  C   UNL     1     -13.842   0.737  -9.693  1.00  0.00    -0.025 A 
ATOM      2  C   UNL     1     -15.068   1.276  -9.272  1.00  0.00     0.012 A 
ATOM      3  C   UNL     1     -12.683   1.528  -9.619  1.00  0.00     0.012 A 
ATOM      4  C   UNL     1     -15.125   2.566  -8.737  1.00  0.00     0.047 A 
ATOM      5  C   UNL     1     -12.742   2.819  -9.084  1.00  0.00     0.047 A 
ATOM      6  C   UNL     1     -13.965   3.339  -8.638  1.00  0.00     0.115 A 
ENDROOT
BRANCH   1   7
ATOM      7  C   UNL     1     -13.814  -0.608 -10.302  1.00  0.00     0.010 C 
ATOM      8  C   UNL     1     -12.714  -1.345 -10.509  1.00  0.00     0.025 C 
BRANCH   8   9
ATOM      9  C   UNL     1     -11.366  -1.033  -9.995  1.00  0.00     0.064 C 
ATOM     10  O   UNL     1     -10.479  -0.635 -10.794  1.00  0.00    -0.545 OA
ATOM     11  O   UNL     1     -11.032  -1.236  -8.661  1.00  0.00    -0.545 OA
ENDBRANCH   8   9
ENDBRANCH   1   7
BRANCH   6  12
ATOM     12  O   UNL     1     -14.036   4.624  -8.103  1.00  0.00    -0.508 OA
ATOM     13  H   UNL     1     -14.791   4.899  -7.484  1.00  0.00     0.293 HD
ENDBRANCH   6  12
TORSDOF 3
ENDMDL
MODEL 7
REMARK VINA RESULT:    -4.732      3.597      5.340
REMARK INTER + INTRA:          -5.700
REMARK INTER:                  -5.463
REMARK INTRA:                  -0.238
REMARK UNBOUND:                -0.276
REMARK SMILES O=C([O-])C=Cc1ccc(O)cc1
REMARK SMILES IDX 6 1 7 2 12 3 8 4 11 5 9 6 5 7 4 8 2 9 1 10 3 11 10 12
REMARK H PARENT 10 13
REMARK Flexibility Score: inf
ROOT
ATOM      1  C   UNL     1     -10.548  -5.439  -8.316  1.00  0.00    -0.025 A 
ATOM      2  C   UNL     1     -11.644  -4.799  -8.915  1.00  0.00     0.012 A 
ATOM      3  C   UNL     1      -9.344  -4.734  -8.155  1.00  0.00     0.012 A 
ATOM      4  C   UNL     1     -11.553  -3.459  -9.301  1.00  0.00     0.047 A 
ATOM      5  C   UNL     1      -9.255  -3.392  -8.541  1.00  0.00     0.047 A 
ATOM      6  C   UNL     1     -10.362  -2.751  -9.112  1.00  0.00     0.115 A 
ENDROOT
BRANCH   1   7
ATOM      7  C   UNL     1     -10.650  -6.871  -7.964  1.00  0.00     0.010 C 
ATOM      8  C   UNL     1     -11.219  -7.360  -6.853  1.00  0.00     0.025 C 
BRANCH   8   9
ATOM      9  C   UNL     1     -12.009  -6.579  -5.882  1.00  0.00     0.064 C 
ATOM     10  O   UNL     1     -13.261  -6.532  -6.002  1.00  0.00    -0.545 OA
ATOM     11  O   UNL     1     -11.397  -5.835  -4.879  1.00  0.00    -0.545 OA
ENDBRANCH   8   9
ENDBRANCH   1   7
BRANCH   6  12
ATOM     12  O   UNL     1     -10.286  -1.415  -9.501  1.00  0.00    -0.508 OA
ATOM     13  H   UNL     1     -10.831  -1.057 -10.278  1.00  0.00     0.293 HD
ENDBRANCH   6  12
TORSDOF 3
ENDMDL
MODEL 8
REMARK VINA RESULT:    -4.331     16.107     17.674
REMARK INTER + INTRA:          -5.240
REMARK INTER:                  -4.999
REMARK INTRA:                  -0.241
REMARK UNBOUND:                -0.276
REMARK SMILES O=C([O-])C=Cc1ccc(O)cc1
REMARK SMILES IDX 6 1 7 2 12 3 8 4 11 5 9 6 5 7 4 8 2 9 1 10 3 11 10 12
REMARK H PARENT 10 13
REMARK Flexibility Score: inf
ROOT
ATOM      1  C   UNL     1     -12.116   4.977   5.620  1.00  0.00    -0.025 A 
ATOM      2  C   UNL     1     -12.566   4.313   6.773  1.00  0.00     0.012 A 
ATOM      3  C   UNL     1     -10.900   5.679   5.661  1.00  0.00     0.012 A 
ATOM      4  C   UNL     1     -11.785   4.309   7.932  1.00  0.00     0.047 A 
ATOM      5  C   UNL     1     -10.121   5.674   6.823  1.00  0.00     0.047 A 
ATOM      6  C   UNL     1     -10.562   4.984   7.961  1.00  0.00     0.115 A 
ENDROOT
BRANCH   1   7
ATOM      7  C   UNL     1     -12.981   5.012   4.423  1.00  0.00     0.010 C 
ATOM      8  C   UNL     1     -13.988   5.873   4.216  1.00  0.00     0.025 C 
BRANCH   8   9
ATOM      9  C   UNL     1     -14.291   7.051   5.051  1.00  0.00     0.064 C 
ATOM     10  O   UNL     1     -14.919   6.897   6.131  1.00  0.00    -0.545 OA
ATOM     11  O   UNL     1     -13.962   8.338   4.638  1.00  0.00    -0.545 OA
ENDBRANCH   8   9
ENDBRANCH   1   7
BRANCH   6  12
ATOM     12  O   UNL     1      -9.795   4.971   9.125  1.00  0.00    -0.508 OA
ATOM     13  H   UNL     1      -8.807   4.742   9.106  1.00  0.00     0.293 HD
ENDBRANCH   6  12
TORSDOF 3
ENDMDL
MODEL 9
REMARK VINA RESULT:    -4.325      4.198      6.757
REMARK INTER + INTRA:          -5.233
REMARK INTER:                  -5.028
REMARK INTRA:                  -0.205
REMARK UNBOUND:                -0.276
REMARK SMILES O=C([O-])C=Cc1ccc(O)cc1
REMARK SMILES IDX 6 1 7 2 12 3 8 4 11 5 9 6 5 7 4 8 2 9 1 10 3 11 10 12
REMARK H PARENT 10 13
REMARK Flexibility Score: inf
ROOT
ATOM      1  C   UNL     1     -11.557  -5.925  -7.962  1.00  0.00    -0.025 A 
ATOM      2  C   UNL     1     -10.516  -6.749  -7.508  1.00  0.00     0.012 A 
ATOM      3  C   UNL     1     -12.760  -5.875  -7.238  1.00  0.00     0.012 A 
ATOM      4  C   UNL     1     -10.656  -7.471  -6.319  1.00  0.00     0.047 A 
ATOM      5  C   UNL     1     -12.898  -6.598  -6.048  1.00  0.00     0.047 A 
ATOM      6  C   UNL     1     -11.843  -7.396  -5.585  1.00  0.00     0.115 A 
ENDROOT
BRANCH   1   7
ATOM      7  C   UNL     1     -11.407  -5.212  -9.247  1.00  0.00     0.010 C 
ATOM      8  C   UNL     1     -10.741  -4.061  -9.425  1.00  0.00     0.025 C 
BRANCH   8   9
ATOM      9  C   UNL     1      -9.884  -3.405  -8.419  1.00  0.00     0.064 C 
ATOM     10  O   UNL     1     -10.289  -2.355  -7.856  1.00  0.00    -0.545 OA
ATOM     11  O   UNL     1      -8.610  -3.879  -8.129  1.00  0.00    -0.545 OA
ENDBRANCH   8   9
ENDBRANCH   1   7
BRANCH   6  12
ATOM     12  O   UNL     1     -11.969  -8.122  -4.401  1.00  0.00    -0.508 OA
ATOM     13  H   UNL     1     -11.203  -8.195  -3.741  1.00  0.00     0.293 HD
ENDBRANCH   6  12
TORSDOF 3
ENDMDL
