MODEL 1
REMARK VINA RESULT:    -6.645      0.000      0.000
REMARK INTER + INTRA:         -10.875
REMARK INTER:                  -9.558
REMARK INTRA:                  -1.317
REMARK UNBOUND:                -1.317
REMARK SMILES O=c1c(O[C@@H]2O[C@H](CO)[C@H](O)[C@@H](O)[C@H]2O)c(-c2ccc(O)cc2)oc2cc(O)cc(O)c12
REMARK SMILES IDX 4 1 3 2 16 3 24 4 2 5 25 6 1 7 32 8 26 9 30 10 27 11 29 12
REMARK SMILES IDX 17 13 18 14 19 15 20 16 23 17 22 18 21 19 31 21 28 23 5 25
REMARK SMILES IDX 14 26 6 27 12 28 7 29 10 30 15 31 13 33 8 35 9 36 11 38
REMARK H PARENT 21 20 31 22 28 24 15 32 13 34 9 37 11 39
REMARK Flexibility Score: inf
ROOT
ATOM      1  O   UNL     1     173.832 175.646 176.249  1.00  0.00    -0.454 OA
ENDROOT
BRANCH   1   2
ATOM      2  C   UNL     1     174.384 174.386 175.971  1.00  0.00     0.214 A 
ATOM      3  C   UNL     1     174.277 173.290 176.854  1.00  0.00     0.180 A 
ATOM      4  O   UNL     1     174.784 172.111 176.514  1.00  0.00    -0.452 OA
ATOM      5  C   UNL     1     175.028 174.195 174.742  1.00  0.00     0.239 A 
ATOM      6  C   UNL     1     175.409 171.891 175.365  1.00  0.00     0.146 A 
ATOM      7  O   UNL     1     175.129 175.171 173.948  1.00  0.00    -0.285 OA
ATOM      8  C   UNL     1     175.561 172.930 174.417  1.00  0.00     0.111 A 
ATOM      9  C   UNL     1     175.917 170.617 175.100  1.00  0.00     0.094 A 
ATOM     10  C   UNL     1     176.238 172.663 173.203  1.00  0.00     0.134 A 
ATOM     11  C   UNL     1     176.586 170.359 173.899  1.00  0.00     0.123 A 
ATOM     12  C   UNL     1     176.746 171.380 172.959  1.00  0.00     0.093 A 
BRANCH   3  13
ATOM     13  C   UNL     1     173.594 173.386 178.151  1.00  0.00     0.021 A 
ATOM     14  C   UNL     1     174.330 173.332 179.343  1.00  0.00     0.016 A 
ATOM     15  C   UNL     1     173.672 173.330 180.576  1.00  0.00     0.047 A 
ATOM     16  C   UNL     1     172.273 173.315 180.625  1.00  0.00     0.115 A 
ATOM     17  C   UNL     1     172.193 173.352 178.201  1.00  0.00     0.016 A 
ATOM     18  C   UNL     1     171.534 173.328 179.435  1.00  0.00     0.047 A 
BRANCH  16  19
ATOM     19  O   UNL     1     171.607 173.276 181.847  1.00  0.00    -0.508 OA
ATOM     20  H   UNL     1     171.986 172.777 182.644  1.00  0.00     0.293 HD
ENDBRANCH  16  19
ENDBRANCH   3  13
BRANCH  10  21
ATOM     21  O   UNL     1     176.411 173.661 172.244  1.00  0.00    -0.507 OA
ATOM     22  H   UNL     1     175.902 173.649 171.366  1.00  0.00     0.293 HD
ENDBRANCH  10  21
BRANCH  11  23
ATOM     23  O   UNL     1     177.092 169.089 173.628  1.00  0.00    -0.508 OA
ATOM     24  H   UNL     1     176.709 168.514 172.884  1.00  0.00     0.293 HD
ENDBRANCH  11  23
ENDBRANCH   1   2
BRANCH   1  25
ATOM     25  C   UNL     1     172.482 176.041 175.976  1.00  0.00     0.339 C 
ATOM     26  C   UNL     1     172.418 177.486 175.374  1.00  0.00     0.214 C 
ATOM     27  O   UNL     1     171.923 175.054 175.115  1.00  0.00    -0.332 OA
ATOM     28  C   UNL     1     172.287 177.412 173.841  1.00  0.00     0.180 C 
ATOM     29  C   UNL     1     170.725 175.508 174.512  1.00  0.00     0.179 C 
ATOM     30  C   UNL     1     171.059 176.569 173.423  1.00  0.00     0.177 C 
BRANCH  26  31
ATOM     31  O   UNL     1     171.320 178.176 175.922  1.00  0.00    -0.384 OA
ATOM     32  H   UNL     1     171.091 178.910 175.294  1.00  0.00     0.211 HD
ENDBRANCH  26  31
BRANCH  28  33
ATOM     33  O   UNL     1     172.183 178.701 173.292  1.00  0.00    -0.387 OA
ATOM     34  H   UNL     1     171.964 178.587 172.329  1.00  0.00     0.211 HD
ENDBRANCH  28  33
BRANCH  29  35
ATOM     35  C   UNL     1     169.952 174.304 173.950  1.00  0.00     0.191 C 
BRANCH  35  36
ATOM     36  O   UNL     1     168.842 174.730 173.204  1.00  0.00    -0.394 OA
ATOM     37  H   UNL     1     168.493 173.929 172.733  1.00  0.00     0.210 HD
ENDBRANCH  35  36
ENDBRANCH  29  35
BRANCH  30  38
ATOM     38  O   UNL     1     171.333 175.949 172.193  1.00  0.00    -0.387 OA
ATOM     39  H   UNL     1     170.899 175.057 172.217  1.00  0.00     0.211 HD
ENDBRANCH  30  38
ENDBRANCH   1  25
TORSDOF 11
ENDMDL
MODEL 2
REMARK VINA RESULT:    -6.576      2.011      6.343
REMARK INTER + INTRA:         -10.776
REMARK INTER:                  -9.609
REMARK INTRA:                  -1.167
REMARK UNBOUND:                -1.317
REMARK SMILES O=c1c(O[C@@H]2O[C@H](CO)[C@H](O)[C@@H](O)[C@H]2O)c(-c2ccc(O)cc2)oc2cc(O)cc(O)c12
REMARK SMILES IDX 4 1 3 2 16 3 24 4 2 5 25 6 1 7 32 8 26 9 30 10 27 11 29 12
REMARK SMILES IDX 17 13 18 14 19 15 20 16 23 17 22 18 21 19 31 21 28 23 5 25
REMARK SMILES IDX 14 26 6 27 12 28 7 29 10 30 15 31 13 33 8 35 9 36 11 38
REMARK H PARENT 21 20 31 22 28 24 15 32 13 34 9 37 11 39
REMARK Flexibility Score: inf
ROOT
ATOM      1  O   UNL     1     172.660 170.766 176.181  1.00  0.00    -0.454 OA
ENDROOT
BRANCH   1   2
ATOM      2  C   UNL     1     172.081 172.018 175.919  1.00  0.00     0.214 A 
ATOM      3  C   UNL     1     172.163 173.104 176.816  1.00  0.00     0.180 A 
ATOM      4  O   UNL     1     171.631 174.277 176.491  1.00  0.00    -0.452 OA
ATOM      5  C   UNL     1     171.433 172.210 174.692  1.00  0.00     0.239 A 
ATOM      6  C   UNL     1     171.002 174.497 175.345  1.00  0.00     0.146 A 
ATOM      7  O   UNL     1     171.353 171.242 173.886  1.00  0.00    -0.285 OA
ATOM      8  C   UNL     1     170.873 173.467 174.383  1.00  0.00     0.111 A 
ATOM      9  C   UNL     1     170.466 175.763 175.095  1.00  0.00     0.094 A 
ATOM     10  C   UNL     1     170.191 173.735 173.172  1.00  0.00     0.134 A 
ATOM     11  C   UNL     1     169.793 176.022 173.897  1.00  0.00     0.123 A 
ATOM     12  C   UNL     1     169.655 175.010 172.944  1.00  0.00     0.093 A 
BRANCH   3  13
ATOM     13  C   UNL     1     172.848 173.006 178.112  1.00  0.00     0.021 A 
ATOM     14  C   UNL     1     172.111 173.031 179.304  1.00  0.00     0.016 A 
ATOM     15  C   UNL     1     172.768 173.031 180.537  1.00  0.00     0.047 A 
ATOM     16  C   UNL     1     174.166 173.074 180.587  1.00  0.00     0.115 A 
ATOM     17  C   UNL     1     174.248 173.068 178.164  1.00  0.00     0.016 A 
ATOM     18  C   UNL     1     174.906 173.091 179.398  1.00  0.00     0.047 A 
BRANCH  16  19
ATOM     19  O   UNL     1     174.832 173.112 181.810  1.00  0.00    -0.508 OA
ATOM     20  H   UNL     1     174.455 173.617 182.605  1.00  0.00     0.293 HD
ENDBRANCH  16  19
ENDBRANCH   3  13
BRANCH  10  21
ATOM     21  O   UNL     1     170.040 172.746 172.200  1.00  0.00    -0.507 OA
ATOM     22  H   UNL     1     169.735 172.967 171.258  1.00  0.00     0.293 HD
ENDBRANCH  10  21
BRANCH  11  23
ATOM     23  O   UNL     1     169.259 177.284 173.642  1.00  0.00    -0.508 OA
ATOM     24  H   UNL     1     169.753 177.962 173.071  1.00  0.00     0.293 HD
ENDBRANCH  11  23
ENDBRANCH   1   2
BRANCH   1  25
ATOM     25  C   UNL     1     174.019 170.405 175.907  1.00  0.00     0.339 C 
ATOM     26  C   UNL     1     174.116 168.972 175.279  1.00  0.00     0.214 C 
ATOM     27  O   UNL     1     174.560 171.419 175.066  1.00  0.00    -0.332 OA
ATOM     28  C   UNL     1     174.251 169.076 173.749  1.00  0.00     0.180 C 
ATOM     29  C   UNL     1     175.769 171.001 174.459  1.00  0.00     0.179 C 
ATOM     30  C   UNL     1     175.462 169.953 173.350  1.00  0.00     0.177 C 
BRANCH  26  31
ATOM     31  O   UNL     1     175.227 168.296 175.819  1.00  0.00    -0.384 OA
ATOM     32  H   UNL     1     175.887 168.185 175.087  1.00  0.00     0.211 HD
ENDBRANCH  26  31
BRANCH  28  33
ATOM     33  O   UNL     1     174.384 167.800 173.177  1.00  0.00    -0.387 OA
ATOM     34  H   UNL     1     174.269 167.142 173.914  1.00  0.00     0.211 HD
ENDBRANCH  28  33
BRANCH  29  35
ATOM     35  C   UNL     1     176.518 172.232 173.922  1.00  0.00     0.191 C 
BRANCH  35  36
ATOM     36  O   UNL     1     176.074 173.401 174.559  1.00  0.00    -0.394 OA
ATOM     37  H   UNL     1     176.809 173.694 175.157  1.00  0.00     0.210 HD
ENDBRANCH  35  36
ENDBRANCH  29  35
BRANCH  30  38
ATOM     38  O   UNL     1     175.179 170.588 172.130  1.00  0.00    -0.387 OA
ATOM     39  H   UNL     1     175.413 171.547 172.243  1.00  0.00     0.211 HD
ENDBRANCH  30  38
ENDBRANCH   1  25
TORSDOF 11
ENDMDL
MODEL 3
REMARK VINA RESULT:    -6.474      2.220      5.777
REMARK INTER + INTRA:         -10.629
REMARK INTER:                  -9.344
REMARK INTRA:                  -1.285
REMARK UNBOUND:                -1.317
REMARK SMILES O=c1c(O[C@@H]2O[C@H](CO)[C@H](O)[C@@H](O)[C@H]2O)c(-c2ccc(O)cc2)oc2cc(O)cc(O)c12
REMARK SMILES IDX 4 1 3 2 16 3 24 4 2 5 25 6 1 7 32 8 26 9 30 10 27 11 29 12
REMARK SMILES IDX 17 13 18 14 19 15 20 16 23 17 22 18 21 19 31 21 28 23 5 25
REMARK SMILES IDX 14 26 6 27 12 28 7 29 10 30 15 31 13 33 8 35 9 36 11 38
REMARK H PARENT 21 20 31 22 28 24 15 32 13 34 9 37 11 39
REMARK Flexibility Score: inf
ROOT
ATOM      1  O   UNL     1     174.381 176.017 174.595  1.00  0.00    -0.454 OA
ENDROOT
BRANCH   1   2
ATOM      2  C   UNL     1     173.887 175.400 175.755  1.00  0.00     0.214 A 
ATOM      3  C   UNL     1     172.518 175.395 176.097  1.00  0.00     0.180 A 
ATOM      4  O   UNL     1     172.107 174.756 177.187  1.00  0.00    -0.452 OA
ATOM      5  C   UNL     1     174.787 174.719 176.585  1.00  0.00     0.239 A 
ATOM      6  C   UNL     1     172.928 174.109 178.004  1.00  0.00     0.146 A 
ATOM      7  O   UNL     1     176.014 174.722 176.286  1.00  0.00    -0.285 OA
ATOM      8  C   UNL     1     174.317 174.058 177.738  1.00  0.00     0.111 A 
ATOM      9  C   UNL     1     172.404 173.474 179.132  1.00  0.00     0.094 A 
ATOM     10  C   UNL     1     175.165 173.363 178.634  1.00  0.00     0.134 A 
ATOM     11  C   UNL     1     173.247 172.788 180.013  1.00  0.00     0.123 A 
ATOM     12  C   UNL     1     174.620 172.738 179.763  1.00  0.00     0.093 A 
BRANCH   3  13
ATOM     13  C   UNL     1     171.497 176.055 175.274  1.00  0.00     0.021 A 
ATOM     14  C   UNL     1     171.332 177.446 175.333  1.00  0.00     0.016 A 
ATOM     15  C   UNL     1     170.300 178.063 174.620  1.00  0.00     0.047 A 
ATOM     16  C   UNL     1     169.386 177.288 173.897  1.00  0.00     0.115 A 
ATOM     17  C   UNL     1     170.569 175.279 174.564  1.00  0.00     0.016 A 
ATOM     18  C   UNL     1     169.523 175.894 173.868  1.00  0.00     0.047 A 
BRANCH  16  19
ATOM     19  O   UNL     1     168.332 177.888 173.212  1.00  0.00    -0.508 OA
ATOM     20  H   UNL     1     167.756 177.367 172.561  1.00  0.00     0.293 HD
ENDBRANCH  16  19
ENDBRANCH   3  13
BRANCH  10  21
ATOM     21  O   UNL     1     176.540 173.292 178.409  1.00  0.00    -0.507 OA
ATOM     22  H   UNL     1     176.922 172.839 177.585  1.00  0.00     0.293 HD
ENDBRANCH  10  21
BRANCH  11  23
ATOM     23  O   UNL     1     172.729 172.151 181.138  1.00  0.00    -0.508 OA
ATOM     24  H   UNL     1     171.847 172.438 181.551  1.00  0.00     0.293 HD
ENDBRANCH  11  23
ENDBRANCH   1   2
BRANCH   1  25
ATOM     25  C   UNL     1     174.238 175.513 173.261  1.00  0.00     0.339 C 
ATOM     26  C   UNL     1     174.177 176.678 172.214  1.00  0.00     0.214 C 
ATOM     27  O   UNL     1     175.320 174.616 173.034  1.00  0.00    -0.332 OA
ATOM     28  C   UNL     1     175.560 176.876 171.566  1.00  0.00     0.180 C 
ATOM     29  C   UNL     1     175.475 174.326 171.656  1.00  0.00     0.179 C 
ATOM     30  C   UNL     1     176.074 175.564 170.927  1.00  0.00     0.177 C 
BRANCH  26  31
ATOM     31  O   UNL     1     173.219 176.373 171.227  1.00  0.00    -0.384 OA
ATOM     32  H   UNL     1     172.377 176.139 171.698  1.00  0.00     0.211 HD
ENDBRANCH  26  31
BRANCH  28  33
ATOM     33  O   UNL     1     175.508 177.886 170.592  1.00  0.00    -0.387 OA
ATOM     34  H   UNL     1     174.859 177.587 169.901  1.00  0.00     0.211 HD
ENDBRANCH  28  33
BRANCH  29  35
ATOM     35  C   UNL     1     176.342 173.066 171.498  1.00  0.00     0.191 C 
BRANCH  35  36
ATOM     36  O   UNL     1     177.342 173.025 172.482  1.00  0.00    -0.394 OA
ATOM     37  H   UNL     1     177.683 173.951 172.578  1.00  0.00     0.210 HD
ENDBRANCH  35  36
ENDBRANCH  29  35
BRANCH  30  38
ATOM     38  O   UNL     1     177.477 175.548 170.992  1.00  0.00    -0.387 OA
ATOM     39  H   UNL     1     177.734 176.074 171.793  1.00  0.00     0.211 HD
ENDBRANCH  30  38
ENDBRANCH   1  25
TORSDOF 11
ENDMDL
MODEL 4
REMARK VINA RESULT:    -6.392      3.159      6.764
REMARK INTER + INTRA:         -10.511
REMARK INTER:                  -9.226
REMARK INTRA:                  -1.285
REMARK UNBOUND:                -1.317
REMARK SMILES O=c1c(O[C@@H]2O[C@H](CO)[C@H](O)[C@@H](O)[C@H]2O)c(-c2ccc(O)cc2)oc2cc(O)cc(O)c12
REMARK SMILES IDX 4 1 3 2 16 3 24 4 2 5 25 6 1 7 32 8 26 9 30 10 27 11 29 12
REMARK SMILES IDX 17 13 18 14 19 15 20 16 23 17 22 18 21 19 31 21 28 23 5 25
REMARK SMILES IDX 14 26 6 27 12 28 7 29 10 30 15 31 13 33 8 35 9 36 11 38
REMARK H PARENT 21 20 31 22 28 24 15 32 13 34 9 37 11 39
REMARK Flexibility Score: inf
ROOT
ATOM      1  O   UNL     1     172.151 170.432 174.509  1.00  0.00    -0.454 OA
ENDROOT
BRANCH   1   2
ATOM      2  C   UNL     1     172.639 171.019 175.686  1.00  0.00     0.214 A 
ATOM      3  C   UNL     1     174.005 171.013 176.037  1.00  0.00     0.180 A 
ATOM      4  O   UNL     1     174.411 171.624 177.145  1.00  0.00    -0.452 OA
ATOM      5  C   UNL     1     171.735 171.682 176.527  1.00  0.00     0.239 A 
ATOM      6  C   UNL     1     173.586 172.254 177.971  1.00  0.00     0.146 A 
ATOM      7  O   UNL     1     170.510 171.690 176.220  1.00  0.00    -0.285 OA
ATOM      8  C   UNL     1     172.199 172.314 177.698  1.00  0.00     0.111 A 
ATOM      9  C   UNL     1     174.105 172.860 179.118  1.00  0.00     0.094 A 
ATOM     10  C   UNL     1     171.347 172.991 178.604  1.00  0.00     0.134 A 
ATOM     11  C   UNL     1     173.258 173.526 180.010  1.00  0.00     0.123 A 
ATOM     12  C   UNL     1     171.886 173.587 179.752  1.00  0.00     0.093 A 
BRANCH   3  13
ATOM     13  C   UNL     1     175.030 170.370 175.205  1.00  0.00     0.021 A 
ATOM     14  C   UNL     1     175.236 168.985 175.280  1.00  0.00     0.016 A 
ATOM     15  C   UNL     1     176.272 168.387 174.558  1.00  0.00     0.047 A 
ATOM     16  C   UNL     1     177.151 169.178 173.807  1.00  0.00     0.115 A 
ATOM     17  C   UNL     1     175.923 171.162 174.468  1.00  0.00     0.016 A 
ATOM     18  C   UNL     1     176.974 170.566 173.762  1.00  0.00     0.047 A 
BRANCH  16  19
ATOM     19  O   UNL     1     178.209 168.597 173.112  1.00  0.00    -0.508 OA
ATOM     20  H   UNL     1     178.621 169.044 172.300  1.00  0.00     0.293 HD
ENDBRANCH  16  19
ENDBRANCH   3  13
BRANCH  10  21
ATOM     21  O   UNL     1     169.974 173.070 178.373  1.00  0.00    -0.507 OA
ATOM     22  H   UNL     1     169.516 173.956 178.186  1.00  0.00     0.293 HD
ENDBRANCH  10  21
BRANCH  11  23
ATOM     23  O   UNL     1     173.770 174.136 181.153  1.00  0.00    -0.508 OA
ATOM     24  H   UNL     1     173.685 173.703 182.067  1.00  0.00     0.293 HD
ENDBRANCH  11  23
ENDBRANCH   1   2
BRANCH   1  25
ATOM     25  C   UNL     1     172.237 171.003 173.197  1.00  0.00     0.339 C 
ATOM     26  C   UNL     1     172.317 169.893 172.094  1.00  0.00     0.214 C 
ATOM     27  O   UNL     1     171.114 171.865 173.041  1.00  0.00    -0.332 OA
ATOM     28  C   UNL     1     170.926 169.669 171.472  1.00  0.00     0.180 C 
ATOM     29  C   UNL     1     170.911 172.213 171.683  1.00  0.00     0.179 C 
ATOM     30  C   UNL     1     170.342 170.987 170.910  1.00  0.00     0.177 C 
BRANCH  26  31
ATOM     31  O   UNL     1     173.235 170.284 171.100  1.00  0.00    -0.384 OA
ATOM     32  H   UNL     1     172.995 171.207 170.826  1.00  0.00     0.211 HD
ENDBRANCH  26  31
BRANCH  28  33
ATOM     33  O   UNL     1     170.992 168.708 170.449  1.00  0.00    -0.387 OA
ATOM     34  H   UNL     1     170.064 168.383 170.300  1.00  0.00     0.211 HD
ENDBRANCH  28  33
BRANCH  29  35
ATOM     35  C   UNL     1     169.990 173.442 171.607  1.00  0.00     0.191 C 
BRANCH  35  36
ATOM     36  O   UNL     1     169.011 173.391 172.612  1.00  0.00    -0.394 OA
ATOM     37  H   UNL     1     168.258 172.857 172.247  1.00  0.00     0.210 HD
ENDBRANCH  35  36
ENDBRANCH  29  35
BRANCH  30  38
ATOM     38  O   UNL     1     168.943 170.942 171.011  1.00  0.00    -0.387 OA
ATOM     39  H   UNL     1     168.585 171.026 170.088  1.00  0.00     0.211 HD
ENDBRANCH  30  38
ENDBRANCH   1  25
TORSDOF 11
ENDMDL
MODEL 5
REMARK VINA RESULT:    -6.375      1.839      2.771
REMARK INTER + INTRA:         -10.487
REMARK INTER:                  -9.896
REMARK INTRA:                  -0.591
REMARK UNBOUND:                -1.317
REMARK SMILES O=c1c(O[C@@H]2O[C@H](CO)[C@H](O)[C@@H](O)[C@H]2O)c(-c2ccc(O)cc2)oc2cc(O)cc(O)c12
REMARK SMILES IDX 4 1 3 2 16 3 24 4 2 5 25 6 1 7 32 8 26 9 30 10 27 11 29 12
REMARK SMILES IDX 17 13 18 14 19 15 20 16 23 17 22 18 21 19 31 21 28 23 5 25
REMARK SMILES IDX 14 26 6 27 12 28 7 29 10 30 15 31 13 33 8 35 9 36 11 38
REMARK H PARENT 21 20 31 22 28 24 15 32 13 34 9 37 11 39
REMARK Flexibility Score: inf
ROOT
ATOM      1  O   UNL     1     171.753 173.886 175.526  1.00  0.00    -0.454 OA
ENDROOT
BRANCH   1   2
ATOM      2  C   UNL     1     172.640 172.804 175.422  1.00  0.00     0.214 A 
ATOM      3  C   UNL     1     173.291 172.235 176.537  1.00  0.00     0.180 A 
ATOM      4  O   UNL     1     174.087 171.184 176.378  1.00  0.00    -0.452 OA
ATOM      5  C   UNL     1     172.853 172.234 174.160  1.00  0.00     0.239 A 
ATOM      6  C   UNL     1     174.322 170.621 175.201  1.00  0.00     0.146 A 
ATOM      7  O   UNL     1     172.276 172.739 173.157  1.00  0.00    -0.285 OA
ATOM      8  C   UNL     1     173.710 171.122 174.027  1.00  0.00     0.111 A 
ATOM      9  C   UNL     1     175.182 169.522 175.131  1.00  0.00     0.094 A 
ATOM     10  C   UNL     1     173.987 170.500 172.786  1.00  0.00     0.134 A 
ATOM     11  C   UNL     1     175.452 168.912 173.902  1.00  0.00     0.123 A 
ATOM     12  C   UNL     1     174.858 169.403 172.737  1.00  0.00     0.093 A 
BRANCH   3  13
ATOM     13  C   UNL     1     173.107 172.745 177.902  1.00  0.00     0.021 A 
ATOM     14  C   UNL     1     174.208 172.887 178.758  1.00  0.00     0.016 A 
ATOM     15  C   UNL     1     174.021 173.284 180.085  1.00  0.00     0.047 A 
ATOM     16  C   UNL     1     172.727 173.477 180.584  1.00  0.00     0.115 A 
ATOM     17  C   UNL     1     171.811 172.921 178.408  1.00  0.00     0.016 A 
ATOM     18  C   UNL     1     171.622 173.297 179.742  1.00  0.00     0.047 A 
BRANCH  16  19
ATOM     19  O   UNL     1     172.526 173.837 181.914  1.00  0.00    -0.508 OA
ATOM     20  H   UNL     1     172.079 174.712 182.166  1.00  0.00     0.293 HD
ENDBRANCH  16  19
ENDBRANCH   3  13
BRANCH  10  21
ATOM     21  O   UNL     1     173.407 170.966 171.606  1.00  0.00    -0.507 OA
ATOM     22  H   UNL     1     172.685 170.440 171.124  1.00  0.00     0.293 HD
ENDBRANCH  10  21
BRANCH  11  23
ATOM     23  O   UNL     1     176.307 167.814 173.828  1.00  0.00    -0.508 OA
ATOM     24  H   UNL     1     176.152 166.983 174.390  1.00  0.00     0.293 HD
ENDBRANCH  11  23
ENDBRANCH   1   2
BRANCH   1  25
ATOM     25  C   UNL     1     172.115 175.270 175.437  1.00  0.00     0.339 C 
ATOM     26  C   UNL     1     173.347 175.599 176.349  1.00  0.00     0.214 C 
ATOM     27  O   UNL     1     172.349 175.553 174.061  1.00  0.00    -0.332 OA
ATOM     28  C   UNL     1     174.636 175.616 175.506  1.00  0.00     0.180 C 
ATOM     29  C   UNL     1     173.037 176.781 173.893  1.00  0.00     0.179 C 
ATOM     30  C   UNL     1     174.522 176.610 174.326  1.00  0.00     0.177 C 
BRANCH  26  31
ATOM     31  O   UNL     1     173.154 176.850 176.966  1.00  0.00    -0.384 OA
ATOM     32  H   UNL     1     173.725 177.505 176.486  1.00  0.00     0.211 HD
ENDBRANCH  26  31
BRANCH  28  33
ATOM     33  O   UNL     1     175.742 175.954 176.303  1.00  0.00    -0.387 OA
ATOM     34  H   UNL     1     176.475 176.213 175.683  1.00  0.00     0.211 HD
ENDBRANCH  28  33
BRANCH  29  35
ATOM     35  C   UNL     1     172.893 177.246 172.434  1.00  0.00     0.191 C 
BRANCH  35  36
ATOM     36  O   UNL     1     173.844 178.233 172.132  1.00  0.00    -0.394 OA
ATOM     37  H   UNL     1     174.438 178.306 172.923  1.00  0.00     0.210 HD
ENDBRANCH  35  36
ENDBRANCH  29  35
BRANCH  30  38
ATOM     38  O   UNL     1     175.300 176.136 173.258  1.00  0.00    -0.387 OA
ATOM     39  H   UNL     1     174.950 176.564 172.433  1.00  0.00     0.211 HD
ENDBRANCH  30  38
ENDBRANCH   1  25
TORSDOF 11
ENDMDL
MODEL 6
REMARK VINA RESULT:    -6.326      1.832      2.535
REMARK INTER + INTRA:         -10.417
REMARK INTER:                  -9.325
REMARK INTRA:                  -1.092
REMARK UNBOUND:                -1.317
REMARK SMILES O=c1c(O[C@@H]2O[C@H](CO)[C@H](O)[C@@H](O)[C@H]2O)c(-c2ccc(O)cc2)oc2cc(O)cc(O)c12
REMARK SMILES IDX 4 1 3 2 16 3 24 4 2 5 25 6 1 7 32 8 26 9 30 10 27 11 29 12
REMARK SMILES IDX 17 13 18 14 19 15 20 16 23 17 22 18 21 19 31 21 28 23 5 25
REMARK SMILES IDX 14 26 6 27 12 28 7 29 10 30 15 31 13 33 8 35 9 36 11 38
REMARK H PARENT 21 20 31 22 28 24 15 32 13 34 9 37 11 39
REMARK Flexibility Score: inf
ROOT
ATOM      1  O   UNL     1     172.565 173.675 175.342  1.00  0.00    -0.454 OA
ENDROOT
BRANCH   1   2
ATOM      2  C   UNL     1     173.381 172.535 175.276  1.00  0.00     0.214 A 
ATOM      3  C   UNL     1     173.844 171.854 176.422  1.00  0.00     0.180 A 
ATOM      4  O   UNL     1     174.578 170.755 176.292  1.00  0.00    -0.452 OA
ATOM      5  C   UNL     1     173.713 172.023 174.015  1.00  0.00     0.239 A 
ATOM      6  C   UNL     1     174.921 170.244 175.117  1.00  0.00     0.146 A 
ATOM      7  O   UNL     1     173.304 172.628 172.984  1.00  0.00    -0.285 OA
ATOM      8  C   UNL     1     174.500 170.858 173.914  1.00  0.00     0.111 A 
ATOM      9  C   UNL     1     175.705 169.088 175.081  1.00  0.00     0.094 A 
ATOM     10  C   UNL     1     174.889 170.289 172.677  1.00  0.00     0.134 A 
ATOM     11  C   UNL     1     176.086 168.531 173.856  1.00  0.00     0.123 A 
ATOM     12  C   UNL     1     175.681 169.133 172.662  1.00  0.00     0.093 A 
BRANCH   3  13
ATOM     13  C   UNL     1     173.523 172.297 177.785  1.00  0.00     0.021 A 
ATOM     14  C   UNL     1     172.189 172.499 178.167  1.00  0.00     0.016 A 
ATOM     15  C   UNL     1     171.890 173.009 179.433  1.00  0.00     0.047 A 
ATOM     16  C   UNL     1     172.922 173.383 180.301  1.00  0.00     0.115 A 
ATOM     17  C   UNL     1     174.556 172.691 178.648  1.00  0.00     0.016 A 
ATOM     18  C   UNL     1     174.257 173.222 179.907  1.00  0.00     0.047 A 
BRANCH  16  19
ATOM     19  O   UNL     1     172.637 173.927 181.551  1.00  0.00    -0.508 OA
ATOM     20  H   UNL     1     173.346 174.398 182.101  1.00  0.00     0.293 HD
ENDBRANCH  16  19
ENDBRANCH   3  13
BRANCH  10  21
ATOM     21  O   UNL     1     174.497 170.865 171.468  1.00  0.00    -0.507 OA
ATOM     22  H   UNL     1     174.871 170.547 170.581  1.00  0.00     0.293 HD
ENDBRANCH  10  21
BRANCH  11  23
ATOM     23  O   UNL     1     176.865 167.376 173.814  1.00  0.00    -0.508 OA
ATOM     24  H   UNL     1     177.200 166.995 172.935  1.00  0.00     0.293 HD
ENDBRANCH  11  23
ENDBRANCH   1   2
BRANCH   1  25
ATOM     25  C   UNL     1     172.994 174.981 175.746  1.00  0.00     0.339 C 
ATOM     26  C   UNL     1     174.373 175.355 175.101  1.00  0.00     0.214 C 
ATOM     27  O   UNL     1     171.952 175.889 175.399  1.00  0.00    -0.332 OA
ATOM     28  C   UNL     1     174.151 176.244 173.863  1.00  0.00     0.180 C 
ATOM     29  C   UNL     1     172.400 177.232 175.436  1.00  0.00     0.179 C 
ATOM     30  C   UNL     1     173.329 177.506 174.217  1.00  0.00     0.177 C 
BRANCH  26  31
ATOM     31  O   UNL     1     175.165 176.032 176.048  1.00  0.00    -0.384 OA
ATOM     32  H   UNL     1     176.114 175.891 175.791  1.00  0.00     0.211 HD
ENDBRANCH  26  31
BRANCH  28  33
ATOM     33  O   UNL     1     175.381 176.624 173.302  1.00  0.00    -0.387 OA
ATOM     34  H   UNL     1     176.081 176.067 173.738  1.00  0.00     0.211 HD
ENDBRANCH  28  33
BRANCH  29  35
ATOM     35  C   UNL     1     171.183 178.171 175.478  1.00  0.00     0.191 C 
BRANCH  35  36
ATOM     36  O   UNL     1     170.127 177.649 174.714  1.00  0.00    -0.394 OA
ATOM     37  H   UNL     1     170.529 177.297 173.878  1.00  0.00     0.210 HD
ENDBRANCH  35  36
ENDBRANCH  29  35
BRANCH  30  38
ATOM     38  O   UNL     1     172.576 177.886 173.094  1.00  0.00    -0.387 OA
ATOM     39  H   UNL     1     172.899 178.784 172.821  1.00  0.00     0.211 HD
ENDBRANCH  30  38
ENDBRANCH   1  25
TORSDOF 11
ENDMDL
MODEL 7
REMARK VINA RESULT:    -6.316      2.066      5.523
REMARK INTER + INTRA:         -10.402
REMARK INTER:                  -9.291
REMARK INTRA:                  -1.111
REMARK UNBOUND:                -1.317
REMARK SMILES O=c1c(O[C@@H]2O[C@H](CO)[C@H](O)[C@@H](O)[C@H]2O)c(-c2ccc(O)cc2)oc2cc(O)cc(O)c12
REMARK SMILES IDX 4 1 3 2 16 3 24 4 2 5 25 6 1 7 32 8 26 9 30 10 27 11 29 12
REMARK SMILES IDX 17 13 18 14 19 15 20 16 23 17 22 18 21 19 31 21 28 23 5 25
REMARK SMILES IDX 14 26 6 27 12 28 7 29 10 30 15 31 13 33 8 35 9 36 11 38
REMARK H PARENT 21 20 31 22 28 24 15 32 13 34 9 37 11 39
REMARK Flexibility Score: inf
ROOT
ATOM      1  O   UNL     1     174.956 172.107 175.963  1.00  0.00    -0.454 OA
ENDROOT
BRANCH   1   2
ATOM      2  C   UNL     1     174.365 173.345 175.664  1.00  0.00     0.214 A 
ATOM      3  C   UNL     1     173.685 174.122 176.625  1.00  0.00     0.180 A 
ATOM      4  O   UNL     1     173.184 175.306 176.289  1.00  0.00    -0.452 OA
ATOM      5  C   UNL     1     174.498 173.852 174.365  1.00  0.00     0.239 A 
ATOM      6  C   UNL     1     173.280 175.816 175.069  1.00  0.00     0.146 A 
ATOM      7  O   UNL     1     175.103 173.160 173.499  1.00  0.00    -0.285 OA
ATOM      8  C   UNL     1     173.947 175.109 174.042  1.00  0.00     0.111 A 
ATOM      9  C   UNL     1     172.713 177.066 174.808  1.00  0.00     0.094 A 
ATOM     10  C   UNL     1     174.027 175.681 172.749  1.00  0.00     0.134 A 
ATOM     11  C   UNL     1     172.794 177.626 173.529  1.00  0.00     0.123 A 
ATOM     12  C   UNL     1     173.446 176.933 172.507  1.00  0.00     0.093 A 
BRANCH   3  13
ATOM     13  C   UNL     1     173.521 173.688 178.018  1.00  0.00     0.021 A 
ATOM     14  C   UNL     1     172.269 173.771 178.642  1.00  0.00     0.016 A 
ATOM     15  C   UNL     1     172.133 173.446 179.995  1.00  0.00     0.047 A 
ATOM     16  C   UNL     1     173.261 173.099 180.749  1.00  0.00     0.115 A 
ATOM     17  C   UNL     1     174.652 173.359 178.780  1.00  0.00     0.016 A 
ATOM     18  C   UNL     1     174.521 173.055 180.139  1.00  0.00     0.047 A 
BRANCH  16  19
ATOM     19  O   UNL     1     173.144 172.808 182.106  1.00  0.00    -0.508 OA
ATOM     20  H   UNL     1     173.554 173.406 182.815  1.00  0.00     0.293 HD
ENDBRANCH  16  19
ENDBRANCH   3  13
BRANCH  10  21
ATOM     21  O   UNL     1     174.674 175.014 171.709  1.00  0.00    -0.507 OA
ATOM     22  H   UNL     1     174.473 175.222 170.736  1.00  0.00     0.293 HD
ENDBRANCH  10  21
BRANCH  11  23
ATOM     23  O   UNL     1     172.233 178.874 173.265  1.00  0.00    -0.508 OA
ATOM     24  H   UNL     1     172.227 179.264 172.328  1.00  0.00     0.293 HD
ENDBRANCH  11  23
ENDBRANCH   1   2
BRANCH   1  25
ATOM     25  C   UNL     1     174.311 170.832 175.862  1.00  0.00     0.339 C 
ATOM     26  C   UNL     1     172.771 170.988 175.612  1.00  0.00     0.214 C 
ATOM     27  O   UNL     1     174.973 170.108 174.830  1.00  0.00    -0.332 OA
ATOM     28  C   UNL     1     172.463 170.819 174.112  1.00  0.00     0.180 C 
ATOM     29  C   UNL     1     174.215 168.986 174.413  1.00  0.00     0.179 C 
ATOM     30  C   UNL     1     172.991 169.465 173.580  1.00  0.00     0.177 C 
BRANCH  26  31
ATOM     31  O   UNL     1     172.073 170.023 176.362  1.00  0.00    -0.384 OA
ATOM     32  H   UNL     1     171.500 169.517 175.729  1.00  0.00     0.211 HD
ENDBRANCH  26  31
BRANCH  28  33
ATOM     33  O   UNL     1     171.081 170.911 173.880  1.00  0.00    -0.387 OA
ATOM     34  H   UNL     1     170.672 170.081 174.243  1.00  0.00     0.211 HD
ENDBRANCH  28  33
BRANCH  29  35
ATOM     35  C   UNL     1     175.124 168.022 173.634  1.00  0.00     0.191 C 
BRANCH  35  36
ATOM     36  O   UNL     1     176.066 168.733 172.874  1.00  0.00    -0.394 OA
ATOM     37  H   UNL     1     175.793 168.641 171.925  1.00  0.00     0.210 HD
ENDBRANCH  35  36
ENDBRANCH  29  35
BRANCH  30  38
ATOM     38  O   UNL     1     173.338 169.615 172.227  1.00  0.00    -0.387 OA
ATOM     39  H   UNL     1     174.249 169.236 172.120  1.00  0.00     0.211 HD
ENDBRANCH  30  38
ENDBRANCH   1  25
TORSDOF 11
ENDMDL
MODEL 8
REMARK VINA RESULT:    -6.267      2.185      5.767
REMARK INTER + INTRA:         -10.332
REMARK INTER:                  -8.977
REMARK INTRA:                  -1.355
REMARK UNBOUND:                -1.317
REMARK SMILES O=c1c(O[C@@H]2O[C@H](CO)[C@H](O)[C@@H](O)[C@H]2O)c(-c2ccc(O)cc2)oc2cc(O)cc(O)c12
REMARK SMILES IDX 4 1 3 2 16 3 24 4 2 5 25 6 1 7 32 8 26 9 30 10 27 11 29 12
REMARK SMILES IDX 17 13 18 14 19 15 20 16 23 17 22 18 21 19 31 21 28 23 5 25
REMARK SMILES IDX 14 26 6 27 12 28 7 29 10 30 15 31 13 33 8 35 9 36 11 38
REMARK H PARENT 21 20 31 22 28 24 15 32 13 34 9 37 11 39
REMARK Flexibility Score: inf
ROOT
ATOM      1  O   UNL     1     174.648 173.398 174.903  1.00  0.00    -0.454 OA
ENDROOT
BRANCH   1   2
ATOM      2  C   UNL     1     173.652 174.386 174.852  1.00  0.00     0.214 A 
ATOM      3  C   UNL     1     172.833 174.707 175.956  1.00  0.00     0.180 A 
ATOM      4  O   UNL     1     171.937 175.683 175.857  1.00  0.00    -0.452 OA
ATOM      5  C   UNL     1     173.496 175.117 173.668  1.00  0.00     0.239 A 
ATOM      6  C   UNL     1     171.752 176.391 174.752  1.00  0.00     0.146 A 
ATOM      7  O   UNL     1     174.224 174.834 172.676  1.00  0.00    -0.285 OA
ATOM      8  C   UNL     1     172.530 176.141 173.597  1.00  0.00     0.111 A 
ATOM      9  C   UNL     1     170.778 177.393 174.741  1.00  0.00     0.094 A 
ATOM     10  C   UNL     1     172.302 176.913 172.432  1.00  0.00     0.134 A 
ATOM     11  C   UNL     1     170.557 178.152 173.587  1.00  0.00     0.123 A 
ATOM     12  C   UNL     1     171.316 177.909 172.440  1.00  0.00     0.093 A 
BRANCH   3  13
ATOM     13  C   UNL     1     172.944 174.017 177.247  1.00  0.00     0.021 A 
ATOM     14  C   UNL     1     171.792 173.576 177.914  1.00  0.00     0.016 A 
ATOM     15  C   UNL     1     171.891 173.002 179.184  1.00  0.00     0.047 A 
ATOM     16  C   UNL     1     173.133 172.926 179.825  1.00  0.00     0.115 A 
ATOM     17  C   UNL     1     174.185 173.956 177.898  1.00  0.00     0.016 A 
ATOM     18  C   UNL     1     174.281 173.403 179.179  1.00  0.00     0.047 A 
BRANCH  16  19
ATOM     19  O   UNL     1     173.239 172.389 181.106  1.00  0.00    -0.508 OA
ATOM     20  H   UNL     1     172.422 172.233 181.686  1.00  0.00     0.293 HD
ENDBRANCH  16  19
ENDBRANCH   3  13
BRANCH  10  21
ATOM     21  O   UNL     1     173.046 176.696 171.271  1.00  0.00    -0.507 OA
ATOM     22  H   UNL     1     173.562 177.445 170.822  1.00  0.00     0.293 HD
ENDBRANCH  10  21
BRANCH  11  23
ATOM     23  O   UNL     1     169.589 179.154 173.572  1.00  0.00    -0.508 OA
ATOM     24  H   UNL     1     169.631 179.941 174.212  1.00  0.00     0.293 HD
ENDBRANCH  11  23
ENDBRANCH   1   2
BRANCH   1  25
ATOM     25  C   UNL     1     174.484 172.032 174.503  1.00  0.00     0.339 C 
ATOM     26  C   UNL     1     174.799 171.049 175.683  1.00  0.00     0.214 C 
ATOM     27  O   UNL     1     173.157 171.897 174.006  1.00  0.00    -0.332 OA
ATOM     28  C   UNL     1     173.489 170.595 176.354  1.00  0.00     0.180 C 
ATOM     29  C   UNL     1     172.775 170.537 173.904  1.00  0.00     0.179 C 
ATOM     30  C   UNL     1     172.524 169.958 175.326  1.00  0.00     0.177 C 
BRANCH  26  31
ATOM     31  O   UNL     1     175.503 169.933 175.190  1.00  0.00    -0.384 OA
ATOM     32  H   UNL     1     176.189 169.696 175.868  1.00  0.00     0.211 HD
ENDBRANCH  26  31
BRANCH  28  33
ATOM     33  O   UNL     1     173.754 169.679 177.384  1.00  0.00    -0.387 OA
ATOM     34  H   UNL     1     174.468 170.079 177.950  1.00  0.00     0.211 HD
ENDBRANCH  28  33
BRANCH  29  35
ATOM     35  C   UNL     1     171.544 170.424 172.990  1.00  0.00     0.191 C 
BRANCH  35  36
ATOM     36  O   UNL     1     170.762 171.587 173.064  1.00  0.00    -0.394 OA
ATOM     37  H   UNL     1     169.919 171.393 172.578  1.00  0.00     0.210 HD
ENDBRANCH  35  36
ENDBRANCH  29  35
BRANCH  30  38
ATOM     38  O   UNL     1     171.203 170.201 175.736  1.00  0.00    -0.387 OA
ATOM     39  H   UNL     1     171.253 170.666 176.612  1.00  0.00     0.211 HD
ENDBRANCH  30  38
ENDBRANCH   1  25
TORSDOF 11
ENDMDL
MODEL 9
REMARK VINA RESULT:    -6.237      2.623      5.616
REMARK INTER + INTRA:         -10.288
REMARK INTER:                  -8.956
REMARK INTRA:                  -1.332
REMARK UNBOUND:                -1.317
REMARK SMILES O=c1c(O[C@@H]2O[C@H](CO)[C@H](O)[C@@H](O)[C@H]2O)c(-c2ccc(O)cc2)oc2cc(O)cc(O)c12
REMARK SMILES IDX 4 1 3 2 16 3 24 4 2 5 25 6 1 7 32 8 26 9 30 10 27 11 29 12
REMARK SMILES IDX 17 13 18 14 19 15 20 16 23 17 22 18 21 19 31 21 28 23 5 25
REMARK SMILES IDX 14 26 6 27 12 28 7 29 10 30 15 31 13 33 8 35 9 36 11 38
REMARK H PARENT 21 20 31 22 28 24 15 32 13 34 9 37 11 39
REMARK Flexibility Score: inf
ROOT
ATOM      1  O   UNL     1     173.174 175.357 173.780  1.00  0.00    -0.454 OA
ENDROOT
BRANCH   1   2
ATOM      2  C   UNL     1     172.863 174.878 175.063  1.00  0.00     0.214 A 
ATOM      3  C   UNL     1     171.539 174.729 175.526  1.00  0.00     0.180 A 
ATOM      4  O   UNL     1     171.309 174.230 176.735  1.00  0.00    -0.452 OA
ATOM      5  C   UNL     1     173.914 174.488 175.903  1.00  0.00     0.239 A 
ATOM      6  C   UNL     1     172.275 173.858 177.563  1.00  0.00     0.146 A 
ATOM      7  O   UNL     1     175.102 174.621 175.496  1.00  0.00    -0.285 OA
ATOM      8  C   UNL     1     173.634 173.968 177.183  1.00  0.00     0.111 A 
ATOM      9  C   UNL     1     171.936 173.352 178.821  1.00  0.00     0.094 A 
ATOM     10  C   UNL     1     174.640 173.566 178.094  1.00  0.00     0.134 A 
ATOM     11  C   UNL     1     172.934 172.956 179.717  1.00  0.00     0.123 A 
ATOM     12  C   UNL     1     174.278 173.067 179.353  1.00  0.00     0.093 A 
BRANCH   3  13
ATOM     13  C   UNL     1     170.373 175.083 174.706  1.00  0.00     0.021 A 
ATOM     14  C   UNL     1     169.911 174.204 173.717  1.00  0.00     0.016 A 
ATOM     15  C   UNL     1     168.860 174.580 172.876  1.00  0.00     0.047 A 
ATOM     16  C   UNL     1     168.308 175.862 172.974  1.00  0.00     0.115 A 
ATOM     17  C   UNL     1     169.831 176.374 174.790  1.00  0.00     0.016 A 
ATOM     18  C   UNL     1     168.794 176.759 173.934  1.00  0.00     0.047 A 
BRANCH  16  19
ATOM     19  O   UNL     1     167.285 176.262 172.117  1.00  0.00    -0.508 OA
ATOM     20  H   UNL     1     167.126 175.801 171.228  1.00  0.00     0.293 HD
ENDBRANCH  16  19
ENDBRANCH   3  13
BRANCH  10  21
ATOM     21  O   UNL     1     175.991 173.662 177.758  1.00  0.00    -0.507 OA
ATOM     22  H   UNL     1     176.576 174.410 178.114  1.00  0.00     0.293 HD
ENDBRANCH  10  21
BRANCH  11  23
ATOM     23  O   UNL     1     172.601 172.448 180.970  1.00  0.00    -0.508 OA
ATOM     24  H   UNL     1     172.306 171.484 181.090  1.00  0.00     0.293 HD
ENDBRANCH  11  23
ENDBRANCH   1   2
BRANCH   1  25
ATOM     25  C   UNL     1     173.478 176.719 173.452  1.00  0.00     0.339 C 
ATOM     26  C   UNL     1     174.755 176.818 172.549  1.00  0.00     0.214 C 
ATOM     27  O   UNL     1     172.318 177.271 172.839  1.00  0.00    -0.332 OA
ATOM     28  C   UNL     1     174.344 176.970 171.072  1.00  0.00     0.180 C 
ATOM     29  C   UNL     1     172.610 178.486 172.173  1.00  0.00     0.179 C 
ATOM     30  C   UNL     1     173.410 178.188 170.872  1.00  0.00     0.177 C 
BRANCH  26  31
ATOM     31  O   UNL     1     175.531 177.921 172.952  1.00  0.00    -0.384 OA
ATOM     32  H   UNL     1     175.606 178.529 172.170  1.00  0.00     0.211 HD
ENDBRANCH  26  31
BRANCH  28  33
ATOM     33  O   UNL     1     175.479 177.106 170.256  1.00  0.00    -0.387 OA
ATOM     34  H   UNL     1     176.200 176.564 170.673  1.00  0.00     0.211 HD
ENDBRANCH  28  33
BRANCH  29  35
ATOM     35  C   UNL     1     171.300 179.243 171.903  1.00  0.00     0.191 C 
BRANCH  35  36
ATOM     36  O   UNL     1     171.540 180.394 171.135  1.00  0.00    -0.394 OA
ATOM     37  H   UNL     1     171.577 181.156 171.770  1.00  0.00     0.210 HD
ENDBRANCH  35  36
ENDBRANCH  29  35
BRANCH  30  38
ATOM     38  O   UNL     1     172.540 177.920 169.803  1.00  0.00    -0.387 OA
ATOM     39  H   UNL     1     173.090 177.923 168.976  1.00  0.00     0.211 HD
ENDBRANCH  30  38
ENDBRANCH   1  25
TORSDOF 11
ENDMDL
