MODEL 1
REMARK VINA RESULT:    -4.750      0.000      0.000
REMARK INTER + INTRA:          -5.181
REMARK INTER:                  -5.028
REMARK INTRA:                  -0.153
REMARK UNBOUND:                -0.153
REMARK SMILES CC1=CC[C@@H](C(C)C)C=C1
REMARK SMILES IDX 1 1 2 2 3 3 4 4 5 5 9 6 10 7 6 8 7 9 8 10
REMARK H PARENT
REMARK Flexibility Score: inf
ROOT
ATOM      1  C   UNL     1      51.010  47.122  43.175  1.00  0.00     0.044 C 
ATOM      2  C   UNL     1      52.374  46.501  43.134  1.00  0.00    -0.055 C 
ATOM      3  C   UNL     1      53.291  46.816  44.062  1.00  0.00    -0.023 C 
ATOM      4  C   UNL     1      54.609  46.089  44.122  1.00  0.00     0.035 C 
ATOM      5  C   UNL     1      55.086  45.690  42.703  1.00  0.00     0.018 C 
ATOM      6  C   UNL     1      53.948  45.064  41.924  1.00  0.00    -0.023 C 
ATOM      7  C   UNL     1      52.691  45.487  42.102  1.00  0.00    -0.001 C 
ENDROOT
BRANCH   5   8
ATOM      8  C   UNL     1      56.354  44.788  42.689  1.00  0.00    -0.010 C 
ATOM      9  C   UNL     1      57.470  45.312  41.769  1.00  0.00     0.008 C 
ATOM     10  C   UNL     1      56.015  43.333  42.338  1.00  0.00     0.008 C 
ENDBRANCH   5   8
TORSDOF 1
ENDMDL
MODEL 2
REMARK VINA RESULT:    -4.566      1.669      2.975
REMARK INTER + INTRA:          -4.986
REMARK INTER:                  -4.830
REMARK INTRA:                  -0.157
REMARK UNBOUND:                -0.153
REMARK SMILES CC1=CC[C@@H](C(C)C)C=C1
REMARK SMILES IDX 1 1 2 2 3 3 4 4 5 5 9 6 10 7 6 8 7 9 8 10
REMARK H PARENT
REMARK Flexibility Score: inf
ROOT
ATOM      1  C   UNL     1      53.121  45.618  42.386  1.00  0.00     0.044 C 
ATOM      2  C   UNL     1      54.484  44.991  42.381  1.00  0.00    -0.055 C 
ATOM      3  C   UNL     1      55.583  45.758  42.302  1.00  0.00    -0.023 C 
ATOM      4  C   UNL     1      56.955  45.155  42.447  1.00  0.00     0.035 C 
ATOM      5  C   UNL     1      56.997  43.723  41.857  1.00  0.00     0.018 C 
ATOM      6  C   UNL     1      55.801  42.926  42.334  1.00  0.00    -0.023 C 
ATOM      7  C   UNL     1      54.620  43.524  42.529  1.00  0.00    -0.001 C 
ENDROOT
BRANCH   5   8
ATOM      8  C   UNL     1      58.331  42.966  42.119  1.00  0.00    -0.010 C 
ATOM      9  C   UNL     1      58.779  43.003  43.590  1.00  0.00     0.008 C 
ATOM     10  C   UNL     1      59.460  43.469  41.208  1.00  0.00     0.008 C 
ENDBRANCH   5   8
TORSDOF 1
ENDMDL
MODEL 3
REMARK VINA RESULT:    -4.515      1.401      4.890
REMARK INTER + INTRA:          -4.932
REMARK INTER:                  -4.762
REMARK INTRA:                  -0.170
REMARK UNBOUND:                -0.153
REMARK SMILES CC1=CC[C@@H](C(C)C)C=C1
REMARK SMILES IDX 1 1 2 2 3 3 4 4 5 5 9 6 10 7 6 8 7 9 8 10
REMARK H PARENT
REMARK Flexibility Score: inf
ROOT
ATOM      1  C   UNL     1      59.494  43.869  40.851  1.00  0.00     0.044 C 
ATOM      2  C   UNL     1      58.180  44.351  41.390  1.00  0.00    -0.055 C 
ATOM      3  C   UNL     1      57.909  45.665  41.441  1.00  0.00    -0.023 C 
ATOM      4  C   UNL     1      56.541  46.154  41.838  1.00  0.00     0.035 C 
ATOM      5  C   UNL     1      55.900  45.216  42.891  1.00  0.00     0.018 C 
ATOM      6  C   UNL     1      56.058  43.770  42.468  1.00  0.00    -0.023 C 
ATOM      7  C   UNL     1      57.152  43.371  41.809  1.00  0.00    -0.001 C 
ENDROOT
BRANCH   5   8
ATOM      8  C   UNL     1      54.419  45.555  43.228  1.00  0.00    -0.010 C 
ATOM      9  C   UNL     1      53.433  45.182  42.107  1.00  0.00     0.008 C 
ATOM     10  C   UNL     1      54.246  47.030  43.617  1.00  0.00     0.008 C 
ENDBRANCH   5   8
TORSDOF 1
ENDMDL
MODEL 4
REMARK VINA RESULT:    -4.369      1.232      4.961
REMARK INTER + INTRA:          -4.778
REMARK INTER:                  -4.626
REMARK INTRA:                  -0.151
REMARK UNBOUND:                -0.153
REMARK SMILES CC1=CC[C@@H](C(C)C)C=C1
REMARK SMILES IDX 1 1 2 2 3 3 4 4 5 5 9 6 10 7 6 8 7 9 8 10
REMARK H PARENT
REMARK Flexibility Score: inf
ROOT
ATOM      1  C   UNL     1      59.485  44.202  40.731  1.00  0.00     0.044 C 
ATOM      2  C   UNL     1      58.167  44.478  41.391  1.00  0.00    -0.055 C 
ATOM      3  C   UNL     1      57.420  43.467  41.863  1.00  0.00    -0.023 C 
ATOM      4  C   UNL     1      56.171  43.739  42.659  1.00  0.00     0.035 C 
ATOM      5  C   UNL     1      55.463  45.023  42.160  1.00  0.00     0.018 C 
ATOM      6  C   UNL     1      56.470  46.142  41.987  1.00  0.00    -0.023 C 
ATOM      7  C   UNL     1      57.716  45.876  41.581  1.00  0.00    -0.001 C 
ENDROOT
BRANCH   5   8
ATOM      8  C   UNL     1      54.258  45.468  43.038  1.00  0.00    -0.010 C 
ATOM      9  C   UNL     1      52.947  45.622  42.249  1.00  0.00     0.008 C 
ATOM     10  C   UNL     1      54.563  46.755  43.816  1.00  0.00     0.008 C 
ENDBRANCH   5   8
TORSDOF 1
ENDMDL
MODEL 5
REMARK VINA RESULT:    -3.887      2.505      5.808
REMARK INTER + INTRA:          -4.268
REMARK INTER:                  -4.119
REMARK INTRA:                  -0.149
REMARK UNBOUND:                -0.153
REMARK SMILES CC1=CC[C@@H](C(C)C)C=C1
REMARK SMILES IDX 1 1 2 2 3 3 4 4 5 5 9 6 10 7 6 8 7 9 8 10
REMARK H PARENT
REMARK Flexibility Score: inf
ROOT
ATOM      1  C   UNL     1      61.200  42.815  43.232  1.00  0.00     0.044 C 
ATOM      2  C   UNL     1      59.738  43.099  43.053  1.00  0.00    -0.055 C 
ATOM      3  C   UNL     1      58.866  42.805  44.031  1.00  0.00    -0.023 C 
ATOM      4  C   UNL     1      57.422  43.221  43.926  1.00  0.00     0.035 C 
ATOM      5  C   UNL     1      56.939  43.181  42.454  1.00  0.00     0.018 C 
ATOM      6  C   UNL     1      57.954  43.852  41.552  1.00  0.00    -0.023 C 
ATOM      7  C   UNL     1      59.262  43.764  41.819  1.00  0.00    -0.001 C 
ENDROOT
BRANCH   5   8
ATOM      8  C   UNL     1      55.510  43.759  42.238  1.00  0.00    -0.010 C 
ATOM      9  C   UNL     1      55.197  44.972  43.131  1.00  0.00     0.008 C 
ATOM     10  C   UNL     1      54.429  42.683  42.405  1.00  0.00     0.008 C 
ENDBRANCH   5   8
TORSDOF 1
ENDMDL
MODEL 6
REMARK VINA RESULT:    -3.635     22.061     23.662
REMARK INTER + INTRA:          -4.000
REMARK INTER:                  -3.809
REMARK INTRA:                  -0.191
REMARK UNBOUND:                -0.153
REMARK SMILES CC1=CC[C@@H](C(C)C)C=C1
REMARK SMILES IDX 1 1 2 2 3 3 4 4 5 5 9 6 10 7 6 8 7 9 8 10
REMARK H PARENT
REMARK Flexibility Score: inf
ROOT
ATOM      1  C   UNL     1      57.691  26.935  26.271  1.00  0.00     0.044 C 
ATOM      2  C   UNL     1      56.700  28.053  26.136  1.00  0.00    -0.055 C 
ATOM      3  C   UNL     1      56.924  29.057  25.273  1.00  0.00    -0.023 C 
ATOM      4  C   UNL     1      55.871  30.103  25.017  1.00  0.00     0.035 C 
ATOM      5  C   UNL     1      55.049  30.387  26.300  1.00  0.00     0.018 C 
ATOM      6  C   UNL     1      54.634  29.085  26.955  1.00  0.00    -0.023 C 
ATOM      7  C   UNL     1      55.438  28.017  26.910  1.00  0.00    -0.001 C 
ENDROOT
BRANCH   5   8
ATOM      8  C   UNL     1      53.832  31.331  26.079  1.00  0.00    -0.010 C 
ATOM      9  C   UNL     1      52.523  30.795  26.684  1.00  0.00     0.008 C 
ATOM     10  C   UNL     1      53.633  31.667  24.595  1.00  0.00     0.008 C 
ENDBRANCH   5   8
TORSDOF 1
ENDMDL
MODEL 7
REMARK VINA RESULT:    -3.623     22.914     23.515
REMARK INTER + INTRA:          -3.988
REMARK INTER:                  -3.799
REMARK INTRA:                  -0.189
REMARK UNBOUND:                -0.153
REMARK SMILES CC1=CC[C@@H](C(C)C)C=C1
REMARK SMILES IDX 1 1 2 2 3 3 4 4 5 5 9 6 10 7 6 8 7 9 8 10
REMARK H PARENT
REMARK Flexibility Score: inf
ROOT
ATOM      1  C   UNL     1      51.159  28.168  27.868  1.00  0.00     0.044 C 
ATOM      2  C   UNL     1      52.611  28.219  27.495  1.00  0.00    -0.055 C 
ATOM      3  C   UNL     1      53.419  27.184  27.774  1.00  0.00    -0.023 C 
ATOM      4  C   UNL     1      54.839  27.159  27.272  1.00  0.00     0.035 C 
ATOM      5  C   UNL     1      55.438  28.587  27.230  1.00  0.00     0.018 C 
ATOM      6  C   UNL     1      54.458  29.546  26.585  1.00  0.00    -0.023 C 
ATOM      7  C   UNL     1      53.141  29.389  26.758  1.00  0.00    -0.001 C 
ENDROOT
BRANCH   5   8
ATOM      8  C   UNL     1      56.842  28.668  26.564  1.00  0.00    -0.010 C 
ATOM      9  C   UNL     1      56.844  29.428  25.227  1.00  0.00     0.008 C 
ATOM     10  C   UNL     1      57.470  27.279  26.387  1.00  0.00     0.008 C 
ENDBRANCH   5   8
TORSDOF 1
ENDMDL
MODEL 8
REMARK VINA RESULT:    -3.622      2.482      5.946
REMARK INTER + INTRA:          -3.987
REMARK INTER:                  -3.823
REMARK INTRA:                  -0.164
REMARK UNBOUND:                -0.153
REMARK SMILES CC1=CC[C@@H](C(C)C)C=C1
REMARK SMILES IDX 1 1 2 2 3 3 4 4 5 5 9 6 10 7 6 8 7 9 8 10
REMARK H PARENT
REMARK Flexibility Score: inf
ROOT
ATOM      1  C   UNL     1      61.230  42.907  43.155  1.00  0.00     0.044 C 
ATOM      2  C   UNL     1      59.759  43.190  43.060  1.00  0.00    -0.055 C 
ATOM      3  C   UNL     1      59.269  43.894  42.027  1.00  0.00    -0.023 C 
ATOM      4  C   UNL     1      57.784  44.056  41.841  1.00  0.00     0.035 C 
ATOM      5  C   UNL     1      57.058  44.128  43.208  1.00  0.00     0.018 C 
ATOM      6  C   UNL     1      57.558  43.031  44.125  1.00  0.00    -0.023 C 
ATOM      7  C   UNL     1      58.836  42.636  44.077  1.00  0.00    -0.001 C 
ENDROOT
BRANCH   5   8
ATOM      8  C   UNL     1      55.505  44.125  43.105  1.00  0.00    -0.010 C 
ATOM      9  C   UNL     1      54.934  42.837  42.489  1.00  0.00     0.008 C 
ATOM     10  C   UNL     1      54.981  45.354  42.349  1.00  0.00     0.008 C 
ENDBRANCH   5   8
TORSDOF 1
ENDMDL
