MODEL 1
REMARK VINA RESULT:    -3.758      0.000      0.000
REMARK INTER + INTRA:         -12.731
REMARK INTER:                  -9.471
REMARK INTRA:                  -3.260
REMARK UNBOUND:                -3.260
REMARK SMILES CCCCCCCCCCCCCCCCCCCCCCCCCCCC(=O)[O-]
REMARK SMILES IDX 15 1 16 2 17 3 18 4 19 5 20 6 21 7 22 8 23 9 24 10 25 11
REMARK SMILES IDX 26 12 27 13 28 14 29 15 30 16 14 17 13 18 12 19 11 20 10 21
REMARK SMILES IDX 9 22 8 23 7 24 6 25 5 26 4 27 3 28 2 29 1 30
REMARK H PARENT
REMARK Flexibility Score: inf
ROOT
ATOM      1  C   UNL     1      17.067   0.030  16.749  1.00  0.00     0.000 C 
ENDROOT
BRANCH   1   2
ATOM      2  C   UNL     1      17.219  -1.067  15.678  1.00  0.00     0.000 C 
BRANCH   2   3
ATOM      3  C   UNL     1      16.188  -0.939  14.541  1.00  0.00     0.000 C 
BRANCH   3   4
ATOM      4  C   UNL     1      15.578  -2.302  14.144  1.00  0.00     0.000 C 
BRANCH   4   5
ATOM      5  C   UNL     1      16.160  -3.503  14.914  1.00  0.00     0.000 C 
BRANCH   5   6
ATOM      6  C   UNL     1      15.755  -4.886  14.375  1.00  0.00     0.000 C 
BRANCH   6   7
ATOM      7  C   UNL     1      16.458  -5.242  13.054  1.00  0.00     0.000 C 
BRANCH   7   8
ATOM      8  C   UNL     1      15.578  -6.101  12.131  1.00  0.00     0.000 C 
BRANCH   8   9
ATOM      9  C   UNL     1      15.557  -5.655  10.656  1.00  0.00     0.000 C 
BRANCH   9  10
ATOM     10  C   UNL     1      15.531  -6.830   9.656  1.00  0.00     0.000 C 
BRANCH  10  11
ATOM     11  C   UNL     1      16.287  -6.501   8.355  1.00  0.00     0.000 C 
BRANCH  11  12
ATOM     12  C   UNL     1      17.074  -5.184   8.453  1.00  0.00     0.006 C 
BRANCH  12  13
ATOM     13  C   UNL     1      18.593  -5.409   8.473  1.00  0.00     0.053 C 
BRANCH  13  14
ATOM     14  C   UNL     1      19.278  -4.438   7.563  1.00  0.00     0.041 C 
ATOM     15  O   UNL     1      18.988  -4.408   6.337  1.00  0.00    -0.550 OA
ATOM     16  O   UNL     1      20.203  -3.536   8.075  1.00  0.00    -0.550 OA
ENDBRANCH  13  14
ENDBRANCH  12  13
ENDBRANCH  11  12
ENDBRANCH  10  11
ENDBRANCH   9  10
ENDBRANCH   8   9
ENDBRANCH   7   8
ENDBRANCH   6   7
ENDBRANCH   5   6
ENDBRANCH   4   5
ENDBRANCH   3   4
ENDBRANCH   2   3
ENDBRANCH   1   2
BRANCH   1  17
ATOM     17  C   UNL     1      16.747  -0.496  18.161  1.00  0.00     0.000 C 
BRANCH  17  18
ATOM     18  C   UNL     1      16.308  -1.971  18.159  1.00  0.00     0.000 C 
BRANCH  18  19
ATOM     19  C   UNL     1      14.817  -2.153  18.490  1.00  0.00     0.000 C 
BRANCH  19  20
ATOM     20  C   UNL     1      13.850  -1.785  17.352  1.00  0.00     0.000 C 
BRANCH  20  21
ATOM     21  C   UNL     1      12.729  -0.832  17.805  1.00  0.00     0.000 C 
BRANCH  21  22
ATOM     22  C   UNL     1      13.218   0.613  17.984  1.00  0.00    -0.000 C 
BRANCH  22  23
ATOM     23  C   UNL     1      13.800   1.207  16.688  1.00  0.00    -0.000 C 
BRANCH  23  24
ATOM     24  C   UNL     1      13.868   2.742  16.722  1.00  0.00    -0.000 C 
BRANCH  24  25
ATOM     25  C   UNL     1      15.249   3.281  16.306  1.00  0.00    -0.000 C 
BRANCH  25  26
ATOM     26  C   UNL     1      15.653   2.844  14.888  1.00  0.00    -0.000 C 
BRANCH  26  27
ATOM     27  C   UNL     1      16.274   3.990  14.070  1.00  0.00    -0.000 C 
BRANCH  27  28
ATOM     28  C   UNL     1      15.369   5.232  14.017  1.00  0.00    -0.000 C 
BRANCH  28  29
ATOM     29  C   UNL     1      16.164   6.547  14.026  1.00  0.00    -0.003 C 
ATOM     30  C   UNL     1      16.037   7.254  15.372  1.00  0.00     0.004 C 
ENDBRANCH  28  29
ENDBRANCH  27  28
ENDBRANCH  26  27
ENDBRANCH  25  26
ENDBRANCH  24  25
ENDBRANCH  23  24
ENDBRANCH  22  23
ENDBRANCH  21  22
ENDBRANCH  20  21
ENDBRANCH  19  20
ENDBRANCH  18  19
ENDBRANCH  17  18
ENDBRANCH   1  17
TORSDOF 26
ENDMDL
MODEL 2
REMARK VINA RESULT:    -3.686      9.460     12.815
REMARK INTER + INTRA:         -12.549
REMARK INTER:                  -7.353
REMARK INTRA:                  -5.196
REMARK UNBOUND:                -3.260
REMARK SMILES CCCCCCCCCCCCCCCCCCCCCCCCCCCC(=O)[O-]
REMARK SMILES IDX 15 1 16 2 17 3 18 4 19 5 20 6 21 7 22 8 23 9 24 10 25 11
REMARK SMILES IDX 26 12 27 13 28 14 29 15 30 16 14 17 13 18 12 19 11 20 10 21
REMARK SMILES IDX 9 22 8 23 7 24 6 25 5 26 4 27 3 28 2 29 1 30
REMARK H PARENT
REMARK Flexibility Score: inf
ROOT
ATOM      1  C   UNL     1      29.368   2.338   9.007  1.00  0.00     0.000 C 
ENDROOT
BRANCH   1   2
ATOM      2  C   UNL     1      28.029   1.877   9.612  1.00  0.00     0.000 C 
BRANCH   2   3
ATOM      3  C   UNL     1      28.203   0.804  10.704  1.00  0.00     0.000 C 
BRANCH   3   4
ATOM      4  C   UNL     1      27.225  -0.379  10.528  1.00  0.00     0.000 C 
BRANCH   4   5
ATOM      5  C   UNL     1      26.114  -0.132   9.490  1.00  0.00     0.000 C 
BRANCH   5   6
ATOM      6  C   UNL     1      25.505  -1.398   8.866  1.00  0.00     0.000 C 
BRANCH   6   7
ATOM      7  C   UNL     1      25.958  -1.625   7.414  1.00  0.00     0.000 C 
BRANCH   7   8
ATOM      8  C   UNL     1      25.007  -2.551   6.638  1.00  0.00     0.000 C 
BRANCH   8   9
ATOM      9  C   UNL     1      24.162  -1.851   5.555  1.00  0.00     0.000 C 
BRANCH   9  10
ATOM     10  C   UNL     1      22.644  -2.093   5.704  1.00  0.00     0.000 C 
BRANCH  10  11
ATOM     11  C   UNL     1      22.108  -1.595   7.059  1.00  0.00     0.000 C 
BRANCH  11  12
ATOM     12  C   UNL     1      20.964  -2.472   7.593  1.00  0.00     0.006 C 
BRANCH  12  13
ATOM     13  C   UNL     1      21.461  -3.824   8.126  1.00  0.00     0.053 C 
BRANCH  13  14
ATOM     14  C   UNL     1      22.358  -3.623   9.306  1.00  0.00     0.041 C 
ATOM     15  O   UNL     1      21.986  -2.900  10.268  1.00  0.00    -0.550 OA
ATOM     16  O   UNL     1      23.587  -4.269   9.366  1.00  0.00    -0.550 OA
ENDBRANCH  13  14
ENDBRANCH  12  13
ENDBRANCH  11  12
ENDBRANCH  10  11
ENDBRANCH   9  10
ENDBRANCH   8   9
ENDBRANCH   7   8
ENDBRANCH   6   7
ENDBRANCH   5   6
ENDBRANCH   4   5
ENDBRANCH   3   4
ENDBRANCH   2   3
ENDBRANCH   1   2
BRANCH   1  17
ATOM     17  C   UNL     1      29.432   2.263   7.469  1.00  0.00     0.000 C 
BRANCH  17  18
ATOM     18  C   UNL     1      28.496   1.190   6.888  1.00  0.00     0.000 C 
BRANCH  18  19
ATOM     19  C   UNL     1      27.815   1.633   5.582  1.00  0.00     0.000 C 
BRANCH  19  20
ATOM     20  C   UNL     1      26.320   1.288   5.478  1.00  0.00     0.000 C 
BRANCH  20  21
ATOM     21  C   UNL     1      25.463   2.018   6.529  1.00  0.00     0.000 C 
BRANCH  21  22
ATOM     22  C   UNL     1      23.957   1.884   6.261  1.00  0.00    -0.000 C 
BRANCH  22  23
ATOM     23  C   UNL     1      23.301   3.224   5.880  1.00  0.00    -0.000 C 
BRANCH  23  24
ATOM     24  C   UNL     1      21.858   3.053   5.379  1.00  0.00    -0.000 C 
BRANCH  24  25
ATOM     25  C   UNL     1      21.333   1.620   5.572  1.00  0.00    -0.000 C 
BRANCH  25  26
ATOM     26  C   UNL     1      20.861   0.978   4.256  1.00  0.00    -0.000 C 
BRANCH  26  27
ATOM     27  C   UNL     1      21.752   1.357   3.060  1.00  0.00    -0.000 C 
BRANCH  27  28
ATOM     28  C   UNL     1      23.049   0.533   3.010  1.00  0.00    -0.000 C 
BRANCH  28  29
ATOM     29  C   UNL     1      24.069   1.092   2.006  1.00  0.00    -0.003 C 
ATOM     30  C   UNL     1      24.580   2.461   2.448  1.00  0.00     0.004 C 
ENDBRANCH  28  29
ENDBRANCH  27  28
ENDBRANCH  26  27
ENDBRANCH  25  26
ENDBRANCH  24  25
ENDBRANCH  23  24
ENDBRANCH  22  23
ENDBRANCH  21  22
ENDBRANCH  20  21
ENDBRANCH  19  20
ENDBRANCH  18  19
ENDBRANCH  17  18
ENDBRANCH   1  17
TORSDOF 26
ENDMDL
MODEL 3
REMARK VINA RESULT:    -3.608      9.681     13.634
REMARK INTER + INTRA:         -12.353
REMARK INTER:                  -7.107
REMARK INTRA:                  -5.246
REMARK UNBOUND:                -3.260
REMARK SMILES CCCCCCCCCCCCCCCCCCCCCCCCCCCC(=O)[O-]
REMARK SMILES IDX 15 1 16 2 17 3 18 4 19 5 20 6 21 7 22 8 23 9 24 10 25 11
REMARK SMILES IDX 26 12 27 13 28 14 29 15 30 16 14 17 13 18 12 19 11 20 10 21
REMARK SMILES IDX 9 22 8 23 7 24 6 25 5 26 4 27 3 28 2 29 1 30
REMARK H PARENT
REMARK Flexibility Score: inf
ROOT
ATOM      1  C   UNL     1      25.886   0.262   5.701  1.00  0.00     0.000 C 
ENDROOT
BRANCH   1   2
ATOM      2  C   UNL     1      24.936   1.035   6.635  1.00  0.00     0.000 C 
BRANCH   2   3
ATOM      3  C   UNL     1      24.959   2.555   6.388  1.00  0.00     0.000 C 
BRANCH   3   4
ATOM      4  C   UNL     1      23.902   2.999   5.352  1.00  0.00     0.000 C 
BRANCH   4   5
ATOM      5  C   UNL     1      22.465   3.062   5.904  1.00  0.00     0.000 C 
BRANCH   5   6
ATOM      6  C   UNL     1      21.352   2.968   4.846  1.00  0.00     0.000 C 
BRANCH   6   7
ATOM      7  C   UNL     1      20.708   1.573   4.779  1.00  0.00     0.000 C 
BRANCH   7   8
ATOM      8  C   UNL     1      21.224   0.632   5.881  1.00  0.00     0.000 C 
BRANCH   8   9
ATOM      9  C   UNL     1      21.926  -0.641   5.369  1.00  0.00     0.000 C 
BRANCH   9  10
ATOM     10  C   UNL     1      21.970  -0.745   3.829  1.00  0.00     0.000 C 
BRANCH  10  11
ATOM     11  C   UNL     1      23.406  -0.638   3.282  1.00  0.00     0.000 C 
BRANCH  11  12
ATOM     12  C   UNL     1      23.637   0.662   2.496  1.00  0.00     0.006 C 
BRANCH  12  13
ATOM     13  C   UNL     1      25.086   0.803   2.008  1.00  0.00     0.053 C 
BRANCH  13  14
ATOM     14  C   UNL     1      25.511   2.237   2.036  1.00  0.00     0.041 C 
ATOM     15  O   UNL     1      26.734   2.536   2.001  1.00  0.00    -0.550 OA
ATOM     16  O   UNL     1      24.556   3.247   2.056  1.00  0.00    -0.550 OA
ENDBRANCH  13  14
ENDBRANCH  12  13
ENDBRANCH  11  12
ENDBRANCH  10  11
ENDBRANCH   9  10
ENDBRANCH   8   9
ENDBRANCH   7   8
ENDBRANCH   6   7
ENDBRANCH   5   6
ENDBRANCH   4   5
ENDBRANCH   3   4
ENDBRANCH   2   3
ENDBRANCH   1   2
BRANCH   1  17
ATOM     17  C   UNL     1      27.104   1.071   5.218  1.00  0.00     0.000 C 
BRANCH  17  18
ATOM     18  C   UNL     1      28.429   0.307   5.390  1.00  0.00     0.000 C 
BRANCH  18  19
ATOM     19  C   UNL     1      29.500   1.124   6.133  1.00  0.00     0.000 C 
BRANCH  19  20
ATOM     20  C   UNL     1      28.979   1.950   7.321  1.00  0.00     0.000 C 
BRANCH  20  21
ATOM     21  C   UNL     1      28.653   1.087   8.553  1.00  0.00     0.000 C 
BRANCH  21  22
ATOM     22  C   UNL     1      27.480   1.644   9.373  1.00  0.00    -0.000 C 
BRANCH  22  23
ATOM     23  C   UNL     1      26.611   0.536   9.994  1.00  0.00    -0.000 C 
BRANCH  23  24
ATOM     24  C   UNL     1      26.626  -0.759   9.167  1.00  0.00    -0.000 C 
BRANCH  24  25
ATOM     25  C   UNL     1      25.520  -1.743   9.589  1.00  0.00    -0.000 C 
BRANCH  25  26
ATOM     26  C   UNL     1      25.365  -2.917   8.610  1.00  0.00    -0.000 C 
BRANCH  26  27
ATOM     27  C   UNL     1      24.445  -2.581   7.423  1.00  0.00    -0.000 C 
BRANCH  27  28
ATOM     28  C   UNL     1      23.184  -3.461   7.389  1.00  0.00    -0.000 C 
BRANCH  28  29
ATOM     29  C   UNL     1      22.058  -2.922   8.284  1.00  0.00    -0.003 C 
ATOM     30  C   UNL     1      20.816  -3.804   8.195  1.00  0.00     0.004 C 
ENDBRANCH  28  29
ENDBRANCH  27  28
ENDBRANCH  26  27
ENDBRANCH  25  26
ENDBRANCH  24  25
ENDBRANCH  23  24
ENDBRANCH  22  23
ENDBRANCH  21  22
ENDBRANCH  20  21
ENDBRANCH  19  20
ENDBRANCH  18  19
ENDBRANCH  17  18
ENDBRANCH   1  17
TORSDOF 26
ENDMDL
MODEL 4
REMARK VINA RESULT:    -3.594      8.995     12.569
REMARK INTER + INTRA:         -12.317
REMARK INTER:                  -7.996
REMARK INTRA:                  -4.321
REMARK UNBOUND:                -3.260
REMARK SMILES CCCCCCCCCCCCCCCCCCCCCCCCCCCC(=O)[O-]
REMARK SMILES IDX 15 1 16 2 17 3 18 4 19 5 20 6 21 7 22 8 23 9 24 10 25 11
REMARK SMILES IDX 26 12 27 13 28 14 29 15 30 16 14 17 13 18 12 19 11 20 10 21
REMARK SMILES IDX 9 22 8 23 7 24 6 25 5 26 4 27 3 28 2 29 1 30
REMARK H PARENT
REMARK Flexibility Score: inf
ROOT
ATOM      1  C   UNL     1      21.606  -0.117   5.035  1.00  0.00     0.000 C 
ENDROOT
BRANCH   1   2
ATOM      2  C   UNL     1      22.334  -1.194   4.209  1.00  0.00     0.000 C 
BRANCH   2   3
ATOM      3  C   UNL     1      23.821  -0.867   3.977  1.00  0.00     0.000 C 
BRANCH   3   4
ATOM      4  C   UNL     1      24.719  -1.355   5.136  1.00  0.00     0.000 C 
BRANCH   4   5
ATOM      5  C   UNL     1      25.138  -0.248   6.122  1.00  0.00     0.000 C 
BRANCH   5   6
ATOM      6  C   UNL     1      26.225   0.711   5.608  1.00  0.00     0.000 C 
BRANCH   6   7
ATOM      7  C   UNL     1      25.675   2.103   5.252  1.00  0.00     0.000 C 
BRANCH   7   8
ATOM      8  C   UNL     1      24.689   2.633   6.306  1.00  0.00     0.000 C 
BRANCH   8   9
ATOM      9  C   UNL     1      23.280   2.956   5.771  1.00  0.00     0.000 C 
BRANCH   9  10
ATOM     10  C   UNL     1      23.202   3.008   4.230  1.00  0.00     0.000 C 
BRANCH  10  11
ATOM     11  C   UNL     1      21.788   3.365   3.733  1.00  0.00     0.000 C 
BRANCH  11  12
ATOM     12  C   UNL     1      20.848   3.765   4.882  1.00  0.00     0.006 C 
BRANCH  12  13
ATOM     13  C   UNL     1      19.370   3.526   4.540  1.00  0.00     0.053 C 
BRANCH  13  14
ATOM     14  C   UNL     1      18.516   4.604   5.129  1.00  0.00     0.041 C 
ATOM     15  O   UNL     1      17.304   4.379   5.390  1.00  0.00    -0.550 OA
ATOM     16  O   UNL     1      19.067   5.843   5.431  1.00  0.00    -0.550 OA
ENDBRANCH  13  14
ENDBRANCH  12  13
ENDBRANCH  11  12
ENDBRANCH  10  11
ENDBRANCH   9  10
ENDBRANCH   8   9
ENDBRANCH   7   8
ENDBRANCH   6   7
ENDBRANCH   5   6
ENDBRANCH   4   5
ENDBRANCH   3   4
ENDBRANCH   2   3
ENDBRANCH   1   2
BRANCH   1  17
ATOM     17  C   UNL     1      21.324  -0.515   6.496  1.00  0.00     0.000 C 
BRANCH  17  18
ATOM     18  C   UNL     1      21.449  -2.031   6.733  1.00  0.00     0.000 C 
BRANCH  18  19
ATOM     19  C   UNL     1      20.737  -2.498   8.013  1.00  0.00     0.000 C 
BRANCH  19  20
ATOM     20  C   UNL     1      20.883  -3.996   8.328  1.00  0.00     0.000 C 
BRANCH  20  21
ATOM     21  C   UNL     1      22.061  -4.297   9.273  1.00  0.00     0.000 C 
BRANCH  21  22
ATOM     22  C   UNL     1      22.360  -3.136  10.234  1.00  0.00    -0.000 C 
BRANCH  22  23
ATOM     23  C   UNL     1      23.857  -2.781  10.286  1.00  0.00    -0.000 C 
BRANCH  23  24
ATOM     24  C   UNL     1      24.472  -2.612   8.888  1.00  0.00    -0.000 C 
BRANCH  24  25
ATOM     25  C   UNL     1      25.989  -2.355   8.938  1.00  0.00    -0.000 C 
BRANCH  25  26
ATOM     26  C   UNL     1      26.496  -2.073  10.362  1.00  0.00    -0.000 C 
BRANCH  26  27
ATOM     27  C   UNL     1      27.113  -0.671  10.505  1.00  0.00    -0.000 C 
BRANCH  27  28
ATOM     28  C   UNL     1      26.373   0.385   9.668  1.00  0.00    -0.000 C 
BRANCH  28  29
ATOM     29  C   UNL     1      27.324   1.401   9.017  1.00  0.00    -0.003 C 
ATOM     30  C   UNL     1      28.358   1.904  10.020  1.00  0.00     0.004 C 
ENDBRANCH  28  29
ENDBRANCH  27  28
ENDBRANCH  26  27
ENDBRANCH  25  26
ENDBRANCH  24  25
ENDBRANCH  23  24
ENDBRANCH  22  23
ENDBRANCH  21  22
ENDBRANCH  20  21
ENDBRANCH  19  20
ENDBRANCH  18  19
ENDBRANCH  17  18
ENDBRANCH   1  17
TORSDOF 26
ENDMDL
MODEL 5
REMARK VINA RESULT:    -3.582      8.512     13.307
REMARK INTER + INTRA:         -12.287
REMARK INTER:                  -8.711
REMARK INTRA:                  -3.576
REMARK UNBOUND:                -3.260
REMARK SMILES CCCCCCCCCCCCCCCCCCCCCCCCCCCC(=O)[O-]
REMARK SMILES IDX 15 1 16 2 17 3 18 4 19 5 20 6 21 7 22 8 23 9 24 10 25 11
REMARK SMILES IDX 26 12 27 13 28 14 29 15 30 16 14 17 13 18 12 19 11 20 10 21
REMARK SMILES IDX 9 22 8 23 7 24 6 25 5 26 4 27 3 28 2 29 1 30
REMARK H PARENT
REMARK Flexibility Score: inf
ROOT
ATOM      1  C   UNL     1      23.102   3.012   5.005  1.00  0.00     0.000 C 
ENDROOT
BRANCH   1   2
ATOM      2  C   UNL     1      24.116   3.147   6.156  1.00  0.00     0.000 C 
BRANCH   2   3
ATOM      3  C   UNL     1      24.848   1.827   6.466  1.00  0.00     0.000 C 
BRANCH   3   4
ATOM      4  C   UNL     1      26.372   2.022   6.626  1.00  0.00     0.000 C 
BRANCH   4   5
ATOM      5  C   UNL     1      27.218   1.289   5.568  1.00  0.00     0.000 C 
BRANCH   5   6
ATOM      6  C   UNL     1      26.749  -0.136   5.226  1.00  0.00     0.000 C 
BRANCH   6   7
ATOM      7  C   UNL     1      27.083  -1.155   6.328  1.00  0.00     0.000 C 
BRANCH   7   8
ATOM      8  C   UNL     1      25.832  -1.640   7.080  1.00  0.00     0.000 C 
BRANCH   8   9
ATOM      9  C   UNL     1      25.781  -1.251   8.571  1.00  0.00     0.000 C 
BRANCH   9  10
ATOM     10  C   UNL     1      27.089  -0.615   9.088  1.00  0.00     0.000 C 
BRANCH  10  11
ATOM     11  C   UNL     1      26.823   0.551  10.057  1.00  0.00     0.000 C 
BRANCH  11  12
ATOM     12  C   UNL     1      27.894   1.649   9.960  1.00  0.00     0.006 C 
BRANCH  12  13
ATOM     13  C   UNL     1      29.021   1.284   8.983  1.00  0.00     0.053 C 
BRANCH  13  14
ATOM     14  C   UNL     1      29.753   2.514   8.545  1.00  0.00     0.041 C 
ATOM     15  O   UNL     1      30.207   3.319   9.402  1.00  0.00    -0.550 OA
ATOM     16  O   UNL     1      29.971   2.752   7.194  1.00  0.00    -0.550 OA
ENDBRANCH  13  14
ENDBRANCH  12  13
ENDBRANCH  11  12
ENDBRANCH  10  11
ENDBRANCH   9  10
ENDBRANCH   8   9
ENDBRANCH   7   8
ENDBRANCH   6   7
ENDBRANCH   5   6
ENDBRANCH   4   5
ENDBRANCH   3   4
ENDBRANCH   2   3
ENDBRANCH   1   2
BRANCH   1  17
ATOM     17  C   UNL     1      21.631   3.190   5.427  1.00  0.00     0.000 C 
BRANCH  17  18
ATOM     18  C   UNL     1      20.771   1.952   5.114  1.00  0.00     0.000 C 
BRANCH  18  19
ATOM     19  C   UNL     1      21.330   0.661   5.735  1.00  0.00     0.000 C 
BRANCH  19  20
ATOM     20  C   UNL     1      21.791  -0.400   4.722  1.00  0.00     0.000 C 
BRANCH  20  21
ATOM     21  C   UNL     1      21.804  -1.823   5.311  1.00  0.00     0.000 C 
BRANCH  21  22
ATOM     22  C   UNL     1      22.133  -1.839   6.811  1.00  0.00    -0.000 C 
BRANCH  22  23
ATOM     23  C   UNL     1      20.952  -2.327   7.671  1.00  0.00    -0.000 C 
BRANCH  23  24
ATOM     24  C   UNL     1      21.329  -3.515   8.570  1.00  0.00    -0.000 C 
BRANCH  24  25
ATOM     25  C   UNL     1      20.399  -4.725   8.368  1.00  0.00    -0.000 C 
BRANCH  25  26
ATOM     26  C   UNL     1      20.104  -5.007   6.885  1.00  0.00    -0.000 C 
BRANCH  26  27
ATOM     27  C   UNL     1      18.598  -5.110   6.590  1.00  0.00    -0.000 C 
BRANCH  27  28
ATOM     28  C   UNL     1      17.734  -4.644   7.773  1.00  0.00    -0.000 C 
BRANCH  28  29
ATOM     29  C   UNL     1      16.767  -5.731   8.267  1.00  0.00    -0.003 C 
ATOM     30  C   UNL     1      16.898  -5.938   9.773  1.00  0.00     0.004 C 
ENDBRANCH  28  29
ENDBRANCH  27  28
ENDBRANCH  26  27
ENDBRANCH  25  26
ENDBRANCH  24  25
ENDBRANCH  23  24
ENDBRANCH  22  23
ENDBRANCH  21  22
ENDBRANCH  20  21
ENDBRANCH  19  20
ENDBRANCH  18  19
ENDBRANCH  17  18
ENDBRANCH   1  17
TORSDOF 26
ENDMDL
MODEL 6
REMARK VINA RESULT:    -3.574      9.317     13.375
REMARK INTER + INTRA:         -12.267
REMARK INTER:                  -7.648
REMARK INTRA:                  -4.620
REMARK UNBOUND:                -3.260
REMARK SMILES CCCCCCCCCCCCCCCCCCCCCCCCCCCC(=O)[O-]
REMARK SMILES IDX 15 1 16 2 17 3 18 4 19 5 20 6 21 7 22 8 23 9 24 10 25 11
REMARK SMILES IDX 26 12 27 13 28 14 29 15 30 16 14 17 13 18 12 19 11 20 10 21
REMARK SMILES IDX 9 22 8 23 7 24 6 25 5 26 4 27 3 28 2 29 1 30
REMARK H PARENT
REMARK Flexibility Score: inf
ROOT
ATOM      1  C   UNL     1      21.638  -0.395   5.574  1.00  0.00     0.000 C 
ENDROOT
BRANCH   1   2
ATOM      2  C   UNL     1      21.304   1.057   5.966  1.00  0.00     0.000 C 
BRANCH   2   3
ATOM      3  C   UNL     1      21.735   2.079   4.897  1.00  0.00     0.000 C 
BRANCH   3   4
ATOM      4  C   UNL     1      22.481   3.288   5.506  1.00  0.00     0.000 C 
BRANCH   4   5
ATOM      5  C   UNL     1      23.924   2.982   5.950  1.00  0.00     0.000 C 
BRANCH   5   6
ATOM      6  C   UNL     1      24.783   2.233   4.918  1.00  0.00     0.000 C 
BRANCH   6   7
ATOM      7  C   UNL     1      25.630   1.113   5.546  1.00  0.00     0.000 C 
BRANCH   7   8
ATOM      8  C   UNL     1      25.458   1.030   7.072  1.00  0.00     0.000 C 
BRANCH   8   9
ATOM      9  C   UNL     1      26.771   0.866   7.863  1.00  0.00     0.000 C 
BRANCH   9  10
ATOM     10  C   UNL     1      26.572   0.855   9.394  1.00  0.00     0.000 C 
BRANCH  10  11
ATOM     11  C   UNL     1      27.558  -0.094  10.100  1.00  0.00     0.000 C 
BRANCH  11  12
ATOM     12  C   UNL     1      28.434   0.633  11.132  1.00  0.00     0.006 C 
BRANCH  12  13
ATOM     13  C   UNL     1      28.798   2.059  10.692  1.00  0.00     0.053 C 
BRANCH  13  14
ATOM     14  C   UNL     1      29.928   2.031   9.711  1.00  0.00     0.041 C 
ATOM     15  O   UNL     1      30.885   1.227   9.871  1.00  0.00    -0.550 OA
ATOM     16  O   UNL     1      29.905   2.860   8.597  1.00  0.00    -0.550 OA
ENDBRANCH  13  14
ENDBRANCH  12  13
ENDBRANCH  11  12
ENDBRANCH  10  11
ENDBRANCH   9  10
ENDBRANCH   8   9
ENDBRANCH   7   8
ENDBRANCH   6   7
ENDBRANCH   5   6
ENDBRANCH   4   5
ENDBRANCH   3   4
ENDBRANCH   2   3
ENDBRANCH   1   2
BRANCH   1  17
ATOM     17  C   UNL     1      22.458  -0.534   4.277  1.00  0.00     0.000 C 
BRANCH  17  18
ATOM     18  C   UNL     1      23.474  -1.688   4.339  1.00  0.00     0.000 C 
BRANCH  18  19
ATOM     19  C   UNL     1      23.589  -2.310   5.741  1.00  0.00     0.000 C 
BRANCH  19  20
ATOM     20  C   UNL     1      25.027  -2.489   6.257  1.00  0.00     0.000 C 
BRANCH  20  21
ATOM     21  C   UNL     1      25.103  -3.353   7.528  1.00  0.00     0.000 C 
BRANCH  21  22
ATOM     22  C   UNL     1      25.062  -2.517   8.816  1.00  0.00    -0.000 C 
BRANCH  22  23
ATOM     23  C   UNL     1      23.918  -2.936   9.757  1.00  0.00    -0.000 C 
BRANCH  23  24
ATOM     24  C   UNL     1      23.247  -4.249   9.324  1.00  0.00    -0.000 C 
BRANCH  24  25
ATOM     25  C   UNL     1      21.726  -4.104   9.146  1.00  0.00    -0.000 C 
BRANCH  25  26
ATOM     26  C   UNL     1      21.316  -2.704   8.660  1.00  0.00    -0.000 C 
BRANCH  26  27
ATOM     27  C   UNL     1      20.080  -2.733   7.744  1.00  0.00    -0.000 C 
BRANCH  27  28
ATOM     28  C   UNL     1      20.220  -3.749   6.599  1.00  0.00    -0.000 C 
BRANCH  28  29
ATOM     29  C   UNL     1      19.075  -4.773   6.570  1.00  0.00    -0.003 C 
ATOM     30  C   UNL     1      17.970  -4.388   7.549  1.00  0.00     0.004 C 
ENDBRANCH  28  29
ENDBRANCH  27  28
ENDBRANCH  26  27
ENDBRANCH  25  26
ENDBRANCH  24  25
ENDBRANCH  23  24
ENDBRANCH  22  23
ENDBRANCH  21  22
ENDBRANCH  20  21
ENDBRANCH  19  20
ENDBRANCH  18  19
ENDBRANCH  17  18
ENDBRANCH   1  17
TORSDOF 26
ENDMDL
MODEL 7
REMARK VINA RESULT:    -3.508      9.005     12.712
REMARK INTER + INTRA:         -12.101
REMARK INTER:                  -7.043
REMARK INTRA:                  -5.059
REMARK UNBOUND:                -3.260
REMARK SMILES CCCCCCCCCCCCCCCCCCCCCCCCCCCC(=O)[O-]
REMARK SMILES IDX 15 1 16 2 17 3 18 4 19 5 20 6 21 7 22 8 23 9 24 10 25 11
REMARK SMILES IDX 26 12 27 13 28 14 29 15 30 16 14 17 13 18 12 19 11 20 10 21
REMARK SMILES IDX 9 22 8 23 7 24 6 25 5 26 4 27 3 28 2 29 1 30
REMARK H PARENT
REMARK Flexibility Score: inf
ROOT
ATOM      1  C   UNL     1      25.469  -0.773   6.861  1.00  0.00     0.000 C 
ENDROOT
BRANCH   1   2
ATOM      2  C   UNL     1      25.757   0.445   7.758  1.00  0.00     0.000 C 
BRANCH   2   3
ATOM      3  C   UNL     1      26.840   1.374   7.178  1.00  0.00     0.000 C 
BRANCH   3   4
ATOM      4  C   UNL     1      27.176   1.039   5.708  1.00  0.00     0.000 C 
BRANCH   4   5
ATOM      5  C   UNL     1      26.530   1.987   4.680  1.00  0.00     0.000 C 
BRANCH   5   6
ATOM      6  C   UNL     1      25.482   1.340   3.759  1.00  0.00     0.000 C 
BRANCH   6   7
ATOM      7  C   UNL     1      24.050   1.816   4.056  1.00  0.00     0.000 C 
BRANCH   7   8
ATOM      8  C   UNL     1      23.977   2.727   5.294  1.00  0.00     0.000 C 
BRANCH   8   9
ATOM      9  C   UNL     1      22.591   2.796   5.966  1.00  0.00     0.000 C 
BRANCH   9  10
ATOM     10  C   UNL     1      21.691   1.582   5.651  1.00  0.00     0.000 C 
BRANCH  10  11
ATOM     11  C   UNL     1      20.413   1.990   4.894  1.00  0.00     0.000 C 
BRANCH  11  12
ATOM     12  C   UNL     1      20.249   3.515   4.801  1.00  0.00     0.006 C 
BRANCH  12  13
ATOM     13  C   UNL     1      20.012   3.993   3.361  1.00  0.00     0.053 C 
BRANCH  13  14
ATOM     14  C   UNL     1      21.256   3.831   2.544  1.00  0.00     0.041 C 
ATOM     15  O   UNL     1      21.357   2.875   1.729  1.00  0.00    -0.550 OA
ATOM     16  O   UNL     1      22.286   4.757   2.650  1.00  0.00    -0.550 OA
ENDBRANCH  13  14
ENDBRANCH  12  13
ENDBRANCH  11  12
ENDBRANCH  10  11
ENDBRANCH   9  10
ENDBRANCH   8   9
ENDBRANCH   7   8
ENDBRANCH   6   7
ENDBRANCH   5   6
ENDBRANCH   4   5
ENDBRANCH   3   4
ENDBRANCH   2   3
ENDBRANCH   1   2
BRANCH   1  17
ATOM     17  C   UNL     1      23.975  -1.021   6.581  1.00  0.00     0.000 C 
BRANCH  17  18
ATOM     18  C   UNL     1      23.690  -2.461   6.120  1.00  0.00     0.000 C 
BRANCH  18  19
ATOM     19  C   UNL     1      22.235  -2.893   6.370  1.00  0.00     0.000 C 
BRANCH  19  20
ATOM     20  C   UNL     1      21.366  -1.856   7.102  1.00  0.00     0.000 C 
BRANCH  20  21
ATOM     21  C   UNL     1      20.138  -2.482   7.788  1.00  0.00     0.000 C 
BRANCH  21  22
ATOM     22  C   UNL     1      19.746  -3.836   7.178  1.00  0.00    -0.000 C 
BRANCH  22  23
ATOM     23  C   UNL     1      19.546  -4.930   8.243  1.00  0.00    -0.000 C 
BRANCH  23  24
ATOM     24  C   UNL     1      20.530  -6.100   8.079  1.00  0.00    -0.000 C 
BRANCH  24  25
ATOM     25  C   UNL     1      21.406  -6.313   9.326  1.00  0.00    -0.000 C 
BRANCH  25  26
ATOM     26  C   UNL     1      21.712  -5.001  10.068  1.00  0.00    -0.000 C 
BRANCH  26  27
ATOM     27  C   UNL     1      23.060  -4.387   9.655  1.00  0.00    -0.000 C 
BRANCH  27  28
ATOM     28  C   UNL     1      23.199  -2.921  10.096  1.00  0.00    -0.000 C 
BRANCH  28  29
ATOM     29  C   UNL     1      24.659  -2.444  10.126  1.00  0.00    -0.003 C 
ATOM     30  C   UNL     1      25.567  -3.412   9.372  1.00  0.00     0.004 C 
ENDBRANCH  28  29
ENDBRANCH  27  28
ENDBRANCH  26  27
ENDBRANCH  25  26
ENDBRANCH  24  25
ENDBRANCH  23  24
ENDBRANCH  22  23
ENDBRANCH  21  22
ENDBRANCH  20  21
ENDBRANCH  19  20
ENDBRANCH  18  19
ENDBRANCH  17  18
ENDBRANCH   1  17
TORSDOF 26
ENDMDL
MODEL 8
REMARK VINA RESULT:    -3.497      9.428     13.015
REMARK INTER + INTRA:         -12.073
REMARK INTER:                  -6.857
REMARK INTRA:                  -5.216
REMARK UNBOUND:                -3.260
REMARK SMILES CCCCCCCCCCCCCCCCCCCCCCCCCCCC(=O)[O-]
REMARK SMILES IDX 15 1 16 2 17 3 18 4 19 5 20 6 21 7 22 8 23 9 24 10 25 11
REMARK SMILES IDX 26 12 27 13 28 14 29 15 30 16 14 17 13 18 12 19 11 20 10 21
REMARK SMILES IDX 9 22 8 23 7 24 6 25 5 26 4 27 3 28 2 29 1 30
REMARK H PARENT
REMARK Flexibility Score: inf
ROOT
ATOM      1  C   UNL     1      28.691   0.197   6.220  1.00  0.00     0.000 C 
ENDROOT
BRANCH   1   2
ATOM      2  C   UNL     1      29.525   0.737   7.396  1.00  0.00     0.000 C 
BRANCH   2   3
ATOM      3  C   UNL     1      28.987   2.071   7.948  1.00  0.00     0.000 C 
BRANCH   3   4
ATOM      4  C   UNL     1      28.760   2.026   9.476  1.00  0.00     0.000 C 
BRANCH   4   5
ATOM      5  C   UNL     1      27.363   1.527   9.893  1.00  0.00     0.000 C 
BRANCH   5   6
ATOM      6  C   UNL     1      27.295   0.050  10.319  1.00  0.00     0.000 C 
BRANCH   6   7
ATOM      7  C   UNL     1      25.982  -0.632   9.898  1.00  0.00     0.000 C 
BRANCH   7   8
ATOM      8  C   UNL     1      26.107  -2.163   9.839  1.00  0.00     0.000 C 
BRANCH   8   9
ATOM      9  C   UNL     1      24.767  -2.925   9.889  1.00  0.00     0.000 C 
BRANCH   9  10
ATOM     10  C   UNL     1      24.577  -3.917   8.722  1.00  0.00     0.000 C 
BRANCH  10  11
ATOM     11  C   UNL     1      24.295  -3.197   7.390  1.00  0.00     0.000 C 
BRANCH  11  12
ATOM     12  C   UNL     1      22.950  -2.453   7.400  1.00  0.00     0.006 C 
BRANCH  12  13
ATOM     13  C   UNL     1      21.778  -3.354   6.985  1.00  0.00     0.053 C 
BRANCH  13  14
ATOM     14  C   UNL     1      20.501  -2.862   7.590  1.00  0.00     0.041 C 
ATOM     15  O   UNL     1      20.423  -1.685   8.033  1.00  0.00    -0.550 OA
ATOM     16  O   UNL     1      19.383  -3.687   7.627  1.00  0.00    -0.550 OA
ENDBRANCH  13  14
ENDBRANCH  12  13
ENDBRANCH  11  12
ENDBRANCH  10  11
ENDBRANCH   9  10
ENDBRANCH   8   9
ENDBRANCH   7   8
ENDBRANCH   6   7
ENDBRANCH   5   6
ENDBRANCH   4   5
ENDBRANCH   3   4
ENDBRANCH   2   3
ENDBRANCH   1   2
BRANCH   1  17
ATOM     17  C   UNL     1      27.554  -0.759   6.629  1.00  0.00     0.000 C 
BRANCH  17  18
ATOM     18  C   UNL     1      26.192  -0.345   6.045  1.00  0.00     0.000 C 
BRANCH  18  19
ATOM     19  C   UNL     1      25.532   0.805   6.824  1.00  0.00     0.000 C 
BRANCH  19  20
ATOM     20  C   UNL     1      25.476   2.148   6.076  1.00  0.00     0.000 C 
BRANCH  20  21
ATOM     21  C   UNL     1      25.869   2.024   4.593  1.00  0.00     0.000 C 
BRANCH  21  22
ATOM     22  C   UNL     1      24.683   2.257   3.645  1.00  0.00    -0.000 C 
BRANCH  22  23
ATOM     23  C   UNL     1      24.451   1.076   2.685  1.00  0.00    -0.000 C 
BRANCH  23  24
ATOM     24  C   UNL     1      23.871  -0.158   3.395  1.00  0.00    -0.000 C 
BRANCH  24  25
ATOM     25  C   UNL     1      22.409  -0.432   3.002  1.00  0.00    -0.000 C 
BRANCH  25  26
ATOM     26  C   UNL     1      21.411   0.003   4.088  1.00  0.00    -0.000 C 
BRANCH  26  27
ATOM     27  C   UNL     1      22.087   0.266   5.444  1.00  0.00    -0.000 C 
BRANCH  27  28
ATOM     28  C   UNL     1      21.769   1.665   5.998  1.00  0.00    -0.000 C 
BRANCH  28  29
ATOM     29  C   UNL     1      20.843   2.473   5.076  1.00  0.00    -0.003 C 
ATOM     30  C   UNL     1      21.520   3.758   4.608  1.00  0.00     0.004 C 
ENDBRANCH  28  29
ENDBRANCH  27  28
ENDBRANCH  26  27
ENDBRANCH  25  26
ENDBRANCH  24  25
ENDBRANCH  23  24
ENDBRANCH  22  23
ENDBRANCH  21  22
ENDBRANCH  20  21
ENDBRANCH  19  20
ENDBRANCH  18  19
ENDBRANCH  17  18
ENDBRANCH   1  17
TORSDOF 26
ENDMDL
MODEL 9
REMARK VINA RESULT:    -3.476      9.334     12.894
REMARK INTER + INTRA:         -12.020
REMARK INTER:                  -6.720
REMARK INTRA:                  -5.300
REMARK UNBOUND:                -3.260
REMARK SMILES CCCCCCCCCCCCCCCCCCCCCCCCCCCC(=O)[O-]
REMARK SMILES IDX 15 1 16 2 17 3 18 4 19 5 20 6 21 7 22 8 23 9 24 10 25 11
REMARK SMILES IDX 26 12 27 13 28 14 29 15 30 16 14 17 13 18 12 19 11 20 10 21
REMARK SMILES IDX 9 22 8 23 7 24 6 25 5 26 4 27 3 28 2 29 1 30
REMARK H PARENT
REMARK Flexibility Score: inf
ROOT
ATOM      1  C   UNL     1      26.074  -0.531   9.636  1.00  0.00     0.000 C 
ENDROOT
BRANCH   1   2
ATOM      2  C   UNL     1      27.510  -0.187   9.196  1.00  0.00     0.000 C 
BRANCH   2   3
ATOM      3  C   UNL     1      27.848   1.305   9.373  1.00  0.00     0.000 C 
BRANCH   3   4
ATOM      4  C   UNL     1      28.326   1.960   8.058  1.00  0.00     0.000 C 
BRANCH   4   5
ATOM      5  C   UNL     1      27.944   1.178   6.787  1.00  0.00     0.000 C 
BRANCH   5   6
ATOM      6  C   UNL     1      26.931   1.879   5.866  1.00  0.00     0.000 C 
BRANCH   6   7
ATOM      7  C   UNL     1      25.611   2.220   6.579  1.00  0.00     0.000 C 
BRANCH   7   8
ATOM      8  C   UNL     1      24.565   1.101   6.448  1.00  0.00     0.000 C 
BRANCH   8   9
ATOM      9  C   UNL     1      24.431   0.501   5.035  1.00  0.00     0.000 C 
BRANCH   9  10
ATOM     10  C   UNL     1      23.042  -0.110   4.752  1.00  0.00     0.000 C 
BRANCH  10  11
ATOM     11  C   UNL     1      22.036   0.192   5.878  1.00  0.00     0.000 C 
BRANCH  11  12
ATOM     12  C   UNL     1      20.917   1.143   5.424  1.00  0.00     0.006 C 
BRANCH  12  13
ATOM     13  C   UNL     1      21.338   2.016   4.232  1.00  0.00     0.053 C 
BRANCH  13  14
ATOM     14  C   UNL     1      21.651   3.407   4.687  1.00  0.00     0.041 C 
ATOM     15  O   UNL     1      22.849   3.775   4.816  1.00  0.00    -0.550 OA
ATOM     16  O   UNL     1      20.623   4.310   4.929  1.00  0.00    -0.550 OA
ENDBRANCH  13  14
ENDBRANCH  12  13
ENDBRANCH  11  12
ENDBRANCH  10  11
ENDBRANCH   9  10
ENDBRANCH   8   9
ENDBRANCH   7   8
ENDBRANCH   6   7
ENDBRANCH   5   6
ENDBRANCH   4   5
ENDBRANCH   3   4
ENDBRANCH   2   3
ENDBRANCH   1   2
BRANCH   1  17
ATOM     17  C   UNL     1      25.363  -1.564   8.741  1.00  0.00     0.000 C 
BRANCH  17  18
ATOM     18  C   UNL     1      26.337  -2.323   7.823  1.00  0.00     0.000 C 
BRANCH  18  19
ATOM     19  C   UNL     1      25.858  -2.386   6.363  1.00  0.00     0.000 C 
BRANCH  19  20
ATOM     20  C   UNL     1      24.687  -3.349   6.104  1.00  0.00     0.000 C 
BRANCH  20  21
ATOM     21  C   UNL     1      24.821  -4.675   6.873  1.00  0.00     0.000 C 
BRANCH  21  22
ATOM     22  C   UNL     1      23.522  -5.494   6.872  1.00  0.00    -0.000 C 
BRANCH  22  23
ATOM     23  C   UNL     1      23.028  -5.823   8.293  1.00  0.00    -0.000 C 
BRANCH  23  24
ATOM     24  C   UNL     1      23.238  -4.660   9.275  1.00  0.00    -0.000 C 
BRANCH  24  25
ATOM     25  C   UNL     1      21.964  -3.821   9.477  1.00  0.00    -0.000 C 
BRANCH  25  26
ATOM     26  C   UNL     1      21.881  -2.626   8.513  1.00  0.00    -0.000 C 
BRANCH  26  27
ATOM     27  C   UNL     1      20.535  -2.556   7.771  1.00  0.00    -0.000 C 
BRANCH  27  28
ATOM     28  C   UNL     1      19.870  -3.935   7.627  1.00  0.00    -0.000 C 
BRANCH  28  29
ATOM     29  C   UNL     1      19.798  -4.411   6.168  1.00  0.00    -0.003 C 
ATOM     30  C   UNL     1      20.747  -3.609   5.282  1.00  0.00     0.004 C 
ENDBRANCH  28  29
ENDBRANCH  27  28
ENDBRANCH  26  27
ENDBRANCH  25  26
ENDBRANCH  24  25
ENDBRANCH  23  24
ENDBRANCH  22  23
ENDBRANCH  21  22
ENDBRANCH  20  21
ENDBRANCH  19  20
ENDBRANCH  18  19
ENDBRANCH  17  18
ENDBRANCH   1  17
TORSDOF 26
ENDMDL
