MODEL 1
REMARK VINA RESULT:    -5.431      0.000      0.000
REMARK INTER + INTRA:         -17.247
REMARK INTER:                 -13.686
REMARK INTRA:                  -3.561
REMARK UNBOUND:                -3.561
REMARK SMILES CCCCCCCCCCCCCCCCCCCCCCCCCCCC(=O)[O-]
REMARK SMILES IDX 15 1 16 2 17 3 18 4 19 5 20 6 21 7 22 8 23 9 24 10 25 11
REMARK SMILES IDX 26 12 27 13 28 14 29 15 30 16 14 17 13 18 12 19 11 20 10 21
REMARK SMILES IDX 9 22 8 23 7 24 6 25 5 26 4 27 3 28 2 29 1 30
REMARK H PARENT
REMARK Flexibility Score: inf
ROOT
ATOM      1  C   UNL     1      12.164  24.659  -9.418  1.00  0.00     0.000 C 
ENDROOT
BRANCH   1   2
ATOM      2  C   UNL     1      12.187  23.881  -8.092  1.00  0.00     0.000 C 
BRANCH   2   3
ATOM      3  C   UNL     1      13.585  23.341  -7.742  1.00  0.00     0.000 C 
BRANCH   3   4
ATOM      4  C   UNL     1      13.673  22.565  -6.414  1.00  0.00     0.000 C 
BRANCH   4   5
ATOM      5  C   UNL     1      14.902  22.893  -5.542  1.00  0.00     0.000 C 
BRANCH   5   6
ATOM      6  C   UNL     1      16.219  23.077  -6.315  1.00  0.00     0.000 C 
BRANCH   6   7
ATOM      7  C   UNL     1      17.200  24.026  -5.609  1.00  0.00     0.000 C 
BRANCH   7   8
ATOM      8  C   UNL     1      16.745  25.487  -5.756  1.00  0.00     0.000 C 
BRANCH   8   9
ATOM      9  C   UNL     1      17.311  26.399  -4.657  1.00  0.00     0.000 C 
BRANCH   9  10
ATOM     10  C   UNL     1      16.608  26.205  -3.303  1.00  0.00     0.000 C 
BRANCH  10  11
ATOM     11  C   UNL     1      15.073  26.336  -3.419  1.00  0.00     0.000 C 
BRANCH  11  12
ATOM     12  C   UNL     1      14.308  25.615  -2.293  1.00  0.00     0.006 C 
BRANCH  12  13
ATOM     13  C   UNL     1      14.688  24.136  -2.123  1.00  0.00     0.053 C 
BRANCH  13  14
ATOM     14  C   UNL     1      13.493  23.267  -1.868  1.00  0.00     0.041 C 
ATOM     15  O   UNL     1      12.782  22.865  -2.829  1.00  0.00    -0.550 OA
ATOM     16  O   UNL     1      13.157  22.906  -0.570  1.00  0.00    -0.550 OA
ENDBRANCH  13  14
ENDBRANCH  12  13
ENDBRANCH  11  12
ENDBRANCH  10  11
ENDBRANCH   9  10
ENDBRANCH   8   9
ENDBRANCH   7   8
ENDBRANCH   6   7
ENDBRANCH   5   6
ENDBRANCH   4   5
ENDBRANCH   3   4
ENDBRANCH   2   3
ENDBRANCH   1   2
BRANCH   1  17
ATOM     17  C   UNL     1      11.350  23.948 -10.512  1.00  0.00     0.000 C 
BRANCH  17  18
ATOM     18  C   UNL     1      10.460  22.791 -10.015  1.00  0.00     0.000 C 
BRANCH  18  19
ATOM     19  C   UNL     1       9.042  23.233  -9.592  1.00  0.00     0.000 C 
BRANCH  19  20
ATOM     20  C   UNL     1       7.992  22.136  -9.846  1.00  0.00     0.000 C 
BRANCH  20  21
ATOM     21  C   UNL     1       6.591  22.710 -10.122  1.00  0.00     0.000 C 
BRANCH  21  22
ATOM     22  C   UNL     1       6.128  23.685  -9.025  1.00  0.00    -0.000 C 
BRANCH  22  23
ATOM     23  C   UNL     1       5.532  22.966  -7.804  1.00  0.00    -0.000 C 
BRANCH  23  24
ATOM     24  C   UNL     1       5.734  23.746  -6.496  1.00  0.00    -0.000 C 
BRANCH  24  25
ATOM     25  C   UNL     1       6.749  23.037  -5.586  1.00  0.00    -0.000 C 
BRANCH  25  26
ATOM     26  C   UNL     1       8.125  22.871  -6.252  1.00  0.00    -0.000 C 
BRANCH  26  27
ATOM     27  C   UNL     1       8.886  21.639  -5.739  1.00  0.00    -0.000 C 
BRANCH  27  28
ATOM     28  C   UNL     1      10.219  21.468  -6.478  1.00  0.00    -0.000 C 
BRANCH  28  29
ATOM     29  C   UNL     1      10.181  20.244  -7.400  1.00  0.00    -0.003 C 
ATOM     30  C   UNL     1      11.584  19.857  -7.859  1.00  0.00     0.004 C 
ENDBRANCH  28  29
ENDBRANCH  27  28
ENDBRANCH  26  27
ENDBRANCH  25  26
ENDBRANCH  24  25
ENDBRANCH  23  24
ENDBRANCH  22  23
ENDBRANCH  21  22
ENDBRANCH  20  21
ENDBRANCH  19  20
ENDBRANCH  18  19
ENDBRANCH  17  18
ENDBRANCH   1  17
TORSDOF 26
ENDMDL
MODEL 2
REMARK VINA RESULT:    -5.182      2.813      5.608
REMARK INTER + INTRA:         -16.619
REMARK INTER:                 -14.021
REMARK INTRA:                  -2.598
REMARK UNBOUND:                -3.561
REMARK SMILES CCCCCCCCCCCCCCCCCCCCCCCCCCCC(=O)[O-]
REMARK SMILES IDX 15 1 16 2 17 3 18 4 19 5 20 6 21 7 22 8 23 9 24 10 25 11
REMARK SMILES IDX 26 12 27 13 28 14 29 15 30 16 14 17 13 18 12 19 11 20 10 21
REMARK SMILES IDX 9 22 8 23 7 24 6 25 5 26 4 27 3 28 2 29 1 30
REMARK H PARENT
REMARK Flexibility Score: inf
ROOT
ATOM      1  C   UNL     1       9.780  21.922  -6.291  1.00  0.00     0.000 C 
ENDROOT
BRANCH   1   2
ATOM      2  C   UNL     1      10.181  21.002  -7.456  1.00  0.00     0.000 C 
BRANCH   2   3
ATOM      3  C   UNL     1      10.502  21.778  -8.745  1.00  0.00     0.000 C 
BRANCH   3   4
ATOM      4  C   UNL     1      10.656  23.301  -8.570  1.00  0.00     0.000 C 
BRANCH   4   5
ATOM      5  C   UNL     1      12.005  23.883  -9.039  1.00  0.00     0.000 C 
BRANCH   5   6
ATOM      6  C   UNL     1      13.033  24.125  -7.920  1.00  0.00     0.000 C 
BRANCH   6   7
ATOM      7  C   UNL     1      13.341  22.859  -7.105  1.00  0.00     0.000 C 
BRANCH   7   8
ATOM      8  C   UNL     1      14.826  22.484  -7.224  1.00  0.00     0.000 C 
BRANCH   8   9
ATOM      9  C   UNL     1      15.763  23.659  -6.907  1.00  0.00     0.000 C 
BRANCH   9  10
ATOM     10  C   UNL     1      16.680  23.380  -5.703  1.00  0.00     0.000 C 
BRANCH  10  11
ATOM     11  C   UNL     1      15.954  23.591  -4.356  1.00  0.00     0.000 C 
BRANCH  11  12
ATOM     12  C   UNL     1      15.571  25.058  -4.087  1.00  0.00     0.006 C 
BRANCH  12  13
ATOM     13  C   UNL     1      14.824  25.280  -2.763  1.00  0.00     0.053 C 
BRANCH  13  14
ATOM     14  C   UNL     1      15.291  26.511  -2.045  1.00  0.00     0.041 C 
ATOM     15  O   UNL     1      16.017  26.411  -1.019  1.00  0.00    -0.550 OA
ATOM     16  O   UNL     1      14.919  27.768  -2.501  1.00  0.00    -0.550 OA
ENDBRANCH  13  14
ENDBRANCH  12  13
ENDBRANCH  11  12
ENDBRANCH  10  11
ENDBRANCH   9  10
ENDBRANCH   8   9
ENDBRANCH   7   8
ENDBRANCH   6   7
ENDBRANCH   5   6
ENDBRANCH   4   5
ENDBRANCH   3   4
ENDBRANCH   2   3
ENDBRANCH   1   2
BRANCH   1  17
ATOM     17  C   UNL     1       8.380  21.606  -5.738  1.00  0.00     0.000 C 
BRANCH  17  18
ATOM     18  C   UNL     1       7.579  22.830  -5.252  1.00  0.00     0.000 C 
BRANCH  18  19
ATOM     19  C   UNL     1       6.499  23.305  -6.249  1.00  0.00     0.000 C 
BRANCH  19  20
ATOM     20  C   UNL     1       6.912  24.594  -6.983  1.00  0.00     0.000 C 
BRANCH  20  21
ATOM     21  C   UNL     1       6.938  24.423  -8.512  1.00  0.00     0.000 C 
BRANCH  21  22
ATOM     22  C   UNL     1       7.083  22.951  -8.938  1.00  0.00    -0.000 C 
BRANCH  22  23
ATOM     23  C   UNL     1       6.129  22.566 -10.081  1.00  0.00    -0.000 C 
BRANCH  23  24
ATOM     24  C   UNL     1       4.943  23.532 -10.217  1.00  0.00    -0.000 C 
BRANCH  24  25
ATOM     25  C   UNL     1       4.962  24.236 -11.583  1.00  0.00    -0.000 C 
BRANCH  25  26
ATOM     26  C   UNL     1       3.836  25.273 -11.729  1.00  0.00    -0.000 C 
BRANCH  26  27
ATOM     27  C   UNL     1       4.200  26.407 -12.701  1.00  0.00    -0.000 C 
BRANCH  27  28
ATOM     28  C   UNL     1       3.859  27.776 -12.101  1.00  0.00    -0.000 C 
BRANCH  28  29
ATOM     29  C   UNL     1       5.128  28.507 -11.648  1.00  0.00    -0.003 C 
ATOM     30  C   UNL     1       5.441  29.687 -12.564  1.00  0.00     0.004 C 
ENDBRANCH  28  29
ENDBRANCH  27  28
ENDBRANCH  26  27
ENDBRANCH  25  26
ENDBRANCH  24  25
ENDBRANCH  23  24
ENDBRANCH  22  23
ENDBRANCH  21  22
ENDBRANCH  20  21
ENDBRANCH  19  20
ENDBRANCH  18  19
ENDBRANCH  17  18
ENDBRANCH   1  17
TORSDOF 26
ENDMDL
MODEL 3
REMARK VINA RESULT:    -5.163      2.328      3.694
REMARK INTER + INTRA:         -16.573
REMARK INTER:                 -13.318
REMARK INTRA:                  -3.254
REMARK UNBOUND:                -3.561
REMARK SMILES CCCCCCCCCCCCCCCCCCCCCCCCCCCC(=O)[O-]
REMARK SMILES IDX 15 1 16 2 17 3 18 4 19 5 20 6 21 7 22 8 23 9 24 10 25 11
REMARK SMILES IDX 26 12 27 13 28 14 29 15 30 16 14 17 13 18 12 19 11 20 10 21
REMARK SMILES IDX 9 22 8 23 7 24 6 25 5 26 4 27 3 28 2 29 1 30
REMARK H PARENT
REMARK Flexibility Score: inf
ROOT
ATOM      1  C   UNL     1      13.503  24.167  -7.864  1.00  0.00     0.000 C 
ENDROOT
BRANCH   1   2
ATOM      2  C   UNL     1      13.531  22.828  -7.108  1.00  0.00     0.000 C 
BRANCH   2   3
ATOM      3  C   UNL     1      14.866  22.580  -6.384  1.00  0.00     0.000 C 
BRANCH   3   4
ATOM      4  C   UNL     1      16.104  22.516  -7.300  1.00  0.00     0.000 C 
BRANCH   4   5
ATOM      5  C   UNL     1      17.318  23.339  -6.821  1.00  0.00     0.000 C 
BRANCH   5   6
ATOM      6  C   UNL     1      17.526  24.677  -7.551  1.00  0.00     0.000 C 
BRANCH   6   7
ATOM      7  C   UNL     1      16.818  25.852  -6.861  1.00  0.00     0.000 C 
BRANCH   7   8
ATOM      8  C   UNL     1      16.808  25.661  -5.336  1.00  0.00     0.000 C 
BRANCH   8   9
ATOM      9  C   UNL     1      15.428  25.919  -4.713  1.00  0.00     0.000 C 
BRANCH   9  10
ATOM     10  C   UNL     1      15.163  25.050  -3.472  1.00  0.00     0.000 C 
BRANCH  10  11
ATOM     11  C   UNL     1      14.427  25.829  -2.360  1.00  0.00     0.000 C 
BRANCH  11  12
ATOM     12  C   UNL     1      15.335  26.813  -1.596  1.00  0.00     0.006 C 
BRANCH  12  13
ATOM     13  C   UNL     1      15.370  28.228  -2.194  1.00  0.00     0.053 C 
BRANCH  13  14
ATOM     14  C   UNL     1      16.771  28.730  -2.384  1.00  0.00     0.041 C 
ATOM     15  O   UNL     1      16.997  29.968  -2.463  1.00  0.00    -0.550 OA
ATOM     16  O   UNL     1      17.826  27.834  -2.484  1.00  0.00    -0.550 OA
ENDBRANCH  13  14
ENDBRANCH  12  13
ENDBRANCH  11  12
ENDBRANCH  10  11
ENDBRANCH   9  10
ENDBRANCH   8   9
ENDBRANCH   7   8
ENDBRANCH   6   7
ENDBRANCH   5   6
ENDBRANCH   4   5
ENDBRANCH   3   4
ENDBRANCH   2   3
ENDBRANCH   1   2
BRANCH   1  17
ATOM     17  C   UNL     1      12.094  24.545  -8.351  1.00  0.00     0.000 C 
BRANCH  17  18
ATOM     18  C   UNL     1      11.826  24.278  -9.845  1.00  0.00     0.000 C 
BRANCH  18  19
ATOM     19  C   UNL     1      10.733  23.218 -10.103  1.00  0.00     0.000 C 
BRANCH  19  20
ATOM     20  C   UNL     1      10.587  22.235  -8.927  1.00  0.00     0.000 C 
BRANCH  20  21
ATOM     21  C   UNL     1       9.123  22.032  -8.503  1.00  0.00     0.000 C 
BRANCH  21  22
ATOM     22  C   UNL     1       8.210  23.180  -8.969  1.00  0.00    -0.000 C 
BRANCH  22  23
ATOM     23  C   UNL     1       7.147  22.719  -9.981  1.00  0.00    -0.000 C 
BRANCH  23  24
ATOM     24  C   UNL     1       5.764  23.331  -9.712  1.00  0.00    -0.000 C 
BRANCH  24  25
ATOM     25  C   UNL     1       4.879  22.359  -8.915  1.00  0.00    -0.000 C 
BRANCH  25  26
ATOM     26  C   UNL     1       4.236  23.019  -7.684  1.00  0.00    -0.000 C 
BRANCH  26  27
ATOM     27  C   UNL     1       5.067  22.824  -6.407  1.00  0.00    -0.000 C 
BRANCH  27  28
ATOM     28  C   UNL     1       5.842  24.099  -6.055  1.00  0.00    -0.000 C 
BRANCH  28  29
ATOM     29  C   UNL     1       7.186  23.759  -5.399  1.00  0.00    -0.003 C 
ATOM     30  C   UNL     1       7.341  22.254  -5.206  1.00  0.00     0.004 C 
ENDBRANCH  28  29
ENDBRANCH  27  28
ENDBRANCH  26  27
ENDBRANCH  25  26
ENDBRANCH  24  25
ENDBRANCH  23  24
ENDBRANCH  22  23
ENDBRANCH  21  22
ENDBRANCH  20  21
ENDBRANCH  19  20
ENDBRANCH  18  19
ENDBRANCH  17  18
ENDBRANCH   1  17
TORSDOF 26
ENDMDL
MODEL 4
REMARK VINA RESULT:    -5.154      2.231      8.848
REMARK INTER + INTRA:         -16.550
REMARK INTER:                 -13.266
REMARK INTRA:                  -3.284
REMARK UNBOUND:                -3.561
REMARK SMILES CCCCCCCCCCCCCCCCCCCCCCCCCCCC(=O)[O-]
REMARK SMILES IDX 15 1 16 2 17 3 18 4 19 5 20 6 21 7 22 8 23 9 24 10 25 11
REMARK SMILES IDX 26 12 27 13 28 14 29 15 30 16 14 17 13 18 12 19 11 20 10 21
REMARK SMILES IDX 9 22 8 23 7 24 6 25 5 26 4 27 3 28 2 29 1 30
REMARK H PARENT
REMARK Flexibility Score: inf
ROOT
ATOM      1  C   UNL     1      12.875  21.458  -7.500  1.00  0.00     0.000 C 
ENDROOT
BRANCH   1   2
ATOM      2  C   UNL     1      11.404  21.016  -7.440  1.00  0.00     0.000 C 
BRANCH   2   3
ATOM      3  C   UNL     1      10.588  21.799  -6.396  1.00  0.00     0.000 C 
BRANCH   3   4
ATOM      4  C   UNL     1       9.113  21.372  -6.264  1.00  0.00     0.000 C 
BRANCH   4   5
ATOM      5  C   UNL     1       8.406  21.844  -4.978  1.00  0.00     0.000 C 
BRANCH   5   6
ATOM      6  C   UNL     1       7.023  22.484  -5.192  1.00  0.00     0.000 C 
BRANCH   6   7
ATOM      7  C   UNL     1       7.092  23.819  -5.947  1.00  0.00     0.000 C 
BRANCH   7   8
ATOM      8  C   UNL     1       6.209  23.780  -7.204  1.00  0.00     0.000 C 
BRANCH   8   9
ATOM      9  C   UNL     1       6.983  24.124  -8.486  1.00  0.00     0.000 C 
BRANCH   9  10
ATOM     10  C   UNL     1       6.984  22.973  -9.507  1.00  0.00     0.000 C 
BRANCH  10  11
ATOM     11  C   UNL     1       8.408  22.443  -9.785  1.00  0.00     0.000 C 
BRANCH  11  12
ATOM     12  C   UNL     1       9.521  23.428  -9.380  1.00  0.00     0.006 C 
BRANCH  12  13
ATOM     13  C   UNL     1      10.815  23.285 -10.197  1.00  0.00     0.053 C 
BRANCH  13  14
ATOM     14  C   UNL     1      11.761  24.426  -9.969  1.00  0.00     0.041 C 
ATOM     15  O   UNL     1      12.101  25.170 -10.928  1.00  0.00    -0.550 OA
ATOM     16  O   UNL     1      12.275  24.664  -8.702  1.00  0.00    -0.550 OA
ENDBRANCH  13  14
ENDBRANCH  12  13
ENDBRANCH  11  12
ENDBRANCH  10  11
ENDBRANCH   9  10
ENDBRANCH   8   9
ENDBRANCH   7   8
ENDBRANCH   6   7
ENDBRANCH   5   6
ENDBRANCH   4   5
ENDBRANCH   3   4
ENDBRANCH   2   3
ENDBRANCH   1   2
BRANCH   1  17
ATOM     17  C   UNL     1      13.238  22.470  -6.400  1.00  0.00     0.000 C 
BRANCH  17  18
ATOM     18  C   UNL     1      14.745  22.605  -6.107  1.00  0.00     0.000 C 
BRANCH  18  19
ATOM     19  C   UNL     1      15.604  22.862  -7.364  1.00  0.00     0.000 C 
BRANCH  19  20
ATOM     20  C   UNL     1      17.110  22.717  -7.079  1.00  0.00     0.000 C 
BRANCH  20  21
ATOM     21  C   UNL     1      17.714  23.975  -6.431  1.00  0.00     0.000 C 
BRANCH  21  22
ATOM     22  C   UNL     1      17.163  25.275  -7.044  1.00  0.00    -0.000 C 
BRANCH  22  23
ATOM     23  C   UNL     1      16.421  26.148  -6.018  1.00  0.00    -0.000 C 
BRANCH  23  24
ATOM     24  C   UNL     1      16.585  25.641  -4.576  1.00  0.00    -0.000 C 
BRANCH  24  25
ATOM     25  C   UNL     1      15.312  25.904  -3.755  1.00  0.00    -0.000 C 
BRANCH  25  26
ATOM     26  C   UNL     1      14.764  24.629  -3.092  1.00  0.00    -0.000 C 
BRANCH  26  27
ATOM     27  C   UNL     1      15.427  24.335  -1.738  1.00  0.00    -0.000 C 
BRANCH  27  28
ATOM     28  C   UNL     1      15.228  25.502  -0.763  1.00  0.00    -0.000 C 
BRANCH  28  29
ATOM     29  C   UNL     1      13.737  25.771  -0.527  1.00  0.00    -0.003 C 
ATOM     30  C   UNL     1      13.333  25.419   0.901  1.00  0.00     0.004 C 
ENDBRANCH  28  29
ENDBRANCH  27  28
ENDBRANCH  26  27
ENDBRANCH  25  26
ENDBRANCH  24  25
ENDBRANCH  23  24
ENDBRANCH  22  23
ENDBRANCH  21  22
ENDBRANCH  20  21
ENDBRANCH  19  20
ENDBRANCH  18  19
ENDBRANCH  17  18
ENDBRANCH   1  17
TORSDOF 26
ENDMDL
MODEL 5
REMARK VINA RESULT:    -5.143      2.735      5.177
REMARK INTER + INTRA:         -16.523
REMARK INTER:                 -13.582
REMARK INTRA:                  -2.940
REMARK UNBOUND:                -3.561
REMARK SMILES CCCCCCCCCCCCCCCCCCCCCCCCCCCC(=O)[O-]
REMARK SMILES IDX 15 1 16 2 17 3 18 4 19 5 20 6 21 7 22 8 23 9 24 10 25 11
REMARK SMILES IDX 26 12 27 13 28 14 29 15 30 16 14 17 13 18 12 19 11 20 10 21
REMARK SMILES IDX 9 22 8 23 7 24 6 25 5 26 4 27 3 28 2 29 1 30
REMARK H PARENT
REMARK Flexibility Score: inf
ROOT
ATOM      1  C   UNL     1       9.779  21.818  -6.244  1.00  0.00     0.000 C 
ENDROOT
BRANCH   1   2
ATOM      2  C   UNL     1       9.948  21.012  -7.544  1.00  0.00     0.000 C 
BRANCH   2   3
ATOM      3  C   UNL     1      10.229  21.904  -8.766  1.00  0.00     0.000 C 
BRANCH   3   4
ATOM      4  C   UNL     1      10.654  23.348  -8.437  1.00  0.00     0.000 C 
BRANCH   4   5
ATOM      5  C   UNL     1      12.087  23.724  -8.866  1.00  0.00     0.000 C 
BRANCH   5   6
ATOM      6  C   UNL     1      13.061  24.002  -7.708  1.00  0.00     0.000 C 
BRANCH   6   7
ATOM      7  C   UNL     1      13.505  22.724  -6.979  1.00  0.00     0.000 C 
BRANCH   7   8
ATOM      8  C   UNL     1      14.974  22.401  -7.294  1.00  0.00     0.000 C 
BRANCH   8   9
ATOM      9  C   UNL     1      15.922  23.565  -6.969  1.00  0.00     0.000 C 
BRANCH   9  10
ATOM     10  C   UNL     1      17.103  23.140  -6.081  1.00  0.00     0.000 C 
BRANCH  10  11
ATOM     11  C   UNL     1      16.703  23.028  -4.593  1.00  0.00     0.000 C 
BRANCH  11  12
ATOM     12  C   UNL     1      16.433  24.390  -3.926  1.00  0.00     0.006 C 
BRANCH  12  13
ATOM     13  C   UNL     1      14.970  24.604  -3.506  1.00  0.00     0.053 C 
BRANCH  13  14
ATOM     14  C   UNL     1      14.767  25.907  -2.793  1.00  0.00     0.041 C 
ATOM     15  O   UNL     1      14.680  26.982  -3.447  1.00  0.00    -0.550 OA
ATOM     16  O   UNL     1      14.683  25.940  -1.408  1.00  0.00    -0.550 OA
ENDBRANCH  13  14
ENDBRANCH  12  13
ENDBRANCH  11  12
ENDBRANCH  10  11
ENDBRANCH   9  10
ENDBRANCH   8   9
ENDBRANCH   7   8
ENDBRANCH   6   7
ENDBRANCH   5   6
ENDBRANCH   4   5
ENDBRANCH   3   4
ENDBRANCH   2   3
ENDBRANCH   1   2
BRANCH   1  17
ATOM     17  C   UNL     1       8.413  21.589  -5.575  1.00  0.00     0.000 C 
BRANCH  17  18
ATOM     18  C   UNL     1       7.622  22.872  -5.252  1.00  0.00     0.000 C 
BRANCH  18  19
ATOM     19  C   UNL     1       6.616  23.278  -6.350  1.00  0.00     0.000 C 
BRANCH  19  20
ATOM     20  C   UNL     1       7.067  24.535  -7.115  1.00  0.00     0.000 C 
BRANCH  20  21
ATOM     21  C   UNL     1       6.997  24.357  -8.642  1.00  0.00     0.000 C 
BRANCH  21  22
ATOM     22  C   UNL     1       6.978  22.876  -9.062  1.00  0.00    -0.000 C 
BRANCH  22  23
ATOM     23  C   UNL     1       5.805  22.539  -9.998  1.00  0.00    -0.000 C 
BRANCH  23  24
ATOM     24  C   UNL     1       4.467  23.110  -9.505  1.00  0.00    -0.000 C 
BRANCH  24  25
ATOM     25  C   UNL     1       3.830  22.187  -8.455  1.00  0.00    -0.000 C 
BRANCH  25  26
ATOM     26  C   UNL     1       2.316  22.413  -8.311  1.00  0.00    -0.000 C 
BRANCH  26  27
ATOM     27  C   UNL     1       1.624  21.294  -7.518  1.00  0.00    -0.000 C 
BRANCH  27  28
ATOM     28  C   UNL     1       0.462  20.691  -8.316  1.00  0.00    -0.000 C 
BRANCH  28  29
ATOM     29  C   UNL     1       0.705  19.204  -8.601  1.00  0.00    -0.003 C 
ATOM     30  C   UNL     1      -0.449  18.349  -8.086  1.00  0.00     0.004 C 
ENDBRANCH  28  29
ENDBRANCH  27  28
ENDBRANCH  26  27
ENDBRANCH  25  26
ENDBRANCH  24  25
ENDBRANCH  23  24
ENDBRANCH  22  23
ENDBRANCH  21  22
ENDBRANCH  20  21
ENDBRANCH  19  20
ENDBRANCH  18  19
ENDBRANCH  17  18
ENDBRANCH   1  17
TORSDOF 26
ENDMDL
MODEL 6
REMARK VINA RESULT:    -5.132      3.747      6.816
REMARK INTER + INTRA:         -16.495
REMARK INTER:                 -14.007
REMARK INTRA:                  -2.488
REMARK UNBOUND:                -3.561
REMARK SMILES CCCCCCCCCCCCCCCCCCCCCCCCCCCC(=O)[O-]
REMARK SMILES IDX 15 1 16 2 17 3 18 4 19 5 20 6 21 7 22 8 23 9 24 10 25 11
REMARK SMILES IDX 26 12 27 13 28 14 29 15 30 16 14 17 13 18 12 19 11 20 10 21
REMARK SMILES IDX 9 22 8 23 7 24 6 25 5 26 4 27 3 28 2 29 1 30
REMARK H PARENT
REMARK Flexibility Score: inf
ROOT
ATOM      1  C   UNL     1       7.022  24.689  -6.737  1.00  0.00     0.000 C 
ENDROOT
BRANCH   1   2
ATOM      2  C   UNL     1       5.878  23.758  -6.301  1.00  0.00     0.000 C 
BRANCH   2   3
ATOM      3  C   UNL     1       6.382  22.458  -5.651  1.00  0.00     0.000 C 
BRANCH   3   4
ATOM      4  C   UNL     1       7.724  22.578  -4.904  1.00  0.00     0.000 C 
BRANCH   4   5
ATOM      5  C   UNL     1       8.833  21.621  -5.387  1.00  0.00     0.000 C 
BRANCH   5   6
ATOM      6  C   UNL     1       9.532  22.041  -6.691  1.00  0.00     0.000 C 
BRANCH   6   7
ATOM      7  C   UNL     1       9.983  20.843  -7.540  1.00  0.00     0.000 C 
BRANCH   7   8
ATOM      8  C   UNL     1      11.499  20.893  -7.790  1.00  0.00     0.000 C 
BRANCH   8   9
ATOM      9  C   UNL     1      12.090  22.296  -7.583  1.00  0.00     0.000 C 
BRANCH   9  10
ATOM     10  C   UNL     1      13.219  22.317  -6.539  1.00  0.00     0.000 C 
BRANCH  10  11
ATOM     11  C   UNL     1      14.610  22.498  -7.188  1.00  0.00     0.000 C 
BRANCH  11  12
ATOM     12  C   UNL     1      15.666  23.073  -6.226  1.00  0.00     0.006 C 
BRANCH  12  13
ATOM     13  C   UNL     1      15.258  24.398  -5.564  1.00  0.00     0.053 C 
BRANCH  13  14
ATOM     14  C   UNL     1      15.209  24.296  -4.069  1.00  0.00     0.041 C 
ATOM     15  O   UNL     1      14.892  23.208  -3.515  1.00  0.00    -0.550 OA
ATOM     16  O   UNL     1      15.503  25.403  -3.284  1.00  0.00    -0.550 OA
ENDBRANCH  13  14
ENDBRANCH  12  13
ENDBRANCH  11  12
ENDBRANCH  10  11
ENDBRANCH   9  10
ENDBRANCH   8   9
ENDBRANCH   7   8
ENDBRANCH   6   7
ENDBRANCH   5   6
ENDBRANCH   4   5
ENDBRANCH   3   4
ENDBRANCH   2   3
ENDBRANCH   1   2
BRANCH   1  17
ATOM     17  C   UNL     1       7.224  24.710  -8.262  1.00  0.00     0.000 C 
BRANCH  17  18
ATOM     18  C   UNL     1       7.347  23.323  -8.923  1.00  0.00     0.000 C 
BRANCH  18  19
ATOM     19  C   UNL     1       6.463  23.151 -10.177  1.00  0.00     0.000 C 
BRANCH  19  20
ATOM     20  C   UNL     1       5.288  22.187  -9.932  1.00  0.00     0.000 C 
BRANCH  20  21
ATOM     21  C   UNL     1       4.056  22.893  -9.339  1.00  0.00     0.000 C 
BRANCH  21  22
ATOM     22  C   UNL     1       3.442  22.114  -8.162  1.00  0.00    -0.000 C 
BRANCH  22  23
ATOM     23  C   UNL     1       1.919  22.300  -8.057  1.00  0.00    -0.000 C 
BRANCH  23  24
ATOM     24  C   UNL     1       1.208  21.072  -7.468  1.00  0.00    -0.000 C 
BRANCH  24  25
ATOM     25  C   UNL     1       1.281  19.880  -8.436  1.00  0.00    -0.000 C 
BRANCH  25  26
ATOM     26  C   UNL     1       0.636  18.610  -7.857  1.00  0.00    -0.000 C 
BRANCH  26  27
ATOM     27  C   UNL     1      -0.850  18.482  -8.225  1.00  0.00    -0.000 C 
BRANCH  27  28
ATOM     28  C   UNL     1      -1.101  18.938  -9.667  1.00  0.00    -0.000 C 
BRANCH  28  29
ATOM     29  C   UNL     1      -1.944  20.219  -9.698  1.00  0.00    -0.003 C 
ATOM     30  C   UNL     1      -1.812  20.933 -11.039  1.00  0.00     0.004 C 
ENDBRANCH  28  29
ENDBRANCH  27  28
ENDBRANCH  26  27
ENDBRANCH  25  26
ENDBRANCH  24  25
ENDBRANCH  23  24
ENDBRANCH  22  23
ENDBRANCH  21  22
ENDBRANCH  20  21
ENDBRANCH  19  20
ENDBRANCH  18  19
ENDBRANCH  17  18
ENDBRANCH   1  17
TORSDOF 26
ENDMDL
MODEL 7
REMARK VINA RESULT:    -5.130      1.608      3.376
REMARK INTER + INTRA:         -16.489
REMARK INTER:                 -13.271
REMARK INTRA:                  -3.219
REMARK UNBOUND:                -3.561
REMARK SMILES CCCCCCCCCCCCCCCCCCCCCCCCCCCC(=O)[O-]
REMARK SMILES IDX 15 1 16 2 17 3 18 4 19 5 20 6 21 7 22 8 23 9 24 10 25 11
REMARK SMILES IDX 26 12 27 13 28 14 29 15 30 16 14 17 13 18 12 19 11 20 10 21
REMARK SMILES IDX 9 22 8 23 7 24 6 25 5 26 4 27 3 28 2 29 1 30
REMARK H PARENT
REMARK Flexibility Score: inf
ROOT
ATOM      1  C   UNL     1      12.958  24.375  -7.932  1.00  0.00     0.000 C 
ENDROOT
BRANCH   1   2
ATOM      2  C   UNL     1      13.401  22.983  -7.452  1.00  0.00     0.000 C 
BRANCH   2   3
ATOM      3  C   UNL     1      14.524  23.045  -6.402  1.00  0.00     0.000 C 
BRANCH   3   4
ATOM      4  C   UNL     1      15.949  22.846  -6.955  1.00  0.00     0.000 C 
BRANCH   4   5
ATOM      5  C   UNL     1      16.721  24.146  -7.260  1.00  0.00     0.000 C 
BRANCH   5   6
ATOM      6  C   UNL     1      16.137  25.416  -6.618  1.00  0.00     0.000 C 
BRANCH   6   7
ATOM      7  C   UNL     1      17.106  26.091  -5.636  1.00  0.00     0.000 C 
BRANCH   7   8
ATOM      8  C   UNL     1      17.500  25.123  -4.509  1.00  0.00     0.000 C 
BRANCH   8   9
ATOM      9  C   UNL     1      16.836  25.470  -3.168  1.00  0.00     0.000 C 
BRANCH   9  10
ATOM     10  C   UNL     1      15.469  24.789  -2.987  1.00  0.00     0.000 C 
BRANCH  10  11
ATOM     11  C   UNL     1      14.417  25.743  -2.379  1.00  0.00     0.000 C 
BRANCH  11  12
ATOM     12  C   UNL     1      13.801  25.222  -1.067  1.00  0.00     0.006 C 
BRANCH  12  13
ATOM     13  C   UNL     1      14.719  25.365   0.158  1.00  0.00     0.053 C 
BRANCH  13  14
ATOM     14  C   UNL     1      13.987  25.135   1.447  1.00  0.00     0.041 C 
ATOM     15  O   UNL     1      12.938  24.437   1.467  1.00  0.00    -0.550 OA
ATOM     16  O   UNL     1      14.458  25.698   2.626  1.00  0.00    -0.550 OA
ENDBRANCH  13  14
ENDBRANCH  12  13
ENDBRANCH  11  12
ENDBRANCH  10  11
ENDBRANCH   9  10
ENDBRANCH   8   9
ENDBRANCH   7   8
ENDBRANCH   6   7
ENDBRANCH   5   6
ENDBRANCH   4   5
ENDBRANCH   3   4
ENDBRANCH   2   3
ENDBRANCH   1   2
BRANCH   1  17
ATOM     17  C   UNL     1      12.063  24.317  -9.182  1.00  0.00     0.000 C 
BRANCH  17  18
ATOM     18  C   UNL     1      10.609  23.873  -8.923  1.00  0.00     0.000 C 
BRANCH  18  19
ATOM     19  C   UNL     1      10.282  22.464  -9.463  1.00  0.00     0.000 C 
BRANCH  19  20
ATOM     20  C   UNL     1       9.735  21.533  -8.366  1.00  0.00     0.000 C 
BRANCH  20  21
ATOM     21  C   UNL     1       9.957  22.092  -6.950  1.00  0.00     0.000 C 
BRANCH  21  22
ATOM     22  C   UNL     1       8.872  21.632  -5.959  1.00  0.00    -0.000 C 
BRANCH  22  23
ATOM     23  C   UNL     1       8.028  22.799  -5.420  1.00  0.00    -0.000 C 
BRANCH  23  24
ATOM     24  C   UNL     1       6.518  22.569  -5.588  1.00  0.00    -0.000 C 
BRANCH  24  25
ATOM     25  C   UNL     1       5.924  23.551  -6.609  1.00  0.00    -0.000 C 
BRANCH  25  26
ATOM     26  C   UNL     1       7.004  24.303  -7.404  1.00  0.00    -0.000 C 
BRANCH  26  27
ATOM     27  C   UNL     1       6.726  24.314  -8.915  1.00  0.00    -0.000 C 
BRANCH  27  28
ATOM     28  C   UNL     1       6.519  22.891  -9.448  1.00  0.00    -0.000 C 
BRANCH  28  29
ATOM     29  C   UNL     1       5.348  22.841 -10.437  1.00  0.00    -0.003 C 
ATOM     30  C   UNL     1       4.888  24.245 -10.818  1.00  0.00     0.004 C 
ENDBRANCH  28  29
ENDBRANCH  27  28
ENDBRANCH  26  27
ENDBRANCH  25  26
ENDBRANCH  24  25
ENDBRANCH  23  24
ENDBRANCH  22  23
ENDBRANCH  21  22
ENDBRANCH  20  21
ENDBRANCH  19  20
ENDBRANCH  18  19
ENDBRANCH  17  18
ENDBRANCH   1  17
TORSDOF 26
ENDMDL
MODEL 8
REMARK VINA RESULT:    -5.072      2.202      9.027
REMARK INTER + INTRA:         -16.342
REMARK INTER:                 -13.183
REMARK INTRA:                  -3.159
REMARK UNBOUND:                -3.561
REMARK SMILES CCCCCCCCCCCCCCCCCCCCCCCCCCCC(=O)[O-]
REMARK SMILES IDX 15 1 16 2 17 3 18 4 19 5 20 6 21 7 22 8 23 9 24 10 25 11
REMARK SMILES IDX 26 12 27 13 28 14 29 15 30 16 14 17 13 18 12 19 11 20 10 21
REMARK SMILES IDX 9 22 8 23 7 24 6 25 5 26 4 27 3 28 2 29 1 30
REMARK H PARENT
REMARK Flexibility Score: inf
ROOT
ATOM      1  C   UNL     1      12.863  22.178  -6.854  1.00  0.00     0.000 C 
ENDROOT
BRANCH   1   2
ATOM      2  C   UNL     1      12.526  21.095  -7.892  1.00  0.00     0.000 C 
BRANCH   2   3
ATOM      3  C   UNL     1      11.045  20.677  -7.859  1.00  0.00     0.000 C 
BRANCH   3   4
ATOM      4  C   UNL     1      10.151  21.516  -6.926  1.00  0.00     0.000 C 
BRANCH   4   5
ATOM      5  C   UNL     1       9.253  22.552  -7.633  1.00  0.00     0.000 C 
BRANCH   5   6
ATOM      6  C   UNL     1       9.238  22.459  -9.169  1.00  0.00     0.000 C 
BRANCH   6   7
ATOM      7  C   UNL     1       7.968  21.791  -9.716  1.00  0.00     0.000 C 
BRANCH   7   8
ATOM      8  C   UNL     1       7.033  22.835 -10.348  1.00  0.00     0.000 C 
BRANCH   8   9
ATOM      9  C   UNL     1       5.562  22.394 -10.345  1.00  0.00     0.000 C 
BRANCH   9  10
ATOM     10  C   UNL     1       4.681  23.272  -9.440  1.00  0.00     0.000 C 
BRANCH  10  11
ATOM     11  C   UNL     1       4.130  22.490  -8.226  1.00  0.00     0.000 C 
BRANCH  11  12
ATOM     12  C   UNL     1       4.797  22.877  -6.892  1.00  0.00     0.006 C 
BRANCH  12  13
ATOM     13  C   UNL     1       6.026  23.787  -7.046  1.00  0.00     0.053 C 
BRANCH  13  14
ATOM     14  C   UNL     1       6.600  24.196  -5.723  1.00  0.00     0.041 C 
ATOM     15  O   UNL     1       6.490  25.386  -5.322  1.00  0.00    -0.550 OA
ATOM     16  O   UNL     1       7.266  23.267  -4.934  1.00  0.00    -0.550 OA
ENDBRANCH  13  14
ENDBRANCH  12  13
ENDBRANCH  11  12
ENDBRANCH  10  11
ENDBRANCH   9  10
ENDBRANCH   8   9
ENDBRANCH   7   8
ENDBRANCH   6   7
ENDBRANCH   5   6
ENDBRANCH   4   5
ENDBRANCH   3   4
ENDBRANCH   2   3
ENDBRANCH   1   2
BRANCH   1  17
ATOM     17  C   UNL     1      13.303  23.504  -7.499  1.00  0.00     0.000 C 
BRANCH  17  18
ATOM     18  C   UNL     1      14.806  23.821  -7.378  1.00  0.00     0.000 C 
BRANCH  18  19
ATOM     19  C   UNL     1      15.104  25.206  -6.764  1.00  0.00     0.000 C 
BRANCH  19  20
ATOM     20  C   UNL     1      16.607  25.540  -6.786  1.00  0.00     0.000 C 
BRANCH  20  21
ATOM     21  C   UNL     1      17.109  26.101  -5.444  1.00  0.00     0.000 C 
BRANCH  21  22
ATOM     22  C   UNL     1      16.236  25.656  -4.257  1.00  0.00    -0.000 C 
BRANCH  22  23
ATOM     23  C   UNL     1      16.898  24.555  -3.411  1.00  0.00    -0.000 C 
BRANCH  23  24
ATOM     24  C   UNL     1      16.013  23.309  -3.258  1.00  0.00    -0.000 C 
BRANCH  24  25
ATOM     25  C   UNL     1      14.583  23.588  -3.748  1.00  0.00    -0.000 C 
BRANCH  25  26
ATOM     26  C   UNL     1      13.522  23.283  -2.678  1.00  0.00    -0.000 C 
BRANCH  26  27
ATOM     27  C   UNL     1      13.956  23.729  -1.273  1.00  0.00    -0.000 C 
BRANCH  27  28
ATOM     28  C   UNL     1      13.601  25.201  -1.029  1.00  0.00    -0.000 C 
BRANCH  28  29
ATOM     29  C   UNL     1      14.864  26.036  -0.784  1.00  0.00    -0.003 C 
ATOM     30  C   UNL     1      15.651  25.508   0.412  1.00  0.00     0.004 C 
ENDBRANCH  28  29
ENDBRANCH  27  28
ENDBRANCH  26  27
ENDBRANCH  25  26
ENDBRANCH  24  25
ENDBRANCH  23  24
ENDBRANCH  22  23
ENDBRANCH  21  22
ENDBRANCH  20  21
ENDBRANCH  19  20
ENDBRANCH  18  19
ENDBRANCH  17  18
ENDBRANCH   1  17
TORSDOF 26
ENDMDL
MODEL 9
REMARK VINA RESULT:    -4.977      3.447      5.778
REMARK INTER + INTRA:         -16.104
REMARK INTER:                 -13.850
REMARK INTRA:                  -2.254
REMARK UNBOUND:                -3.561
REMARK SMILES CCCCCCCCCCCCCCCCCCCCCCCCCCCC(=O)[O-]
REMARK SMILES IDX 15 1 16 2 17 3 18 4 19 5 20 6 21 7 22 8 23 9 24 10 25 11
REMARK SMILES IDX 26 12 27 13 28 14 29 15 30 16 14 17 13 18 12 19 11 20 10 21
REMARK SMILES IDX 9 22 8 23 7 24 6 25 5 26 4 27 3 28 2 29 1 30
REMARK H PARENT
REMARK Flexibility Score: inf
ROOT
ATOM      1  C   UNL     1       7.576  22.868  -5.175  1.00  0.00     0.000 C 
ENDROOT
BRANCH   1   2
ATOM      2  C   UNL     1       8.482  21.717  -5.644  1.00  0.00     0.000 C 
BRANCH   2   3
ATOM      3  C   UNL     1       9.443  22.138  -6.770  1.00  0.00     0.000 C 
BRANCH   3   4
ATOM      4  C   UNL     1      10.478  21.072  -7.179  1.00  0.00     0.000 C 
BRANCH   4   5
ATOM      5  C   UNL     1      11.599  21.569  -8.114  1.00  0.00     0.000 C 
BRANCH   5   6
ATOM      6  C   UNL     1      11.590  23.081  -8.394  1.00  0.00     0.000 C 
BRANCH   6   7
ATOM      7  C   UNL     1      12.866  23.787  -7.910  1.00  0.00     0.000 C 
BRANCH   7   8
ATOM      8  C   UNL     1      13.569  22.956  -6.826  1.00  0.00     0.000 C 
BRANCH   8   9
ATOM      9  C   UNL     1      15.027  23.386  -6.598  1.00  0.00     0.000 C 
BRANCH   9  10
ATOM     10  C   UNL     1      15.285  24.846  -7.008  1.00  0.00     0.000 C 
BRANCH  10  11
ATOM     11  C   UNL     1      15.569  25.752  -5.789  1.00  0.00     0.000 C 
BRANCH  11  12
ATOM     12  C   UNL     1      15.708  24.976  -4.466  1.00  0.00     0.006 C 
BRANCH  12  13
ATOM     13  C   UNL     1      15.030  25.656  -3.266  1.00  0.00     0.053 C 
BRANCH  13  14
ATOM     14  C   UNL     1      15.990  25.918  -2.144  1.00  0.00     0.041 C 
ATOM     15  O   UNL     1      17.146  26.359  -2.386  1.00  0.00    -0.550 OA
ATOM     16  O   UNL     1      15.614  25.668  -0.831  1.00  0.00    -0.550 OA
ENDBRANCH  13  14
ENDBRANCH  12  13
ENDBRANCH  11  12
ENDBRANCH  10  11
ENDBRANCH   9  10
ENDBRANCH   8   9
ENDBRANCH   7   8
ENDBRANCH   6   7
ENDBRANCH   5   6
ENDBRANCH   4   5
ENDBRANCH   3   4
ENDBRANCH   2   3
ENDBRANCH   1   2
BRANCH   1  17
ATOM     17  C   UNL     1       6.574  23.314  -6.254  1.00  0.00     0.000 C 
BRANCH  17  18
ATOM     18  C   UNL     1       6.793  24.740  -6.798  1.00  0.00     0.000 C 
BRANCH  18  19
ATOM     19  C   UNL     1       7.251  24.781  -8.272  1.00  0.00     0.000 C 
BRANCH  19  20
ATOM     20  C   UNL     1       6.880  23.495  -9.032  1.00  0.00     0.000 C 
BRANCH  20  21
ATOM     21  C   UNL     1       5.496  23.579  -9.698  1.00  0.00     0.000 C 
BRANCH  21  22
ATOM     22  C   UNL     1       4.634  22.334  -9.422  1.00  0.00    -0.000 C 
BRANCH  22  23
ATOM     23  C   UNL     1       3.659  22.534  -8.250  1.00  0.00    -0.000 C 
BRANCH  23  24
ATOM     24  C   UNL     1       2.521  21.502  -8.238  1.00  0.00    -0.000 C 
BRANCH  24  25
ATOM     25  C   UNL     1       1.407  21.924  -7.268  1.00  0.00    -0.000 C 
BRANCH  25  26
ATOM     26  C   UNL     1       0.421  20.783  -6.968  1.00  0.00    -0.000 C 
BRANCH  26  27
ATOM     27  C   UNL     1       0.817  19.465  -7.651  1.00  0.00    -0.000 C 
BRANCH  27  28
ATOM     28  C   UNL     1      -0.423  18.672  -8.078  1.00  0.00    -0.000 C 
BRANCH  28  29
ATOM     29  C   UNL     1      -0.551  18.636  -9.606  1.00  0.00    -0.003 C 
ATOM     30  C   UNL     1      -1.621  19.609 -10.093  1.00  0.00     0.004 C 
ENDBRANCH  28  29
ENDBRANCH  27  28
ENDBRANCH  26  27
ENDBRANCH  25  26
ENDBRANCH  24  25
ENDBRANCH  23  24
ENDBRANCH  22  23
ENDBRANCH  21  22
ENDBRANCH  20  21
ENDBRANCH  19  20
ENDBRANCH  18  19
ENDBRANCH  17  18
ENDBRANCH   1  17
TORSDOF 26
ENDMDL
