MODEL 1
REMARK VINA RESULT:    -3.684      0.000      0.000
REMARK INTER + INTRA:          -9.559
REMARK INTER:                  -7.130
REMARK INTRA:                  -2.429
REMARK UNBOUND:                -2.429
REMARK SMILES CCCCCCCCCCCCCCCCCC(=O)[O-]
REMARK SMILES IDX 10 1 11 2 12 3 13 4 14 5 15 6 16 7 17 8 18 9 19 10 20 11
REMARK SMILES IDX 9 12 8 13 7 14 6 15 5 16 4 17 3 18 2 19 1 20
REMARK H PARENT
REMARK Flexibility Score: inf
ROOT
ATOM      1  C   UNL     1     142.067 127.842 116.901  1.00  0.00     0.000 C 
ENDROOT
BRANCH   1   2
ATOM      2  C   UNL     1     143.337 127.231 117.528  1.00  0.00     0.000 C 
BRANCH   2   3
ATOM      3  C   UNL     1     144.537 127.102 116.571  1.00  0.00     0.000 C 
BRANCH   3   4
ATOM      4  C   UNL     1     144.221 127.396 115.093  1.00  0.00     0.000 C 
BRANCH   4   5
ATOM      5  C   UNL     1     145.147 128.456 114.460  1.00  0.00     0.000 C 
BRANCH   5   6
ATOM      6  C   UNL     1     144.834 129.877 114.951  1.00  0.00     0.000 C 
BRANCH   6   7
ATOM      7  C   UNL     1     146.002 130.447 115.766  1.00  0.00     0.006 C 
BRANCH   7   8
ATOM      8  C   UNL     1     145.496 131.352 116.893  1.00  0.00     0.053 C 
BRANCH   8   9
ATOM      9  C   UNL     1     145.014 130.530 118.047  1.00  0.00     0.041 C 
ATOM     10  O   UNL     1     143.835 130.658 118.468  1.00  0.00    -0.550 OA
ATOM     11  O   UNL     1     145.854 129.587 118.627  1.00  0.00    -0.550 OA
ENDBRANCH   8   9
ENDBRANCH   7   8
ENDBRANCH   6   7
ENDBRANCH   5   6
ENDBRANCH   4   5
ENDBRANCH   3   4
ENDBRANCH   2   3
ENDBRANCH   1   2
BRANCH   1  12
ATOM     12  C   UNL     1     141.028 128.373 117.909  1.00  0.00     0.000 C 
BRANCH  12  13
ATOM     13  C   UNL     1     139.560 128.202 117.482  1.00  0.00    -0.000 C 
BRANCH  13  14
ATOM     14  C   UNL     1     139.384 127.191 116.336  1.00  0.00    -0.000 C 
BRANCH  14  15
ATOM     15  C   UNL     1     138.064 127.400 115.563  1.00  0.00    -0.000 C 
BRANCH  15  16
ATOM     16  C   UNL     1     138.217 127.276 114.035  1.00  0.00    -0.000 C 
BRANCH  16  17
ATOM     17  C   UNL     1     138.952 128.450 113.361  1.00  0.00    -0.000 C 
BRANCH  17  18
ATOM     18  C   UNL     1     138.599 129.847 113.915  1.00  0.00    -0.000 C 
BRANCH  18  19
ATOM     19  C   UNL     1     139.750 130.571 114.636  1.00  0.00    -0.003 C 
ATOM     20  C   UNL     1     141.131 130.126 114.156  1.00  0.00     0.004 C 
ENDBRANCH  18  19
ENDBRANCH  17  18
ENDBRANCH  16  17
ENDBRANCH  15  16
ENDBRANCH  14  15
ENDBRANCH  13  14
ENDBRANCH  12  13
ENDBRANCH   1  12
TORSDOF 16
ENDMDL
MODEL 2
REMARK VINA RESULT:    -3.681      1.581      2.882
REMARK INTER + INTRA:          -9.552
REMARK INTER:                  -6.740
REMARK INTRA:                  -2.813
REMARK UNBOUND:                -2.429
REMARK SMILES CCCCCCCCCCCCCCCCCC(=O)[O-]
REMARK SMILES IDX 10 1 11 2 12 3 13 4 14 5 15 6 16 7 17 8 18 9 19 10 20 11
REMARK SMILES IDX 9 12 8 13 7 14 6 15 5 16 4 17 3 18 2 19 1 20
REMARK H PARENT
REMARK Flexibility Score: inf
ROOT
ATOM      1  C   UNL     1     142.203 128.289 115.810  1.00  0.00     0.000 C 
ENDROOT
BRANCH   1   2
ATOM      2  C   UNL     1     143.061 127.261 115.042  1.00  0.00     0.000 C 
BRANCH   2   3
ATOM      3  C   UNL     1     144.577 127.367 115.287  1.00  0.00     0.000 C 
BRANCH   3   4
ATOM      4  C   UNL     1     145.322 128.322 114.336  1.00  0.00     0.000 C 
BRANCH   4   5
ATOM      5  C   UNL     1     145.890 129.576 115.034  1.00  0.00     0.000 C 
BRANCH   5   6
ATOM      6  C   UNL     1     145.758 129.506 116.563  1.00  0.00     0.000 C 
BRANCH   6   7
ATOM      7  C   UNL     1     145.078 130.764 117.116  1.00  0.00     0.006 C 
BRANCH   7   8
ATOM      8  C   UNL     1     144.819 131.783 116.001  1.00  0.00     0.053 C 
BRANCH   8   9
ATOM      9  C   UNL     1     143.714 132.714 116.388  1.00  0.00     0.041 C 
ATOM     10  O   UNL     1     143.255 133.534 115.551  1.00  0.00    -0.550 OA
ATOM     11  O   UNL     1     143.159 132.642 117.660  1.00  0.00    -0.550 OA
ENDBRANCH   8   9
ENDBRANCH   7   8
ENDBRANCH   6   7
ENDBRANCH   5   6
ENDBRANCH   4   5
ENDBRANCH   3   4
ENDBRANCH   2   3
ENDBRANCH   1   2
BRANCH   1  12
ATOM     12  C   UNL     1     141.992 129.635 115.090  1.00  0.00     0.000 C 
BRANCH  12  13
ATOM     13  C   UNL     1     140.865 130.511 115.665  1.00  0.00    -0.000 C 
BRANCH  13  14
ATOM     14  C   UNL     1     139.862 130.974 114.595  1.00  0.00    -0.000 C 
BRANCH  14  15
ATOM     15  C   UNL     1     139.960 130.142 113.297  1.00  0.00    -0.000 C 
BRANCH  15  16
ATOM     16  C   UNL     1     138.771 129.185 113.087  1.00  0.00    -0.000 C 
BRANCH  16  17
ATOM     17  C   UNL     1     139.013 127.739 113.558  1.00  0.00    -0.000 C 
BRANCH  17  18
ATOM     18  C   UNL     1     138.073 127.250 114.680  1.00  0.00    -0.000 C 
BRANCH  18  19
ATOM     19  C   UNL     1     138.559 127.544 116.111  1.00  0.00    -0.003 C 
ATOM     20  C   UNL     1     137.813 128.703 116.770  1.00  0.00     0.004 C 
ENDBRANCH  18  19
ENDBRANCH  17  18
ENDBRANCH  16  17
ENDBRANCH  15  16
ENDBRANCH  14  15
ENDBRANCH  13  14
ENDBRANCH  12  13
ENDBRANCH   1  12
TORSDOF 16
ENDMDL
MODEL 3
REMARK VINA RESULT:    -3.636     11.112     13.668
REMARK INTER + INTRA:          -9.466
REMARK INTER:                  -6.518
REMARK INTRA:                  -2.948
REMARK UNBOUND:                -2.429
REMARK SMILES CCCCCCCCCCCCCCCCCC(=O)[O-]
REMARK SMILES IDX 10 1 11 2 12 3 13 4 14 5 15 6 16 7 17 8 18 9 19 10 20 11
REMARK SMILES IDX 9 12 8 13 7 14 6 15 5 16 4 17 3 18 2 19 1 20
REMARK H PARENT
REMARK Flexibility Score: inf
ROOT
ATOM      1  C   UNL     1     128.429 132.377 115.276  1.00  0.00     0.000 C 
ENDROOT
BRANCH   1   2
ATOM      2  C   UNL     1     128.375 130.960 115.884  1.00  0.00     0.000 C 
BRANCH   2   3
ATOM      3  C   UNL     1     128.382 129.812 114.858  1.00  0.00     0.000 C 
BRANCH   3   4
ATOM      4  C   UNL     1     129.432 128.716 115.119  1.00  0.00     0.000 C 
BRANCH   4   5
ATOM      5  C   UNL     1     130.035 128.761 116.540  1.00  0.00     0.000 C 
BRANCH   5   6
ATOM      6  C   UNL     1     129.853 127.436 117.296  1.00  0.00     0.000 C 
BRANCH   6   7
ATOM      7  C   UNL     1     129.171 127.666 118.651  1.00  0.00     0.006 C 
BRANCH   7   8
ATOM      8  C   UNL     1     129.585 129.012 119.253  1.00  0.00     0.053 C 
BRANCH   8   9
ATOM      9  C   UNL     1     128.378 129.800 119.654  1.00  0.00     0.041 C 
ATOM     10  O   UNL     1     128.327 131.038 119.433  1.00  0.00    -0.550 OA
ATOM     11  O   UNL     1     127.288 129.157 120.227  1.00  0.00    -0.550 OA
ENDBRANCH   8   9
ENDBRANCH   7   8
ENDBRANCH   6   7
ENDBRANCH   5   6
ENDBRANCH   4   5
ENDBRANCH   3   4
ENDBRANCH   2   3
ENDBRANCH   1   2
BRANCH   1  12
ATOM     12  C   UNL     1     128.131 132.454 113.765  1.00  0.00     0.000 C 
BRANCH  12  13
ATOM     13  C   UNL     1     129.350 132.752 112.875  1.00  0.00    -0.000 C 
BRANCH  13  14
ATOM     14  C   UNL     1     130.638 132.981 113.683  1.00  0.00    -0.000 C 
BRANCH  14  15
ATOM     15  C   UNL     1     131.728 131.935 113.363  1.00  0.00    -0.000 C 
BRANCH  15  16
ATOM     16  C   UNL     1     132.107 131.049 114.566  1.00  0.00    -0.000 C 
BRANCH  16  17
ATOM     17  C   UNL     1     132.702 131.809 115.766  1.00  0.00    -0.000 C 
BRANCH  17  18
ATOM     18  C   UNL     1     132.323 131.243 117.151  1.00  0.00    -0.000 C 
BRANCH  18  19
ATOM     19  C   UNL     1     131.330 132.101 117.955  1.00  0.00    -0.003 C 
ATOM     20  C   UNL     1     131.197 133.525 117.416  1.00  0.00     0.004 C 
ENDBRANCH  18  19
ENDBRANCH  17  18
ENDBRANCH  16  17
ENDBRANCH  15  16
ENDBRANCH  14  15
ENDBRANCH  13  14
ENDBRANCH  12  13
ENDBRANCH   1  12
TORSDOF 16
ENDMDL
MODEL 4
REMARK VINA RESULT:    -3.635      1.371      3.768
REMARK INTER + INTRA:          -9.464
REMARK INTER:                  -7.180
REMARK INTRA:                  -2.284
REMARK UNBOUND:                -2.429
REMARK SMILES CCCCCCCCCCCCCCCCCC(=O)[O-]
REMARK SMILES IDX 10 1 11 2 12 3 13 4 14 5 15 6 16 7 17 8 18 9 19 10 20 11
REMARK SMILES IDX 9 12 8 13 7 14 6 15 5 16 4 17 3 18 2 19 1 20
REMARK H PARENT
REMARK Flexibility Score: inf
ROOT
ATOM      1  C   UNL     1     139.811 130.666 114.411  1.00  0.00     0.000 C 
ENDROOT
BRANCH   1   2
ATOM      2  C   UNL     1     141.167 130.012 114.074  1.00  0.00     0.000 C 
BRANCH   2   3
ATOM      3  C   UNL     1     141.915 129.409 115.278  1.00  0.00     0.000 C 
BRANCH   3   4
ATOM      4  C   UNL     1     142.113 127.882 115.219  1.00  0.00     0.000 C 
BRANCH   4   5
ATOM      5  C   UNL     1     143.444 127.405 115.837  1.00  0.00     0.000 C 
BRANCH   5   6
ATOM      6  C   UNL     1     144.592 127.388 114.816  1.00  0.00     0.000 C 
BRANCH   6   7
ATOM      7  C   UNL     1     145.793 128.194 115.327  1.00  0.00     0.006 C 
BRANCH   7   8
ATOM      8  C   UNL     1     145.722 129.648 114.849  1.00  0.00     0.053 C 
BRANCH   8   9
ATOM      9  C   UNL     1     146.073 130.582 115.963  1.00  0.00     0.041 C 
ATOM     10  O   UNL     1     145.448 130.530 117.055  1.00  0.00    -0.550 OA
ATOM     11  O   UNL     1     147.124 131.479 115.813  1.00  0.00    -0.550 OA
ENDBRANCH   8   9
ENDBRANCH   7   8
ENDBRANCH   6   7
ENDBRANCH   5   6
ENDBRANCH   4   5
ENDBRANCH   3   4
ENDBRANCH   2   3
ENDBRANCH   1   2
BRANCH   1  12
ATOM     12  C   UNL     1     138.569 129.863 113.974  1.00  0.00     0.000 C 
BRANCH  12  13
ATOM     13  C   UNL     1     138.871 128.550 113.229  1.00  0.00    -0.000 C 
BRANCH  13  14
ATOM     14  C   UNL     1     138.571 127.301 114.074  1.00  0.00    -0.000 C 
BRANCH  14  15
ATOM     15  C   UNL     1     137.692 127.618 115.303  1.00  0.00    -0.000 C 
BRANCH  15  16
ATOM     16  C   UNL     1     138.303 127.148 116.637  1.00  0.00    -0.000 C 
BRANCH  16  17
ATOM     17  C   UNL     1     139.112 128.219 117.392  1.00  0.00    -0.000 C 
BRANCH  17  18
ATOM     18  C   UNL     1     139.676 127.772 118.757  1.00  0.00    -0.000 C 
BRANCH  18  19
ATOM     19  C   UNL     1     141.184 127.461 118.767  1.00  0.00    -0.003 C 
ATOM     20  C   UNL     1     141.753 127.306 120.177  1.00  0.00     0.004 C 
ENDBRANCH  18  19
ENDBRANCH  17  18
ENDBRANCH  16  17
ENDBRANCH  15  16
ENDBRANCH  14  15
ENDBRANCH  13  14
ENDBRANCH  12  13
ENDBRANCH   1  12
TORSDOF 16
ENDMDL
MODEL 5
REMARK VINA RESULT:    -3.633      2.265      6.500
REMARK INTER + INTRA:          -9.461
REMARK INTER:                  -6.762
REMARK INTRA:                  -2.699
REMARK UNBOUND:                -2.429
REMARK SMILES CCCCCCCCCCCCCCCCCC(=O)[O-]
REMARK SMILES IDX 10 1 11 2 12 3 13 4 14 5 15 6 16 7 17 8 18 9 19 10 20 11
REMARK SMILES IDX 9 12 8 13 7 14 6 15 5 16 4 17 3 18 2 19 1 20
REMARK H PARENT
REMARK Flexibility Score: inf
ROOT
ATOM      1  C   UNL     1     141.820 129.026 115.932  1.00  0.00     0.000 C 
ENDROOT
BRANCH   1   2
ATOM      2  C   UNL     1     141.843 129.987 114.726  1.00  0.00     0.000 C 
BRANCH   2   3
ATOM      3  C   UNL     1     140.488 130.632 114.381  1.00  0.00     0.000 C 
BRANCH   3   4
ATOM      4  C   UNL     1     139.924 130.253 112.999  1.00  0.00     0.000 C 
BRANCH   4   5
ATOM      5  C   UNL     1     138.674 129.350 113.065  1.00  0.00     0.000 C 
BRANCH   5   6
ATOM      6  C   UNL     1     139.016 127.903 113.450  1.00  0.00     0.000 C 
BRANCH   6   7
ATOM      7  C   UNL     1     137.986 127.338 114.436  1.00  0.00     0.006 C 
BRANCH   7   8
ATOM      8  C   UNL     1     138.573 127.240 115.847  1.00  0.00     0.053 C 
BRANCH   8   9
ATOM      9  C   UNL     1     138.153 128.416 116.672  1.00  0.00     0.041 C 
ATOM     10  O   UNL     1     138.771 128.701 117.730  1.00  0.00    -0.550 OA
ATOM     11  O   UNL     1     137.108 129.225 116.245  1.00  0.00    -0.550 OA
ENDBRANCH   8   9
ENDBRANCH   7   8
ENDBRANCH   6   7
ENDBRANCH   5   6
ENDBRANCH   4   5
ENDBRANCH   3   4
ENDBRANCH   2   3
ENDBRANCH   1   2
BRANCH   1  12
ATOM     12  C   UNL     1     142.218 127.570 115.619  1.00  0.00     0.000 C 
BRANCH  12  13
ATOM     13  C   UNL     1     143.668 127.200 115.979  1.00  0.00    -0.000 C 
BRANCH  13  14
ATOM     14  C   UNL     1     144.592 127.137 114.751  1.00  0.00    -0.000 C 
BRANCH  14  15
ATOM     15  C   UNL     1     145.844 128.027 114.911  1.00  0.00    -0.000 C 
BRANCH  15  16
ATOM     16  C   UNL     1     145.564 129.528 114.709  1.00  0.00    -0.000 C 
BRANCH  16  17
ATOM     17  C   UNL     1     146.041 130.435 115.859  1.00  0.00    -0.000 C 
BRANCH  17  18
ATOM     18  C   UNL     1     145.040 130.600 117.021  1.00  0.00    -0.000 C 
BRANCH  18  19
ATOM     19  C   UNL     1     145.349 129.758 118.272  1.00  0.00    -0.003 C 
ATOM     20  C   UNL     1     144.092 129.296 119.008  1.00  0.00     0.004 C 
ENDBRANCH  18  19
ENDBRANCH  17  18
ENDBRANCH  16  17
ENDBRANCH  15  16
ENDBRANCH  14  15
ENDBRANCH  13  14
ENDBRANCH  12  13
ENDBRANCH   1  12
TORSDOF 16
ENDMDL
MODEL 6
REMARK VINA RESULT:    -3.583      2.501      6.289
REMARK INTER + INTRA:          -9.363
REMARK INTER:                  -7.046
REMARK INTRA:                  -2.317
REMARK UNBOUND:                -2.429
REMARK SMILES CCCCCCCCCCCCCCCCCC(=O)[O-]
REMARK SMILES IDX 10 1 11 2 12 3 13 4 14 5 15 6 16 7 17 8 18 9 19 10 20 11
REMARK SMILES IDX 9 12 8 13 7 14 6 15 5 16 4 17 3 18 2 19 1 20
REMARK H PARENT
REMARK Flexibility Score: inf
ROOT
ATOM      1  C   UNL     1     143.303 127.958 116.987  1.00  0.00     0.000 C 
ENDROOT
BRANCH   1   2
ATOM      2  C   UNL     1     142.014 127.259 116.506  1.00  0.00     0.000 C 
BRANCH   2   3
ATOM      3  C   UNL     1     141.499 127.721 115.130  1.00  0.00     0.000 C 
BRANCH   3   4
ATOM      4  C   UNL     1     141.695 129.221 114.836  1.00  0.00     0.000 C 
BRANCH   4   5
ATOM      5  C   UNL     1     140.390 129.955 114.461  1.00  0.00     0.000 C 
BRANCH   5   6
ATOM      6  C   UNL     1     139.487 129.116 113.543  1.00  0.00     0.000 C 
BRANCH   6   7
ATOM      7  C   UNL     1     138.111 128.891 114.180  1.00  0.00     0.006 C 
BRANCH   7   8
ATOM      8  C   UNL     1     138.021 127.501 114.817  1.00  0.00     0.053 C 
BRANCH   8   9
ATOM      9  C   UNL     1     137.810 127.614 116.294  1.00  0.00     0.041 C 
ATOM     10  O   UNL     1     138.510 128.407 116.975  1.00  0.00    -0.550 OA
ATOM     11  O   UNL     1     136.805 126.878 116.910  1.00  0.00    -0.550 OA
ENDBRANCH   8   9
ENDBRANCH   7   8
ENDBRANCH   6   7
ENDBRANCH   5   6
ENDBRANCH   4   5
ENDBRANCH   3   4
ENDBRANCH   2   3
ENDBRANCH   1   2
BRANCH   1  12
ATOM     12  C   UNL     1     144.528 127.036 117.147  1.00  0.00     0.000 C 
BRANCH  12  13
ATOM     13  C   UNL     1     145.659 127.273 116.131  1.00  0.00    -0.000 C 
BRANCH  13  14
ATOM     14  C   UNL     1     145.139 127.683 114.743  1.00  0.00    -0.000 C 
BRANCH  14  15
ATOM     15  C   UNL     1     145.493 129.143 114.389  1.00  0.00    -0.000 C 
BRANCH  15  16
ATOM     16  C   UNL     1     146.365 129.841 115.450  1.00  0.00    -0.000 C 
BRANCH  16  17
ATOM     17  C   UNL     1     145.805 131.177 115.972  1.00  0.00    -0.000 C 
BRANCH  17  18
ATOM     18  C   UNL     1     144.270 131.319 115.892  1.00  0.00    -0.000 C 
BRANCH  18  19
ATOM     19  C   UNL     1     143.625 132.084 117.060  1.00  0.00    -0.003 C 
ATOM     20  C   UNL     1     143.970 131.492 118.426  1.00  0.00     0.004 C 
ENDBRANCH  18  19
ENDBRANCH  17  18
ENDBRANCH  16  17
ENDBRANCH  15  16
ENDBRANCH  14  15
ENDBRANCH  13  14
ENDBRANCH  12  13
ENDBRANCH   1  12
TORSDOF 16
ENDMDL
MODEL 7
REMARK VINA RESULT:    -3.569      1.043      2.539
REMARK INTER + INTRA:          -9.337
REMARK INTER:                  -7.132
REMARK INTRA:                  -2.206
REMARK UNBOUND:                -2.429
REMARK SMILES CCCCCCCCCCCCCCCCCC(=O)[O-]
REMARK SMILES IDX 10 1 11 2 12 3 13 4 14 5 15 6 16 7 17 8 18 9 19 10 20 11
REMARK SMILES IDX 9 12 8 13 7 14 6 15 5 16 4 17 3 18 2 19 1 20
REMARK H PARENT
REMARK Flexibility Score: inf
ROOT
ATOM      1  C   UNL     1     141.968 128.387 115.589  1.00  0.00     0.000 C 
ENDROOT
BRANCH   1   2
ATOM      2  C   UNL     1     142.981 127.402 114.968  1.00  0.00     0.000 C 
BRANCH   2   3
ATOM      3  C   UNL     1     144.341 127.329 115.686  1.00  0.00     0.000 C 
BRANCH   3   4
ATOM      4  C   UNL     1     145.550 127.740 114.824  1.00  0.00     0.000 C 
BRANCH   4   5
ATOM      5  C   UNL     1     145.494 129.202 114.333  1.00  0.00     0.000 C 
BRANCH   5   6
ATOM      6  C   UNL     1     146.083 130.187 115.354  1.00  0.00     0.000 C 
BRANCH   6   7
ATOM      7  C   UNL     1     144.998 131.117 115.910  1.00  0.00     0.006 C 
BRANCH   7   8
ATOM      8  C   UNL     1     145.195 131.354 117.411  1.00  0.00     0.053 C 
BRANCH   8   9
ATOM      9  C   UNL     1     144.878 130.112 118.182  1.00  0.00     0.041 C 
ATOM     10  O   UNL     1     143.681 129.776 118.379  1.00  0.00    -0.550 OA
ATOM     11  O   UNL     1     145.906 129.299 118.642  1.00  0.00    -0.550 OA
ENDBRANCH   8   9
ENDBRANCH   7   8
ENDBRANCH   6   7
ENDBRANCH   5   6
ENDBRANCH   4   5
ENDBRANCH   3   4
ENDBRANCH   2   3
ENDBRANCH   1   2
BRANCH   1  12
ATOM     12  C   UNL     1     141.766 129.700 114.807  1.00  0.00     0.000 C 
BRANCH  12  13
ATOM     13  C   UNL     1     140.393 129.848 114.128  1.00  0.00    -0.000 C 
BRANCH  13  14
ATOM     14  C   UNL     1     139.623 128.520 114.040  1.00  0.00    -0.000 C 
BRANCH  14  15
ATOM     15  C   UNL     1     138.159 128.655 114.511  1.00  0.00    -0.000 C 
BRANCH  15  16
ATOM     16  C   UNL     1     137.568 127.347 115.071  1.00  0.00    -0.000 C 
BRANCH  16  17
ATOM     17  C   UNL     1     137.447 127.297 116.606  1.00  0.00    -0.000 C 
BRANCH  17  18
ATOM     18  C   UNL     1     138.788 127.328 117.369  1.00  0.00    -0.000 C 
BRANCH  18  19
ATOM     19  C   UNL     1     139.092 128.649 118.098  1.00  0.00    -0.003 C 
ATOM     20  C   UNL     1     140.383 128.599 118.914  1.00  0.00     0.004 C 
ENDBRANCH  18  19
ENDBRANCH  17  18
ENDBRANCH  16  17
ENDBRANCH  15  16
ENDBRANCH  14  15
ENDBRANCH  13  14
ENDBRANCH  12  13
ENDBRANCH   1  12
TORSDOF 16
ENDMDL
MODEL 8
REMARK VINA RESULT:    -3.530     10.404     13.652
REMARK INTER + INTRA:          -9.260
REMARK INTER:                  -6.574
REMARK INTRA:                  -2.686
REMARK UNBOUND:                -2.429
REMARK SMILES CCCCCCCCCCCCCCCCCC(=O)[O-]
REMARK SMILES IDX 10 1 11 2 12 3 13 4 14 5 15 6 16 7 17 8 18 9 19 10 20 11
REMARK SMILES IDX 9 12 8 13 7 14 6 15 5 16 4 17 3 18 2 19 1 20
REMARK H PARENT
REMARK Flexibility Score: inf
ROOT
ATOM      1  C   UNL     1     131.025 131.480 114.953  1.00  0.00     0.000 C 
ENDROOT
BRANCH   1   2
ATOM      2  C   UNL     1     130.837 132.363 113.702  1.00  0.00     0.000 C 
BRANCH   2   3
ATOM      3  C   UNL     1     129.373 132.604 113.290  1.00  0.00     0.000 C 
BRANCH   3   4
ATOM      4  C   UNL     1     128.336 132.334 114.396  1.00  0.00     0.000 C 
BRANCH   4   5
ATOM      5  C   UNL     1     127.998 133.577 115.246  1.00  0.00     0.000 C 
BRANCH   5   6
ATOM      6  C   UNL     1     128.088 133.299 116.754  1.00  0.00     0.000 C 
BRANCH   6   7
ATOM      7  C   UNL     1     128.010 131.794 117.042  1.00  0.00     0.006 C 
BRANCH   7   8
ATOM      8  C   UNL     1     129.018 131.389 118.122  1.00  0.00     0.053 C 
BRANCH   8   9
ATOM      9  C   UNL     1     128.308 130.912 119.349  1.00  0.00     0.041 C 
ATOM     10  O   UNL     1     127.071 130.678 119.314  1.00  0.00    -0.550 OA
ATOM     11  O   UNL     1     129.021 130.678 120.518  1.00  0.00    -0.550 OA
ENDBRANCH   8   9
ENDBRANCH   7   8
ENDBRANCH   6   7
ENDBRANCH   5   6
ENDBRANCH   4   5
ENDBRANCH   3   4
ENDBRANCH   2   3
ENDBRANCH   1   2
BRANCH   1  12
ATOM     12  C   UNL     1     131.299 129.990 114.669  1.00  0.00     0.000 C 
BRANCH  12  13
ATOM     13  C   UNL     1     130.154 129.033 115.043  1.00  0.00    -0.000 C 
BRANCH  13  14
ATOM     14  C   UNL     1     130.612 127.570 115.166  1.00  0.00    -0.000 C 
BRANCH  14  15
ATOM     15  C   UNL     1     130.037 126.876 116.420  1.00  0.00    -0.000 C 
BRANCH  15  16
ATOM     16  C   UNL     1     129.581 127.859 117.515  1.00  0.00    -0.000 C 
BRANCH  16  17
ATOM     17  C   UNL     1     130.109 127.546 118.927  1.00  0.00    -0.000 C 
BRANCH  17  18
ATOM     18  C   UNL     1     131.644 127.585 119.075  1.00  0.00    -0.000 C 
BRANCH  18  19
ATOM     19  C   UNL     1     132.287 128.962 118.832  1.00  0.00    -0.003 C 
ATOM     20  C   UNL     1     133.215 128.983 117.618  1.00  0.00     0.004 C 
ENDBRANCH  18  19
ENDBRANCH  17  18
ENDBRANCH  16  17
ENDBRANCH  15  16
ENDBRANCH  14  15
ENDBRANCH  13  14
ENDBRANCH  12  13
ENDBRANCH   1  12
TORSDOF 16
ENDMDL
MODEL 9
REMARK VINA RESULT:    -0.851      1.588      2.924
REMARK INTER + INTRA:          -4.077
REMARK INTER:                  -1.191
REMARK INTRA:                  -2.886
REMARK UNBOUND:                -2.429
REMARK SMILES CCCCCCCCCCCCCCCCCC(=O)[O-]
REMARK SMILES IDX 10 1 11 2 12 3 13 4 14 5 15 6 16 7 17 8 18 9 19 10 20 11
REMARK SMILES IDX 9 12 8 13 7 14 6 15 5 16 4 17 3 18 2 19 1 20
REMARK H PARENT
REMARK Flexibility Score: inf
ROOT
ATOM      1  C   UNL     1     143.348 130.963 117.500  1.00  0.00     0.000 C 
ENDROOT
BRANCH   1   2
ATOM      2  C   UNL     1     144.824 131.316 117.223  1.00  0.00     0.000 C 
BRANCH   2   3
ATOM      3  C   UNL     1     145.259 131.185 115.751  1.00  0.00     0.000 C 
BRANCH   3   4
ATOM      4  C   UNL     1     146.072 129.918 115.427  1.00  0.00     0.000 C 
BRANCH   4   5
ATOM      5  C   UNL     1     145.401 129.002 114.382  1.00  0.00     0.000 C 
BRANCH   5   6
ATOM      6  C   UNL     1     145.419 127.523 114.799  1.00  0.00     0.000 C 
BRANCH   6   7
ATOM      7  C   UNL     1     145.956 127.361 116.227  1.00  0.00     0.006 C 
BRANCH   7   8
ATOM      8  C   UNL     1     144.855 126.875 117.175  1.00  0.00     0.053 C 
BRANCH   8   9
ATOM      9  C   UNL     1     144.890 127.646 118.456  1.00  0.00     0.041 C 
ATOM     10  O   UNL     1     143.881 127.671 119.208  1.00  0.00    -0.550 OA
ATOM     11  O   UNL     1     146.055 128.298 118.844  1.00  0.00    -0.550 OA
ENDBRANCH   8   9
ENDBRANCH   7   8
ENDBRANCH   6   7
ENDBRANCH   5   6
ENDBRANCH   4   5
ENDBRANCH   3   4
ENDBRANCH   2   3
ENDBRANCH   1   2
BRANCH   1  12
ATOM     12  C   UNL     1     142.560 130.437 116.283  1.00  0.00     0.000 C 
BRANCH  12  13
ATOM     13  C   UNL     1     142.079 128.980 116.399  1.00  0.00    -0.000 C 
BRANCH  13  14
ATOM     14  C   UNL     1     141.841 128.319 115.031  1.00  0.00    -0.000 C 
BRANCH  14  15
ATOM     15  C   UNL     1     141.052 126.997 115.145  1.00  0.00    -0.000 C 
BRANCH  15  16
ATOM     16  C   UNL     1     139.602 127.097 114.633  1.00  0.00    -0.000 C 
BRANCH  16  17
ATOM     17  C   UNL     1     139.313 128.322 113.745  1.00  0.00    -0.000 C 
BRANCH  17  18
ATOM     18  C   UNL     1     138.346 129.359 114.355  1.00  0.00    -0.000 C 
BRANCH  18  19
ATOM     19  C   UNL     1     138.201 129.292 115.886  1.00  0.00    -0.003 C 
ATOM     20  C   UNL     1     138.727 130.542 116.591  1.00  0.00     0.004 C 
ENDBRANCH  18  19
ENDBRANCH  17  18
ENDBRANCH  16  17
ENDBRANCH  15  16
ENDBRANCH  14  15
ENDBRANCH  13  14
ENDBRANCH  12  13
ENDBRANCH   1  12
TORSDOF 16
ENDMDL
