MODEL 1
REMARK VINA RESULT:    -7.315      0.000      0.000
REMARK INTER + INTRA:          -9.016
REMARK INTER:                  -8.811
REMARK INTRA:                  -0.205
REMARK UNBOUND:                -0.205
REMARK SMILES O=c1c(O)c(-c2ccc(O)c(O)c2)oc2cc(O)cc(O)c12
REMARK SMILES IDX 5 1 3 2 2 3 1 4 22 5 20 6 19 7 17 8 16 9 15 10 14 11 6 12
REMARK SMILES IDX 7 13 8 14 9 15 13 16 11 17 10 18 12 20 4 22 21 24 18 26
REMARK H PARENT 10 19 12 21 4 23 21 25 18 27
REMARK Flexibility Score: inf
ROOT
ATOM      1  C   UNL     1     -15.997   8.264 -12.836  1.00  0.00     0.180 A 
ATOM      2  C   UNL     1     -17.223   8.194 -12.151  1.00  0.00     0.208 A 
ATOM      3  C   UNL     1     -18.391   7.911 -12.875  1.00  0.00     0.238 A 
ATOM      4  O   UNL     1     -19.477   7.795 -12.248  1.00  0.00    -0.285 OA
ATOM      5  C   UNL     1     -18.324   7.718 -14.275  1.00  0.00     0.111 A 
ATOM      6  C   UNL     1     -19.451   7.466 -15.114  1.00  0.00     0.134 A 
ATOM      7  C   UNL     1     -19.250   7.161 -16.467  1.00  0.00     0.093 A 
ATOM      8  C   UNL     1     -17.969   7.164 -17.024  1.00  0.00     0.123 A 
ATOM      9  C   UNL     1     -16.869   7.468 -16.226  1.00  0.00     0.094 A 
ATOM     10  C   UNL     1     -17.032   7.740 -14.865  1.00  0.00     0.146 A 
ATOM     11  O   UNL     1     -15.956   8.014 -14.139  1.00  0.00    -0.452 OA
ENDROOT
BRANCH   1  12
ATOM     12  C   UNL     1     -14.726   8.582 -12.145  1.00  0.00     0.025 A 
ATOM     13  C   UNL     1     -14.152   7.634 -11.284  1.00  0.00     0.016 A 
ATOM     14  C   UNL     1     -12.942   7.905 -10.639  1.00  0.00     0.051 A 
ATOM     15  C   UNL     1     -12.282   9.118 -10.855  1.00  0.00     0.157 A 
ATOM     16  C   UNL     1     -14.050   9.793 -12.378  1.00  0.00     0.062 A 
ATOM     17  C   UNL     1     -12.834  10.066 -11.732  1.00  0.00     0.158 A 
BRANCH  15  18
ATOM     18  O   UNL     1     -11.078   9.361 -10.195  1.00  0.00    -0.504 OA
ATOM     19  H   UNL     1     -10.192   9.398 -10.686  1.00  0.00     0.293 HD
ENDBRANCH  15  18
BRANCH  17  20
ATOM     20  O   UNL     1     -12.175  11.272 -11.962  1.00  0.00    -0.504 OA
ATOM     21  H   UNL     1     -11.507  11.648 -11.300  1.00  0.00     0.293 HD
ENDBRANCH  17  20
ENDBRANCH   1  12
BRANCH   2  22
ATOM     22  O   UNL     1     -17.264   8.366 -10.765  1.00  0.00    -0.502 OA
ATOM     23  H   UNL     1     -17.322   9.279 -10.331  1.00  0.00     0.293 HD
ENDBRANCH   2  22
BRANCH   6  24
ATOM     24  O   UNL     1     -20.778   7.529 -14.679  1.00  0.00    -0.507 OA
ATOM     25  H   UNL     1     -21.134   7.070 -13.854  1.00  0.00     0.293 HD
ENDBRANCH   6  24
BRANCH   8  26
ATOM     26  O   UNL     1     -17.780   6.875 -18.373  1.00  0.00    -0.508 OA
ATOM     27  H   UNL     1     -17.253   7.493 -18.979  1.00  0.00     0.293 HD
ENDBRANCH   8  26
TORSDOF 6
ENDMDL
MODEL 2
REMARK VINA RESULT:    -7.214      0.581      1.455
REMARK INTER + INTRA:          -8.895
REMARK INTER:                  -8.708
REMARK INTRA:                  -0.187
REMARK UNBOUND:                -0.205
REMARK SMILES O=c1c(O)c(-c2ccc(O)c(O)c2)oc2cc(O)cc(O)c12
REMARK SMILES IDX 5 1 3 2 2 3 1 4 22 5 20 6 19 7 17 8 16 9 15 10 14 11 6 12
REMARK SMILES IDX 7 13 8 14 9 15 13 16 11 17 10 18 12 20 4 22 21 24 18 26
REMARK H PARENT 10 19 12 21 4 23 21 25 18 27
REMARK Flexibility Score: inf
ROOT
ATOM      1  C   UNL     1     -16.007   8.189 -12.829  1.00  0.00     0.180 A 
ATOM      2  C   UNL     1     -17.227   8.079 -12.139  1.00  0.00     0.208 A 
ATOM      3  C   UNL     1     -18.394   7.785 -12.861  1.00  0.00     0.238 A 
ATOM      4  O   UNL     1     -19.472   7.633 -12.231  1.00  0.00    -0.285 OA
ATOM      5  C   UNL     1     -18.331   7.622 -14.266  1.00  0.00     0.111 A 
ATOM      6  C   UNL     1     -19.458   7.363 -15.103  1.00  0.00     0.134 A 
ATOM      7  C   UNL     1     -19.260   7.090 -16.463  1.00  0.00     0.093 A 
ATOM      8  C   UNL     1     -17.982   7.133 -17.027  1.00  0.00     0.123 A 
ATOM      9  C   UNL     1     -16.884   7.444 -16.230  1.00  0.00     0.094 A 
ATOM     10  C   UNL     1     -17.044   7.684 -14.863  1.00  0.00     0.146 A 
ATOM     11  O   UNL     1     -15.969   7.967 -14.138  1.00  0.00    -0.452 OA
ENDROOT
BRANCH   1  12
ATOM     12  C   UNL     1     -14.739   8.521 -12.140  1.00  0.00     0.025 A 
ATOM     13  C   UNL     1     -14.146   9.776 -12.352  1.00  0.00     0.016 A 
ATOM     14  C   UNL     1     -12.961  10.118 -11.696  1.00  0.00     0.051 A 
ATOM     15  C   UNL     1     -12.360   9.221 -10.808  1.00  0.00     0.157 A 
ATOM     16  C   UNL     1     -14.145   7.629 -11.230  1.00  0.00     0.062 A 
ATOM     17  C   UNL     1     -12.955   7.971 -10.569  1.00  0.00     0.158 A 
BRANCH  15  18
ATOM     18  O   UNL     1     -11.176   9.589 -10.169  1.00  0.00    -0.504 OA
ATOM     19  H   UNL     1     -10.267   9.314 -10.520  1.00  0.00     0.293 HD
ENDBRANCH  15  18
BRANCH  17  20
ATOM     20  O   UNL     1     -12.369   7.077  -9.675  1.00  0.00    -0.504 OA
ATOM     21  H   UNL     1     -11.885   7.397  -8.845  1.00  0.00     0.293 HD
ENDBRANCH  17  20
ENDBRANCH   1  12
BRANCH   2  22
ATOM     22  O   UNL     1     -17.263   8.222 -10.749  1.00  0.00    -0.502 OA
ATOM     23  H   UNL     1     -17.690   7.532 -10.143  1.00  0.00     0.293 HD
ENDBRANCH   2  22
BRANCH   6  24
ATOM     24  O   UNL     1     -20.783   7.388 -14.658  1.00  0.00    -0.507 OA
ATOM     25  H   UNL     1     -21.089   7.795 -13.787  1.00  0.00     0.293 HD
ENDBRANCH   6  24
BRANCH   8  26
ATOM     26  O   UNL     1     -17.796   6.875 -18.384  1.00  0.00    -0.508 OA
ATOM     27  H   UNL     1     -16.971   7.198 -18.876  1.00  0.00     0.293 HD
ENDBRANCH   8  26
TORSDOF 6
ENDMDL
MODEL 3
REMARK VINA RESULT:    -6.906      1.612      7.149
REMARK INTER + INTRA:          -8.524
REMARK INTER:                  -8.350
REMARK INTRA:                  -0.174
REMARK UNBOUND:                -0.205
REMARK SMILES O=c1c(O)c(-c2ccc(O)c(O)c2)oc2cc(O)cc(O)c12
REMARK SMILES IDX 5 1 3 2 2 3 1 4 22 5 20 6 19 7 17 8 16 9 15 10 14 11 6 12
REMARK SMILES IDX 7 13 8 14 9 15 13 16 11 17 10 18 12 20 4 22 21 24 18 26
REMARK H PARENT 10 19 12 21 4 23 21 25 18 27
REMARK Flexibility Score: inf
ROOT
ATOM      1  C   UNL     1     -14.863   8.546 -12.117  1.00  0.00     0.180 A 
ATOM      2  C   UNL     1     -14.678   7.896 -10.883  1.00  0.00     0.208 A 
ATOM      3  C   UNL     1     -13.635   8.315 -10.043  1.00  0.00     0.238 A 
ATOM      4  O   UNL     1     -13.508   7.767  -8.918  1.00  0.00    -0.285 OA
ATOM      5  C   UNL     1     -12.780   9.366 -10.452  1.00  0.00     0.111 A 
ATOM      6  C   UNL     1     -11.666   9.845  -9.698  1.00  0.00     0.134 A 
ATOM      7  C   UNL     1     -10.969  10.977 -10.139  1.00  0.00     0.093 A 
ATOM      8  C   UNL     1     -11.304  11.607 -11.341  1.00  0.00     0.123 A 
ATOM      9  C   UNL     1     -12.351  11.110 -12.113  1.00  0.00     0.094 A 
ATOM     10  C   UNL     1     -13.089  10.006 -11.682  1.00  0.00     0.146 A 
ATOM     11  O   UNL     1     -14.086   9.572 -12.443  1.00  0.00    -0.452 OA
ENDROOT
BRANCH   1  12
ATOM     12  C   UNL     1     -15.926   8.144 -13.067  1.00  0.00     0.025 A 
ATOM     13  C   UNL     1     -15.571   7.545 -14.285  1.00  0.00     0.016 A 
ATOM     14  C   UNL     1     -16.558   7.137 -15.188  1.00  0.00     0.051 A 
ATOM     15  C   UNL     1     -17.911   7.309 -14.881  1.00  0.00     0.157 A 
ATOM     16  C   UNL     1     -17.288   8.296 -12.750  1.00  0.00     0.062 A 
ATOM     17  C   UNL     1     -18.280   7.887 -13.654  1.00  0.00     0.158 A 
BRANCH  15  18
ATOM     18  O   UNL     1     -18.873   6.896 -15.801  1.00  0.00    -0.504 OA
ATOM     19  H   UNL     1     -19.453   6.080 -15.645  1.00  0.00     0.293 HD
ENDBRANCH  15  18
BRANCH  17  20
ATOM     20  O   UNL     1     -19.627   8.049 -13.335  1.00  0.00    -0.504 OA
ATOM     21  H   UNL     1     -19.971   8.894 -12.894  1.00  0.00     0.293 HD
ENDBRANCH  17  20
ENDBRANCH   1  12
BRANCH   2  22
ATOM     22  O   UNL     1     -15.547   6.875 -10.490  1.00  0.00    -0.502 OA
ATOM     23  H   UNL     1     -16.487   7.058 -10.159  1.00  0.00     0.293 HD
ENDBRANCH   2  22
BRANCH   6  24
ATOM     24  O   UNL     1     -11.191   9.234  -8.534  1.00  0.00    -0.507 OA
ATOM     25  H   UNL     1     -11.526   9.432  -7.603  1.00  0.00     0.293 HD
ENDBRANCH   6  24
BRANCH   8  26
ATOM     26  O   UNL     1     -10.595  12.723 -11.780  1.00  0.00    -0.508 OA
ATOM     27  H   UNL     1     -11.064  13.589 -12.018  1.00  0.00     0.293 HD
ENDBRANCH   8  26
TORSDOF 6
ENDMDL
MODEL 4
REMARK VINA RESULT:    -6.686      1.835      3.716
REMARK INTER + INTRA:          -8.259
REMARK INTER:                  -7.988
REMARK INTRA:                  -0.272
REMARK UNBOUND:                -0.205
REMARK SMILES O=c1c(O)c(-c2ccc(O)c(O)c2)oc2cc(O)cc(O)c12
REMARK SMILES IDX 5 1 3 2 2 3 1 4 22 5 20 6 19 7 17 8 16 9 15 10 14 11 6 12
REMARK SMILES IDX 7 13 8 14 9 15 13 16 11 17 10 18 12 20 4 22 21 24 18 26
REMARK H PARENT 10 19 12 21 4 23 21 25 18 27
REMARK Flexibility Score: inf
ROOT
ATOM      1  C   UNL     1     -15.898   8.614 -11.876  1.00  0.00     0.180 A 
ATOM      2  C   UNL     1     -16.305   8.131 -13.133  1.00  0.00     0.208 A 
ATOM      3  C   UNL     1     -17.657   7.810 -13.333  1.00  0.00     0.238 A 
ATOM      4  O   UNL     1     -18.025   7.431 -14.475  1.00  0.00    -0.285 OA
ATOM      5  C   UNL     1     -18.582   7.960 -12.272  1.00  0.00     0.111 A 
ATOM      6  C   UNL     1     -19.968   7.626 -12.351  1.00  0.00     0.134 A 
ATOM      7  C   UNL     1     -20.815   7.938 -11.281  1.00  0.00     0.093 A 
ATOM      8  C   UNL     1     -20.314   8.511 -10.108  1.00  0.00     0.123 A 
ATOM      9  C   UNL     1     -18.954   8.784  -9.999  1.00  0.00     0.094 A 
ATOM     10  C   UNL     1     -18.089   8.520 -11.063  1.00  0.00     0.146 A 
ATOM     11  O   UNL     1     -16.800   8.805 -10.921  1.00  0.00    -0.452 OA
ENDROOT
BRANCH   1  12
ATOM     12  C   UNL     1     -14.487   8.950 -11.582  1.00  0.00     0.025 A 
ATOM     13  C   UNL     1     -13.696   8.040 -10.862  1.00  0.00     0.016 A 
ATOM     14  C   UNL     1     -12.355   8.327 -10.591  1.00  0.00     0.051 A 
ATOM     15  C   UNL     1     -11.781   9.518 -11.047  1.00  0.00     0.157 A 
ATOM     16  C   UNL     1     -13.901  10.137 -12.058  1.00  0.00     0.062 A 
ATOM     17  C   UNL     1     -12.555  10.427 -11.788  1.00  0.00     0.158 A 
BRANCH  15  18
ATOM     18  O   UNL     1     -10.442   9.778 -10.759  1.00  0.00    -0.504 OA
ATOM     19  H   UNL     1     -10.085  10.721 -10.663  1.00  0.00     0.293 HD
ENDBRANCH  15  18
BRANCH  17  20
ATOM     20  O   UNL     1     -11.986  11.609 -12.257  1.00  0.00    -0.504 OA
ATOM     21  H   UNL     1     -12.040  12.471 -11.729  1.00  0.00     0.293 HD
ENDBRANCH  17  20
ENDBRANCH   1  12
BRANCH   2  22
ATOM     22  O   UNL     1     -15.380   8.012 -14.173  1.00  0.00    -0.502 OA
ATOM     23  H   UNL     1     -15.259   8.730 -14.877  1.00  0.00     0.293 HD
ENDBRANCH   2  22
BRANCH   6  24
ATOM     24  O   UNL     1     -20.551   6.969 -13.438  1.00  0.00    -0.507 OA
ATOM     25  H   UNL     1     -20.049   6.645 -14.251  1.00  0.00     0.293 HD
ENDBRANCH   6  24
BRANCH   8  26
ATOM     26  O   UNL     1     -21.162   8.804  -9.043  1.00  0.00    -0.508 OA
ATOM     27  H   UNL     1     -20.800   9.036  -8.125  1.00  0.00     0.293 HD
ENDBRANCH   8  26
TORSDOF 6
ENDMDL
MODEL 5
REMARK VINA RESULT:    -6.490      2.453      8.182
REMARK INTER + INTRA:          -8.023
REMARK INTER:                  -7.746
REMARK INTRA:                  -0.277
REMARK UNBOUND:                -0.205
REMARK SMILES O=c1c(O)c(-c2ccc(O)c(O)c2)oc2cc(O)cc(O)c12
REMARK SMILES IDX 5 1 3 2 2 3 1 4 22 5 20 6 19 7 17 8 16 9 15 10 14 11 6 12
REMARK SMILES IDX 7 13 8 14 9 15 13 16 11 17 10 18 12 20 4 22 21 24 18 26
REMARK H PARENT 10 19 12 21 4 23 21 25 18 27
REMARK Flexibility Score: inf
ROOT
ATOM      1  C   UNL     1     -12.979   9.409 -10.885  1.00  0.00     0.180 A 
ATOM      2  C   UNL     1     -12.284   8.605  -9.964  1.00  0.00     0.208 A 
ATOM      3  C   UNL     1     -11.053   9.054  -9.461  1.00  0.00     0.238 A 
ATOM      4  O   UNL     1     -10.463   8.356  -8.596  1.00  0.00    -0.285 OA
ATOM      5  C   UNL     1     -10.523  10.292  -9.897  1.00  0.00     0.111 A 
ATOM      6  C   UNL     1      -9.265  10.826  -9.484  1.00  0.00     0.134 A 
ATOM      7  C   UNL     1      -8.902  12.120  -9.878  1.00  0.00     0.093 A 
ATOM      8  C   UNL     1      -9.721  12.873 -10.723  1.00  0.00     0.123 A 
ATOM      9  C   UNL     1     -10.922  12.337 -11.179  1.00  0.00     0.094 A 
ATOM     10  C   UNL     1     -11.330  11.064 -10.774  1.00  0.00     0.146 A 
ATOM     11  O   UNL     1     -12.488  10.595 -11.224  1.00  0.00    -0.452 OA
ENDROOT
BRANCH   1  12
ATOM     12  C   UNL     1     -14.270   8.991 -11.478  1.00  0.00     0.025 A 
ATOM     13  C   UNL     1     -15.450   9.132 -10.731  1.00  0.00     0.016 A 
ATOM     14  C   UNL     1     -16.682   8.765 -11.279  1.00  0.00     0.051 A 
ATOM     15  C   UNL     1     -16.756   8.266 -12.583  1.00  0.00     0.157 A 
ATOM     16  C   UNL     1     -14.348   8.509 -12.797  1.00  0.00     0.062 A 
ATOM     17  C   UNL     1     -15.585   8.141 -13.349  1.00  0.00     0.158 A 
BRANCH  15  18
ATOM     18  O   UNL     1     -17.998   7.905 -13.101  1.00  0.00    -0.504 OA
ATOM     19  H   UNL     1     -18.111   7.124 -13.737  1.00  0.00     0.293 HD
ENDBRANCH  15  18
BRANCH  17  20
ATOM     20  O   UNL     1     -15.652   7.657 -14.654  1.00  0.00    -0.504 OA
ATOM     21  H   UNL     1     -16.273   8.067 -15.342  1.00  0.00     0.293 HD
ENDBRANCH  17  20
ENDBRANCH   1  12
BRANCH   2  22
ATOM     22  O   UNL     1     -12.835   7.396  -9.530  1.00  0.00    -0.502 OA
ATOM     23  H   UNL     1     -12.521   6.925  -8.691  1.00  0.00     0.293 HD
ENDBRANCH   2  22
BRANCH   6  24
ATOM     24  O   UNL     1      -8.333  10.123  -8.716  1.00  0.00    -0.507 OA
ATOM     25  H   UNL     1      -7.340  10.098  -8.897  1.00  0.00     0.293 HD
ENDBRANCH   6  24
BRANCH   8  26
ATOM     26  O   UNL     1      -9.344  14.153 -11.122  1.00  0.00    -0.508 OA
ATOM     27  H   UNL     1      -8.956  14.329 -12.042  1.00  0.00     0.293 HD
ENDBRANCH   8  26
TORSDOF 6
ENDMDL
MODEL 6
REMARK VINA RESULT:    -6.336      3.495      6.099
REMARK INTER + INTRA:          -7.838
REMARK INTER:                  -7.615
REMARK INTRA:                  -0.222
REMARK UNBOUND:                -0.205
REMARK SMILES O=c1c(O)c(-c2ccc(O)c(O)c2)oc2cc(O)cc(O)c12
REMARK SMILES IDX 5 1 3 2 2 3 1 4 22 5 20 6 19 7 17 8 16 9 15 10 14 11 6 12
REMARK SMILES IDX 7 13 8 14 9 15 13 16 11 17 10 18 12 20 4 22 21 24 18 26
REMARK H PARENT 10 19 12 21 4 23 21 25 18 27
REMARK Flexibility Score: inf
ROOT
ATOM      1  C   UNL     1     -12.001   9.869 -10.378  1.00  0.00     0.180 A 
ATOM      2  C   UNL     1     -12.515  10.084 -11.669  1.00  0.00     0.208 A 
ATOM      3  C   UNL     1     -13.772   9.553 -11.998  1.00  0.00     0.238 A 
ATOM      4  O   UNL     1     -14.251   9.796 -13.136  1.00  0.00    -0.285 OA
ATOM      5  C   UNL     1     -14.492   8.800 -11.040  1.00  0.00     0.111 A 
ATOM      6  C   UNL     1     -15.756   8.181 -11.278  1.00  0.00     0.134 A 
ATOM      7  C   UNL     1     -16.437   7.571 -10.217  1.00  0.00     0.093 A 
ATOM      8  C   UNL     1     -15.869   7.500  -8.942  1.00  0.00     0.123 A 
ATOM      9  C   UNL     1     -14.610   8.048  -8.715  1.00  0.00     0.094 A 
ATOM     10  C   UNL     1     -13.921   8.696  -9.743  1.00  0.00     0.146 A 
ATOM     11  O   UNL     1     -12.728   9.214  -9.481  1.00  0.00    -0.452 OA
ENDROOT
BRANCH   1  12
ATOM     12  C   UNL     1     -10.672  10.376  -9.965  1.00  0.00     0.025 A 
ATOM     13  C   UNL     1     -10.497  11.750  -9.740  1.00  0.00     0.016 A 
ATOM     14  C   UNL     1      -9.258  12.248  -9.328  1.00  0.00     0.051 A 
ATOM     15  C   UNL     1      -8.181  11.381  -9.122  1.00  0.00     0.157 A 
ATOM     16  C   UNL     1      -9.593   9.503  -9.737  1.00  0.00     0.062 A 
ATOM     17  C   UNL     1      -8.348  10.001  -9.322  1.00  0.00     0.158 A 
BRANCH  15  18
ATOM     18  O   UNL     1      -6.956  11.907  -8.715  1.00  0.00    -0.504 OA
ATOM     19  H   UNL     1      -6.754  12.899  -8.758  1.00  0.00     0.293 HD
ENDBRANCH  15  18
BRANCH  17  20
ATOM     20  O   UNL     1      -7.283   9.129  -9.106  1.00  0.00    -0.504 OA
ATOM     21  H   UNL     1      -7.285   8.185  -9.474  1.00  0.00     0.293 HD
ENDBRANCH  17  20
ENDBRANCH   1  12
BRANCH   2  22
ATOM     22  O   UNL     1     -11.798  10.849 -12.593  1.00  0.00    -0.502 OA
ATOM     23  H   UNL     1     -10.787  10.831 -12.645  1.00  0.00     0.293 HD
ENDBRANCH   2  22
BRANCH   6  24
ATOM     24  O   UNL     1     -16.368   8.115 -12.533  1.00  0.00    -0.507 OA
ATOM     25  H   UNL     1     -17.343   8.307 -12.709  1.00  0.00     0.293 HD
ENDBRANCH   6  24
BRANCH   8  26
ATOM     26  O   UNL     1     -16.547   6.877  -7.897  1.00  0.00    -0.508 OA
ATOM     27  H   UNL     1     -16.822   5.903  -7.948  1.00  0.00     0.293 HD
ENDBRANCH   8  26
TORSDOF 6
ENDMDL
MODEL 7
REMARK VINA RESULT:    -6.231      2.661      4.925
REMARK INTER + INTRA:          -7.711
REMARK INTER:                  -7.545
REMARK INTRA:                  -0.166
REMARK UNBOUND:                -0.205
REMARK SMILES O=c1c(O)c(-c2ccc(O)c(O)c2)oc2cc(O)cc(O)c12
REMARK SMILES IDX 5 1 3 2 2 3 1 4 22 5 20 6 19 7 17 8 16 9 15 10 14 11 6 12
REMARK SMILES IDX 7 13 8 14 9 15 13 16 11 17 10 18 12 20 4 22 21 24 18 26
REMARK H PARENT 10 19 12 21 4 23 21 25 18 27
REMARK Flexibility Score: inf
ROOT
ATOM      1  C   UNL     1     -12.430   9.157 -10.198  1.00  0.00     0.180 A 
ATOM      2  C   UNL     1     -13.074   8.509  -9.128  1.00  0.00     0.208 A 
ATOM      3  C   UNL     1     -14.318   7.901  -9.353  1.00  0.00     0.238 A 
ATOM      4  O   UNL     1     -14.863   7.275  -8.406  1.00  0.00    -0.285 OA
ATOM      5  C   UNL     1     -14.912   7.960 -10.636  1.00  0.00     0.111 A 
ATOM      6  C   UNL     1     -16.189   7.413 -10.965  1.00  0.00     0.134 A 
ATOM      7  C   UNL     1     -16.618   7.417 -12.298  1.00  0.00     0.093 A 
ATOM      8  C   UNL     1     -15.846   8.007 -13.303  1.00  0.00     0.123 A 
ATOM      9  C   UNL     1     -14.627   8.596 -12.981  1.00  0.00     0.094 A 
ATOM     10  C   UNL     1     -14.153   8.576 -11.667  1.00  0.00     0.146 A 
ATOM     11  O   UNL     1     -12.981   9.140 -11.405  1.00  0.00    -0.452 OA
ENDROOT
BRANCH   1  12
ATOM     12  C   UNL     1     -11.127   9.843 -10.033  1.00  0.00     0.025 A 
ATOM     13  C   UNL     1     -11.066  11.241 -10.141  1.00  0.00     0.016 A 
ATOM     14  C   UNL     1      -9.851  11.911  -9.967  1.00  0.00     0.051 A 
ATOM     15  C   UNL     1      -8.686  11.198  -9.671  1.00  0.00     0.157 A 
ATOM     16  C   UNL     1      -9.959   9.129  -9.714  1.00  0.00     0.062 A 
ATOM     17  C   UNL     1      -8.739   9.800  -9.538  1.00  0.00     0.158 A 
BRANCH  15  18
ATOM     18  O   UNL     1      -7.489  11.893  -9.507  1.00  0.00    -0.504 OA
ATOM     19  H   UNL     1      -7.464  12.856  -9.191  1.00  0.00     0.293 HD
ENDBRANCH  15  18
BRANCH  17  20
ATOM     20  O   UNL     1      -7.584   9.084  -9.229  1.00  0.00    -0.504 OA
ATOM     21  H   UNL     1      -7.001   9.331  -8.439  1.00  0.00     0.293 HD
ENDBRANCH  17  20
ENDBRANCH   1  12
BRANCH   2  22
ATOM     22  O   UNL     1     -12.460   8.443  -7.875  1.00  0.00    -0.502 OA
ATOM     23  H   UNL     1     -11.477   8.227  -7.762  1.00  0.00     0.293 HD
ENDBRANCH   2  22
BRANCH   6  24
ATOM     24  O   UNL     1     -17.076   6.884 -10.025  1.00  0.00    -0.507 OA
ATOM     25  H   UNL     1     -17.712   7.430  -9.462  1.00  0.00     0.293 HD
ENDBRANCH   6  24
BRANCH   8  26
ATOM     26  O   UNL     1     -16.288   8.019 -14.624  1.00  0.00    -0.508 OA
ATOM     27  H   UNL     1     -16.148   8.825 -15.222  1.00  0.00     0.293 HD
ENDBRANCH   8  26
TORSDOF 6
ENDMDL
MODEL 8
REMARK VINA RESULT:    -6.013      1.465      6.718
REMARK INTER + INTRA:          -7.449
REMARK INTER:                  -7.656
REMARK INTRA:                   0.208
REMARK UNBOUND:                -0.205
REMARK SMILES O=c1c(O)c(-c2ccc(O)c(O)c2)oc2cc(O)cc(O)c12
REMARK SMILES IDX 5 1 3 2 2 3 1 4 22 5 20 6 19 7 17 8 16 9 15 10 14 11 6 12
REMARK SMILES IDX 7 13 8 14 9 15 13 16 11 17 10 18 12 20 4 22 21 24 18 26
REMARK H PARENT 10 19 12 21 4 23 21 25 18 27
REMARK Flexibility Score: inf
ROOT
ATOM      1  C   UNL     1     -16.230   7.850 -12.657  1.00  0.00     0.180 A 
ATOM      2  C   UNL     1     -16.694   7.432 -11.397  1.00  0.00     0.208 A 
ATOM      3  C   UNL     1     -15.871   7.613 -10.275  1.00  0.00     0.238 A 
ATOM      4  O   UNL     1     -16.314   7.287  -9.142  1.00  0.00    -0.285 OA
ATOM      5  C   UNL     1     -14.590   8.193 -10.427  1.00  0.00     0.111 A 
ATOM      6  C   UNL     1     -13.656   8.387  -9.364  1.00  0.00     0.134 A 
ATOM      7  C   UNL     1     -12.469   9.090  -9.607  1.00  0.00     0.093 A 
ATOM      8  C   UNL     1     -12.153   9.548 -10.889  1.00  0.00     0.123 A 
ATOM      9  C   UNL     1     -13.030   9.312 -11.943  1.00  0.00     0.094 A 
ATOM     10  C   UNL     1     -14.239   8.646 -11.726  1.00  0.00     0.146 A 
ATOM     11  O   UNL     1     -15.051   8.450 -12.758  1.00  0.00    -0.452 OA
ENDROOT
BRANCH   1  12
ATOM     12  C   UNL     1     -17.030   7.670 -13.890  1.00  0.00     0.025 A 
ATOM     13  C   UNL     1     -18.417   7.883 -13.850  1.00  0.00     0.016 A 
ATOM     14  C   UNL     1     -19.189   7.740 -15.007  1.00  0.00     0.051 A 
ATOM     15  C   UNL     1     -18.586   7.397 -16.221  1.00  0.00     0.157 A 
ATOM     16  C   UNL     1     -16.423   7.347 -15.117  1.00  0.00     0.062 A 
ATOM     17  C   UNL     1     -17.196   7.204 -16.279  1.00  0.00     0.158 A 
BRANCH  15  18
ATOM     18  O   UNL     1     -19.382   7.259 -17.357  1.00  0.00    -0.504 OA
ATOM     19  H   UNL     1     -19.040   7.482 -18.285  1.00  0.00     0.293 HD
ENDBRANCH  15  18
BRANCH  17  20
ATOM     20  O   UNL     1     -16.586   6.876 -17.489  1.00  0.00    -0.504 OA
ATOM     21  H   UNL     1     -16.643   5.942 -17.877  1.00  0.00     0.293 HD
ENDBRANCH  17  20
ENDBRANCH   1  12
BRANCH   2  22
ATOM     22  O   UNL     1     -17.972   6.881 -11.266  1.00  0.00    -0.502 OA
ATOM     23  H   UNL     1     -18.131   5.963 -10.869  1.00  0.00     0.293 HD
ENDBRANCH   2  22
BRANCH   6  24
ATOM     24  O   UNL     1     -13.832   7.889  -8.070  1.00  0.00    -0.507 OA
ATOM     25  H   UNL     1     -14.460   7.138  -7.823  1.00  0.00     0.293 HD
ENDBRANCH   6  24
BRANCH   8  26
ATOM     26  O   UNL     1     -10.963  10.234 -11.124  1.00  0.00    -0.508 OA
ATOM     27  H   UNL     1     -10.486  10.177 -12.017  1.00  0.00     0.293 HD
ENDBRANCH   8  26
TORSDOF 6
ENDMDL
MODEL 9
REMARK VINA RESULT:    -5.010      1.033      1.219
REMARK INTER + INTRA:          -6.241
REMARK INTER:                  -6.082
REMARK INTRA:                  -0.159
REMARK UNBOUND:                -0.205
REMARK SMILES O=c1c(O)c(-c2ccc(O)c(O)c2)oc2cc(O)cc(O)c12
REMARK SMILES IDX 5 1 3 2 2 3 1 4 22 5 20 6 19 7 17 8 16 9 15 10 14 11 6 12
REMARK SMILES IDX 7 13 8 14 9 15 13 16 11 17 10 18 12 20 4 22 21 24 18 26
REMARK H PARENT 10 19 12 21 4 23 21 25 18 27
REMARK Flexibility Score: inf
ROOT
ATOM      1  C   UNL     1     -15.057   8.659 -12.313  1.00  0.00     0.180 A 
ATOM      2  C   UNL     1     -16.195   8.455 -11.512  1.00  0.00     0.208 A 
ATOM      3  C   UNL     1     -17.378   8.000 -12.114  1.00  0.00     0.238 A 
ATOM      4  O   UNL     1     -18.376   7.766 -11.383  1.00  0.00    -0.285 OA
ATOM      5  C   UNL     1     -17.416   7.773 -13.510  1.00  0.00     0.111 A 
ATOM      6  C   UNL     1     -18.574   7.351 -14.231  1.00  0.00     0.134 A 
ATOM      7  C   UNL     1     -18.462   7.031 -15.590  1.00  0.00     0.093 A 
ATOM      8  C   UNL     1     -17.249   7.181 -16.268  1.00  0.00     0.123 A 
ATOM      9  C   UNL     1     -16.129   7.649 -15.586  1.00  0.00     0.094 A 
ATOM     10  C   UNL     1     -16.199   7.941 -14.222  1.00  0.00     0.146 A 
ATOM     11  O   UNL     1     -15.105   8.375 -13.609  1.00  0.00    -0.452 OA
ENDROOT
BRANCH   1  12
ATOM     12  C   UNL     1     -13.780   9.161 -11.755  1.00  0.00     0.025 A 
ATOM     13  C   UNL     1     -13.053   8.356 -10.864  1.00  0.00     0.016 A 
ATOM     14  C   UNL     1     -11.835   8.799 -10.342  1.00  0.00     0.051 A 
ATOM     15  C   UNL     1     -11.319  10.045 -10.712  1.00  0.00     0.157 A 
ATOM     16  C   UNL     1     -13.249  10.404 -12.143  1.00  0.00     0.062 A 
ATOM     17  C   UNL     1     -12.026  10.851 -11.620  1.00  0.00     0.158 A 
BRANCH  15  18
ATOM     18  O   UNL     1     -10.103  10.462 -10.172  1.00  0.00    -0.504 OA
ATOM     19  H   UNL     1      -9.217  10.075 -10.476  1.00  0.00     0.293 HD
ENDBRANCH  15  18
BRANCH  17  20
ATOM     20  O   UNL     1     -11.510  12.087 -12.005  1.00  0.00    -0.504 OA
ATOM     21  H   UNL     1     -11.450  12.358 -12.979  1.00  0.00     0.293 HD
ENDBRANCH  17  20
ENDBRANCH   1  12
BRANCH   2  22
ATOM     22  O   UNL     1     -16.129   8.664 -10.132  1.00  0.00    -0.502 OA
ATOM     23  H   UNL     1     -15.255   8.643  -9.620  1.00  0.00     0.293 HD
ENDBRANCH   2  22
BRANCH   6  24
ATOM     24  O   UNL     1     -19.851   7.257 -13.671  1.00  0.00    -0.507 OA
ATOM     25  H   UNL     1     -20.276   7.961 -13.086  1.00  0.00     0.293 HD
ENDBRANCH   6  24
BRANCH   8  26
ATOM     26  O   UNL     1     -17.151   6.875 -17.624  1.00  0.00    -0.508 OA
ATOM     27  H   UNL     1     -16.699   7.504 -18.278  1.00  0.00     0.293 HD
ENDBRANCH   8  26
TORSDOF 6
ENDMDL
