MODEL 1
REMARK VINA RESULT:    -4.677      0.000      0.000
REMARK INTER + INTRA:         -10.252
REMARK INTER:                  -8.505
REMARK INTRA:                  -1.748
REMARK UNBOUND:                -1.748
REMARK SMILES CCCCCCCCCCCCCCCC(=O)[O-]
REMARK SMILES IDX 9 1 10 2 11 3 12 4 13 5 14 6 15 7 16 8 17 9 18 10 8 11 7 12
REMARK SMILES IDX 6 13 5 14 4 15 3 16 2 17 1 18
REMARK H PARENT
REMARK Flexibility Score: inf
ROOT
ATOM      1  C   UNL     1      45.323  21.662  21.089  1.00  0.00     0.000 C 
ENDROOT
BRANCH   1   2
ATOM      2  C   UNL     1      46.630  22.440  21.336  1.00  0.00     0.000 C 
BRANCH   2   3
ATOM      3  C   UNL     1      47.279  23.034  20.070  1.00  0.00     0.000 C 
BRANCH   3   4
ATOM      4  C   UNL     1      46.365  23.958  19.241  1.00  0.00     0.000 C 
BRANCH   4   5
ATOM      5  C   UNL     1      46.141  25.358  19.837  1.00  0.00     0.000 C 
BRANCH   5   6
ATOM      6  C   UNL     1      44.711  25.876  19.624  1.00  0.00     0.006 C 
BRANCH   6   7
ATOM      7  C   UNL     1      43.977  26.023  20.960  1.00  0.00     0.053 C 
BRANCH   7   8
ATOM      8  C   UNL     1      42.496  26.017  20.748  1.00  0.00     0.041 C 
ATOM      9  O   UNL     1      41.738  25.456  21.582  1.00  0.00    -0.550 OA
ATOM     10  O   UNL     1      41.956  26.590  19.603  1.00  0.00    -0.550 OA
ENDBRANCH   7   8
ENDBRANCH   6   7
ENDBRANCH   5   6
ENDBRANCH   4   5
ENDBRANCH   3   4
ENDBRANCH   2   3
ENDBRANCH   1   2
BRANCH   1  11
ATOM     11  C   UNL     1      44.067  22.265  21.753  1.00  0.00     0.000 C 
BRANCH  11  12
ATOM     12  C   UNL     1      42.773  22.157  20.926  1.00  0.00    -0.000 C 
BRANCH  12  13
ATOM     13  C   UNL     1      42.930  22.701  19.497  1.00  0.00    -0.000 C 
BRANCH  13  14
ATOM     14  C   UNL     1      41.580  22.972  18.808  1.00  0.00    -0.000 C 
BRANCH  14  15
ATOM     15  C   UNL     1      41.310  22.142  17.537  1.00  0.00    -0.000 C 
BRANCH  15  16
ATOM     16  C   UNL     1      39.826  21.858  17.245  1.00  0.00    -0.000 C 
BRANCH  16  17
ATOM     17  C   UNL     1      39.002  23.138  17.051  1.00  0.00    -0.003 C 
ATOM     18  C   UNL     1      37.563  22.942  17.522  1.00  0.00     0.004 C 
ENDBRANCH  16  17
ENDBRANCH  15  16
ENDBRANCH  14  15
ENDBRANCH  13  14
ENDBRANCH  12  13
ENDBRANCH  11  12
ENDBRANCH   1  11
TORSDOF 14
ENDMDL
MODEL 2
REMARK VINA RESULT:    -4.653      2.282      3.811
REMARK INTER + INTRA:         -10.209
REMARK INTER:                  -8.965
REMARK INTRA:                  -1.244
REMARK UNBOUND:                -1.748
REMARK SMILES CCCCCCCCCCCCCCCC(=O)[O-]
REMARK SMILES IDX 9 1 10 2 11 3 12 4 13 5 14 6 15 7 16 8 17 9 18 10 8 11 7 12
REMARK SMILES IDX 6 13 5 14 4 15 3 16 2 17 1 18
REMARK H PARENT
REMARK Flexibility Score: inf
ROOT
ATOM      1  C   UNL     1      42.022  26.157  19.930  1.00  0.00     0.000 C 
ENDROOT
BRANCH   1   2
ATOM      2  C   UNL     1      42.856  27.289  20.560  1.00  0.00     0.000 C 
BRANCH   2   3
ATOM      3  C   UNL     1      44.277  27.443  19.983  1.00  0.00     0.000 C 
BRANCH   3   4
ATOM      4  C   UNL     1      45.031  26.120  19.742  1.00  0.00     0.000 C 
BRANCH   4   5
ATOM      5  C   UNL     1      46.556  26.257  19.595  1.00  0.00     0.000 C 
BRANCH   5   6
ATOM      6  C   UNL     1      47.226  24.969  19.092  1.00  0.00     0.006 C 
BRANCH   6   7
ATOM      7  C   UNL     1      46.247  23.792  19.129  1.00  0.00     0.053 C 
BRANCH   7   8
ATOM      8  C   UNL     1      46.666  22.794  20.161  1.00  0.00     0.041 C 
ATOM      9  O   UNL     1      45.808  22.064  20.723  1.00  0.00    -0.550 OA
ATOM     10  O   UNL     1      48.000  22.704  20.541  1.00  0.00    -0.550 OA
ENDBRANCH   7   8
ENDBRANCH   6   7
ENDBRANCH   5   6
ENDBRANCH   4   5
ENDBRANCH   3   4
ENDBRANCH   2   3
ENDBRANCH   1   2
BRANCH   1  11
ATOM     11  C   UNL     1      41.705  24.976  20.871  1.00  0.00     0.000 C 
BRANCH  11  12
ATOM     12  C   UNL     1      41.243  23.685  20.171  1.00  0.00    -0.000 C 
BRANCH  12  13
ATOM     13  C   UNL     1      42.389  22.955  19.450  1.00  0.00    -0.000 C 
BRANCH  13  14
ATOM     14  C   UNL     1      41.967  22.382  18.084  1.00  0.00    -0.000 C 
BRANCH  14  15
ATOM     15  C   UNL     1      40.602  22.870  17.558  1.00  0.00    -0.000 C 
BRANCH  15  16
ATOM     16  C   UNL     1      39.629  21.756  17.134  1.00  0.00    -0.000 C 
BRANCH  16  17
ATOM     17  C   UNL     1      38.176  22.054  17.528  1.00  0.00    -0.003 C 
ATOM     18  C   UNL     1      37.932  23.557  17.631  1.00  0.00     0.004 C 
ENDBRANCH  16  17
ENDBRANCH  15  16
ENDBRANCH  14  15
ENDBRANCH  13  14
ENDBRANCH  12  13
ENDBRANCH  11  12
ENDBRANCH   1  11
TORSDOF 14
ENDMDL
MODEL 3
REMARK VINA RESULT:    -4.643      1.669      2.299
REMARK INTER + INTRA:         -10.191
REMARK INTER:                  -8.747
REMARK INTRA:                  -1.444
REMARK UNBOUND:                -1.748
REMARK SMILES CCCCCCCCCCCCCCCC(=O)[O-]
REMARK SMILES IDX 9 1 10 2 11 3 12 4 13 5 14 6 15 7 16 8 17 9 18 10 8 11 7 12
REMARK SMILES IDX 6 13 5 14 4 15 3 16 2 17 1 18
REMARK H PARENT
REMARK Flexibility Score: inf
ROOT
ATOM      1  C   UNL     1      43.360  21.711  20.693  1.00  0.00     0.000 C 
ENDROOT
BRANCH   1   2
ATOM      2  C   UNL     1      44.397  20.727  21.266  1.00  0.00     0.000 C 
BRANCH   2   3
ATOM      3  C   UNL     1      45.776  21.344  21.572  1.00  0.00     0.000 C 
BRANCH   3   4
ATOM      4  C   UNL     1      46.389  22.173  20.425  1.00  0.00     0.000 C 
BRANCH   4   5
ATOM      5  C   UNL     1      46.411  23.693  20.660  1.00  0.00     0.000 C 
BRANCH   5   6
ATOM      6  C   UNL     1      45.488  24.459  19.701  1.00  0.00     0.006 C 
BRANCH   6   7
ATOM      7  C   UNL     1      45.050  25.794  20.310  1.00  0.00     0.053 C 
BRANCH   7   8
ATOM      8  C   UNL     1      45.442  26.930  19.420  1.00  0.00     0.041 C 
ATOM      9  O   UNL     1      46.657  27.172  19.198  1.00  0.00    -0.550 OA
ATOM     10  O   UNL     1      44.465  27.754  18.873  1.00  0.00    -0.550 OA
ENDBRANCH   7   8
ENDBRANCH   6   7
ENDBRANCH   5   6
ENDBRANCH   4   5
ENDBRANCH   3   4
ENDBRANCH   2   3
ENDBRANCH   1   2
BRANCH   1  11
ATOM     11  C   UNL     1      42.824  22.754  21.695  1.00  0.00     0.000 C 
BRANCH  11  12
ATOM     12  C   UNL     1      41.782  23.735  21.127  1.00  0.00    -0.000 C 
BRANCH  12  13
ATOM     13  C   UNL     1      41.869  23.879  19.599  1.00  0.00    -0.000 C 
BRANCH  13  14
ATOM     14  C   UNL     1      40.543  23.547  18.891  1.00  0.00    -0.000 C 
BRANCH  14  15
ATOM     15  C   UNL     1      40.676  22.729  17.590  1.00  0.00    -0.000 C 
BRANCH  15  16
ATOM     16  C   UNL     1      39.439  21.897  17.212  1.00  0.00    -0.000 C 
BRANCH  16  17
ATOM     17  C   UNL     1      38.317  22.745  16.596  1.00  0.00    -0.003 C 
ATOM     18  C   UNL     1      37.091  22.777  17.504  1.00  0.00     0.004 C 
ENDBRANCH  16  17
ENDBRANCH  15  16
ENDBRANCH  14  15
ENDBRANCH  13  14
ENDBRANCH  12  13
ENDBRANCH  11  12
ENDBRANCH   1  11
TORSDOF 14
ENDMDL
MODEL 4
REMARK VINA RESULT:    -4.617      9.156     11.344
REMARK INTER + INTRA:         -10.143
REMARK INTER:                  -8.082
REMARK INTRA:                  -2.061
REMARK UNBOUND:                -1.748
REMARK SMILES CCCCCCCCCCCCCCCC(=O)[O-]
REMARK SMILES IDX 9 1 10 2 11 3 12 4 13 5 14 6 15 7 16 8 17 9 18 10 8 11 7 12
REMARK SMILES IDX 6 13 5 14 4 15 3 16 2 17 1 18
REMARK H PARENT
REMARK Flexibility Score: inf
ROOT
ATOM      1  C   UNL     1      44.917  33.567  16.125  1.00  0.00     0.000 C 
ENDROOT
BRANCH   1   2
ATOM      2  C   UNL     1      45.208  33.857  14.640  1.00  0.00     0.000 C 
BRANCH   2   3
ATOM      3  C   UNL     1      46.702  33.860  14.261  1.00  0.00     0.000 C 
BRANCH   3   4
ATOM      4  C   UNL     1      47.222  35.184  13.665  1.00  0.00     0.000 C 
BRANCH   4   5
ATOM      5  C   UNL     1      47.669  35.105  12.195  1.00  0.00     0.000 C 
BRANCH   5   6
ATOM      6  C   UNL     1      46.570  34.569  11.265  1.00  0.00     0.006 C 
BRANCH   6   7
ATOM      7  C   UNL     1      47.067  33.357  10.471  1.00  0.00     0.053 C 
BRANCH   7   8
ATOM      8  C   UNL     1      46.450  32.099  10.994  1.00  0.00     0.041 C 
ATOM      9  O   UNL     1      47.088  31.015  10.954  1.00  0.00    -0.550 OA
ATOM     10  O   UNL     1      45.148  32.113  11.482  1.00  0.00    -0.550 OA
ENDBRANCH   7   8
ENDBRANCH   6   7
ENDBRANCH   5   6
ENDBRANCH   4   5
ENDBRANCH   3   4
ENDBRANCH   2   3
ENDBRANCH   1   2
BRANCH   1  11
ATOM     11  C   UNL     1      43.526  32.968  16.414  1.00  0.00     0.000 C 
BRANCH  11  12
ATOM     12  C   UNL     1      43.489  31.898  17.521  1.00  0.00    -0.000 C 
BRANCH  12  13
ATOM     13  C   UNL     1      44.860  31.249  17.769  1.00  0.00    -0.000 C 
BRANCH  13  14
ATOM     14  C   UNL     1      45.055  29.941  16.979  1.00  0.00    -0.000 C 
BRANCH  14  15
ATOM     15  C   UNL     1      46.037  30.028  15.793  1.00  0.00    -0.000 C 
BRANCH  15  16
ATOM     16  C   UNL     1      45.382  30.241  14.417  1.00  0.00    -0.000 C 
BRANCH  16  17
ATOM     17  C   UNL     1      44.130  29.377  14.213  1.00  0.00    -0.003 C 
ATOM     18  C   UNL     1      42.900  30.244  13.955  1.00  0.00     0.004 C 
ENDBRANCH  16  17
ENDBRANCH  15  16
ENDBRANCH  14  15
ENDBRANCH  13  14
ENDBRANCH  12  13
ENDBRANCH  11  12
ENDBRANCH   1  11
TORSDOF 14
ENDMDL
MODEL 5
REMARK VINA RESULT:    -4.594      9.564     11.752
REMARK INTER + INTRA:         -10.101
REMARK INTER:                  -8.587
REMARK INTRA:                  -1.514
REMARK UNBOUND:                -1.748
REMARK SMILES CCCCCCCCCCCCCCCC(=O)[O-]
REMARK SMILES IDX 9 1 10 2 11 3 12 4 13 5 14 6 15 7 16 8 17 9 18 10 8 11 7 12
REMARK SMILES IDX 6 13 5 14 4 15 3 16 2 17 1 18
REMARK H PARENT
REMARK Flexibility Score: inf
ROOT
ATOM      1  C   UNL     1      46.566  35.069  16.950  1.00  0.00     0.000 C 
ENDROOT
BRANCH   1   2
ATOM      2  C   UNL     1      47.201  35.586  15.644  1.00  0.00     0.000 C 
BRANCH   2   3
ATOM      3  C   UNL     1      46.770  34.831  14.371  1.00  0.00     0.000 C 
BRANCH   3   4
ATOM      4  C   UNL     1      47.110  35.541  13.045  1.00  0.00     0.000 C 
BRANCH   4   5
ATOM      5  C   UNL     1      46.466  34.923  11.792  1.00  0.00     0.000 C 
BRANCH   5   6
ATOM      6  C   UNL     1      47.424  34.002  11.022  1.00  0.00     0.006 C 
BRANCH   6   7
ATOM      7  C   UNL     1      46.694  32.758  10.507  1.00  0.00     0.053 C 
BRANCH   7   8
ATOM      8  C   UNL     1      46.048  32.025  11.639  1.00  0.00     0.041 C 
ATOM      9  O   UNL     1      44.802  31.840  11.647  1.00  0.00    -0.550 OA
ATOM     10  O   UNL     1      46.814  31.587  12.713  1.00  0.00    -0.550 OA
ENDBRANCH   7   8
ENDBRANCH   6   7
ENDBRANCH   5   6
ENDBRANCH   4   5
ENDBRANCH   3   4
ENDBRANCH   2   3
ENDBRANCH   1   2
BRANCH   1  11
ATOM     11  C   UNL     1      46.035  33.622  16.891  1.00  0.00     0.000 C 
BRANCH  11  12
ATOM     12  C   UNL     1      44.910  33.295  17.890  1.00  0.00    -0.000 C 
BRANCH  12  13
ATOM     13  C   UNL     1      43.576  32.963  17.199  1.00  0.00    -0.000 C 
BRANCH  13  14
ATOM     14  C   UNL     1      43.608  33.224  15.681  1.00  0.00    -0.000 C 
BRANCH  14  15
ATOM     15  C   UNL     1      43.463  31.971  14.794  1.00  0.00    -0.000 C 
BRANCH  15  16
ATOM     16  C   UNL     1      44.350  30.779  15.195  1.00  0.00    -0.000 C 
BRANCH  16  17
ATOM     17  C   UNL     1      44.123  29.545  14.309  1.00  0.00    -0.003 C 
ATOM     18  C   UNL     1      42.677  29.474  13.826  1.00  0.00     0.004 C 
ENDBRANCH  16  17
ENDBRANCH  15  16
ENDBRANCH  14  15
ENDBRANCH  13  14
ENDBRANCH  12  13
ENDBRANCH  11  12
ENDBRANCH   1  11
TORSDOF 14
ENDMDL
MODEL 6
REMARK VINA RESULT:    -4.580      9.105     11.365
REMARK INTER + INTRA:         -10.075
REMARK INTER:                  -7.696
REMARK INTRA:                  -2.379
REMARK UNBOUND:                -1.748
REMARK SMILES CCCCCCCCCCCCCCCC(=O)[O-]
REMARK SMILES IDX 9 1 10 2 11 3 12 4 13 5 14 6 15 7 16 8 17 9 18 10 8 11 7 12
REMARK SMILES IDX 6 13 5 14 4 15 3 16 2 17 1 18
REMARK H PARENT
REMARK Flexibility Score: inf
ROOT
ATOM      1  C   UNL     1      44.931  33.253  17.523  1.00  0.00     0.000 C 
ENDROOT
BRANCH   1   2
ATOM      2  C   UNL     1      45.563  34.168  16.457  1.00  0.00     0.000 C 
BRANCH   2   3
ATOM      3  C   UNL     1      46.511  33.457  15.471  1.00  0.00     0.000 C 
BRANCH   3   4
ATOM      4  C   UNL     1      46.104  33.557  13.987  1.00  0.00     0.000 C 
BRANCH   4   5
ATOM      5  C   UNL     1      46.886  32.638  13.034  1.00  0.00     0.000 C 
BRANCH   5   6
ATOM      6  C   UNL     1      46.083  32.252  11.783  1.00  0.00     0.006 C 
BRANCH   6   7
ATOM      7  C   UNL     1      46.853  32.606  10.507  1.00  0.00     0.053 C 
BRANCH   7   8
ATOM      8  C   UNL     1      48.184  31.926  10.492  1.00  0.00     0.041 C 
ATOM      9  O   UNL     1      48.254  30.668  10.502  1.00  0.00    -0.550 OA
ATOM     10  O   UNL     1      49.351  32.680  10.517  1.00  0.00    -0.550 OA
ENDBRANCH   7   8
ENDBRANCH   6   7
ENDBRANCH   5   6
ENDBRANCH   4   5
ENDBRANCH   3   4
ENDBRANCH   2   3
ENDBRANCH   1   2
BRANCH   1  11
ATOM     11  C   UNL     1      43.486  32.803  17.226  1.00  0.00     0.000 C 
BRANCH  11  12
ATOM     12  C   UNL     1      42.884  33.349  15.919  1.00  0.00    -0.000 C 
BRANCH  12  13
ATOM     13  C   UNL     1      42.161  32.269  15.097  1.00  0.00    -0.000 C 
BRANCH  13  14
ATOM     14  C   UNL     1      43.097  31.536  14.118  1.00  0.00    -0.000 C 
BRANCH  14  15
ATOM     15  C   UNL     1      43.446  30.084  14.501  1.00  0.00    -0.000 C 
BRANCH  15  16
ATOM     16  C   UNL     1      44.914  29.683  14.275  1.00  0.00    -0.000 C 
BRANCH  16  17
ATOM     17  C   UNL     1      45.804  29.974  15.492  1.00  0.00    -0.003 C 
ATOM     18  C   UNL     1      45.091  29.612  16.792  1.00  0.00     0.004 C 
ENDBRANCH  16  17
ENDBRANCH  15  16
ENDBRANCH  14  15
ENDBRANCH  13  14
ENDBRANCH  12  13
ENDBRANCH  11  12
ENDBRANCH   1  11
TORSDOF 14
ENDMDL
MODEL 7
REMARK VINA RESULT:    -4.573     10.025     12.270
REMARK INTER + INTRA:         -10.064
REMARK INTER:                  -7.732
REMARK INTRA:                  -2.332
REMARK UNBOUND:                -1.748
REMARK SMILES CCCCCCCCCCCCCCCC(=O)[O-]
REMARK SMILES IDX 9 1 10 2 11 3 12 4 13 5 14 6 15 7 16 8 17 9 18 10 8 11 7 12
REMARK SMILES IDX 6 13 5 14 4 15 3 16 2 17 1 18
REMARK H PARENT
REMARK Flexibility Score: inf
ROOT
ATOM      1  C   UNL     1      46.970  32.859  14.363  1.00  0.00     0.000 C 
ENDROOT
BRANCH   1   2
ATOM      2  C   UNL     1      46.087  34.032  13.897  1.00  0.00     0.000 C 
BRANCH   2   3
ATOM      3  C   UNL     1      46.859  35.229  13.307  1.00  0.00     0.000 C 
BRANCH   3   4
ATOM      4  C   UNL     1      47.628  34.931  12.005  1.00  0.00     0.000 C 
BRANCH   4   5
ATOM      5  C   UNL     1      46.764  34.414  10.842  1.00  0.00     0.000 C 
BRANCH   5   6
ATOM      6  C   UNL     1      47.141  32.991  10.405  1.00  0.00     0.006 C 
BRANCH   6   7
ATOM      7  C   UNL     1      48.622  32.709  10.674  1.00  0.00     0.053 C 
BRANCH   7   8
ATOM      8  C   UNL     1      48.882  31.236  10.681  1.00  0.00     0.041 C 
ATOM      9  O   UNL     1      47.946  30.425  10.450  1.00  0.00    -0.550 OA
ATOM     10  O   UNL     1      50.148  30.754  10.992  1.00  0.00    -0.550 OA
ENDBRANCH   7   8
ENDBRANCH   6   7
ENDBRANCH   5   6
ENDBRANCH   4   5
ENDBRANCH   3   4
ENDBRANCH   2   3
ENDBRANCH   1   2
BRANCH   1  11
ATOM     11  C   UNL     1      46.615  31.489  13.749  1.00  0.00     0.000 C 
BRANCH  11  12
ATOM     12  C   UNL     1      45.226  31.404  13.091  1.00  0.00    -0.000 C 
BRANCH  12  13
ATOM     13  C   UNL     1      44.380  30.239  13.631  1.00  0.00    -0.000 C 
BRANCH  13  14
ATOM     14  C   UNL     1      43.533  30.632  14.855  1.00  0.00    -0.000 C 
BRANCH  14  15
ATOM     15  C   UNL     1      42.668  31.896  14.680  1.00  0.00    -0.000 C 
BRANCH  15  16
ATOM     16  C   UNL     1      42.966  33.034  15.672  1.00  0.00    -0.000 C 
BRANCH  16  17
ATOM     17  C   UNL     1      43.438  32.522  17.040  1.00  0.00    -0.003 C 
ATOM     18  C   UNL     1      44.819  33.074  17.386  1.00  0.00     0.004 C 
ENDBRANCH  16  17
ENDBRANCH  15  16
ENDBRANCH  14  15
ENDBRANCH  13  14
ENDBRANCH  12  13
ENDBRANCH  11  12
ENDBRANCH   1  11
TORSDOF 14
ENDMDL
MODEL 8
REMARK VINA RESULT:    -4.515      9.589     11.990
REMARK INTER + INTRA:          -9.958
REMARK INTER:                  -8.427
REMARK INTRA:                  -1.531
REMARK UNBOUND:                -1.748
REMARK SMILES CCCCCCCCCCCCCCCC(=O)[O-]
REMARK SMILES IDX 9 1 10 2 11 3 12 4 13 5 14 6 15 7 16 8 17 9 18 10 8 11 7 12
REMARK SMILES IDX 6 13 5 14 4 15 3 16 2 17 1 18
REMARK H PARENT
REMARK Flexibility Score: inf
ROOT
ATOM      1  C   UNL     1      43.254  30.103  13.954  1.00  0.00     0.000 C 
ENDROOT
BRANCH   1   2
ATOM      2  C   UNL     1      42.693  31.427  14.508  1.00  0.00     0.000 C 
BRANCH   2   3
ATOM      3  C   UNL     1      43.435  31.979  15.741  1.00  0.00     0.000 C 
BRANCH   3   4
ATOM      4  C   UNL     1      43.995  33.407  15.581  1.00  0.00     0.000 C 
BRANCH   4   5
ATOM      5  C   UNL     1      45.523  33.494  15.424  1.00  0.00     0.000 C 
BRANCH   5   6
ATOM      6  C   UNL     1      46.153  34.586  16.302  1.00  0.00     0.006 C 
BRANCH   6   7
ATOM      7  C   UNL     1      45.796  34.377  17.777  1.00  0.00     0.053 C 
BRANCH   7   8
ATOM      8  C   UNL     1      46.417  33.118  18.293  1.00  0.00     0.041 C 
ATOM      9  O   UNL     1      47.670  32.990  18.311  1.00  0.00    -0.550 OA
ATOM     10  O   UNL     1      45.612  32.064  18.709  1.00  0.00    -0.550 OA
ENDBRANCH   7   8
ENDBRANCH   6   7
ENDBRANCH   5   6
ENDBRANCH   4   5
ENDBRANCH   3   4
ENDBRANCH   2   3
ENDBRANCH   1   2
BRANCH   1  11
ATOM     11  C   UNL     1      44.668  30.195  13.344  1.00  0.00     0.000 C 
BRANCH  11  12
ATOM     12  C   UNL     1      44.863  31.315  12.306  1.00  0.00    -0.000 C 
BRANCH  12  13
ATOM     13  C   UNL     1      46.316  31.815  12.232  1.00  0.00    -0.000 C 
BRANCH  13  14
ATOM     14  C   UNL     1      46.763  32.143  10.796  1.00  0.00    -0.000 C 
BRANCH  14  15
ATOM     15  C   UNL     1      46.862  33.645  10.463  1.00  0.00    -0.000 C 
BRANCH  15  16
ATOM     16  C   UNL     1      47.722  34.475  11.433  1.00  0.00    -0.000 C 
BRANCH  16  17
ATOM     17  C   UNL     1      47.043  35.784  11.860  1.00  0.00    -0.003 C 
ATOM     18  C   UNL     1      45.771  36.031  11.053  1.00  0.00     0.004 C 
ENDBRANCH  16  17
ENDBRANCH  15  16
ENDBRANCH  14  15
ENDBRANCH  13  14
ENDBRANCH  12  13
ENDBRANCH  11  12
ENDBRANCH   1  11
TORSDOF 14
ENDMDL
MODEL 9
REMARK VINA RESULT:    -4.494      9.337     11.895
REMARK INTER + INTRA:          -9.919
REMARK INTER:                  -7.860
REMARK INTRA:                  -2.059
REMARK UNBOUND:                -1.748
REMARK SMILES CCCCCCCCCCCCCCCC(=O)[O-]
REMARK SMILES IDX 9 1 10 2 11 3 12 4 13 5 14 6 15 7 16 8 17 9 18 10 8 11 7 12
REMARK SMILES IDX 6 13 5 14 4 15 3 16 2 17 1 18
REMARK H PARENT
REMARK Flexibility Score: inf
ROOT
ATOM      1  C   UNL     1      45.685  30.260  16.810  1.00  0.00     0.000 C 
ENDROOT
BRANCH   1   2
ATOM      2  C   UNL     1      45.803  29.995  15.297  1.00  0.00     0.000 C 
BRANCH   2   3
ATOM      3  C   UNL     1      44.460  29.790  14.569  1.00  0.00     0.000 C 
BRANCH   3   4
ATOM      4  C   UNL     1      44.320  30.547  13.233  1.00  0.00     0.000 C 
BRANCH   4   5
ATOM      5  C   UNL     1      45.637  31.085  12.648  1.00  0.00     0.000 C 
BRANCH   5   6
ATOM      6  C   UNL     1      45.421  32.210  11.625  1.00  0.00     0.006 C 
BRANCH   6   7
ATOM      7  C   UNL     1      46.544  32.227  10.583  1.00  0.00     0.053 C 
BRANCH   7   8
ATOM      8  C   UNL     1      47.291  33.522  10.640  1.00  0.00     0.041 C 
ATOM      9  O   UNL     1      48.544  33.537  10.521  1.00  0.00    -0.550 OA
ATOM     10  O   UNL     1      46.608  34.710  10.872  1.00  0.00    -0.550 OA
ENDBRANCH   7   8
ENDBRANCH   6   7
ENDBRANCH   5   6
ENDBRANCH   4   5
ENDBRANCH   3   4
ENDBRANCH   2   3
ENDBRANCH   1   2
BRANCH   1  11
ATOM     11  C   UNL     1      44.264  30.594  17.308  1.00  0.00     0.000 C 
BRANCH  11  12
ATOM     12  C   UNL     1      44.002  32.084  17.596  1.00  0.00    -0.000 C 
BRANCH  12  13
ATOM     13  C   UNL     1      43.144  32.759  16.514  1.00  0.00    -0.000 C 
BRANCH  13  14
ATOM     14  C   UNL     1      43.988  33.413  15.404  1.00  0.00    -0.000 C 
BRANCH  14  15
ATOM     15  C   UNL     1      45.442  33.749  15.792  1.00  0.00    -0.000 C 
BRANCH  15  16
ATOM     16  C   UNL     1      46.350  34.170  14.623  1.00  0.00    -0.000 C 
BRANCH  16  17
ATOM     17  C   UNL     1      47.221  35.390  14.956  1.00  0.00    -0.003 C 
ATOM     18  C   UNL     1      47.225  35.668  16.456  1.00  0.00     0.004 C 
ENDBRANCH  16  17
ENDBRANCH  15  16
ENDBRANCH  14  15
ENDBRANCH  13  14
ENDBRANCH  12  13
ENDBRANCH  11  12
ENDBRANCH   1  11
TORSDOF 14
ENDMDL
