MODEL 1
REMARK VINA RESULT:    -3.576      0.000      0.000
REMARK INTER + INTRA:         -12.882
REMARK INTER:                  -9.012
REMARK INTRA:                  -3.870
REMARK UNBOUND:                -3.870
REMARK SMILES CCCCCCCCCCCCCCCCCCCCCCCCCCCC(=O)[O-]
REMARK SMILES IDX 15 1 16 2 17 3 18 4 19 5 20 6 21 7 22 8 23 9 24 10 25 11
REMARK SMILES IDX 26 12 27 13 28 14 29 15 30 16 14 17 13 18 12 19 11 20 10 21
REMARK SMILES IDX 9 22 8 23 7 24 6 25 5 26 4 27 3 28 2 29 1 30
REMARK H PARENT
REMARK Flexibility Score: inf
ROOT
ATOM      1  C   UNL     1      24.712  30.435  55.351  1.00  0.00     0.000 C 
ENDROOT
BRANCH   1   2
ATOM      2  C   UNL     1      25.530  30.203  54.068  1.00  0.00     0.000 C 
BRANCH   2   3
ATOM      3  C   UNL     1      25.194  31.223  52.956  1.00  0.00     0.000 C 
BRANCH   3   4
ATOM      4  C   UNL     1      25.343  32.690  53.399  1.00  0.00     0.000 C 
BRANCH   4   5
ATOM      5  C   UNL     1      25.716  33.665  52.267  1.00  0.00     0.000 C 
BRANCH   5   6
ATOM      6  C   UNL     1      25.386  33.135  50.852  1.00  0.00     0.000 C 
BRANCH   6   7
ATOM      7  C   UNL     1      26.608  32.991  49.923  1.00  0.00     0.000 C 
BRANCH   7   8
ATOM      8  C   UNL     1      27.966  32.931  50.652  1.00  0.00     0.000 C 
BRANCH   8   9
ATOM      9  C   UNL     1      28.376  31.529  51.143  1.00  0.00     0.000 C 
BRANCH   9  10
ATOM     10  C   UNL     1      28.951  31.519  52.576  1.00  0.00     0.000 C 
BRANCH  10  11
ATOM     11  C   UNL     1      29.302  32.930  53.070  1.00  0.00     0.000 C 
BRANCH  11  12
ATOM     12  C   UNL     1      28.982  33.088  54.561  1.00  0.00     0.006 C 
BRANCH  12  13
ATOM     13  C   UNL     1      28.763  31.725  55.225  1.00  0.00     0.053 C 
BRANCH  13  14
ATOM     14  C   UNL     1      29.425  31.669  56.566  1.00  0.00     0.041 C 
ATOM     15  O   UNL     1      30.496  32.301  56.773  1.00  0.00    -0.550 OA
ATOM     16  O   UNL     1      28.857  30.925  57.593  1.00  0.00    -0.550 OA
ENDBRANCH  13  14
ENDBRANCH  12  13
ENDBRANCH  11  12
ENDBRANCH  10  11
ENDBRANCH   9  10
ENDBRANCH   8   9
ENDBRANCH   7   8
ENDBRANCH   6   7
ENDBRANCH   5   6
ENDBRANCH   4   5
ENDBRANCH   3   4
ENDBRANCH   2   3
ENDBRANCH   1   2
BRANCH   1  17
ATOM     17  C   UNL     1      24.857  29.290  56.367  1.00  0.00     0.000 C 
BRANCH  17  18
ATOM     18  C   UNL     1      23.549  29.007  57.125  1.00  0.00     0.000 C 
BRANCH  18  19
ATOM     19  C   UNL     1      22.607  30.223  57.142  1.00  0.00     0.000 C 
BRANCH  19  20
ATOM     20  C   UNL     1      21.550  30.132  58.254  1.00  0.00     0.000 C 
BRANCH  20  21
ATOM     21  C   UNL     1      21.431  28.698  58.782  1.00  0.00     0.000 C 
BRANCH  21  22
ATOM     22  C   UNL     1      19.958  28.287  58.939  1.00  0.00    -0.000 C 
BRANCH  22  23
ATOM     23  C   UNL     1      19.164  28.384  57.624  1.00  0.00    -0.000 C 
BRANCH  23  24
ATOM     24  C   UNL     1      19.591  27.387  56.529  1.00  0.00    -0.000 C 
BRANCH  24  25
ATOM     25  C   UNL     1      19.750  27.996  55.121  1.00  0.00    -0.000 C 
BRANCH  25  26
ATOM     26  C   UNL     1      19.768  29.538  55.078  1.00  0.00    -0.000 C 
BRANCH  26  27
ATOM     27  C   UNL     1      18.547  30.186  54.399  1.00  0.00    -0.000 C 
BRANCH  27  28
ATOM     28  C   UNL     1      17.446  29.168  54.054  1.00  0.00    -0.000 C 
BRANCH  28  29
ATOM     29  C   UNL     1      16.149  29.413  54.841  1.00  0.00    -0.003 C 
ATOM     30  C   UNL     1      15.143  28.272  54.695  1.00  0.00     0.004 C 
ENDBRANCH  28  29
ENDBRANCH  27  28
ENDBRANCH  26  27
ENDBRANCH  25  26
ENDBRANCH  24  25
ENDBRANCH  23  24
ENDBRANCH  22  23
ENDBRANCH  21  22
ENDBRANCH  20  21
ENDBRANCH  19  20
ENDBRANCH  18  19
ENDBRANCH  17  18
ENDBRANCH   1  17
TORSDOF 26
ENDMDL
MODEL 2
REMARK VINA RESULT:    -3.536      1.757      2.675
REMARK INTER + INTRA:         -12.780
REMARK INTER:                  -8.854
REMARK INTRA:                  -3.927
REMARK UNBOUND:                -3.870
REMARK SMILES CCCCCCCCCCCCCCCCCCCCCCCCCCCC(=O)[O-]
REMARK SMILES IDX 15 1 16 2 17 3 18 4 19 5 20 6 21 7 22 8 23 9 24 10 25 11
REMARK SMILES IDX 26 12 27 13 28 14 29 15 30 16 14 17 13 18 12 19 11 20 10 21
REMARK SMILES IDX 9 22 8 23 7 24 6 25 5 26 4 27 3 28 2 29 1 30
REMARK H PARENT
REMARK Flexibility Score: inf
ROOT
ATOM      1  C   UNL     1      24.173  29.245  54.321  1.00  0.00     0.000 C 
ENDROOT
BRANCH   1   2
ATOM      2  C   UNL     1      25.180  29.726  53.261  1.00  0.00     0.000 C 
BRANCH   2   3
ATOM      3  C   UNL     1      24.958  31.200  52.853  1.00  0.00     0.000 C 
BRANCH   3   4
ATOM      4  C   UNL     1      25.248  32.203  53.984  1.00  0.00     0.000 C 
BRANCH   4   5
ATOM      5  C   UNL     1      25.623  33.617  53.504  1.00  0.00     0.000 C 
BRANCH   5   6
ATOM      6  C   UNL     1      27.123  33.957  53.675  1.00  0.00     0.000 C 
BRANCH   6   7
ATOM      7  C   UNL     1      28.050  33.302  52.632  1.00  0.00     0.000 C 
BRANCH   7   8
ATOM      8  C   UNL     1      29.520  33.162  53.075  1.00  0.00     0.000 C 
BRANCH   8   9
ATOM      9  C   UNL     1      29.749  32.222  54.275  1.00  0.00     0.000 C 
BRANCH   9  10
ATOM     10  C   UNL     1      29.257  30.779  54.034  1.00  0.00     0.000 C 
BRANCH  10  11
ATOM     11  C   UNL     1      28.284  30.309  55.125  1.00  0.00     0.000 C 
BRANCH  11  12
ATOM     12  C   UNL     1      28.232  31.310  56.285  1.00  0.00     0.006 C 
BRANCH  12  13
ATOM     13  C   UNL     1      28.972  30.769  57.513  1.00  0.00     0.053 C 
BRANCH  13  14
ATOM     14  C   UNL     1      28.010  30.218  58.518  1.00  0.00     0.041 C 
ATOM     15  O   UNL     1      27.651  29.011  58.458  1.00  0.00    -0.550 OA
ATOM     16  O   UNL     1      27.514  31.033  59.528  1.00  0.00    -0.550 OA
ENDBRANCH  13  14
ENDBRANCH  12  13
ENDBRANCH  11  12
ENDBRANCH  10  11
ENDBRANCH   9  10
ENDBRANCH   8   9
ENDBRANCH   7   8
ENDBRANCH   6   7
ENDBRANCH   5   6
ENDBRANCH   4   5
ENDBRANCH   3   4
ENDBRANCH   2   3
ENDBRANCH   1   2
BRANCH   1  17
ATOM     17  C   UNL     1      24.848  28.803  55.629  1.00  0.00     0.000 C 
BRANCH  17  18
ATOM     18  C   UNL     1      24.690  29.842  56.753  1.00  0.00     0.000 C 
BRANCH  18  19
ATOM     19  C   UNL     1      23.293  30.484  56.765  1.00  0.00     0.000 C 
BRANCH  19  20
ATOM     20  C   UNL     1      22.308  29.733  57.677  1.00  0.00     0.000 C 
BRANCH  20  21
ATOM     21  C   UNL     1      21.294  28.936  56.848  1.00  0.00     0.000 C 
BRANCH  21  22
ATOM     22  C   UNL     1      20.614  29.830  55.799  1.00  0.00    -0.000 C 
BRANCH  22  23
ATOM     23  C   UNL     1      19.143  29.450  55.548  1.00  0.00    -0.000 C 
BRANCH  23  24
ATOM     24  C   UNL     1      18.705  29.474  54.070  1.00  0.00    -0.000 C 
BRANCH  24  25
ATOM     25  C   UNL     1      17.259  29.950  53.829  1.00  0.00    -0.000 C 
BRANCH  25  26
ATOM     26  C   UNL     1      16.259  29.585  54.944  1.00  0.00    -0.000 C 
BRANCH  26  27
ATOM     27  C   UNL     1      15.167  28.577  54.539  1.00  0.00    -0.000 C 
BRANCH  27  28
ATOM     28  C   UNL     1      15.713  27.150  54.357  1.00  0.00    -0.000 C 
BRANCH  28  29
ATOM     29  C   UNL     1      16.352  26.595  55.639  1.00  0.00    -0.003 C 
ATOM     30  C   UNL     1      17.738  25.996  55.399  1.00  0.00     0.004 C 
ENDBRANCH  28  29
ENDBRANCH  27  28
ENDBRANCH  26  27
ENDBRANCH  25  26
ENDBRANCH  24  25
ENDBRANCH  23  24
ENDBRANCH  22  23
ENDBRANCH  21  22
ENDBRANCH  20  21
ENDBRANCH  19  20
ENDBRANCH  18  19
ENDBRANCH  17  18
ENDBRANCH   1  17
TORSDOF 26
ENDMDL
MODEL 3
REMARK VINA RESULT:    -3.523      5.067      8.332
REMARK INTER + INTRA:         -12.749
REMARK INTER:                  -7.772
REMARK INTRA:                  -4.977
REMARK UNBOUND:                -3.870
REMARK SMILES CCCCCCCCCCCCCCCCCCCCCCCCCCCC(=O)[O-]
REMARK SMILES IDX 15 1 16 2 17 3 18 4 19 5 20 6 21 7 22 8 23 9 24 10 25 11
REMARK SMILES IDX 26 12 27 13 28 14 29 15 30 16 14 17 13 18 12 19 11 20 10 21
REMARK SMILES IDX 9 22 8 23 7 24 6 25 5 26 4 27 3 28 2 29 1 30
REMARK H PARENT
REMARK Flexibility Score: inf
ROOT
ATOM      1  C   UNL     1      27.981  33.755  53.922  1.00  0.00     0.000 C 
ENDROOT
BRANCH   1   2
ATOM      2  C   UNL     1      29.081  34.710  54.418  1.00  0.00     0.000 C 
BRANCH   2   3
ATOM      3  C   UNL     1      30.503  34.160  54.167  1.00  0.00     0.000 C 
BRANCH   3   4
ATOM      4  C   UNL     1      30.544  32.983  53.176  1.00  0.00     0.000 C 
BRANCH   4   5
ATOM      5  C   UNL     1      31.614  31.920  53.488  1.00  0.00     0.000 C 
BRANCH   5   6
ATOM      6  C   UNL     1      31.163  30.472  53.181  1.00  0.00     0.000 C 
BRANCH   6   7
ATOM      7  C   UNL     1      29.669  30.328  52.834  1.00  0.00     0.000 C 
BRANCH   7   8
ATOM      8  C   UNL     1      29.004  29.044  53.374  1.00  0.00     0.000 C 
BRANCH   8   9
ATOM      9  C   UNL     1      28.408  29.169  54.789  1.00  0.00     0.000 C 
BRANCH   9  10
ATOM     10  C   UNL     1      28.259  30.628  55.273  1.00  0.00     0.000 C 
BRANCH  10  11
ATOM     11  C   UNL     1      27.919  30.710  56.768  1.00  0.00     0.000 C 
BRANCH  11  12
ATOM     12  C   UNL     1      29.188  30.879  57.612  1.00  0.00     0.006 C 
BRANCH  12  13
ATOM     13  C   UNL     1      30.150  31.882  56.967  1.00  0.00     0.053 C 
BRANCH  13  14
ATOM     14  C   UNL     1      31.548  31.350  56.950  1.00  0.00     0.041 C 
ATOM     15  O   UNL     1      32.524  32.119  57.166  1.00  0.00    -0.550 OA
ATOM     16  O   UNL     1      31.777  30.002  56.704  1.00  0.00    -0.550 OA
ENDBRANCH  13  14
ENDBRANCH  12  13
ENDBRANCH  11  12
ENDBRANCH  10  11
ENDBRANCH   9  10
ENDBRANCH   8   9
ENDBRANCH   7   8
ENDBRANCH   6   7
ENDBRANCH   5   6
ENDBRANCH   4   5
ENDBRANCH   3   4
ENDBRANCH   2   3
ENDBRANCH   1   2
BRANCH   1  17
ATOM     17  C   UNL     1      26.603  34.429  53.825  1.00  0.00     0.000 C 
BRANCH  17  18
ATOM     18  C   UNL     1      25.598  33.598  53.008  1.00  0.00     0.000 C 
BRANCH  18  19
ATOM     19  C   UNL     1      25.243  32.268  53.695  1.00  0.00     0.000 C 
BRANCH  19  20
ATOM     20  C   UNL     1      25.690  31.046  52.876  1.00  0.00     0.000 C 
BRANCH  20  21
ATOM     21  C   UNL     1      24.767  30.826  51.672  1.00  0.00     0.000 C 
BRANCH  21  22
ATOM     22  C   UNL     1      25.525  30.170  50.507  1.00  0.00    -0.000 C 
BRANCH  22  23
ATOM     23  C   UNL     1      25.597  31.066  49.257  1.00  0.00    -0.000 C 
BRANCH  23  24
ATOM     24  C   UNL     1      25.604  32.581  49.540  1.00  0.00    -0.000 C 
BRANCH  24  25
ATOM     25  C   UNL     1      26.966  33.274  49.339  1.00  0.00    -0.000 C 
BRANCH  25  26
ATOM     26  C   UNL     1      28.065  32.850  50.335  1.00  0.00    -0.000 C 
BRANCH  26  27
ATOM     27  C   UNL     1      29.452  32.606  49.712  1.00  0.00    -0.000 C 
BRANCH  27  28
ATOM     28  C   UNL     1      29.478  32.865  48.195  1.00  0.00    -0.000 C 
BRANCH  28  29
ATOM     29  C   UNL     1      30.601  33.830  47.781  1.00  0.00    -0.003 C 
ATOM     30  C   UNL     1      31.932  33.121  47.539  1.00  0.00     0.004 C 
ENDBRANCH  28  29
ENDBRANCH  27  28
ENDBRANCH  26  27
ENDBRANCH  25  26
ENDBRANCH  24  25
ENDBRANCH  23  24
ENDBRANCH  22  23
ENDBRANCH  21  22
ENDBRANCH  20  21
ENDBRANCH  19  20
ENDBRANCH  18  19
ENDBRANCH  17  18
ENDBRANCH   1  17
TORSDOF 26
ENDMDL
MODEL 4
REMARK VINA RESULT:    -3.478      4.227      9.795
REMARK INTER + INTRA:         -12.634
REMARK INTER:                  -8.438
REMARK INTRA:                  -4.195
REMARK UNBOUND:                -3.870
REMARK SMILES CCCCCCCCCCCCCCCCCCCCCCCCCCCC(=O)[O-]
REMARK SMILES IDX 15 1 16 2 17 3 18 4 19 5 20 6 21 7 22 8 23 9 24 10 25 11
REMARK SMILES IDX 26 12 27 13 28 14 29 15 30 16 14 17 13 18 12 19 11 20 10 21
REMARK SMILES IDX 9 22 8 23 7 24 6 25 5 26 4 27 3 28 2 29 1 30
REMARK H PARENT
REMARK Flexibility Score: inf
ROOT
ATOM      1  C   UNL     1      23.179  30.564  56.353  1.00  0.00     0.000 C 
ENDROOT
BRANCH   1   2
ATOM      2  C   UNL     1      21.733  30.255  56.777  1.00  0.00     0.000 C 
BRANCH   2   3
ATOM      3  C   UNL     1      21.520  30.382  58.303  1.00  0.00     0.000 C 
BRANCH   3   4
ATOM      4  C   UNL     1      20.926  29.118  58.950  1.00  0.00     0.000 C 
BRANCH   4   5
ATOM      5  C   UNL     1      21.755  27.838  58.734  1.00  0.00     0.000 C 
BRANCH   5   6
ATOM      6  C   UNL     1      20.999  26.726  57.970  1.00  0.00     0.000 C 
BRANCH   6   7
ATOM      7  C   UNL     1      21.415  26.568  56.494  1.00  0.00     0.000 C 
BRANCH   7   8
ATOM      8  C   UNL     1      20.413  27.151  55.477  1.00  0.00     0.000 C 
BRANCH   8   9
ATOM      9  C   UNL     1      18.954  27.216  55.968  1.00  0.00     0.000 C 
BRANCH   9  10
ATOM     10  C   UNL     1      18.424  28.656  56.144  1.00  0.00     0.000 C 
BRANCH  10  11
ATOM     11  C   UNL     1      18.622  29.504  54.880  1.00  0.00     0.000 C 
BRANCH  11  12
ATOM     12  C   UNL     1      17.277  29.830  54.219  1.00  0.00     0.006 C 
BRANCH  12  13
ATOM     13  C   UNL     1      16.840  28.705  53.276  1.00  0.00     0.053 C 
BRANCH  13  14
ATOM     14  C   UNL     1      15.480  28.198  53.640  1.00  0.00     0.041 C 
ATOM     15  O   UNL     1      14.610  28.013  52.746  1.00  0.00    -0.550 OA
ATOM     16  O   UNL     1      15.172  27.920  54.966  1.00  0.00    -0.550 OA
ENDBRANCH  13  14
ENDBRANCH  12  13
ENDBRANCH  11  12
ENDBRANCH  10  11
ENDBRANCH   9  10
ENDBRANCH   8   9
ENDBRANCH   7   8
ENDBRANCH   6   7
ENDBRANCH   5   6
ENDBRANCH   4   5
ENDBRANCH   3   4
ENDBRANCH   2   3
ENDBRANCH   1   2
BRANCH   1  17
ATOM     17  C   UNL     1      24.037  29.299  56.188  1.00  0.00     0.000 C 
BRANCH  17  18
ATOM     18  C   UNL     1      25.026  29.104  57.351  1.00  0.00     0.000 C 
BRANCH  18  19
ATOM     19  C   UNL     1      26.077  28.023  57.050  1.00  0.00     0.000 C 
BRANCH  19  20
ATOM     20  C   UNL     1      27.433  28.320  57.712  1.00  0.00     0.000 C 
BRANCH  20  21
ATOM     21  C   UNL     1      27.347  29.564  58.604  1.00  0.00     0.000 C 
BRANCH  21  22
ATOM     22  C   UNL     1      28.447  30.576  58.249  1.00  0.00    -0.000 C 
BRANCH  22  23
ATOM     23  C   UNL     1      28.952  30.431  56.801  1.00  0.00    -0.000 C 
BRANCH  23  24
ATOM     24  C   UNL     1      29.121  31.758  56.034  1.00  0.00    -0.000 C 
BRANCH  24  25
ATOM     25  C   UNL     1      28.202  31.920  54.807  1.00  0.00    -0.000 C 
BRANCH  25  26
ATOM     26  C   UNL     1      27.126  30.827  54.650  1.00  0.00    -0.000 C 
BRANCH  26  27
ATOM     27  C   UNL     1      26.036  31.128  53.605  1.00  0.00    -0.000 C 
BRANCH  27  28
ATOM     28  C   UNL     1      25.217  32.386  53.944  1.00  0.00    -0.000 C 
BRANCH  28  29
ATOM     29  C   UNL     1      25.608  33.595  53.078  1.00  0.00    -0.003 C 
ATOM     30  C   UNL     1      25.731  34.887  53.884  1.00  0.00     0.004 C 
ENDBRANCH  28  29
ENDBRANCH  27  28
ENDBRANCH  26  27
ENDBRANCH  25  26
ENDBRANCH  24  25
ENDBRANCH  23  24
ENDBRANCH  22  23
ENDBRANCH  21  22
ENDBRANCH  20  21
ENDBRANCH  19  20
ENDBRANCH  18  19
ENDBRANCH  17  18
ENDBRANCH   1  17
TORSDOF 26
ENDMDL
MODEL 5
REMARK VINA RESULT:    -3.466      4.058      8.934
REMARK INTER + INTRA:         -12.605
REMARK INTER:                  -8.078
REMARK INTRA:                  -4.527
REMARK UNBOUND:                -3.870
REMARK SMILES CCCCCCCCCCCCCCCCCCCCCCCCCCCC(=O)[O-]
REMARK SMILES IDX 15 1 16 2 17 3 18 4 19 5 20 6 21 7 22 8 23 9 24 10 25 11
REMARK SMILES IDX 26 12 27 13 28 14 29 15 30 16 14 17 13 18 12 19 11 20 10 21
REMARK SMILES IDX 9 22 8 23 7 24 6 25 5 26 4 27 3 28 2 29 1 30
REMARK H PARENT
REMARK Flexibility Score: inf
ROOT
ATOM      1  C   UNL     1      29.820  32.911  52.227  1.00  0.00     0.000 C 
ENDROOT
BRANCH   1   2
ATOM      2  C   UNL     1      30.186  31.417  52.235  1.00  0.00     0.000 C 
BRANCH   2   3
ATOM      3  C   UNL     1      29.003  30.516  52.657  1.00  0.00     0.000 C 
BRANCH   3   4
ATOM      4  C   UNL     1      29.057  30.079  54.132  1.00  0.00     0.000 C 
BRANCH   4   5
ATOM      5  C   UNL     1      30.454  30.168  54.775  1.00  0.00     0.000 C 
BRANCH   5   6
ATOM      6  C   UNL     1      30.441  30.719  56.221  1.00  0.00     0.000 C 
BRANCH   6   7
ATOM      7  C   UNL     1      29.117  31.388  56.638  1.00  0.00     0.000 C 
BRANCH   7   8
ATOM      8  C   UNL     1      28.498  30.833  57.937  1.00  0.00     0.000 C 
BRANCH   8   9
ATOM      9  C   UNL     1      28.412  29.296  58.010  1.00  0.00     0.000 C 
BRANCH   9  10
ATOM     10  C   UNL     1      27.123  28.778  58.684  1.00  0.00     0.000 C 
BRANCH  10  11
ATOM     11  C   UNL     1      25.987  28.565  57.673  1.00  0.00     0.000 C 
BRANCH  11  12
ATOM     12  C   UNL     1      25.327  29.896  57.297  1.00  0.00     0.006 C 
BRANCH  12  13
ATOM     13  C   UNL     1      25.220  30.048  55.776  1.00  0.00     0.053 C 
BRANCH  13  14
ATOM     14  C   UNL     1      23.793  30.195  55.351  1.00  0.00     0.041 C 
ATOM     15  O   UNL     1      22.925  30.607  56.168  1.00  0.00    -0.550 OA
ATOM     16  O   UNL     1      23.418  29.885  54.049  1.00  0.00    -0.550 OA
ENDBRANCH  13  14
ENDBRANCH  12  13
ENDBRANCH  11  12
ENDBRANCH  10  11
ENDBRANCH   9  10
ENDBRANCH   8   9
ENDBRANCH   7   8
ENDBRANCH   6   7
ENDBRANCH   5   6
ENDBRANCH   4   5
ENDBRANCH   3   4
ENDBRANCH   2   3
ENDBRANCH   1   2
BRANCH   1  17
ATOM     17  C   UNL     1      30.374  33.669  53.444  1.00  0.00     0.000 C 
BRANCH  17  18
ATOM     18  C   UNL     1      29.261  34.261  54.326  1.00  0.00     0.000 C 
BRANCH  18  19
ATOM     19  C   UNL     1      27.903  33.578  54.092  1.00  0.00     0.000 C 
BRANCH  19  20
ATOM     20  C   UNL     1      26.765  34.589  53.875  1.00  0.00     0.000 C 
BRANCH  20  21
ATOM     21  C   UNL     1      25.498  33.888  53.372  1.00  0.00     0.000 C 
BRANCH  21  22
ATOM     22  C   UNL     1      25.778  32.414  53.036  1.00  0.00    -0.000 C 
BRANCH  22  23
ATOM     23  C   UNL     1      25.601  32.095  51.541  1.00  0.00    -0.000 C 
BRANCH  23  24
ATOM     24  C   UNL     1      25.425  33.325  50.627  1.00  0.00    -0.000 C 
BRANCH  24  25
ATOM     25  C   UNL     1      26.282  33.310  49.346  1.00  0.00    -0.000 C 
BRANCH  25  26
ATOM     26  C   UNL     1      27.761  32.928  49.556  1.00  0.00    -0.000 C 
BRANCH  26  27
ATOM     27  C   UNL     1      28.351  31.986  48.489  1.00  0.00    -0.000 C 
BRANCH  27  28
ATOM     28  C   UNL     1      29.885  31.891  48.561  1.00  0.00    -0.000 C 
BRANCH  28  29
ATOM     29  C   UNL     1      30.582  32.828  47.563  1.00  0.00    -0.003 C 
ATOM     30  C   UNL     1      31.233  34.034  48.238  1.00  0.00     0.004 C 
ENDBRANCH  28  29
ENDBRANCH  27  28
ENDBRANCH  26  27
ENDBRANCH  25  26
ENDBRANCH  24  25
ENDBRANCH  23  24
ENDBRANCH  22  23
ENDBRANCH  21  22
ENDBRANCH  20  21
ENDBRANCH  19  20
ENDBRANCH  18  19
ENDBRANCH  17  18
ENDBRANCH   1  17
TORSDOF 26
ENDMDL
MODEL 6
REMARK VINA RESULT:    -3.445      3.324      8.338
REMARK INTER + INTRA:         -12.551
REMARK INTER:                  -7.442
REMARK INTRA:                  -5.108
REMARK UNBOUND:                -3.870
REMARK SMILES CCCCCCCCCCCCCCCCCCCCCCCCCCCC(=O)[O-]
REMARK SMILES IDX 15 1 16 2 17 3 18 4 19 5 20 6 21 7 22 8 23 9 24 10 25 11
REMARK SMILES IDX 26 12 27 13 28 14 29 15 30 16 14 17 13 18 12 19 11 20 10 21
REMARK SMILES IDX 9 22 8 23 7 24 6 25 5 26 4 27 3 28 2 29 1 30
REMARK H PARENT
REMARK Flexibility Score: inf
ROOT
ATOM      1  C   UNL     1      25.500  33.534  53.206  1.00  0.00     0.000 C 
ENDROOT
BRANCH   1   2
ATOM      2  C   UNL     1      25.202  32.259  54.014  1.00  0.00     0.000 C 
BRANCH   2   3
ATOM      3  C   UNL     1      24.971  31.024  53.113  1.00  0.00     0.000 C 
BRANCH   3   4
ATOM      4  C   UNL     1      26.269  30.431  52.535  1.00  0.00     0.000 C 
BRANCH   4   5
ATOM      5  C   UNL     1      26.904  29.323  53.396  1.00  0.00     0.000 C 
BRANCH   5   6
ATOM      6  C   UNL     1      28.440  29.446  53.537  1.00  0.00     0.000 C 
BRANCH   6   7
ATOM      7  C   UNL     1      28.921  29.846  54.945  1.00  0.00     0.000 C 
BRANCH   7   8
ATOM      8  C   UNL     1      27.826  30.439  55.856  1.00  0.00     0.000 C 
BRANCH   8   9
ATOM      9  C   UNL     1      27.752  29.823  57.266  1.00  0.00     0.000 C 
BRANCH   9  10
ATOM     10  C   UNL     1      26.310  29.635  57.785  1.00  0.00     0.000 C 
BRANCH  10  11
ATOM     11  C   UNL     1      25.314  29.372  56.645  1.00  0.00     0.000 C 
BRANCH  11  12
ATOM     12  C   UNL     1      24.021  30.171  56.849  1.00  0.00     0.006 C 
BRANCH  12  13
ATOM     13  C   UNL     1      22.841  29.243  57.154  1.00  0.00     0.053 C 
BRANCH  13  14
ATOM     14  C   UNL     1      21.734  29.442  56.168  1.00  0.00     0.041 C 
ATOM     15  O   UNL     1      20.534  29.464  56.556  1.00  0.00    -0.550 OA
ATOM     16  O   UNL     1      22.023  29.610  54.819  1.00  0.00    -0.550 OA
ENDBRANCH  13  14
ENDBRANCH  12  13
ENDBRANCH  11  12
ENDBRANCH  10  11
ENDBRANCH   9  10
ENDBRANCH   8   9
ENDBRANCH   7   8
ENDBRANCH   6   7
ENDBRANCH   5   6
ENDBRANCH   4   5
ENDBRANCH   3   4
ENDBRANCH   2   3
ENDBRANCH   1   2
BRANCH   1  17
ATOM     17  C   UNL     1      26.679  34.340  53.775  1.00  0.00     0.000 C 
BRANCH  17  18
ATOM     18  C   UNL     1      27.879  33.449  54.140  1.00  0.00     0.000 C 
BRANCH  18  19
ATOM     19  C   UNL     1      29.197  34.239  54.202  1.00  0.00     0.000 C 
BRANCH  19  20
ATOM     20  C   UNL     1      30.120  33.939  53.009  1.00  0.00     0.000 C 
BRANCH  20  21
ATOM     21  C   UNL     1      29.775  32.586  52.376  1.00  0.00     0.000 C 
BRANCH  21  22
ATOM     22  C   UNL     1      29.594  32.717  50.855  1.00  0.00    -0.000 C 
BRANCH  22  23
ATOM     23  C   UNL     1      28.184  32.320  50.382  1.00  0.00    -0.000 C 
BRANCH  23  24
ATOM     24  C   UNL     1      27.761  32.911  49.022  1.00  0.00    -0.000 C 
BRANCH  24  25
ATOM     25  C   UNL     1      26.372  33.579  49.007  1.00  0.00    -0.000 C 
BRANCH  25  26
ATOM     26  C   UNL     1      25.275  32.816  49.778  1.00  0.00    -0.000 C 
BRANCH  26  27
ATOM     27  C   UNL     1      24.462  31.815  48.937  1.00  0.00    -0.000 C 
BRANCH  27  28
ATOM     28  C   UNL     1      24.741  30.351  49.319  1.00  0.00    -0.000 C 
BRANCH  28  29
ATOM     29  C   UNL     1      25.748  29.676  48.375  1.00  0.00    -0.003 C 
ATOM     30  C   UNL     1      26.917  29.030  49.117  1.00  0.00     0.004 C 
ENDBRANCH  28  29
ENDBRANCH  27  28
ENDBRANCH  26  27
ENDBRANCH  25  26
ENDBRANCH  24  25
ENDBRANCH  23  24
ENDBRANCH  22  23
ENDBRANCH  21  22
ENDBRANCH  20  21
ENDBRANCH  19  20
ENDBRANCH  18  19
ENDBRANCH  17  18
ENDBRANCH   1  17
TORSDOF 26
ENDMDL
MODEL 7
REMARK VINA RESULT:    -3.444     10.867     15.156
REMARK INTER + INTRA:         -12.550
REMARK INTER:                  -6.929
REMARK INTRA:                  -5.621
REMARK UNBOUND:                -3.870
REMARK SMILES CCCCCCCCCCCCCCCCCCCCCCCCCCCC(=O)[O-]
REMARK SMILES IDX 15 1 16 2 17 3 18 4 19 5 20 6 21 7 22 8 23 9 24 10 25 11
REMARK SMILES IDX 26 12 27 13 28 14 29 15 30 16 14 17 13 18 12 19 11 20 10 21
REMARK SMILES IDX 9 22 8 23 7 24 6 25 5 26 4 27 3 28 2 29 1 30
REMARK H PARENT
REMARK Flexibility Score: inf
ROOT
ATOM      1  C   UNL     1      16.258  21.092  49.561  1.00  0.00     0.000 C 
ENDROOT
BRANCH   1   2
ATOM      2  C   UNL     1      15.229  20.258  50.344  1.00  0.00     0.000 C 
BRANCH   2   3
ATOM      3  C   UNL     1      15.642  18.774  50.476  1.00  0.00     0.000 C 
BRANCH   3   4
ATOM      4  C   UNL     1      17.166  18.558  50.500  1.00  0.00     0.000 C 
BRANCH   4   5
ATOM      5  C   UNL     1      17.686  17.805  51.738  1.00  0.00     0.000 C 
BRANCH   5   6
ATOM      6  C   UNL     1      16.579  17.430  52.752  1.00  0.00     0.000 C 
BRANCH   6   7
ATOM      7  C   UNL     1      16.623  18.227  54.070  1.00  0.00     0.000 C 
BRANCH   7   8
ATOM      8  C   UNL     1      15.528  19.305  54.207  1.00  0.00     0.000 C 
BRANCH   8   9
ATOM      9  C   UNL     1      15.958  20.724  53.789  1.00  0.00     0.000 C 
BRANCH   9  10
ATOM     10  C   UNL     1      17.220  21.230  54.521  1.00  0.00     0.000 C 
BRANCH  10  11
ATOM     11  C   UNL     1      18.218  21.894  53.561  1.00  0.00     0.000 C 
BRANCH  11  12
ATOM     12  C   UNL     1      19.022  20.843  52.788  1.00  0.00     0.006 C 
BRANCH  12  13
ATOM     13  C   UNL     1      19.880  19.998  53.736  1.00  0.00     0.053 C 
BRANCH  13  14
ATOM     14  C   UNL     1      21.184  19.635  53.098  1.00  0.00     0.041 C 
ATOM     15  O   UNL     1      22.174  20.410  53.190  1.00  0.00    -0.550 OA
ATOM     16  O   UNL     1      21.312  18.436  52.407  1.00  0.00    -0.550 OA
ENDBRANCH  13  14
ENDBRANCH  12  13
ENDBRANCH  11  12
ENDBRANCH  10  11
ENDBRANCH   9  10
ENDBRANCH   8   9
ENDBRANCH   7   8
ENDBRANCH   6   7
ENDBRANCH   5   6
ENDBRANCH   4   5
ENDBRANCH   3   4
ENDBRANCH   2   3
ENDBRANCH   1   2
BRANCH   1  17
ATOM     17  C   UNL     1      15.613  22.225  48.747  1.00  0.00     0.000 C 
BRANCH  17  18
ATOM     18  C   UNL     1      15.363  21.827  47.281  1.00  0.00     0.000 C 
BRANCH  18  19
ATOM     19  C   UNL     1      13.887  21.493  47.009  1.00  0.00     0.000 C 
BRANCH  19  20
ATOM     20  C   UNL     1      13.712  20.149  46.283  1.00  0.00     0.000 C 
BRANCH  20  21
ATOM     21  C   UNL     1      13.762  18.981  47.274  1.00  0.00     0.000 C 
BRANCH  21  22
ATOM     22  C   UNL     1      14.689  17.865  46.766  1.00  0.00    -0.000 C 
BRANCH  22  23
ATOM     23  C   UNL     1      16.181  18.222  46.886  1.00  0.00    -0.000 C 
BRANCH  23  24
ATOM     24  C   UNL     1      16.887  18.537  45.552  1.00  0.00    -0.000 C 
BRANCH  24  25
ATOM     25  C   UNL     1      18.237  19.268  45.687  1.00  0.00    -0.000 C 
BRANCH  25  26
ATOM     26  C   UNL     1      18.583  19.738  47.115  1.00  0.00    -0.000 C 
BRANCH  26  27
ATOM     27  C   UNL     1      19.728  20.764  47.206  1.00  0.00    -0.000 C 
BRANCH  27  28
ATOM     28  C   UNL     1      19.296  22.081  47.873  1.00  0.00    -0.000 C 
BRANCH  28  29
ATOM     29  C   UNL     1      19.733  22.168  49.344  1.00  0.00    -0.003 C 
ATOM     30  C   UNL     1      19.291  23.466  50.019  1.00  0.00     0.004 C 
ENDBRANCH  28  29
ENDBRANCH  27  28
ENDBRANCH  26  27
ENDBRANCH  25  26
ENDBRANCH  24  25
ENDBRANCH  23  24
ENDBRANCH  22  23
ENDBRANCH  21  22
ENDBRANCH  20  21
ENDBRANCH  19  20
ENDBRANCH  18  19
ENDBRANCH  17  18
ENDBRANCH   1  17
TORSDOF 26
ENDMDL
MODEL 8
REMARK VINA RESULT:    -3.425      4.026      8.062
REMARK INTER + INTRA:         -12.501
REMARK INTER:                  -6.905
REMARK INTRA:                  -5.596
REMARK UNBOUND:                -3.870
REMARK SMILES CCCCCCCCCCCCCCCCCCCCCCCCCCCC(=O)[O-]
REMARK SMILES IDX 15 1 16 2 17 3 18 4 19 5 20 6 21 7 22 8 23 9 24 10 25 11
REMARK SMILES IDX 26 12 27 13 28 14 29 15 30 16 14 17 13 18 12 19 11 20 10 21
REMARK SMILES IDX 9 22 8 23 7 24 6 25 5 26 4 27 3 28 2 29 1 30
REMARK H PARENT
REMARK Flexibility Score: inf
ROOT
ATOM      1  C   UNL     1      29.008  31.392  57.003  1.00  0.00     0.000 C 
ENDROOT
BRANCH   1   2
ATOM      2  C   UNL     1      30.351  30.643  56.948  1.00  0.00     0.000 C 
BRANCH   2   3
ATOM      3  C   UNL     1      31.514  31.541  56.466  1.00  0.00     0.000 C 
BRANCH   3   4
ATOM      4  C   UNL     1      31.102  33.002  56.216  1.00  0.00     0.000 C 
BRANCH   4   5
ATOM      5  C   UNL     1      30.871  33.358  54.735  1.00  0.00     0.000 C 
BRANCH   5   6
ATOM      6  C   UNL     1      29.748  34.397  54.510  1.00  0.00     0.000 C 
BRANCH   6   7
ATOM      7  C   UNL     1      28.744  34.024  53.402  1.00  0.00     0.000 C 
BRANCH   7   8
ATOM      8  C   UNL     1      27.266  34.037  53.841  1.00  0.00     0.000 C 
BRANCH   8   9
ATOM      9  C   UNL     1      26.300  33.309  52.886  1.00  0.00     0.000 C 
BRANCH   9  10
ATOM     10  C   UNL     1      25.238  32.455  53.612  1.00  0.00     0.000 C 
BRANCH  10  11
ATOM     11  C   UNL     1      24.938  31.147  52.865  1.00  0.00     0.000 C 
BRANCH  11  12
ATOM     12  C   UNL     1      24.306  30.110  53.801  1.00  0.00     0.006 C 
BRANCH  12  13
ATOM     13  C   UNL     1      24.107  30.686  55.207  1.00  0.00     0.053 C 
BRANCH  13  14
ATOM     14  C   UNL     1      24.517  29.699  56.254  1.00  0.00     0.041 C 
ATOM     15  O   UNL     1      24.585  30.047  57.464  1.00  0.00    -0.550 OA
ATOM     16  O   UNL     1      24.818  28.390  55.898  1.00  0.00    -0.550 OA
ENDBRANCH  13  14
ENDBRANCH  12  13
ENDBRANCH  11  12
ENDBRANCH  10  11
ENDBRANCH   9  10
ENDBRANCH   8   9
ENDBRANCH   7   8
ENDBRANCH   6   7
ENDBRANCH   5   6
ENDBRANCH   4   5
ENDBRANCH   3   4
ENDBRANCH   2   3
ENDBRANCH   1   2
BRANCH   1  17
ATOM     17  C   UNL     1      27.911  30.715  56.167  1.00  0.00     0.000 C 
BRANCH  17  18
ATOM     18  C   UNL     1      28.300  30.580  54.684  1.00  0.00     0.000 C 
BRANCH  18  19
ATOM     19  C   UNL     1      27.885  29.224  54.090  1.00  0.00     0.000 C 
BRANCH  19  20
ATOM     20  C   UNL     1      28.559  28.039  54.802  1.00  0.00     0.000 C 
BRANCH  20  21
ATOM     21  C   UNL     1      30.076  28.058  54.582  1.00  0.00     0.000 C 
BRANCH  21  22
ATOM     22  C   UNL     1      30.416  28.182  53.089  1.00  0.00    -0.000 C 
BRANCH  22  23
ATOM     23  C   UNL     1      31.534  29.204  52.811  1.00  0.00    -0.000 C 
BRANCH  23  24
ATOM     24  C   UNL     1      31.055  30.560  52.254  1.00  0.00    -0.000 C 
BRANCH  24  25
ATOM     25  C   UNL     1      29.848  30.481  51.299  1.00  0.00    -0.000 C 
BRANCH  25  26
ATOM     26  C   UNL     1      29.391  31.833  50.715  1.00  0.00    -0.000 C 
BRANCH  26  27
ATOM     27  C   UNL     1      28.077  31.787  49.914  1.00  0.00    -0.000 C 
BRANCH  27  28
ATOM     28  C   UNL     1      27.588  33.184  49.492  1.00  0.00    -0.000 C 
BRANCH  28  29
ATOM     29  C   UNL     1      26.219  33.144  48.794  1.00  0.00    -0.003 C 
ATOM     30  C   UNL     1      25.270  32.116  49.409  1.00  0.00     0.004 C 
ENDBRANCH  28  29
ENDBRANCH  27  28
ENDBRANCH  26  27
ENDBRANCH  25  26
ENDBRANCH  24  25
ENDBRANCH  23  24
ENDBRANCH  22  23
ENDBRANCH  21  22
ENDBRANCH  20  21
ENDBRANCH  19  20
ENDBRANCH  18  19
ENDBRANCH  17  18
ENDBRANCH   1  17
TORSDOF 26
ENDMDL
MODEL 9
REMARK VINA RESULT:    -3.410      3.660      9.785
REMARK INTER + INTRA:         -12.464
REMARK INTER:                  -7.915
REMARK INTRA:                  -4.549
REMARK UNBOUND:                -3.870
REMARK SMILES CCCCCCCCCCCCCCCCCCCCCCCCCCCC(=O)[O-]
REMARK SMILES IDX 15 1 16 2 17 3 18 4 19 5 20 6 21 7 22 8 23 9 24 10 25 11
REMARK SMILES IDX 26 12 27 13 28 14 29 15 30 16 14 17 13 18 12 19 11 20 10 21
REMARK SMILES IDX 9 22 8 23 7 24 6 25 5 26 4 27 3 28 2 29 1 30
REMARK H PARENT
REMARK Flexibility Score: inf
ROOT
ATOM      1  C   UNL     1      25.273  32.472  53.461  1.00  0.00     0.000 C 
ENDROOT
BRANCH   1   2
ATOM      2  C   UNL     1      24.885  31.126  52.826  1.00  0.00     0.000 C 
BRANCH   2   3
ATOM      3  C   UNL     1      26.104  30.207  52.587  1.00  0.00     0.000 C 
BRANCH   3   4
ATOM      4  C   UNL     1      26.070  28.910  53.416  1.00  0.00     0.000 C 
BRANCH   4   5
ATOM      5  C   UNL     1      24.686  28.553  53.989  1.00  0.00     0.000 C 
BRANCH   5   6
ATOM      6  C   UNL     1      24.653  28.469  55.533  1.00  0.00     0.000 C 
BRANCH   6   7
ATOM      7  C   UNL     1      24.758  29.830  56.249  1.00  0.00     0.000 C 
BRANCH   7   8
ATOM      8  C   UNL     1      23.438  30.626  56.317  1.00  0.00     0.000 C 
BRANCH   8   9
ATOM      9  C   UNL     1      22.524  30.263  57.503  1.00  0.00     0.000 C 
BRANCH   9  10
ATOM     10  C   UNL     1      21.109  29.811  57.079  1.00  0.00     0.000 C 
BRANCH  10  11
ATOM     11  C   UNL     1      20.877  29.975  55.570  1.00  0.00     0.000 C 
BRANCH  11  12
ATOM     12  C   UNL     1      19.786  29.020  55.074  1.00  0.00     0.006 C 
BRANCH  12  13
ATOM     13  C   UNL     1      18.576  29.794  54.539  1.00  0.00     0.053 C 
BRANCH  13  14
ATOM     14  C   UNL     1      17.305  29.289  55.146  1.00  0.00     0.041 C 
ATOM     15  O   UNL     1      17.339  28.520  56.144  1.00  0.00    -0.550 OA
ATOM     16  O   UNL     1      16.079  29.674  54.616  1.00  0.00    -0.550 OA
ENDBRANCH  13  14
ENDBRANCH  12  13
ENDBRANCH  11  12
ENDBRANCH  10  11
ENDBRANCH   9  10
ENDBRANCH   8   9
ENDBRANCH   7   8
ENDBRANCH   6   7
ENDBRANCH   5   6
ENDBRANCH   4   5
ENDBRANCH   3   4
ENDBRANCH   2   3
ENDBRANCH   1   2
BRANCH   1  17
ATOM     17  C   UNL     1      26.673  32.453  54.094  1.00  0.00     0.000 C 
BRANCH  17  18
ATOM     18  C   UNL     1      27.586  33.560  53.538  1.00  0.00     0.000 C 
BRANCH  18  19
ATOM     19  C   UNL     1      28.100  33.240  52.124  1.00  0.00     0.000 C 
BRANCH  19  20
ATOM     20  C   UNL     1      29.634  33.177  52.056  1.00  0.00     0.000 C 
BRANCH  20  21
ATOM     21  C   UNL     1      30.113  31.741  51.813  1.00  0.00     0.000 C 
BRANCH  21  22
ATOM     22  C   UNL     1      29.838  30.852  53.036  1.00  0.00    -0.000 C 
BRANCH  22  23
ATOM     23  C   UNL     1      31.095  30.597  53.888  1.00  0.00    -0.000 C 
BRANCH  23  24
ATOM     24  C   UNL     1      31.664  31.841  54.601  1.00  0.00    -0.000 C 
BRANCH  24  25
ATOM     25  C   UNL     1      30.664  32.582  55.510  1.00  0.00    -0.000 C 
BRANCH  25  26
ATOM     26  C   UNL     1      30.282  31.834  56.804  1.00  0.00    -0.000 C 
BRANCH  26  27
ATOM     27  C   UNL     1      28.817  31.367  56.880  1.00  0.00    -0.000 C 
BRANCH  27  28
ATOM     28  C   UNL     1      28.682  29.889  57.283  1.00  0.00    -0.000 C 
BRANCH  28  29
ATOM     29  C   UNL     1      28.571  28.954  56.068  1.00  0.00    -0.003 C 
ATOM     30  C   UNL     1      28.138  27.538  56.447  1.00  0.00     0.004 C 
ENDBRANCH  28  29
ENDBRANCH  27  28
ENDBRANCH  26  27
ENDBRANCH  25  26
ENDBRANCH  24  25
ENDBRANCH  23  24
ENDBRANCH  22  23
ENDBRANCH  21  22
ENDBRANCH  20  21
ENDBRANCH  19  20
ENDBRANCH  18  19
ENDBRANCH  17  18
ENDBRANCH   1  17
TORSDOF 26
ENDMDL
