MODEL 1
REMARK VINA RESULT:     0.173      0.000      0.000
REMARK INTER + INTRA:          -0.497
REMARK INTER:                   0.455
REMARK INTRA:                  -0.952
REMARK UNBOUND:                -0.952
REMARK SMILES CCCCCCCCCCCCCCCCCCCCCCCCCCCCCC(=O)[O-]
REMARK SMILES IDX 16 1 17 2 18 3 19 4 20 5 21 6 22 7 23 8 24 9 25 10 26 11
REMARK SMILES IDX 27 12 28 13 29 14 30 15 31 16 32 17 15 18 14 19 13 20 12 21
REMARK SMILES IDX 11 22 10 23 9 24 8 25 7 26 6 27 5 28 4 29 3 30 2 31 1 32
REMARK H PARENT
REMARK Flexibility Score: inf
ROOT
ATOM      1  C   UNL     1      17.957   8.814 -14.489  1.00  0.00     0.000 C 
ENDROOT
BRANCH   1   2
ATOM      2  C   UNL     1      18.601   8.432 -15.833  1.00  0.00     0.000 C 
BRANCH   2   3
ATOM      3  C   UNL     1      20.055   7.966 -15.656  1.00  0.00     0.000 C 
BRANCH   3   4
ATOM      4  C   UNL     1      21.071   9.030 -16.118  1.00  0.00     0.000 C 
BRANCH   4   5
ATOM      5  C   UNL     1      22.496   8.767 -15.595  1.00  0.00     0.000 C 
BRANCH   5   6
ATOM      6  C   UNL     1      23.125   9.949 -14.826  1.00  0.00     0.000 C 
BRANCH   6   7
ATOM      7  C   UNL     1      22.268  11.231 -14.769  1.00  0.00     0.000 C 
BRANCH   7   8
ATOM      8  C   UNL     1      22.199  11.995 -16.108  1.00  0.00     0.000 C 
BRANCH   8   9
ATOM      9  C   UNL     1      22.567  13.480 -15.949  1.00  0.00     0.000 C 
BRANCH   9  10
ATOM     10  C   UNL     1      21.329  14.392 -15.994  1.00  0.00     0.000 C 
BRANCH  10  11
ATOM     11  C   UNL     1      21.504  15.653 -15.133  1.00  0.00     0.000 C 
BRANCH  11  12
ATOM     12  C   UNL     1      22.912  16.269 -15.251  1.00  0.00     0.000 C 
BRANCH  12  13
ATOM     13  C   UNL     1      22.957  17.672 -15.890  1.00  0.00     0.006 C 
BRANCH  13  14
ATOM     14  C   UNL     1      21.680  18.488 -15.642  1.00  0.00     0.053 C 
BRANCH  14  15
ATOM     15  C   UNL     1      22.005  19.806 -15.011  1.00  0.00     0.041 C 
ATOM     16  O   UNL     1      23.036  19.927 -14.298  1.00  0.00    -0.550 OA
ATOM     17  O   UNL     1      21.179  20.903 -15.223  1.00  0.00    -0.550 OA
ENDBRANCH  14  15
ENDBRANCH  13  14
ENDBRANCH  12  13
ENDBRANCH  11  12
ENDBRANCH  10  11
ENDBRANCH   9  10
ENDBRANCH   8   9
ENDBRANCH   7   8
ENDBRANCH   6   7
ENDBRANCH   5   6
ENDBRANCH   4   5
ENDBRANCH   3   4
ENDBRANCH   2   3
ENDBRANCH   1   2
BRANCH   1  18
ATOM     18  C   UNL     1      16.432   8.645 -14.532  1.00  0.00     0.000 C 
BRANCH  18  19
ATOM     19  C   UNL     1      15.865   8.756 -15.958  1.00  0.00     0.000 C 
BRANCH  19  20
ATOM     20  C   UNL     1      14.347   8.505 -16.079  1.00  0.00     0.000 C 
BRANCH  20  21
ATOM     21  C   UNL     1      13.469   9.700 -15.646  1.00  0.00     0.000 C 
BRANCH  21  22
ATOM     22  C   UNL     1      14.278  10.831 -14.988  1.00  0.00     0.000 C 
BRANCH  22  23
ATOM     23  C   UNL     1      15.136  11.612 -15.997  1.00  0.00     0.000 C 
BRANCH  23  24
ATOM     24  C   UNL     1      15.339  13.100 -15.631  1.00  0.00    -0.000 C 
BRANCH  24  25
ATOM     25  C   UNL     1      16.817  13.513 -15.461  1.00  0.00    -0.000 C 
BRANCH  25  26
ATOM     26  C   UNL     1      17.853  12.500 -15.992  1.00  0.00    -0.000 C 
BRANCH  26  27
ATOM     27  C   UNL     1      19.107  12.396 -15.108  1.00  0.00    -0.000 C 
BRANCH  27  28
ATOM     28  C   UNL     1      18.761  11.839 -13.721  1.00  0.00    -0.000 C 
BRANCH  28  29
ATOM     29  C   UNL     1      19.917  12.052 -12.732  1.00  0.00    -0.000 C 
BRANCH  29  30
ATOM     30  C   UNL     1      20.824  13.231 -13.124  1.00  0.00    -0.000 C 
BRANCH  30  31
ATOM     31  C   UNL     1      21.643  13.774 -11.944  1.00  0.00    -0.003 C 
ATOM     32  C   UNL     1      23.078  14.080 -12.372  1.00  0.00     0.004 C 
ENDBRANCH  30  31
ENDBRANCH  29  30
ENDBRANCH  28  29
ENDBRANCH  27  28
ENDBRANCH  26  27
ENDBRANCH  25  26
ENDBRANCH  24  25
ENDBRANCH  23  24
ENDBRANCH  22  23
ENDBRANCH  21  22
ENDBRANCH  20  21
ENDBRANCH  19  20
ENDBRANCH  18  19
ENDBRANCH   1  18
TORSDOF 28
ENDMDL
MODEL 2
REMARK VINA RESULT:     1.606      1.439      3.758
REMARK INTER + INTRA:           3.283
REMARK INTER:                   2.415
REMARK INTRA:                   0.868
REMARK UNBOUND:                -0.952
REMARK SMILES CCCCCCCCCCCCCCCCCCCCCCCCCCCCCC(=O)[O-]
REMARK SMILES IDX 16 1 17 2 18 3 19 4 20 5 21 6 22 7 23 8 24 9 25 10 26 11
REMARK SMILES IDX 27 12 28 13 29 14 30 15 31 16 32 17 15 18 14 19 13 20 12 21
REMARK SMILES IDX 11 22 10 23 9 24 8 25 7 26 6 27 5 28 4 29 3 30 2 31 1 32
REMARK H PARENT
REMARK Flexibility Score: inf
ROOT
ATOM      1  C   UNL     1      15.527  11.984 -11.973  1.00  0.00     0.000 C 
ENDROOT
BRANCH   1   2
ATOM      2  C   UNL     1      16.846  12.651 -11.547  1.00  0.00     0.000 C 
BRANCH   2   3
ATOM      3  C   UNL     1      18.069  11.835 -11.996  1.00  0.00     0.000 C 
BRANCH   3   4
ATOM      4  C   UNL     1      18.251  11.847 -13.527  1.00  0.00     0.000 C 
BRANCH   4   5
ATOM      5  C   UNL     1      17.119  12.593 -14.261  1.00  0.00     0.000 C 
BRANCH   5   6
ATOM      6  C   UNL     1      17.365  12.807 -15.769  1.00  0.00     0.000 C 
BRANCH   6   7
ATOM      7  C   UNL     1      18.336  13.952 -16.124  1.00  0.00     0.000 C 
BRANCH   7   8
ATOM      8  C   UNL     1      19.334  14.295 -14.999  1.00  0.00     0.000 C 
BRANCH   8   9
ATOM      9  C   UNL     1      20.531  15.114 -15.513  1.00  0.00     0.000 C 
BRANCH   9  10
ATOM     10  C   UNL     1      21.843  14.726 -14.810  1.00  0.00     0.000 C 
BRANCH  10  11
ATOM     11  C   UNL     1      23.027  15.590 -15.270  1.00  0.00     0.000 C 
BRANCH  11  12
ATOM     12  C   UNL     1      22.587  16.834 -16.066  1.00  0.00     0.000 C 
BRANCH  12  13
ATOM     13  C   UNL     1      21.610  17.769 -15.324  1.00  0.00     0.006 C 
BRANCH  13  14
ATOM     14  C   UNL     1      21.560  19.184 -15.919  1.00  0.00     0.053 C 
BRANCH  14  15
ATOM     15  C   UNL     1      22.591  20.064 -15.285  1.00  0.00     0.041 C 
ATOM     16  O   UNL     1      23.125  19.728 -14.195  1.00  0.00    -0.550 OA
ATOM     17  O   UNL     1      22.975  21.246 -15.905  1.00  0.00    -0.550 OA
ENDBRANCH  14  15
ENDBRANCH  13  14
ENDBRANCH  12  13
ENDBRANCH  11  12
ENDBRANCH  10  11
ENDBRANCH   9  10
ENDBRANCH   8   9
ENDBRANCH   7   8
ENDBRANCH   6   7
ENDBRANCH   5   6
ENDBRANCH   4   5
ENDBRANCH   3   4
ENDBRANCH   2   3
ENDBRANCH   1   2
BRANCH   1  18
ATOM     18  C   UNL     1      14.845  12.766 -13.104  1.00  0.00     0.000 C 
BRANCH  18  19
ATOM     19  C   UNL     1      13.790  11.928 -13.848  1.00  0.00     0.000 C 
BRANCH  19  20
ATOM     20  C   UNL     1      14.199  11.470 -15.263  1.00  0.00     0.000 C 
BRANCH  20  21
ATOM     21  C   UNL     1      13.550  10.142 -15.713  1.00  0.00     0.000 C 
BRANCH  21  22
ATOM     22  C   UNL     1      14.190   8.909 -15.054  1.00  0.00     0.000 C 
BRANCH  22  23
ATOM     23  C   UNL     1      15.328   8.309 -15.896  1.00  0.00     0.000 C 
BRANCH  23  24
ATOM     24  C   UNL     1      16.620   8.027 -15.097  1.00  0.00    -0.000 C 
BRANCH  24  25
ATOM     25  C   UNL     1      17.669   9.158 -15.168  1.00  0.00    -0.000 C 
BRANCH  25  26
ATOM     26  C   UNL     1      19.142   8.696 -15.152  1.00  0.00    -0.000 C 
BRANCH  26  27
ATOM     27  C   UNL     1      20.035   9.483 -16.125  1.00  0.00    -0.000 C 
BRANCH  27  28
ATOM     28  C   UNL     1      21.277  10.034 -15.413  1.00  0.00    -0.000 C 
BRANCH  28  29
ATOM     29  C   UNL     1      21.628  11.443 -15.915  1.00  0.00    -0.000 C 
BRANCH  29  30
ATOM     30  C   UNL     1      22.937  11.980 -15.311  1.00  0.00    -0.000 C 
BRANCH  30  31
ATOM     31  C   UNL     1      23.114  11.600 -13.834  1.00  0.00    -0.003 C 
ATOM     32  C   UNL     1      22.453  12.634 -12.923  1.00  0.00     0.004 C 
ENDBRANCH  30  31
ENDBRANCH  29  30
ENDBRANCH  28  29
ENDBRANCH  27  28
ENDBRANCH  26  27
ENDBRANCH  25  26
ENDBRANCH  24  25
ENDBRANCH  23  24
ENDBRANCH  22  23
ENDBRANCH  21  22
ENDBRANCH  20  21
ENDBRANCH  19  20
ENDBRANCH  18  19
ENDBRANCH   1  18
TORSDOF 28
ENDMDL
