MODEL 1
REMARK VINA RESULT:    -5.129      0.000      0.000
REMARK INTER + INTRA:          -6.502
REMARK INTER:                  -6.179
REMARK INTRA:                  -0.323
REMARK UNBOUND:                -0.323
REMARK SMILES O=c1c(O)c(-c2ccc(O)c(O)c2)oc2cc(O)cc(O)c12
REMARK SMILES IDX 5 1 3 2 2 3 1 4 22 5 20 6 19 7 17 8 16 9 15 10 14 11 6 12
REMARK SMILES IDX 7 13 8 14 9 15 13 16 11 17 10 18 12 20 4 22 21 24 18 26
REMARK H PARENT 10 19 12 21 4 23 21 25 18 27
REMARK Flexibility Score: inf
ROOT
ATOM      1  C   UNL     1      64.302  51.383  35.723  1.00  0.00     0.180 A 
ATOM      2  C   UNL     1      64.019  52.756  35.834  1.00  0.00     0.208 A 
ATOM      3  C   UNL     1      63.292  53.385  34.811  1.00  0.00     0.238 A 
ATOM      4  O   UNL     1      62.995  54.602  34.941  1.00  0.00    -0.285 OA
ATOM      5  C   UNL     1      62.870  52.639  33.685  1.00  0.00     0.111 A 
ATOM      6  C   UNL     1      62.162  53.182  32.571  1.00  0.00     0.134 A 
ATOM      7  C   UNL     1      61.681  52.326  31.573  1.00  0.00     0.093 A 
ATOM      8  C   UNL     1      61.939  50.956  31.614  1.00  0.00     0.123 A 
ATOM      9  C   UNL     1      62.681  50.421  32.668  1.00  0.00     0.094 A 
ATOM     10  C   UNL     1      63.143  51.246  33.697  1.00  0.00     0.146 A 
ATOM     11  O   UNL     1      63.836  50.696  34.687  1.00  0.00    -0.452 OA
ENDROOT
BRANCH   1  12
ATOM     12  C   UNL     1      65.085  50.655  36.748  1.00  0.00     0.025 A 
ATOM     13  C   UNL     1      66.483  50.599  36.640  1.00  0.00     0.016 A 
ATOM     14  C   UNL     1      67.242  49.936  37.608  1.00  0.00     0.051 A 
ATOM     15  C   UNL     1      66.616  49.332  38.705  1.00  0.00     0.157 A 
ATOM     16  C   UNL     1      64.461  50.065  37.863  1.00  0.00     0.062 A 
ATOM     17  C   UNL     1      65.219  49.402  38.835  1.00  0.00     0.158 A 
BRANCH  15  18
ATOM     18  O   UNL     1      67.376  48.668  39.668  1.00  0.00    -0.504 OA
ATOM     19  H   UNL     1      67.825  49.168  40.426  1.00  0.00     0.293 HD
ENDBRANCH  15  18
BRANCH  17  20
ATOM     20  O   UNL     1      64.567  48.824  39.924  1.00  0.00    -0.504 OA
ATOM     21  H   UNL     1      64.997  48.766  40.840  1.00  0.00     0.293 HD
ENDBRANCH  17  20
ENDBRANCH   1  12
BRANCH   2  22
ATOM     22  O   UNL     1      64.426  53.468  36.965  1.00  0.00    -0.502 OA
ATOM     23  H   UNL     1      64.103  53.237  37.897  1.00  0.00     0.293 HD
ENDBRANCH   2  22
BRANCH   6  24
ATOM     24  O   UNL     1      61.931  54.549  32.385  1.00  0.00    -0.507 OA
ATOM     25  H   UNL     1      61.520  55.161  33.074  1.00  0.00     0.293 HD
ENDBRANCH   6  24
BRANCH   8  26
ATOM     26  O   UNL     1      61.458  50.135  30.595  1.00  0.00    -0.508 OA
ATOM     27  H   UNL     1      61.067  49.222  30.792  1.00  0.00     0.293 HD
ENDBRANCH   8  26
TORSDOF 6
ENDMDL
MODEL 2
REMARK VINA RESULT:    -5.092      1.846      6.743
REMARK INTER + INTRA:          -6.457
REMARK INTER:                  -6.160
REMARK INTRA:                  -0.298
REMARK UNBOUND:                -0.323
REMARK SMILES O=c1c(O)c(-c2ccc(O)c(O)c2)oc2cc(O)cc(O)c12
REMARK SMILES IDX 5 1 3 2 2 3 1 4 22 5 20 6 19 7 17 8 16 9 15 10 14 11 6 12
REMARK SMILES IDX 7 13 8 14 9 15 13 16 11 17 10 18 12 20 4 22 21 24 18 26
REMARK H PARENT 10 19 12 21 4 23 21 25 18 27
REMARK Flexibility Score: inf
ROOT
ATOM      1  C   UNL     1      64.127  51.387  35.650  1.00  0.00     0.180 A 
ATOM      2  C   UNL     1      65.176  52.324  35.646  1.00  0.00     0.208 A 
ATOM      3  C   UNL     1      66.031  52.393  36.757  1.00  0.00     0.238 A 
ATOM      4  O   UNL     1      67.001  53.196  36.724  1.00  0.00    -0.285 OA
ATOM      5  C   UNL     1      65.819  51.536  37.863  1.00  0.00     0.111 A 
ATOM      6  C   UNL     1      66.600  51.547  39.058  1.00  0.00     0.134 A 
ATOM      7  C   UNL     1      66.383  50.567  40.035  1.00  0.00     0.093 A 
ATOM      8  C   UNL     1      65.371  49.618  39.890  1.00  0.00     0.123 A 
ATOM      9  C   UNL     1      64.562  49.635  38.753  1.00  0.00     0.094 A 
ATOM     10  C   UNL     1      64.779  50.578  37.745  1.00  0.00     0.146 A 
ATOM     11  O   UNL     1      63.994  50.553  36.674  1.00  0.00    -0.452 OA
ENDROOT
BRANCH   1  12
ATOM     12  C   UNL     1      63.169  51.272  34.527  1.00  0.00     0.025 A 
ATOM     13  C   UNL     1      63.525  50.532  33.388  1.00  0.00     0.016 A 
ATOM     14  C   UNL     1      62.627  50.393  32.326  1.00  0.00     0.051 A 
ATOM     15  C   UNL     1      61.357  50.978  32.393  1.00  0.00     0.157 A 
ATOM     16  C   UNL     1      61.884  51.841  34.600  1.00  0.00     0.062 A 
ATOM     17  C   UNL     1      60.982  51.701  33.538  1.00  0.00     0.158 A 
BRANCH  15  18
ATOM     18  O   UNL     1      60.464  50.839  31.330  1.00  0.00    -0.504 OA
ATOM     19  H   UNL     1      60.274  51.604  30.694  1.00  0.00     0.293 HD
ENDBRANCH  15  18
BRANCH  17  20
ATOM     20  O   UNL     1      59.719  52.282  33.642  1.00  0.00    -0.504 OA
ATOM     21  H   UNL     1      59.037  52.224  32.895  1.00  0.00     0.293 HD
ENDBRANCH  17  20
ENDBRANCH   1  12
BRANCH   2  22
ATOM     22  O   UNL     1      65.380  53.145  34.533  1.00  0.00    -0.502 OA
ATOM     23  H   UNL     1      66.230  53.679  34.402  1.00  0.00     0.293 HD
ENDBRANCH   2  22
BRANCH   6  24
ATOM     24  O   UNL     1      67.575  52.508  39.345  1.00  0.00    -0.507 OA
ATOM     25  H   UNL     1      68.081  53.036  38.651  1.00  0.00     0.293 HD
ENDBRANCH   6  24
BRANCH   8  26
ATOM     26  O   UNL     1      65.173  48.667  40.889  1.00  0.00    -0.508 OA
ATOM     27  H   UNL     1      65.937  48.106  41.245  1.00  0.00     0.293 HD
ENDBRANCH   8  26
TORSDOF 6
ENDMDL
MODEL 3
REMARK VINA RESULT:    -5.055      2.353      7.723
REMARK INTER + INTRA:          -6.413
REMARK INTER:                  -6.426
REMARK INTRA:                   0.013
REMARK UNBOUND:                -0.323
REMARK SMILES O=c1c(O)c(-c2ccc(O)c(O)c2)oc2cc(O)cc(O)c12
REMARK SMILES IDX 5 1 3 2 2 3 1 4 22 5 20 6 19 7 17 8 16 9 15 10 14 11 6 12
REMARK SMILES IDX 7 13 8 14 9 15 13 16 11 17 10 18 12 20 4 22 21 24 18 26
REMARK H PARENT 10 19 12 21 4 23 21 25 18 27
REMARK Flexibility Score: inf
ROOT
ATOM      1  C   UNL     1      65.904  50.346  37.956  1.00  0.00     0.180 A 
ATOM      2  C   UNL     1      65.471  50.825  39.205  1.00  0.00     0.208 A 
ATOM      3  C   UNL     1      66.086  50.342  40.370  1.00  0.00     0.238 A 
ATOM      4  O   UNL     1      65.731  50.815  41.482  1.00  0.00    -0.285 OA
ATOM      5  C   UNL     1      67.117  49.377  40.274  1.00  0.00     0.111 A 
ATOM      6  C   UNL     1      67.785  48.790  41.391  1.00  0.00     0.134 A 
ATOM      7  C   UNL     1      68.878  47.942  41.175  1.00  0.00     0.093 A 
ATOM      8  C   UNL     1      69.287  47.609  39.885  1.00  0.00     0.123 A 
ATOM      9  C   UNL     1      68.605  48.130  38.784  1.00  0.00     0.094 A 
ATOM     10  C   UNL     1      67.533  49.008  38.968  1.00  0.00     0.146 A 
ATOM     11  O   UNL     1      66.918  49.490  37.895  1.00  0.00    -0.452 OA
ENDROOT
BRANCH   1  12
ATOM     12  C   UNL     1      65.287  50.788  36.684  1.00  0.00     0.025 A 
ATOM     13  C   UNL     1      66.109  51.127  35.598  1.00  0.00     0.016 A 
ATOM     14  C   UNL     1      65.547  51.526  34.382  1.00  0.00     0.051 A 
ATOM     15  C   UNL     1      64.155  51.578  34.231  1.00  0.00     0.157 A 
ATOM     16  C   UNL     1      63.890  50.822  36.522  1.00  0.00     0.062 A 
ATOM     17  C   UNL     1      63.324  51.219  35.305  1.00  0.00     0.158 A 
BRANCH  15  18
ATOM     18  O   UNL     1      63.597  51.979  33.017  1.00  0.00    -0.504 OA
ATOM     19  H   UNL     1      62.870  51.440  32.564  1.00  0.00     0.293 HD
ENDBRANCH  15  18
BRANCH  17  20
ATOM     20  O   UNL     1      61.935  51.245  35.181  1.00  0.00    -0.504 OA
ATOM     21  H   UNL     1      61.429  50.549  34.646  1.00  0.00     0.293 HD
ENDBRANCH  17  20
ENDBRANCH   1  12
BRANCH   2  22
ATOM     22  O   UNL     1      64.466  51.794  39.274  1.00  0.00    -0.502 OA
ATOM     23  H   UNL     1      64.597  52.737  38.927  1.00  0.00     0.293 HD
ENDBRANCH   2  22
BRANCH   6  24
ATOM     24  O   UNL     1      67.397  48.983  42.721  1.00  0.00    -0.507 OA
ATOM     25  H   UNL     1      67.768  49.698  43.328  1.00  0.00     0.293 HD
ENDBRANCH   6  24
BRANCH   8  26
ATOM     26  O   UNL     1      70.370  46.749  39.707  1.00  0.00    -0.508 OA
ATOM     27  H   UNL     1      71.297  46.991  40.036  1.00  0.00     0.293 HD
ENDBRANCH   8  26
TORSDOF 6
ENDMDL
MODEL 4
REMARK VINA RESULT:    -4.997      2.701      3.570
REMARK INTER + INTRA:          -6.343
REMARK INTER:                  -6.231
REMARK INTRA:                  -0.112
REMARK UNBOUND:                -0.323
REMARK SMILES O=c1c(O)c(-c2ccc(O)c(O)c2)oc2cc(O)cc(O)c12
REMARK SMILES IDX 5 1 3 2 2 3 1 4 22 5 20 6 19 7 17 8 16 9 15 10 14 11 6 12
REMARK SMILES IDX 7 13 8 14 9 15 13 16 11 17 10 18 12 20 4 22 21 24 18 26
REMARK H PARENT 10 19 12 21 4 23 21 25 18 27
REMARK Flexibility Score: inf
ROOT
ATOM      1  C   UNL     1      65.309  51.004  36.340  1.00  0.00     0.180 A 
ATOM      2  C   UNL     1      64.077  50.925  35.668  1.00  0.00     0.208 A 
ATOM      3  C   UNL     1      64.055  51.049  34.270  1.00  0.00     0.238 A 
ATOM      4  O   UNL     1      62.956  50.922  33.668  1.00  0.00    -0.285 OA
ATOM      5  C   UNL     1      65.262  51.266  33.563  1.00  0.00     0.111 A 
ATOM      6  C   UNL     1      65.353  51.446  32.150  1.00  0.00     0.134 A 
ATOM      7  C   UNL     1      66.613  51.523  31.543  1.00  0.00     0.093 A 
ATOM      8  C   UNL     1      67.781  51.494  32.302  1.00  0.00     0.123 A 
ATOM      9  C   UNL     1      67.703  51.378  33.691  1.00  0.00     0.094 A 
ATOM     10  C   UNL     1      66.461  51.262  34.322  1.00  0.00     0.146 A 
ATOM     11  O   UNL     1      66.431  51.142  35.644  1.00  0.00    -0.452 OA
ENDROOT
BRANCH   1  12
ATOM     12  C   UNL     1      65.410  50.908  37.815  1.00  0.00     0.025 A 
ATOM     13  C   UNL     1      65.884  52.006  38.548  1.00  0.00     0.016 A 
ATOM     14  C   UNL     1      65.967  51.944  39.942  1.00  0.00     0.051 A 
ATOM     15  C   UNL     1      65.563  50.788  40.623  1.00  0.00     0.157 A 
ATOM     16  C   UNL     1      64.985  49.757  38.503  1.00  0.00     0.062 A 
ATOM     17  C   UNL     1      65.065  49.692  39.899  1.00  0.00     0.158 A 
BRANCH  15  18
ATOM     18  O   UNL     1      65.649  50.729  42.014  1.00  0.00    -0.504 OA
ATOM     19  H   UNL     1      65.032  51.269  42.607  1.00  0.00     0.293 HD
ENDBRANCH  15  18
BRANCH  17  20
ATOM     20  O   UNL     1      64.640  48.534  40.549  1.00  0.00    -0.504 OA
ATOM     21  H   UNL     1      64.280  48.549  41.496  1.00  0.00     0.293 HD
ENDBRANCH  17  20
ENDBRANCH   1  12
BRANCH   2  22
ATOM     22  O   UNL     1      62.900  50.688  36.384  1.00  0.00    -0.502 OA
ATOM     23  H   UNL     1      62.628  51.249  37.182  1.00  0.00     0.293 HD
ENDBRANCH   2  22
BRANCH   6  24
ATOM     24  O   UNL     1      64.245  51.581  31.308  1.00  0.00    -0.507 OA
ATOM     25  H   UNL     1      63.337  51.908  31.601  1.00  0.00     0.293 HD
ENDBRANCH   6  24
BRANCH   8  26
ATOM     26  O   UNL     1      69.017  51.589  31.666  1.00  0.00    -0.508 OA
ATOM     27  H   UNL     1      69.196  51.123  30.785  1.00  0.00     0.293 HD
ENDBRANCH   8  26
TORSDOF 6
ENDMDL
MODEL 5
REMARK VINA RESULT:    -4.911      1.748      3.605
REMARK INTER + INTRA:          -6.239
REMARK INTER:                  -5.948
REMARK INTRA:                  -0.291
REMARK UNBOUND:                -0.323
REMARK SMILES O=c1c(O)c(-c2ccc(O)c(O)c2)oc2cc(O)cc(O)c12
REMARK SMILES IDX 5 1 3 2 2 3 1 4 22 5 20 6 19 7 17 8 16 9 15 10 14 11 6 12
REMARK SMILES IDX 7 13 8 14 9 15 13 16 11 17 10 18 12 20 4 22 21 24 18 26
REMARK H PARENT 10 19 12 21 4 23 21 25 18 27
REMARK Flexibility Score: inf
ROOT
ATOM      1  C   UNL     1      64.093  52.119  35.941  1.00  0.00     0.180 A 
ATOM      2  C   UNL     1      63.256  51.775  34.865  1.00  0.00     0.208 A 
ATOM      3  C   UNL     1      62.494  52.779  34.248  1.00  0.00     0.238 A 
ATOM      4  O   UNL     1      61.788  52.476  33.251  1.00  0.00    -0.285 OA
ATOM      5  C   UNL     1      62.567  54.111  34.723  1.00  0.00     0.111 A 
ATOM      6  C   UNL     1      61.809  55.201  34.198  1.00  0.00     0.134 A 
ATOM      7  C   UNL     1      62.058  56.500  34.659  1.00  0.00     0.093 A 
ATOM      8  C   UNL     1      62.988  56.740  35.669  1.00  0.00     0.123 A 
ATOM      9  C   UNL     1      63.692  55.674  36.231  1.00  0.00     0.094 A 
ATOM     10  C   UNL     1      63.492  54.372  35.767  1.00  0.00     0.146 A 
ATOM     11  O   UNL     1      64.190  53.387  36.321  1.00  0.00    -0.452 OA
ENDROOT
BRANCH   1  12
ATOM     12  C   UNL     1      64.908  51.111  36.659  1.00  0.00     0.025 A 
ATOM     13  C   UNL     1      66.294  51.063  36.444  1.00  0.00     0.016 A 
ATOM     14  C   UNL     1      67.085  50.134  37.127  1.00  0.00     0.051 A 
ATOM     15  C   UNL     1      66.503  49.252  38.045  1.00  0.00     0.157 A 
ATOM     16  C   UNL     1      64.330  50.237  37.598  1.00  0.00     0.062 A 
ATOM     17  C   UNL     1      65.120  49.308  38.285  1.00  0.00     0.158 A 
BRANCH  15  18
ATOM     18  O   UNL     1      67.294  48.325  38.724  1.00  0.00    -0.504 OA
ATOM     19  H   UNL     1      67.076  47.336  38.716  1.00  0.00     0.293 HD
ENDBRANCH  15  18
BRANCH  17  20
ATOM     20  O   UNL     1      64.513  48.453  39.205  1.00  0.00    -0.504 OA
ATOM     21  H   UNL     1      63.944  47.666  38.915  1.00  0.00     0.293 HD
ENDBRANCH  17  20
ENDBRANCH   1  12
BRANCH   2  22
ATOM     22  O   UNL     1      63.217  50.458  34.399  1.00  0.00    -0.502 OA
ATOM     23  H   UNL     1      62.781  49.709  34.923  1.00  0.00     0.293 HD
ENDBRANCH   2  22
BRANCH   6  24
ATOM     24  O   UNL     1      60.790  55.059  33.252  1.00  0.00    -0.507 OA
ATOM     25  H   UNL     1      60.718  55.595  32.400  1.00  0.00     0.293 HD
ENDBRANCH   6  24
BRANCH   8  26
ATOM     26  O   UNL     1      63.198  58.044  36.114  1.00  0.00    -0.508 OA
ATOM     27  H   UNL     1      64.086  58.512  35.981  1.00  0.00     0.293 HD
ENDBRANCH   8  26
TORSDOF 6
ENDMDL
MODEL 6
REMARK VINA RESULT:    -4.789      1.890      2.443
REMARK INTER + INTRA:          -6.092
REMARK INTER:                  -5.822
REMARK INTRA:                  -0.270
REMARK UNBOUND:                -0.323
REMARK SMILES O=c1c(O)c(-c2ccc(O)c(O)c2)oc2cc(O)cc(O)c12
REMARK SMILES IDX 5 1 3 2 2 3 1 4 22 5 20 6 19 7 17 8 16 9 15 10 14 11 6 12
REMARK SMILES IDX 7 13 8 14 9 15 13 16 11 17 10 18 12 20 4 22 21 24 18 26
REMARK H PARENT 10 19 12 21 4 23 21 25 18 27
REMARK Flexibility Score: inf
ROOT
ATOM      1  C   UNL     1      64.511  51.219  35.742  1.00  0.00     0.180 A 
ATOM      2  C   UNL     1      65.534  51.226  34.777  1.00  0.00     0.208 A 
ATOM      3  C   UNL     1      65.192  51.371  33.424  1.00  0.00     0.238 A 
ATOM      4  O   UNL     1      66.116  51.431  32.570  1.00  0.00    -0.285 OA
ATOM      5  C   UNL     1      63.833  51.492  33.049  1.00  0.00     0.111 A 
ATOM      6  C   UNL     1      63.369  51.604  31.703  1.00  0.00     0.134 A 
ATOM      7  C   UNL     1      62.012  51.849  31.458  1.00  0.00     0.093 A 
ATOM      8  C   UNL     1      61.093  51.921  32.504  1.00  0.00     0.123 A 
ATOM      9  C   UNL     1      61.526  51.754  33.820  1.00  0.00     0.094 A 
ATOM     10  C   UNL     1      62.879  51.544  34.098  1.00  0.00     0.146 A 
ATOM     11  O   UNL     1      63.251  51.401  35.365  1.00  0.00    -0.452 OA
ENDROOT
BRANCH   1  12
ATOM     12  C   UNL     1      64.790  51.046  37.185  1.00  0.00     0.025 A 
ATOM     13  C   UNL     1      65.268  52.134  37.932  1.00  0.00     0.016 A 
ATOM     14  C   UNL     1      65.518  51.998  39.301  1.00  0.00     0.051 A 
ATOM     15  C   UNL     1      65.279  50.777  39.945  1.00  0.00     0.157 A 
ATOM     16  C   UNL     1      64.532  49.828  37.840  1.00  0.00     0.062 A 
ATOM     17  C   UNL     1      64.779  49.689  39.210  1.00  0.00     0.158 A 
BRANCH  15  18
ATOM     18  O   UNL     1      65.531  50.644  41.310  1.00  0.00    -0.504 OA
ATOM     19  H   UNL     1      66.019  51.362  41.831  1.00  0.00     0.293 HD
ENDBRANCH  15  18
BRANCH  17  20
ATOM     20  O   UNL     1      64.516  48.465  39.826  1.00  0.00    -0.504 OA
ATOM     21  H   UNL     1      63.579  48.187  40.092  1.00  0.00     0.293 HD
ENDBRANCH  17  20
ENDBRANCH   1  12
BRANCH   2  22
ATOM     22  O   UNL     1      66.871  51.127  35.171  1.00  0.00    -0.502 OA
ATOM     23  H   UNL     1      67.169  50.537  35.939  1.00  0.00     0.293 HD
ENDBRANCH   2  22
BRANCH   6  24
ATOM     24  O   UNL     1      64.189  51.455  30.581  1.00  0.00    -0.507 OA
ATOM     25  H   UNL     1      64.759  50.645  30.389  1.00  0.00     0.293 HD
ENDBRANCH   6  24
BRANCH   8  26
ATOM     26  O   UNL     1      59.748  52.152  32.222  1.00  0.00    -0.508 OA
ATOM     27  H   UNL     1      59.297  51.733  31.418  1.00  0.00     0.293 HD
ENDBRANCH   8  26
TORSDOF 6
ENDMDL
MODEL 7
REMARK VINA RESULT:    -4.787      0.850      0.903
REMARK INTER + INTRA:          -6.089
REMARK INTER:                  -5.768
REMARK INTRA:                  -0.321
REMARK UNBOUND:                -0.323
REMARK SMILES O=c1c(O)c(-c2ccc(O)c(O)c2)oc2cc(O)cc(O)c12
REMARK SMILES IDX 5 1 3 2 2 3 1 4 22 5 20 6 19 7 17 8 16 9 15 10 14 11 6 12
REMARK SMILES IDX 7 13 8 14 9 15 13 16 11 17 10 18 12 20 4 22 21 24 18 26
REMARK H PARENT 10 19 12 21 4 23 21 25 18 27
REMARK Flexibility Score: inf
ROOT
ATOM      1  C   UNL     1      63.867  51.359  35.136  1.00  0.00     0.180 A 
ATOM      2  C   UNL     1      63.397  52.684  35.173  1.00  0.00     0.208 A 
ATOM      3  C   UNL     1      62.545  53.133  34.152  1.00  0.00     0.238 A 
ATOM      4  O   UNL     1      62.084  54.303  34.220  1.00  0.00    -0.285 OA
ATOM      5  C   UNL     1      62.186  52.259  33.098  1.00  0.00     0.111 A 
ATOM      6  C   UNL     1      61.361  52.620  31.990  1.00  0.00     0.134 A 
ATOM      7  C   UNL     1      60.965  51.637  31.075  1.00  0.00     0.093 A 
ATOM      8  C   UNL     1      61.416  50.323  31.189  1.00  0.00     0.123 A 
ATOM      9  C   UNL     1      62.270  49.971  32.235  1.00  0.00     0.094 A 
ATOM     10  C   UNL     1      62.654  50.922  33.184  1.00  0.00     0.146 A 
ATOM     11  O   UNL     1      63.459  50.544  34.170  1.00  0.00    -0.452 OA
ENDROOT
BRANCH   1  12
ATOM     12  C   UNL     1      64.787  50.820  36.163  1.00  0.00     0.025 A 
ATOM     13  C   UNL     1      66.170  51.010  36.020  1.00  0.00     0.016 A 
ATOM     14  C   UNL     1      67.055  50.528  36.988  1.00  0.00     0.051 A 
ATOM     15  C   UNL     1      66.569  49.862  38.120  1.00  0.00     0.157 A 
ATOM     16  C   UNL     1      64.301  50.169  37.311  1.00  0.00     0.062 A 
ATOM     17  C   UNL     1      65.184  49.687  38.284  1.00  0.00     0.158 A 
BRANCH  15  18
ATOM     18  O   UNL     1      67.455  49.380  39.084  1.00  0.00    -0.504 OA
ATOM     19  H   UNL     1      67.899  48.475  38.990  1.00  0.00     0.293 HD
ENDBRANCH  15  18
BRANCH  17  20
ATOM     20  O   UNL     1      64.668  49.042  39.408  1.00  0.00    -0.504 OA
ATOM     21  H   UNL     1      64.024  49.499  40.042  1.00  0.00     0.293 HD
ENDBRANCH  17  20
ENDBRANCH   1  12
BRANCH   2  22
ATOM     22  O   UNL     1      63.746  53.523  36.235  1.00  0.00    -0.502 OA
ATOM     23  H   UNL     1      63.364  54.455  36.339  1.00  0.00     0.293 HD
ENDBRANCH   2  22
BRANCH   6  24
ATOM     24  O   UNL     1      60.931  53.925  31.730  1.00  0.00    -0.507 OA
ATOM     25  H   UNL     1      60.880  54.660  32.419  1.00  0.00     0.293 HD
ENDBRANCH   6  24
BRANCH   8  26
ATOM     26  O   UNL     1      61.013  49.374  30.250  1.00  0.00    -0.508 OA
ATOM     27  H   UNL     1      61.673  48.727  29.837  1.00  0.00     0.293 HD
ENDBRANCH   8  26
TORSDOF 6
ENDMDL
MODEL 8
REMARK VINA RESULT:    -4.689      5.151     10.186
REMARK INTER + INTRA:          -5.971
REMARK INTER:                  -5.636
REMARK INTRA:                  -0.335
REMARK UNBOUND:                -0.323
REMARK SMILES O=c1c(O)c(-c2ccc(O)c(O)c2)oc2cc(O)cc(O)c12
REMARK SMILES IDX 5 1 3 2 2 3 1 4 22 5 20 6 19 7 17 8 16 9 15 10 14 11 6 12
REMARK SMILES IDX 7 13 8 14 9 15 13 16 11 17 10 18 12 20 4 22 21 24 18 26
REMARK H PARENT 10 19 12 21 4 23 21 25 18 27
REMARK Flexibility Score: inf
ROOT
ATOM      1  C   UNL     1      58.497  49.824  29.358  1.00  0.00     0.180 A 
ATOM      2  C   UNL     1      58.452  50.873  30.293  1.00  0.00     0.208 A 
ATOM      3  C   UNL     1      59.489  50.994  31.231  1.00  0.00     0.238 A 
ATOM      4  O   UNL     1      59.471  51.967  32.030  1.00  0.00    -0.285 OA
ATOM      5  C   UNL     1      60.550  50.057  31.232  1.00  0.00     0.111 A 
ATOM      6  C   UNL     1      61.633  50.059  32.163  1.00  0.00     0.134 A 
ATOM      7  C   UNL     1      62.694  49.163  31.990  1.00  0.00     0.093 A 
ATOM      8  C   UNL     1      62.682  48.222  30.962  1.00  0.00     0.123 A 
ATOM      9  C   UNL     1      61.600  48.170  30.082  1.00  0.00     0.094 A 
ATOM     10  C   UNL     1      60.543  49.076  30.207  1.00  0.00     0.146 A 
ATOM     11  O   UNL     1      59.538  49.001  29.342  1.00  0.00    -0.452 OA
ENDROOT
BRANCH   1  12
ATOM     12  C   UNL     1      57.428  49.617  28.354  1.00  0.00     0.025 A 
ATOM     13  C   UNL     1      57.567  50.171  27.072  1.00  0.00     0.016 A 
ATOM     14  C   UNL     1      56.580  49.969  26.102  1.00  0.00     0.051 A 
ATOM     15  C   UNL     1      55.448  49.199  26.397  1.00  0.00     0.157 A 
ATOM     16  C   UNL     1      56.300  48.826  28.639  1.00  0.00     0.062 A 
ATOM     17  C   UNL     1      55.311  48.621  27.670  1.00  0.00     0.158 A 
BRANCH  15  18
ATOM     18  O   UNL     1      54.464  49.002  25.428  1.00  0.00    -0.504 OA
ATOM     19  H   UNL     1      54.569  49.357  24.486  1.00  0.00     0.293 HD
ENDBRANCH  15  18
BRANCH  17  20
ATOM     20  O   UNL     1      54.203  47.836  27.988  1.00  0.00    -0.504 OA
ATOM     21  H   UNL     1      53.976  46.992  27.475  1.00  0.00     0.293 HD
ENDBRANCH  17  20
ENDBRANCH   1  12
BRANCH   2  22
ATOM     22  O   UNL     1      57.406  51.800  30.258  1.00  0.00    -0.502 OA
ATOM     23  H   UNL     1      56.510  51.624  30.697  1.00  0.00     0.293 HD
ENDBRANCH   2  22
BRANCH   6  24
ATOM     24  O   UNL     1      61.699  50.897  33.281  1.00  0.00    -0.507 OA
ATOM     25  H   UNL     1      62.414  50.852  33.990  1.00  0.00     0.293 HD
ENDBRANCH   6  24
BRANCH   8  26
ATOM     26  O   UNL     1      63.748  47.334  30.829  1.00  0.00    -0.508 OA
ATOM     27  H   UNL     1      63.619  46.405  30.450  1.00  0.00     0.293 HD
ENDBRANCH   8  26
TORSDOF 6
ENDMDL
MODEL 9
REMARK VINA RESULT:    -4.632      2.035      3.294
REMARK INTER + INTRA:          -5.903
REMARK INTER:                  -5.581
REMARK INTRA:                  -0.322
REMARK UNBOUND:                -0.323
REMARK SMILES O=c1c(O)c(-c2ccc(O)c(O)c2)oc2cc(O)cc(O)c12
REMARK SMILES IDX 5 1 3 2 2 3 1 4 22 5 20 6 19 7 17 8 16 9 15 10 14 11 6 12
REMARK SMILES IDX 7 13 8 14 9 15 13 16 11 17 10 18 12 20 4 22 21 24 18 26
REMARK H PARENT 10 19 12 21 4 23 21 25 18 27
REMARK Flexibility Score: inf
ROOT
ATOM      1  C   UNL     1      63.198  51.072  34.053  1.00  0.00     0.180 A 
ATOM      2  C   UNL     1      61.939  51.683  33.921  1.00  0.00     0.208 A 
ATOM      3  C   UNL     1      61.083  51.264  32.890  1.00  0.00     0.238 A 
ATOM      4  O   UNL     1      59.936  51.777  32.810  1.00  0.00    -0.285 OA
ATOM      5  C   UNL     1      61.501  50.250  31.996  1.00  0.00     0.111 A 
ATOM      6  C   UNL     1      60.732  49.775  30.891  1.00  0.00     0.134 A 
ATOM      7  C   UNL     1      61.190  48.678  30.150  1.00  0.00     0.093 A 
ATOM      8  C   UNL     1      62.418  48.082  30.432  1.00  0.00     0.123 A 
ATOM      9  C   UNL     1      63.207  48.576  31.472  1.00  0.00     0.094 A 
ATOM     10  C   UNL     1      62.759  49.645  32.252  1.00  0.00     0.146 A 
ATOM     11  O   UNL     1      63.535  50.078  33.239  1.00  0.00    -0.452 OA
ENDROOT
BRANCH   1  12
ATOM     12  C   UNL     1      64.165  51.476  35.098  1.00  0.00     0.025 A 
ATOM     13  C   UNL     1      65.048  52.539  34.849  1.00  0.00     0.016 A 
ATOM     14  C   UNL     1      65.954  52.951  35.830  1.00  0.00     0.051 A 
ATOM     15  C   UNL     1      65.980  52.317  37.079  1.00  0.00     0.157 A 
ATOM     16  C   UNL     1      64.180  50.856  36.361  1.00  0.00     0.062 A 
ATOM     17  C   UNL     1      65.085  51.268  37.346  1.00  0.00     0.158 A 
BRANCH  15  18
ATOM     18  O   UNL     1      66.888  52.729  38.055  1.00  0.00    -0.504 OA
ATOM     19  H   UNL     1      66.847  53.656  38.459  1.00  0.00     0.293 HD
ENDBRANCH  15  18
BRANCH  17  20
ATOM     20  O   UNL     1      65.075  50.627  38.585  1.00  0.00    -0.504 OA
ATOM     21  H   UNL     1      64.339  50.780  39.265  1.00  0.00     0.293 HD
ENDBRANCH  17  20
ENDBRANCH   1  12
BRANCH   2  22
ATOM     22  O   UNL     1      61.537  52.667  34.829  1.00  0.00    -0.502 OA
ATOM     23  H   UNL     1      62.145  53.006  35.565  1.00  0.00     0.293 HD
ENDBRANCH   2  22
BRANCH   6  24
ATOM     24  O   UNL     1      59.534  50.359  30.466  1.00  0.00    -0.507 OA
ATOM     25  H   UNL     1      58.706  49.845  30.206  1.00  0.00     0.293 HD
ENDBRANCH   6  24
BRANCH   8  26
ATOM     26  O   UNL     1      62.849  47.002  29.664  1.00  0.00    -0.508 OA
ATOM     27  H   UNL     1      62.535  46.871  28.710  1.00  0.00     0.293 HD
ENDBRANCH   8  26
TORSDOF 6
ENDMDL
