MODEL 1
REMARK VINA RESULT:     8.744      0.000      0.000
REMARK INTER + INTRA:          19.191
REMARK INTER:                  19.989
REMARK INTRA:                  -0.798
REMARK UNBOUND:                -0.798
REMARK SMILES CCCCCCCCCCCCCCCCCCCCCCCC(=O)[O-]
REMARK SMILES IDX 13 1 14 2 15 3 16 4 17 5 18 6 19 7 20 8 21 9 22 10 23 11
REMARK SMILES IDX 24 12 25 13 26 14 12 15 11 16 10 17 9 18 8 19 7 20 6 21 5 22
REMARK SMILES IDX 4 23 3 24 2 25 1 26
REMARK H PARENT
REMARK Flexibility Score: inf
ROOT
ATOM      1  C   UNL     1       9.639   1.801 -13.684  1.00  0.00     0.000 C 
ENDROOT
BRANCH   1   2
ATOM      2  C   UNL     1       8.416   0.896 -13.484  1.00  0.00     0.000 C 
BRANCH   2   3
ATOM      3  C   UNL     1       7.152   1.725 -13.204  1.00  0.00     0.000 C 
BRANCH   3   4
ATOM      4  C   UNL     1       5.954   1.292 -14.064  1.00  0.00     0.000 C 
BRANCH   4   5
ATOM      5  C   UNL     1       4.640   1.964 -13.639  1.00  0.00     0.000 C 
BRANCH   5   6
ATOM      6  C   UNL     1       3.663   0.934 -13.054  1.00  0.00     0.000 C 
BRANCH   6   7
ATOM      7  C   UNL     1       2.586   0.498 -14.060  1.00  0.00     0.000 C 
BRANCH   7   8
ATOM      8  C   UNL     1       1.216   1.134 -13.775  1.00  0.00     0.000 C 
BRANCH   8   9
ATOM      9  C   UNL     1       0.193   0.739 -14.845  1.00  0.00     0.000 C 
BRANCH   9  10
ATOM     10  C   UNL     1       0.888   0.134 -16.076  1.00  0.00     0.006 C 
BRANCH  10  11
ATOM     11  C   UNL     1      -0.115  -0.397 -17.107  1.00  0.00     0.053 C 
BRANCH  11  12
ATOM     12  C   UNL     1       0.182  -1.815 -17.491  1.00  0.00     0.041 C 
ATOM     13  O   UNL     1      -0.106  -2.233 -18.643  1.00  0.00    -0.550 OA
ATOM     14  O   UNL     1       0.744  -2.683 -16.564  1.00  0.00    -0.550 OA
ENDBRANCH  11  12
ENDBRANCH  10  11
ENDBRANCH   9  10
ENDBRANCH   8   9
ENDBRANCH   7   8
ENDBRANCH   6   7
ENDBRANCH   5   6
ENDBRANCH   4   5
ENDBRANCH   3   4
ENDBRANCH   2   3
ENDBRANCH   1   2
BRANCH   1  15
ATOM     15  C   UNL     1      10.769   1.046 -14.399  1.00  0.00     0.000 C 
BRANCH  15  16
ATOM     16  C   UNL     1      11.439   1.889 -15.496  1.00  0.00     0.000 C 
BRANCH  16  17
ATOM     17  C   UNL     1      12.507   1.093 -16.269  1.00  0.00     0.000 C 
BRANCH  17  18
ATOM     18  C   UNL     1      11.916  -0.108 -17.023  1.00  0.00    -0.000 C 
BRANCH  18  19
ATOM     19  C   UNL     1      12.032  -1.423 -16.229  1.00  0.00    -0.000 C 
BRANCH  19  20
ATOM     20  C   UNL     1      10.827  -2.356 -16.469  1.00  0.00    -0.000 C 
BRANCH  20  21
ATOM     21  C   UNL     1      11.191  -3.851 -16.462  1.00  0.00    -0.000 C 
BRANCH  21  22
ATOM     22  C   UNL     1      11.394  -4.424 -17.872  1.00  0.00    -0.000 C 
BRANCH  22  23
ATOM     23  C   UNL     1      12.072  -5.800 -17.814  1.00  0.00    -0.000 C 
BRANCH  23  24
ATOM     24  C   UNL     1      12.822  -6.153 -19.110  1.00  0.00    -0.000 C 
BRANCH  24  25
ATOM     25  C   UNL     1      14.352  -6.253 -18.964  1.00  0.00    -0.003 C 
ATOM     26  C   UNL     1      14.786  -7.330 -17.971  1.00  0.00     0.004 C 
ENDBRANCH  24  25
ENDBRANCH  23  24
ENDBRANCH  22  23
ENDBRANCH  21  22
ENDBRANCH  20  21
ENDBRANCH  19  20
ENDBRANCH  18  19
ENDBRANCH  17  18
ENDBRANCH  16  17
ENDBRANCH  15  16
ENDBRANCH   1  15
TORSDOF 22
ENDMDL
MODEL 2
REMARK VINA RESULT:     9.246      4.306     10.848
REMARK INTER + INTRA:          20.339
REMARK INTER:                  21.332
REMARK INTRA:                  -0.992
REMARK UNBOUND:                -0.798
REMARK SMILES CCCCCCCCCCCCCCCCCCCCCCCC(=O)[O-]
REMARK SMILES IDX 13 1 14 2 15 3 16 4 17 5 18 6 19 7 20 8 21 9 22 10 23 11
REMARK SMILES IDX 24 12 25 13 26 14 12 15 11 16 10 17 9 18 8 19 7 20 6 21 5 22
REMARK SMILES IDX 4 23 3 24 2 25 1 26
REMARK H PARENT
REMARK Flexibility Score: inf
ROOT
ATOM      1  C   UNL     1      10.546   2.003 -13.797  1.00  0.00     0.000 C 
ENDROOT
BRANCH   1   2
ATOM      2  C   UNL     1      10.689   2.103 -15.321  1.00  0.00     0.000 C 
BRANCH   2   3
ATOM      3  C   UNL     1      12.167   2.105 -15.742  1.00  0.00     0.000 C 
BRANCH   3   4
ATOM      4  C   UNL     1      12.562   0.851 -16.538  1.00  0.00     0.000 C 
BRANCH   4   5
ATOM      5  C   UNL     1      11.890  -0.426 -16.013  1.00  0.00     0.000 C 
BRANCH   5   6
ATOM      6  C   UNL     1      11.745  -1.468 -17.132  1.00  0.00     0.000 C 
BRANCH   6   7
ATOM      7  C   UNL     1      10.648  -2.505 -16.839  1.00  0.00     0.000 C 
BRANCH   7   8
ATOM      8  C   UNL     1      11.203  -3.795 -16.215  1.00  0.00     0.000 C 
BRANCH   8   9
ATOM      9  C   UNL     1      11.236  -4.932 -17.242  1.00  0.00     0.000 C 
BRANCH   9  10
ATOM     10  C   UNL     1      12.573  -4.952 -17.999  1.00  0.00     0.006 C 
BRANCH  10  11
ATOM     11  C   UNL     1      12.835  -6.300 -18.680  1.00  0.00     0.053 C 
BRANCH  11  12
ATOM     12  C   UNL     1      14.281  -6.689 -18.605  1.00  0.00     0.041 C 
ATOM     13  O   UNL     1      14.658  -7.578 -17.797  1.00  0.00    -0.550 OA
ATOM     14  O   UNL     1      15.216  -6.043 -19.404  1.00  0.00    -0.550 OA
ENDBRANCH  11  12
ENDBRANCH  10  11
ENDBRANCH   9  10
ENDBRANCH   8   9
ENDBRANCH   7   8
ENDBRANCH   6   7
ENDBRANCH   5   6
ENDBRANCH   4   5
ENDBRANCH   3   4
ENDBRANCH   2   3
ENDBRANCH   1   2
BRANCH   1  15
ATOM     15  C   UNL     1       9.606   0.853 -13.408  1.00  0.00     0.000 C 
BRANCH  15  16
ATOM     16  C   UNL     1       8.271   1.351 -12.831  1.00  0.00     0.000 C 
BRANCH  16  17
ATOM     17  C   UNL     1       7.125   1.259 -13.855  1.00  0.00     0.000 C 
BRANCH  17  18
ATOM     18  C   UNL     1       5.785   1.750 -13.287  1.00  0.00    -0.000 C 
BRANCH  18  19
ATOM     19  C   UNL     1       4.589   1.384 -14.187  1.00  0.00    -0.000 C 
BRANCH  19  20
ATOM     20  C   UNL     1       3.367   0.916 -13.369  1.00  0.00    -0.000 C 
BRANCH  20  21
ATOM     21  C   UNL     1       2.020   1.369 -13.958  1.00  0.00    -0.000 C 
BRANCH  21  22
ATOM     22  C   UNL     1       0.902   0.333 -13.761  1.00  0.00    -0.000 C 
BRANCH  22  23
ATOM     23  C   UNL     1       0.051   0.196 -15.031  1.00  0.00    -0.000 C 
BRANCH  23  24
ATOM     24  C   UNL     1       0.600  -0.859 -16.009  1.00  0.00    -0.000 C 
BRANCH  24  25
ATOM     25  C   UNL     1       0.144  -0.684 -17.469  1.00  0.00    -0.003 C 
ATOM     26  C   UNL     1       0.164  -1.991 -18.260  1.00  0.00     0.004 C 
ENDBRANCH  24  25
ENDBRANCH  23  24
ENDBRANCH  22  23
ENDBRANCH  21  22
ENDBRANCH  20  21
ENDBRANCH  19  20
ENDBRANCH  18  19
ENDBRANCH  17  18
ENDBRANCH  16  17
ENDBRANCH  15  16
ENDBRANCH   1  15
TORSDOF 22
ENDMDL
MODEL 3
REMARK VINA RESULT:    10.079      0.818      1.415
REMARK INTER + INTRA:          22.245
REMARK INTER:                  23.372
REMARK INTRA:                  -1.127
REMARK UNBOUND:                -0.798
REMARK SMILES CCCCCCCCCCCCCCCCCCCCCCCC(=O)[O-]
REMARK SMILES IDX 13 1 14 2 15 3 16 4 17 5 18 6 19 7 20 8 21 9 22 10 23 11
REMARK SMILES IDX 24 12 25 13 26 14 12 15 11 16 10 17 9 18 8 19 7 20 6 21 5 22
REMARK SMILES IDX 4 23 3 24 2 25 1 26
REMARK H PARENT
REMARK Flexibility Score: inf
ROOT
ATOM      1  C   UNL     1      10.456   1.987 -14.095  1.00  0.00     0.000 C 
ENDROOT
BRANCH   1   2
ATOM      2  C   UNL     1       9.313   1.001 -13.822  1.00  0.00     0.000 C 
BRANCH   2   3
ATOM      3  C   UNL     1       8.605   1.324 -12.497  1.00  0.00     0.000 C 
BRANCH   3   4
ATOM      4  C   UNL     1       7.220   1.959 -12.701  1.00  0.00     0.000 C 
BRANCH   4   5
ATOM      5  C   UNL     1       6.308   1.122 -13.610  1.00  0.00     0.000 C 
BRANCH   5   6
ATOM      6  C   UNL     1       4.986   1.855 -13.883  1.00  0.00     0.000 C 
BRANCH   6   7
ATOM      7  C   UNL     1       3.787   1.199 -13.179  1.00  0.00     0.000 C 
BRANCH   7   8
ATOM      8  C   UNL     1       2.787   0.577 -14.166  1.00  0.00     0.000 C 
BRANCH   8   9
ATOM      9  C   UNL     1       1.343   0.843 -13.727  1.00  0.00     0.000 C 
BRANCH   9  10
ATOM     10  C   UNL     1       0.362  -0.076 -14.472  1.00  0.00     0.006 C 
BRANCH  10  11
ATOM     11  C   UNL     1       0.115   0.385 -15.913  1.00  0.00     0.053 C 
BRANCH  11  12
ATOM     12  C   UNL     1       0.542  -0.651 -16.909  1.00  0.00     0.041 C 
ATOM     13  O   UNL     1       0.793  -1.826 -16.534  1.00  0.00    -0.550 OA
ATOM     14  O   UNL     1       0.696  -0.307 -18.246  1.00  0.00    -0.550 OA
ENDBRANCH  11  12
ENDBRANCH  10  11
ENDBRANCH   9  10
ENDBRANCH   8   9
ENDBRANCH   7   8
ENDBRANCH   6   7
ENDBRANCH   5   6
ENDBRANCH   4   5
ENDBRANCH   3   4
ENDBRANCH   2   3
ENDBRANCH   1   2
BRANCH   1  15
ATOM     15  C   UNL     1      10.776   2.055 -15.595  1.00  0.00     0.000 C 
BRANCH  15  16
ATOM     16  C   UNL     1      12.273   1.864 -15.888  1.00  0.00     0.000 C 
BRANCH  16  17
ATOM     17  C   UNL     1      12.539   0.634 -16.775  1.00  0.00     0.000 C 
BRANCH  17  18
ATOM     18  C   UNL     1      12.075  -0.677 -16.121  1.00  0.00    -0.000 C 
BRANCH  18  19
ATOM     19  C   UNL     1      11.656  -1.740 -17.154  1.00  0.00    -0.000 C 
BRANCH  19  20
ATOM     20  C   UNL     1      10.757  -2.831 -16.536  1.00  0.00    -0.000 C 
BRANCH  20  21
ATOM     21  C   UNL     1      11.397  -4.229 -16.527  1.00  0.00    -0.000 C 
BRANCH  21  22
ATOM     22  C   UNL     1      11.394  -4.898 -17.909  1.00  0.00    -0.000 C 
BRANCH  22  23
ATOM     23  C   UNL     1      12.449  -6.010 -17.984  1.00  0.00    -0.000 C 
BRANCH  23  24
ATOM     24  C   UNL     1      13.500  -5.766 -19.082  1.00  0.00    -0.000 C 
BRANCH  24  25
ATOM     25  C   UNL     1      14.843  -6.486 -18.862  1.00  0.00    -0.003 C 
ATOM     26  C   UNL     1      14.796  -7.498 -17.719  1.00  0.00     0.004 C 
ENDBRANCH  24  25
ENDBRANCH  23  24
ENDBRANCH  22  23
ENDBRANCH  21  22
ENDBRANCH  20  21
ENDBRANCH  19  20
ENDBRANCH  18  19
ENDBRANCH  17  18
ENDBRANCH  16  17
ENDBRANCH  15  16
ENDBRANCH   1  15
TORSDOF 22
ENDMDL
MODEL 4
REMARK VINA RESULT:    10.480      0.786      1.458
REMARK INTER + INTRA:          23.159
REMARK INTER:                  23.820
REMARK INTRA:                  -0.661
REMARK UNBOUND:                -0.798
REMARK SMILES CCCCCCCCCCCCCCCCCCCCCCCC(=O)[O-]
REMARK SMILES IDX 13 1 14 2 15 3 16 4 17 5 18 6 19 7 20 8 21 9 22 10 23 11
REMARK SMILES IDX 24 12 25 13 26 14 12 15 11 16 10 17 9 18 8 19 7 20 6 21 5 22
REMARK SMILES IDX 4 23 3 24 2 25 1 26
REMARK H PARENT
REMARK Flexibility Score: inf
ROOT
ATOM      1  C   UNL     1       9.436   1.167 -12.756  1.00  0.00     0.000 C 
ENDROOT
BRANCH   1   2
ATOM      2  C   UNL     1       8.267   1.043 -13.741  1.00  0.00     0.000 C 
BRANCH   2   3
ATOM      3  C   UNL     1       6.979   1.641 -13.153  1.00  0.00     0.000 C 
BRANCH   3   4
ATOM      4  C   UNL     1       5.785   1.547 -14.116  1.00  0.00     0.000 C 
BRANCH   4   5
ATOM      5  C   UNL     1       4.435   1.763 -13.416  1.00  0.00     0.000 C 
BRANCH   5   6
ATOM      6  C   UNL     1       3.546   0.517 -13.544  1.00  0.00     0.000 C 
BRANCH   6   7
ATOM      7  C   UNL     1       2.109   0.761 -13.057  1.00  0.00     0.000 C 
BRANCH   7   8
ATOM      8  C   UNL     1       1.278   1.586 -14.052  1.00  0.00     0.000 C 
BRANCH   8   9
ATOM      9  C   UNL     1      -0.056   0.897 -14.359  1.00  0.00     0.000 C 
BRANCH   9  10
ATOM     10  C   UNL     1      -0.125   0.461 -15.832  1.00  0.00     0.006 C 
BRANCH  10  11
ATOM     11  C   UNL     1       0.398  -0.965 -16.042  1.00  0.00     0.053 C 
BRANCH  11  12
ATOM     12  C   UNL     1       0.233  -1.414 -17.461  1.00  0.00     0.041 C 
ATOM     13  O   UNL     1       0.181  -2.641 -17.737  1.00  0.00    -0.550 OA
ATOM     14  O   UNL     1       0.170  -0.476 -18.484  1.00  0.00    -0.550 OA
ENDBRANCH  11  12
ENDBRANCH  10  11
ENDBRANCH   9  10
ENDBRANCH   8   9
ENDBRANCH   7   8
ENDBRANCH   6   7
ENDBRANCH   5   6
ENDBRANCH   4   5
ENDBRANCH   3   4
ENDBRANCH   2   3
ENDBRANCH   1   2
BRANCH   1  15
ATOM     15  C   UNL     1      10.749   1.461 -13.496  1.00  0.00     0.000 C 
BRANCH  15  16
ATOM     16  C   UNL     1      10.699   1.042 -14.974  1.00  0.00     0.000 C 
BRANCH  16  17
ATOM     17  C   UNL     1      11.475   2.016 -15.880  1.00  0.00     0.000 C 
BRANCH  17  18
ATOM     18  C   UNL     1      12.799   1.423 -16.387  1.00  0.00    -0.000 C 
BRANCH  18  19
ATOM     19  C   UNL     1      12.589   0.234 -17.344  1.00  0.00    -0.000 C 
BRANCH  19  20
ATOM     20  C   UNL     1      12.445  -1.104 -16.589  1.00  0.00    -0.000 C 
BRANCH  20  21
ATOM     21  C   UNL     1      11.034  -1.710 -16.668  1.00  0.00    -0.000 C 
BRANCH  21  22
ATOM     22  C   UNL     1      11.013  -3.217 -16.376  1.00  0.00    -0.000 C 
BRANCH  22  23
ATOM     23  C   UNL     1      11.194  -4.030 -17.665  1.00  0.00    -0.000 C 
BRANCH  23  24
ATOM     24  C   UNL     1      11.926  -5.364 -17.435  1.00  0.00    -0.000 C 
BRANCH  24  25
ATOM     25  C   UNL     1      12.558  -5.981 -18.697  1.00  0.00    -0.003 C 
ATOM     26  C   UNL     1      13.984  -6.477 -18.467  1.00  0.00     0.004 C 
ENDBRANCH  24  25
ENDBRANCH  23  24
ENDBRANCH  22  23
ENDBRANCH  21  22
ENDBRANCH  20  21
ENDBRANCH  19  20
ENDBRANCH  18  19
ENDBRANCH  17  18
ENDBRANCH  16  17
ENDBRANCH  15  16
ENDBRANCH   1  15
TORSDOF 22
ENDMDL
MODEL 5
REMARK VINA RESULT:    10.742      3.731     10.422
REMARK INTER + INTRA:          23.760
REMARK INTER:                  25.018
REMARK INTRA:                  -1.258
REMARK UNBOUND:                -0.798
REMARK SMILES CCCCCCCCCCCCCCCCCCCCCCCC(=O)[O-]
REMARK SMILES IDX 13 1 14 2 15 3 16 4 17 5 18 6 19 7 20 8 21 9 22 10 23 11
REMARK SMILES IDX 24 12 25 13 26 14 12 15 11 16 10 17 9 18 8 19 7 20 6 21 5 22
REMARK SMILES IDX 4 23 3 24 2 25 1 26
REMARK H PARENT
REMARK Flexibility Score: inf
ROOT
ATOM      1  C   UNL     1       9.750   0.687 -13.968  1.00  0.00     0.000 C 
ENDROOT
BRANCH   1   2
ATOM      2  C   UNL     1      10.811   1.741 -13.625  1.00  0.00     0.000 C 
BRANCH   2   3
ATOM      3  C   UNL     1      10.941   2.784 -14.747  1.00  0.00     0.000 C 
BRANCH   3   4
ATOM      4  C   UNL     1      11.290   2.156 -16.106  1.00  0.00     0.000 C 
BRANCH   4   5
ATOM      5  C   UNL     1      12.367   1.066 -16.001  1.00  0.00     0.000 C 
BRANCH   5   6
ATOM      6  C   UNL     1      12.111  -0.055 -17.020  1.00  0.00     0.000 C 
BRANCH   6   7
ATOM      7  C   UNL     1      12.123  -1.453 -16.380  1.00  0.00     0.000 C 
BRANCH   7   8
ATOM      8  C   UNL     1      10.753  -2.144 -16.441  1.00  0.00     0.000 C 
BRANCH   8   9
ATOM      9  C   UNL     1      10.901  -3.667 -16.359  1.00  0.00     0.000 C 
BRANCH   9  10
ATOM     10  C   UNL     1      11.526  -4.230 -17.646  1.00  0.00     0.006 C 
BRANCH  10  11
ATOM     11  C   UNL     1      12.002  -5.678 -17.476  1.00  0.00     0.053 C 
BRANCH  11  12
ATOM     12  C   UNL     1      12.800  -6.143 -18.656  1.00  0.00     0.041 C 
ATOM     13  O   UNL     1      13.955  -6.618 -18.494  1.00  0.00    -0.550 OA
ATOM     14  O   UNL     1      12.280  -6.019 -19.938  1.00  0.00    -0.550 OA
ENDBRANCH  11  12
ENDBRANCH  10  11
ENDBRANCH   9  10
ENDBRANCH   8   9
ENDBRANCH   7   8
ENDBRANCH   6   7
ENDBRANCH   5   6
ENDBRANCH   4   5
ENDBRANCH   3   4
ENDBRANCH   2   3
ENDBRANCH   1   2
BRANCH   1  15
ATOM     15  C   UNL     1       8.697   0.586 -12.856  1.00  0.00     0.000 C 
BRANCH  15  16
ATOM     16  C   UNL     1       7.676   1.735 -12.903  1.00  0.00     0.000 C 
BRANCH  16  17
ATOM     17  C   UNL     1       6.567   1.482 -13.941  1.00  0.00     0.000 C 
BRANCH  17  18
ATOM     18  C   UNL     1       5.193   1.986 -13.471  1.00  0.00    -0.000 C 
BRANCH  18  19
ATOM     19  C   UNL     1       4.035   1.102 -13.970  1.00  0.00    -0.000 C 
BRANCH  19  20
ATOM     20  C   UNL     1       3.150   0.592 -12.813  1.00  0.00    -0.000 C 
BRANCH  20  21
ATOM     21  C   UNL     1       1.645   0.808 -13.043  1.00  0.00    -0.000 C 
BRANCH  21  22
ATOM     22  C   UNL     1       1.299   1.096 -14.511  1.00  0.00    -0.000 C 
BRANCH  22  23
ATOM     23  C   UNL     1       0.426  -0.020 -15.099  1.00  0.00    -0.000 C 
BRANCH  23  24
ATOM     24  C   UNL     1      -0.020   0.266 -16.544  1.00  0.00    -0.000 C 
BRANCH  24  25
ATOM     25  C   UNL     1       0.045  -0.946 -17.492  1.00  0.00    -0.003 C 
ATOM     26  C   UNL     1       0.758  -2.147 -16.874  1.00  0.00     0.004 C 
ENDBRANCH  24  25
ENDBRANCH  23  24
ENDBRANCH  22  23
ENDBRANCH  21  22
ENDBRANCH  20  21
ENDBRANCH  19  20
ENDBRANCH  18  19
ENDBRANCH  17  18
ENDBRANCH  16  17
ENDBRANCH  15  16
ENDBRANCH   1  15
TORSDOF 22
ENDMDL
MODEL 6
REMARK VINA RESULT:    10.944      1.176      2.323
REMARK INTER + INTRA:          24.220
REMARK INTER:                  25.565
REMARK INTRA:                  -1.345
REMARK UNBOUND:                -0.798
REMARK SMILES CCCCCCCCCCCCCCCCCCCCCCCC(=O)[O-]
REMARK SMILES IDX 13 1 14 2 15 3 16 4 17 5 18 6 19 7 20 8 21 9 22 10 23 11
REMARK SMILES IDX 24 12 25 13 26 14 12 15 11 16 10 17 9 18 8 19 7 20 6 21 5 22
REMARK SMILES IDX 4 23 3 24 2 25 1 26
REMARK H PARENT
REMARK Flexibility Score: inf
ROOT
ATOM      1  C   UNL     1       9.627   0.570 -13.412  1.00  0.00     0.000 C 
ENDROOT
BRANCH   1   2
ATOM      2  C   UNL     1       8.433   1.293 -12.777  1.00  0.00     0.000 C 
BRANCH   2   3
ATOM      3  C   UNL     1       7.267   1.421 -13.772  1.00  0.00     0.000 C 
BRANCH   3   4
ATOM      4  C   UNL     1       5.908   1.072 -13.145  1.00  0.00     0.000 C 
BRANCH   4   5
ATOM      5  C   UNL     1       4.722   1.428 -14.054  1.00  0.00     0.000 C 
BRANCH   5   6
ATOM      6  C   UNL     1       3.390   1.249 -13.310  1.00  0.00     0.000 C 
BRANCH   6   7
ATOM      7  C   UNL     1       2.394   0.369 -14.083  1.00  0.00     0.000 C 
BRANCH   7   8
ATOM      8  C   UNL     1       0.931   0.693 -13.744  1.00  0.00     0.000 C 
BRANCH   8   9
ATOM      9  C   UNL     1       0.001   0.313 -14.901  1.00  0.00     0.000 C 
BRANCH   9  10
ATOM     10  C   UNL     1       0.746   0.358 -16.245  1.00  0.00     0.006 C 
BRANCH  10  11
ATOM     11  C   UNL     1      -0.077  -0.249 -17.386  1.00  0.00     0.053 C 
BRANCH  11  12
ATOM     12  C   UNL     1       0.278  -1.686 -17.624  1.00  0.00     0.041 C 
ATOM     13  O   UNL     1      -0.125  -2.276 -18.660  1.00  0.00    -0.550 OA
ATOM     14  O   UNL     1       1.026  -2.381 -16.682  1.00  0.00    -0.550 OA
ENDBRANCH  11  12
ENDBRANCH  10  11
ENDBRANCH   9  10
ENDBRANCH   8   9
ENDBRANCH   7   8
ENDBRANCH   6   7
ENDBRANCH   5   6
ENDBRANCH   4   5
ENDBRANCH   3   4
ENDBRANCH   2   3
ENDBRANCH   1   2
BRANCH   1  15
ATOM     15  C   UNL     1      10.649   1.576 -13.962  1.00  0.00     0.000 C 
BRANCH  15  16
ATOM     16  C   UNL     1      10.525   1.772 -15.481  1.00  0.00     0.000 C 
BRANCH  16  17
ATOM     17  C   UNL     1      11.619   2.702 -16.037  1.00  0.00     0.000 C 
BRANCH  17  18
ATOM     18  C   UNL     1      13.024   2.087 -15.935  1.00  0.00    -0.000 C 
BRANCH  18  19
ATOM     19  C   UNL     1      13.720   1.966 -17.304  1.00  0.00    -0.000 C 
BRANCH  19  20
ATOM     20  C   UNL     1      13.813   0.503 -17.784  1.00  0.00    -0.000 C 
BRANCH  20  21
ATOM     21  C   UNL     1      12.463  -0.235 -17.784  1.00  0.00    -0.000 C 
BRANCH  21  22
ATOM     22  C   UNL     1      12.320  -1.221 -16.616  1.00  0.00    -0.000 C 
BRANCH  22  23
ATOM     23  C   UNL     1      10.972  -1.954 -16.678  1.00  0.00    -0.000 C 
BRANCH  23  24
ATOM     24  C   UNL     1      11.110  -3.477 -16.507  1.00  0.00    -0.000 C 
BRANCH  24  25
ATOM     25  C   UNL     1      11.751  -4.205 -17.702  1.00  0.00    -0.003 C 
ATOM     26  C   UNL     1      11.595  -5.723 -17.629  1.00  0.00     0.004 C 
ENDBRANCH  24  25
ENDBRANCH  23  24
ENDBRANCH  22  23
ENDBRANCH  21  22
ENDBRANCH  20  21
ENDBRANCH  19  20
ENDBRANCH  18  19
ENDBRANCH  17  18
ENDBRANCH  16  17
ENDBRANCH  15  16
ENDBRANCH   1  15
TORSDOF 22
ENDMDL
MODEL 7
REMARK VINA RESULT:    10.952      4.256     10.746
REMARK INTER + INTRA:          24.238
REMARK INTER:                  24.842
REMARK INTRA:                  -0.603
REMARK UNBOUND:                -0.798
REMARK SMILES CCCCCCCCCCCCCCCCCCCCCCCC(=O)[O-]
REMARK SMILES IDX 13 1 14 2 15 3 16 4 17 5 18 6 19 7 20 8 21 9 22 10 23 11
REMARK SMILES IDX 24 12 25 13 26 14 12 15 11 16 10 17 9 18 8 19 7 20 6 21 5 22
REMARK SMILES IDX 4 23 3 24 2 25 1 26
REMARK H PARENT
REMARK Flexibility Score: inf
ROOT
ATOM      1  C   UNL     1      11.516   2.699 -15.866  1.00  0.00     0.000 C 
ENDROOT
BRANCH   1   2
ATOM      2  C   UNL     1      12.615   2.265 -16.845  1.00  0.00     0.000 C 
BRANCH   2   3
ATOM      3  C   UNL     1      13.100   0.838 -16.540  1.00  0.00     0.000 C 
BRANCH   3   4
ATOM      4  C   UNL     1      12.194  -0.241 -17.153  1.00  0.00     0.000 C 
BRANCH   4   5
ATOM      5  C   UNL     1      11.962  -1.432 -16.211  1.00  0.00     0.000 C 
BRANCH   5   6
ATOM      6  C   UNL     1      10.999  -2.449 -16.842  1.00  0.00     0.000 C 
BRANCH   6   7
ATOM      7  C   UNL     1      10.728  -3.655 -15.928  1.00  0.00     0.000 C 
BRANCH   7   8
ATOM      8  C   UNL     1      10.988  -4.999 -16.626  1.00  0.00     0.000 C 
BRANCH   8   9
ATOM      9  C   UNL     1      11.975  -4.833 -17.786  1.00  0.00     0.000 C 
BRANCH   9  10
ATOM     10  C   UNL     1      12.155  -6.154 -18.550  1.00  0.00     0.006 C 
BRANCH  10  11
ATOM     11  C   UNL     1      13.426  -6.161 -19.408  1.00  0.00     0.053 C 
BRANCH  11  12
ATOM     12  C   UNL     1      14.610  -6.669 -18.642  1.00  0.00     0.041 C 
ATOM     13  O   UNL     1      15.771  -6.548 -19.114  1.00  0.00    -0.550 OA
ATOM     14  O   UNL     1      14.426  -7.308 -17.422  1.00  0.00    -0.550 OA
ENDBRANCH  11  12
ENDBRANCH  10  11
ENDBRANCH   9  10
ENDBRANCH   8   9
ENDBRANCH   7   8
ENDBRANCH   6   7
ENDBRANCH   5   6
ENDBRANCH   4   5
ENDBRANCH   3   4
ENDBRANCH   2   3
ENDBRANCH   1   2
BRANCH   1  15
ATOM     15  C   UNL     1      11.162   1.559 -14.900  1.00  0.00     0.000 C 
BRANCH  15  16
ATOM     16  C   UNL     1      10.106   1.973 -13.862  1.00  0.00     0.000 C 
BRANCH  16  17
ATOM     17  C   UNL     1       9.326   0.764 -13.315  1.00  0.00     0.000 C 
BRANCH  17  18
ATOM     18  C   UNL     1       7.992   1.166 -12.666  1.00  0.00    -0.000 C 
BRANCH  18  19
ATOM     19  C   UNL     1       6.885   1.436 -13.704  1.00  0.00    -0.000 C 
BRANCH  19  20
ATOM     20  C   UNL     1       5.669   2.156 -13.085  1.00  0.00    -0.000 C 
BRANCH  20  21
ATOM     21  C   UNL     1       4.364   1.956 -13.874  1.00  0.00    -0.000 C 
BRANCH  21  22
ATOM     22  C   UNL     1       3.567   0.728 -13.410  1.00  0.00    -0.000 C 
BRANCH  22  23
ATOM     23  C   UNL     1       2.622   0.236 -14.515  1.00  0.00    -0.000 C 
BRANCH  23  24
ATOM     24  C   UNL     1       1.158   0.647 -14.279  1.00  0.00    -0.000 C 
BRANCH  24  25
ATOM     25  C   UNL     1       0.216   0.392 -15.470  1.00  0.00    -0.003 C 
ATOM     26  C   UNL     1       0.613  -0.834 -16.292  1.00  0.00     0.004 C 
ENDBRANCH  24  25
ENDBRANCH  23  24
ENDBRANCH  22  23
ENDBRANCH  21  22
ENDBRANCH  20  21
ENDBRANCH  19  20
ENDBRANCH  18  19
ENDBRANCH  17  18
ENDBRANCH  16  17
ENDBRANCH  15  16
ENDBRANCH   1  15
TORSDOF 22
ENDMDL
