MODEL 1
REMARK VINA RESULT:    -4.926      0.000      0.000
REMARK INTER + INTRA:         -14.453
REMARK INTER:                 -12.990
REMARK INTRA:                  -1.463
REMARK UNBOUND:                -1.463
REMARK SMILES CCCCCCCCCCCCCCCCCCCCCCCCCCCCCC(=O)[O-]
REMARK SMILES IDX 16 1 17 2 18 3 19 4 20 5 21 6 22 7 23 8 24 9 25 10 26 11
REMARK SMILES IDX 27 12 28 13 29 14 30 15 31 16 32 17 15 18 14 19 13 20 12 21
REMARK SMILES IDX 11 22 10 23 9 24 8 25 7 26 6 27 5 28 4 29 3 30 2 31 1 32
REMARK H PARENT
REMARK Flexibility Score: inf
ROOT
ATOM      1  C   UNL     1      38.396  62.795  56.159  1.00  0.00     0.000 C 
ENDROOT
BRANCH   1   2
ATOM      2  C   UNL     1      38.387  64.278  55.756  1.00  0.00     0.000 C 
BRANCH   2   3
ATOM      3  C   UNL     1      39.741  64.708  55.173  1.00  0.00     0.000 C 
BRANCH   3   4
ATOM      4  C   UNL     1      40.833  64.852  56.251  1.00  0.00     0.000 C 
BRANCH   4   5
ATOM      5  C   UNL     1      42.268  65.069  55.713  1.00  0.00     0.000 C 
BRANCH   5   6
ATOM      6  C   UNL     1      42.369  65.332  54.199  1.00  0.00     0.000 C 
BRANCH   6   7
ATOM      7  C   UNL     1      43.684  64.826  53.597  1.00  0.00     0.000 C 
BRANCH   7   8
ATOM      8  C   UNL     1      44.205  65.797  52.528  1.00  0.00     0.000 C 
BRANCH   8   9
ATOM      9  C   UNL     1      45.190  65.125  51.552  1.00  0.00     0.000 C 
BRANCH   9  10
ATOM     10  C   UNL     1      45.270  65.815  50.175  1.00  0.00     0.000 C 
BRANCH  10  11
ATOM     11  C   UNL     1      44.622  67.214  50.099  1.00  0.00     0.000 C 
BRANCH  11  12
ATOM     12  C   UNL     1      43.333  67.265  49.256  1.00  0.00     0.000 C 
BRANCH  12  13
ATOM     13  C   UNL     1      43.482  66.547  47.900  1.00  0.00     0.006 C 
BRANCH  13  14
ATOM     14  C   UNL     1      42.125  66.199  47.271  1.00  0.00     0.053 C 
BRANCH  14  15
ATOM     15  C   UNL     1      42.205  64.942  46.455  1.00  0.00     0.041 C 
ATOM     16  O   UNL     1      43.303  64.585  45.944  1.00  0.00    -0.550 OA
ATOM     17  O   UNL     1      41.076  64.152  46.275  1.00  0.00    -0.550 OA
ENDBRANCH  14  15
ENDBRANCH  13  14
ENDBRANCH  12  13
ENDBRANCH  11  12
ENDBRANCH  10  11
ENDBRANCH   9  10
ENDBRANCH   8   9
ENDBRANCH   7   8
ENDBRANCH   6   7
ENDBRANCH   5   6
ENDBRANCH   4   5
ENDBRANCH   3   4
ENDBRANCH   2   3
ENDBRANCH   1   2
BRANCH   1  18
ATOM     18  C   UNL     1      37.038  62.115  55.906  1.00  0.00     0.000 C 
BRANCH  18  19
ATOM     19  C   UNL     1      36.534  61.340  57.132  1.00  0.00     0.000 C 
BRANCH  19  20
ATOM     20  C   UNL     1      36.139  59.905  56.760  1.00  0.00     0.000 C 
BRANCH  20  21
ATOM     21  C   UNL     1      36.880  59.444  55.493  1.00  0.00     0.000 C 
BRANCH  21  22
ATOM     22  C   UNL     1      37.254  57.951  55.526  1.00  0.00     0.000 C 
BRANCH  22  23
ATOM     23  C   UNL     1      37.971  57.489  56.804  1.00  0.00     0.000 C 
BRANCH  23  24
ATOM     24  C   UNL     1      37.259  56.315  57.502  1.00  0.00    -0.000 C 
BRANCH  24  25
ATOM     25  C   UNL     1      36.663  55.315  56.485  1.00  0.00    -0.000 C 
BRANCH  25  26
ATOM     26  C   UNL     1      35.513  54.466  57.049  1.00  0.00    -0.000 C 
BRANCH  26  27
ATOM     27  C   UNL     1      34.620  53.868  55.953  1.00  0.00    -0.000 C 
BRANCH  27  28
ATOM     28  C   UNL     1      33.307  53.271  56.504  1.00  0.00    -0.000 C 
BRANCH  28  29
ATOM     29  C   UNL     1      32.290  54.294  57.042  1.00  0.00    -0.000 C 
BRANCH  29  30
ATOM     30  C   UNL     1      31.036  54.429  56.157  1.00  0.00    -0.000 C 
BRANCH  30  31
ATOM     31  C   UNL     1      29.737  54.446  56.978  1.00  0.00    -0.003 C 
ATOM     32  C   UNL     1      29.459  55.800  57.630  1.00  0.00     0.004 C 
ENDBRANCH  30  31
ENDBRANCH  29  30
ENDBRANCH  28  29
ENDBRANCH  27  28
ENDBRANCH  26  27
ENDBRANCH  25  26
ENDBRANCH  24  25
ENDBRANCH  23  24
ENDBRANCH  22  23
ENDBRANCH  21  22
ENDBRANCH  20  21
ENDBRANCH  19  20
ENDBRANCH  18  19
ENDBRANCH   1  18
TORSDOF 28
ENDMDL
MODEL 2
REMARK VINA RESULT:    -4.925      6.263     13.728
REMARK INTER + INTRA:         -14.449
REMARK INTER:                 -11.334
REMARK INTRA:                  -3.115
REMARK UNBOUND:                -1.463
REMARK SMILES CCCCCCCCCCCCCCCCCCCCCCCCCCCCCC(=O)[O-]
REMARK SMILES IDX 16 1 17 2 18 3 19 4 20 5 21 6 22 7 23 8 24 9 25 10 26 11
REMARK SMILES IDX 27 12 28 13 29 14 30 15 31 16 32 17 15 18 14 19 13 20 12 21
REMARK SMILES IDX 11 22 10 23 9 24 8 25 7 26 6 27 5 28 4 29 3 30 2 31 1 32
REMARK H PARENT
REMARK Flexibility Score: inf
ROOT
ATOM      1  C   UNL     1      44.689  65.539  52.073  1.00  0.00     0.000 C 
ENDROOT
BRANCH   1   2
ATOM      2  C   UNL     1      43.628  66.406  52.769  1.00  0.00     0.000 C 
BRANCH   2   3
ATOM      3  C   UNL     1      42.924  65.634  53.895  1.00  0.00     0.000 C 
BRANCH   3   4
ATOM      4  C   UNL     1      43.655  64.328  54.267  1.00  0.00     0.000 C 
BRANCH   4   5
ATOM      5  C   UNL     1      43.623  63.959  55.769  1.00  0.00     0.000 C 
BRANCH   5   6
ATOM      6  C   UNL     1      42.816  64.918  56.664  1.00  0.00     0.000 C 
BRANCH   6   7
ATOM      7  C   UNL     1      41.710  64.204  57.450  1.00  0.00     0.000 C 
BRANCH   7   8
ATOM      8  C   UNL     1      40.402  65.007  57.402  1.00  0.00     0.000 C 
BRANCH   8   9
ATOM      9  C   UNL     1      40.012  65.409  55.967  1.00  0.00     0.000 C 
BRANCH   9  10
ATOM     10  C   UNL     1      38.950  64.489  55.329  1.00  0.00     0.000 C 
BRANCH  10  11
ATOM     11  C   UNL     1      37.983  63.812  56.323  1.00  0.00     0.000 C 
BRANCH  11  12
ATOM     12  C   UNL     1      36.617  63.436  55.714  1.00  0.00     0.000 C 
BRANCH  12  13
ATOM     13  C   UNL     1      36.022  64.565  54.851  1.00  0.00     0.006 C 
BRANCH  13  14
ATOM     14  C   UNL     1      35.278  65.613  55.691  1.00  0.00     0.053 C 
BRANCH  14  15
ATOM     15  C   UNL     1      34.120  66.200  54.938  1.00  0.00     0.041 C 
ATOM     16  O   UNL     1      32.938  65.861  55.224  1.00  0.00    -0.550 OA
ATOM     17  O   UNL     1      34.342  67.138  53.936  1.00  0.00    -0.550 OA
ENDBRANCH  14  15
ENDBRANCH  13  14
ENDBRANCH  12  13
ENDBRANCH  11  12
ENDBRANCH  10  11
ENDBRANCH   9  10
ENDBRANCH   8   9
ENDBRANCH   7   8
ENDBRANCH   6   7
ENDBRANCH   5   6
ENDBRANCH   4   5
ENDBRANCH   3   4
ENDBRANCH   2   3
ENDBRANCH   1   2
BRANCH   1  18
ATOM     18  C   UNL     1      45.089  66.101  50.697  1.00  0.00     0.000 C 
BRANCH  18  19
ATOM     19  C   UNL     1      44.361  67.412  50.368  1.00  0.00     0.000 C 
BRANCH  19  20
ATOM     20  C   UNL     1      43.664  67.335  49.003  1.00  0.00     0.000 C 
BRANCH  20  21
ATOM     21  C   UNL     1      44.412  66.380  48.059  1.00  0.00     0.000 C 
BRANCH  21  22
ATOM     22  C   UNL     1      43.554  65.918  46.868  1.00  0.00     0.000 C 
BRANCH  22  23
ATOM     23  C   UNL     1      42.048  65.810  47.156  1.00  0.00     0.000 C 
BRANCH  23  24
ATOM     24  C   UNL     1      41.180  66.476  46.071  1.00  0.00    -0.000 C 
BRANCH  24  25
ATOM     25  C   UNL     1      41.875  67.710  45.453  1.00  0.00    -0.000 C 
BRANCH  25  26
ATOM     26  C   UNL     1      41.949  67.678  43.918  1.00  0.00    -0.000 C 
BRANCH  26  27
ATOM     27  C   UNL     1      41.601  66.301  43.333  1.00  0.00    -0.000 C 
BRANCH  27  28
ATOM     28  C   UNL     1      42.848  65.490  42.919  1.00  0.00    -0.000 C 
BRANCH  28  29
ATOM     29  C   UNL     1      43.685  66.101  41.780  1.00  0.00    -0.000 C 
BRANCH  29  30
ATOM     30  C   UNL     1      45.193  66.150  42.091  1.00  0.00    -0.000 C 
BRANCH  30  31
ATOM     31  C   UNL     1      45.483  66.116  43.600  1.00  0.00    -0.003 C 
ATOM     32  C   UNL     1      45.684  67.507  44.201  1.00  0.00     0.004 C 
ENDBRANCH  30  31
ENDBRANCH  29  30
ENDBRANCH  28  29
ENDBRANCH  27  28
ENDBRANCH  26  27
ENDBRANCH  25  26
ENDBRANCH  24  25
ENDBRANCH  23  24
ENDBRANCH  22  23
ENDBRANCH  21  22
ENDBRANCH  20  21
ENDBRANCH  19  20
ENDBRANCH  18  19
ENDBRANCH   1  18
TORSDOF 28
ENDMDL
MODEL 3
REMARK VINA RESULT:    -4.890      6.716     14.073
REMARK INTER + INTRA:         -14.356
REMARK INTER:                 -11.103
REMARK INTRA:                  -3.253
REMARK UNBOUND:                -1.463
REMARK SMILES CCCCCCCCCCCCCCCCCCCCCCCCCCCCCC(=O)[O-]
REMARK SMILES IDX 16 1 17 2 18 3 19 4 20 5 21 6 22 7 23 8 24 9 25 10 26 11
REMARK SMILES IDX 27 12 28 13 29 14 30 15 31 16 32 17 15 18 14 19 13 20 12 21
REMARK SMILES IDX 11 22 10 23 9 24 8 25 7 26 6 27 5 28 4 29 3 30 2 31 1 32
REMARK H PARENT
REMARK Flexibility Score: inf
ROOT
ATOM      1  C   UNL     1      35.439  54.140  56.483  1.00  0.00     0.000 C 
ENDROOT
BRANCH   1   2
ATOM      2  C   UNL     1      34.749  53.983  57.847  1.00  0.00     0.000 C 
BRANCH   2   3
ATOM      3  C   UNL     1      33.228  54.168  57.730  1.00  0.00     0.000 C 
BRANCH   3   4
ATOM      4  C   UNL     1      32.749  54.237  56.267  1.00  0.00     0.000 C 
BRANCH   4   5
ATOM      5  C   UNL     1      31.216  54.332  56.077  1.00  0.00     0.000 C 
BRANCH   5   6
ATOM      6  C   UNL     1      30.525  53.024  55.649  1.00  0.00     0.000 C 
BRANCH   6   7
ATOM      7  C   UNL     1      30.271  52.076  56.826  1.00  0.00     0.000 C 
BRANCH   7   8
ATOM      8  C   UNL     1      30.910  50.703  56.569  1.00  0.00     0.000 C 
BRANCH   8   9
ATOM      9  C   UNL     1      32.317  50.585  57.186  1.00  0.00     0.000 C 
BRANCH   9  10
ATOM     10  C   UNL     1      33.247  49.611  56.434  1.00  0.00     0.000 C 
BRANCH  10  11
ATOM     11  C   UNL     1      33.443  49.914  54.933  1.00  0.00     0.000 C 
BRANCH  11  12
ATOM     12  C   UNL     1      34.014  51.316  54.643  1.00  0.00     0.000 C 
BRANCH  12  13
ATOM     13  C   UNL     1      33.615  51.843  53.251  1.00  0.00     0.006 C 
BRANCH  13  14
ATOM     14  C   UNL     1      32.179  51.453  52.868  1.00  0.00     0.053 C 
BRANCH  14  15
ATOM     15  C   UNL     1      32.146  50.667  51.590  1.00  0.00     0.041 C 
ATOM     16  O   UNL     1      31.984  51.257  50.485  1.00  0.00    -0.550 OA
ATOM     17  O   UNL     1      32.317  49.288  51.613  1.00  0.00    -0.550 OA
ENDBRANCH  14  15
ENDBRANCH  13  14
ENDBRANCH  12  13
ENDBRANCH  11  12
ENDBRANCH  10  11
ENDBRANCH   9  10
ENDBRANCH   8   9
ENDBRANCH   7   8
ENDBRANCH   6   7
ENDBRANCH   5   6
ENDBRANCH   4   5
ENDBRANCH   3   4
ENDBRANCH   2   3
ENDBRANCH   1   2
BRANCH   1  18
ATOM     18  C   UNL     1      36.559  55.195  56.516  1.00  0.00     0.000 C 
BRANCH  18  19
ATOM     19  C   UNL     1      36.407  56.173  57.690  1.00  0.00     0.000 C 
BRANCH  19  20
ATOM     20  C   UNL     1      37.068  57.522  57.382  1.00  0.00     0.000 C 
BRANCH  20  21
ATOM     21  C   UNL     1      37.400  57.640  55.884  1.00  0.00     0.000 C 
BRANCH  21  22
ATOM     22  C   UNL     1      37.217  59.067  55.338  1.00  0.00     0.000 C 
BRANCH  22  23
ATOM     23  C   UNL     1      36.692  60.090  56.358  1.00  0.00     0.000 C 
BRANCH  23  24
ATOM     24  C   UNL     1      36.085  61.341  55.696  1.00  0.00    -0.000 C 
BRANCH  24  25
ATOM     25  C   UNL     1      36.360  62.621  56.519  1.00  0.00    -0.000 C 
BRANCH  25  26
ATOM     26  C   UNL     1      37.568  63.430  56.025  1.00  0.00    -0.000 C 
BRANCH  26  27
ATOM     27  C   UNL     1      37.182  64.824  55.509  1.00  0.00    -0.000 C 
BRANCH  27  28
ATOM     28  C   UNL     1      35.900  64.814  54.648  1.00  0.00    -0.000 C 
BRANCH  28  29
ATOM     29  C   UNL     1      35.184  66.171  54.512  1.00  0.00    -0.000 C 
BRANCH  29  30
ATOM     30  C   UNL     1      34.194  66.455  55.657  1.00  0.00    -0.000 C 
BRANCH  30  31
ATOM     31  C   UNL     1      32.740  66.143  55.267  1.00  0.00    -0.003 C 
ATOM     32  C   UNL     1      32.240  66.992  54.098  1.00  0.00     0.004 C 
ENDBRANCH  30  31
ENDBRANCH  29  30
ENDBRANCH  28  29
ENDBRANCH  27  28
ENDBRANCH  26  27
ENDBRANCH  25  26
ENDBRANCH  24  25
ENDBRANCH  23  24
ENDBRANCH  22  23
ENDBRANCH  21  22
ENDBRANCH  20  21
ENDBRANCH  19  20
ENDBRANCH  18  19
ENDBRANCH   1  18
TORSDOF 28
ENDMDL
MODEL 4
REMARK VINA RESULT:    -4.872      4.731     13.809
REMARK INTER + INTRA:         -14.309
REMARK INTER:                 -12.375
REMARK INTRA:                  -1.934
REMARK UNBOUND:                -1.463
REMARK SMILES CCCCCCCCCCCCCCCCCCCCCCCCCCCCCC(=O)[O-]
REMARK SMILES IDX 16 1 17 2 18 3 19 4 20 5 21 6 22 7 23 8 24 9 25 10 26 11
REMARK SMILES IDX 27 12 28 13 29 14 30 15 31 16 32 17 15 18 14 19 13 20 12 21
REMARK SMILES IDX 11 22 10 23 9 24 8 25 7 26 6 27 5 28 4 29 3 30 2 31 1 32
REMARK H PARENT
REMARK Flexibility Score: inf
ROOT
ATOM      1  C   UNL     1      39.132  63.997  55.590  1.00  0.00     0.000 C 
ENDROOT
BRANCH   1   2
ATOM      2  C   UNL     1      38.659  63.014  56.672  1.00  0.00     0.000 C 
BRANCH   2   3
ATOM      3  C   UNL     1      37.145  63.125  56.907  1.00  0.00     0.000 C 
BRANCH   3   4
ATOM      4  C   UNL     1      36.444  61.753  56.921  1.00  0.00     0.000 C 
BRANCH   4   5
ATOM      5  C   UNL     1      36.405  61.017  55.560  1.00  0.00     0.000 C 
BRANCH   5   6
ATOM      6  C   UNL     1      37.256  59.737  55.481  1.00  0.00     0.000 C 
BRANCH   6   7
ATOM      7  C   UNL     1      37.270  58.953  56.798  1.00  0.00     0.000 C 
BRANCH   7   8
ATOM      8  C   UNL     1      37.682  57.493  56.560  1.00  0.00     0.000 C 
BRANCH   8   9
ATOM      9  C   UNL     1      37.383  56.592  57.775  1.00  0.00     0.000 C 
BRANCH   9  10
ATOM     10  C   UNL     1      36.164  55.669  57.580  1.00  0.00     0.000 C 
BRANCH  10  11
ATOM     11  C   UNL     1      36.260  54.692  56.388  1.00  0.00     0.000 C 
BRANCH  11  12
ATOM     12  C   UNL     1      35.343  53.459  56.510  1.00  0.00     0.000 C 
BRANCH  12  13
ATOM     13  C   UNL     1      34.169  53.491  55.512  1.00  0.00     0.006 C 
BRANCH  13  14
ATOM     14  C   UNL     1      34.008  52.164  54.756  1.00  0.00     0.053 C 
BRANCH  14  15
ATOM     15  C   UNL     1      32.564  51.857  54.488  1.00  0.00     0.041 C 
ATOM     16  O   UNL     1      32.135  51.804  53.302  1.00  0.00    -0.550 OA
ATOM     17  O   UNL     1      31.696  51.605  55.545  1.00  0.00    -0.550 OA
ENDBRANCH  14  15
ENDBRANCH  13  14
ENDBRANCH  12  13
ENDBRANCH  11  12
ENDBRANCH  10  11
ENDBRANCH   9  10
ENDBRANCH   8   9
ENDBRANCH   7   8
ENDBRANCH   6   7
ENDBRANCH   5   6
ENDBRANCH   4   5
ENDBRANCH   3   4
ENDBRANCH   2   3
ENDBRANCH   1   2
BRANCH   1  18
ATOM     18  C   UNL     1      40.098  65.057  56.149  1.00  0.00     0.000 C 
BRANCH  18  19
ATOM     19  C   UNL     1      40.524  64.756  57.592  1.00  0.00     0.000 C 
BRANCH  19  20
ATOM     20  C   UNL     1      41.978  64.269  57.654  1.00  0.00     0.000 C 
BRANCH  20  21
ATOM     21  C   UNL     1      42.843  64.994  56.608  1.00  0.00     0.000 C 
BRANCH  21  22
ATOM     22  C   UNL     1      43.641  64.028  55.715  1.00  0.00     0.000 C 
BRANCH  22  23
ATOM     23  C   UNL     1      43.573  64.330  54.209  1.00  0.00     0.000 C 
BRANCH  23  24
ATOM     24  C   UNL     1      43.009  65.730  53.902  1.00  0.00    -0.000 C 
BRANCH  24  25
ATOM     25  C   UNL     1      43.659  66.352  52.645  1.00  0.00    -0.000 C 
BRANCH  25  26
ATOM     26  C   UNL     1      44.836  65.537  52.086  1.00  0.00    -0.000 C 
BRANCH  26  27
ATOM     27  C   UNL     1      45.213  65.939  50.653  1.00  0.00    -0.000 C 
BRANCH  27  28
ATOM     28  C   UNL     1      44.470  67.202  50.166  1.00  0.00    -0.000 C 
BRANCH  28  29
ATOM     29  C   UNL     1      43.612  67.018  48.901  1.00  0.00    -0.000 C 
BRANCH  29  30
ATOM     30  C   UNL     1      44.270  66.109  47.845  1.00  0.00    -0.000 C 
BRANCH  30  31
ATOM     31  C   UNL     1      43.330  65.801  46.668  1.00  0.00    -0.003 C 
ATOM     32  C   UNL     1      43.808  64.626  45.815  1.00  0.00     0.004 C 
ENDBRANCH  30  31
ENDBRANCH  29  30
ENDBRANCH  28  29
ENDBRANCH  27  28
ENDBRANCH  26  27
ENDBRANCH  25  26
ENDBRANCH  24  25
ENDBRANCH  23  24
ENDBRANCH  22  23
ENDBRANCH  21  22
ENDBRANCH  20  21
ENDBRANCH  19  20
ENDBRANCH  18  19
ENDBRANCH   1  18
TORSDOF 28
ENDMDL
MODEL 5
REMARK VINA RESULT:    -4.870      1.706      3.376
REMARK INTER + INTRA:         -14.306
REMARK INTER:                 -12.580
REMARK INTRA:                  -1.725
REMARK UNBOUND:                -1.463
REMARK SMILES CCCCCCCCCCCCCCCCCCCCCCCCCCCCCC(=O)[O-]
REMARK SMILES IDX 16 1 17 2 18 3 19 4 20 5 21 6 22 7 23 8 24 9 25 10 26 11
REMARK SMILES IDX 27 12 28 13 29 14 30 15 31 16 32 17 15 18 14 19 13 20 12 21
REMARK SMILES IDX 11 22 10 23 9 24 8 25 7 26 6 27 5 28 4 29 3 30 2 31 1 32
REMARK H PARENT
REMARK Flexibility Score: inf
ROOT
ATOM      1  C   UNL     1      40.361  64.749  54.949  1.00  0.00     0.000 C 
ENDROOT
BRANCH   1   2
ATOM      2  C   UNL     1      41.445  65.710  55.460  1.00  0.00     0.000 C 
BRANCH   2   3
ATOM      3  C   UNL     1      42.819  65.026  55.519  1.00  0.00     0.000 C 
BRANCH   3   4
ATOM      4  C   UNL     1      43.359  64.658  54.123  1.00  0.00     0.000 C 
BRANCH   4   5
ATOM      5  C   UNL     1      43.575  65.852  53.163  1.00  0.00     0.000 C 
BRANCH   5   6
ATOM      6  C   UNL     1      44.599  65.613  52.038  1.00  0.00     0.000 C 
BRANCH   6   7
ATOM      7  C   UNL     1      45.244  66.912  51.540  1.00  0.00     0.000 C 
BRANCH   7   8
ATOM      8  C   UNL     1      44.210  67.797  50.829  1.00  0.00     0.000 C 
BRANCH   8   9
ATOM      9  C   UNL     1      43.724  67.182  49.502  1.00  0.00     0.000 C 
BRANCH   9  10
ATOM     10  C   UNL     1      42.554  67.949  48.852  1.00  0.00     0.000 C 
BRANCH  10  11
ATOM     11  C   UNL     1      41.147  67.543  49.343  1.00  0.00     0.000 C 
BRANCH  11  12
ATOM     12  C   UNL     1      40.259  66.912  48.252  1.00  0.00     0.000 C 
BRANCH  12  13
ATOM     13  C   UNL     1      40.984  66.782  46.898  1.00  0.00     0.006 C 
BRANCH  13  14
ATOM     14  C   UNL     1      41.447  65.345  46.619  1.00  0.00     0.053 C 
BRANCH  14  15
ATOM     15  C   UNL     1      42.828  65.318  46.032  1.00  0.00     0.041 C 
ATOM     16  O   UNL     1      43.576  66.332  46.119  1.00  0.00    -0.550 OA
ATOM     17  O   UNL     1      43.301  64.169  45.409  1.00  0.00    -0.550 OA
ENDBRANCH  14  15
ENDBRANCH  13  14
ENDBRANCH  12  13
ENDBRANCH  11  12
ENDBRANCH  10  11
ENDBRANCH   9  10
ENDBRANCH   8   9
ENDBRANCH   7   8
ENDBRANCH   6   7
ENDBRANCH   5   6
ENDBRANCH   4   5
ENDBRANCH   3   4
ENDBRANCH   2   3
ENDBRANCH   1   2
BRANCH   1  18
ATOM     18  C   UNL     1      38.967  65.095  55.506  1.00  0.00     0.000 C 
BRANCH  18  19
ATOM     19  C   UNL     1      38.618  64.276  56.756  1.00  0.00     0.000 C 
BRANCH  19  20
ATOM     20  C   UNL     1      37.131  63.898  56.777  1.00  0.00     0.000 C 
BRANCH  20  21
ATOM     21  C   UNL     1      36.859  62.693  55.860  1.00  0.00     0.000 C 
BRANCH  21  22
ATOM     22  C   UNL     1      37.955  61.615  55.944  1.00  0.00     0.000 C 
BRANCH  22  23
ATOM     23  C   UNL     1      37.494  60.264  56.515  1.00  0.00     0.000 C 
BRANCH  23  24
ATOM     24  C   UNL     1      36.826  59.363  55.461  1.00  0.00    -0.000 C 
BRANCH  24  25
ATOM     25  C   UNL     1      37.257  57.885  55.607  1.00  0.00    -0.000 C 
BRANCH  25  26
ATOM     26  C   UNL     1      37.723  57.511  57.022  1.00  0.00    -0.000 C 
BRANCH  26  27
ATOM     27  C   UNL     1      37.256  56.114  57.455  1.00  0.00    -0.000 C 
BRANCH  27  28
ATOM     28  C   UNL     1      36.535  55.344  56.328  1.00  0.00    -0.000 C 
BRANCH  28  29
ATOM     29  C   UNL     1      35.840  54.039  56.759  1.00  0.00    -0.000 C 
BRANCH  29  30
ATOM     30  C   UNL     1      34.402  53.908  56.222  1.00  0.00    -0.000 C 
BRANCH  30  31
ATOM     31  C   UNL     1      34.254  52.757  55.214  1.00  0.00    -0.003 C 
ATOM     32  C   UNL     1      32.800  52.481  54.832  1.00  0.00     0.004 C 
ENDBRANCH  30  31
ENDBRANCH  29  30
ENDBRANCH  28  29
ENDBRANCH  27  28
ENDBRANCH  26  27
ENDBRANCH  25  26
ENDBRANCH  24  25
ENDBRANCH  23  24
ENDBRANCH  22  23
ENDBRANCH  21  22
ENDBRANCH  20  21
ENDBRANCH  19  20
ENDBRANCH  18  19
ENDBRANCH   1  18
TORSDOF 28
ENDMDL
MODEL 6
REMARK VINA RESULT:    -4.844      6.530     12.557
REMARK INTER + INTRA:         -14.236
REMARK INTER:                 -11.954
REMARK INTRA:                  -2.282
REMARK UNBOUND:                -1.463
REMARK SMILES CCCCCCCCCCCCCCCCCCCCCCCCCCCCCC(=O)[O-]
REMARK SMILES IDX 16 1 17 2 18 3 19 4 20 5 21 6 22 7 23 8 24 9 25 10 26 11
REMARK SMILES IDX 27 12 28 13 29 14 30 15 31 16 32 17 15 18 14 19 13 20 12 21
REMARK SMILES IDX 11 22 10 23 9 24 8 25 7 26 6 27 5 28 4 29 3 30 2 31 1 32
REMARK H PARENT
REMARK Flexibility Score: inf
ROOT
ATOM      1  C   UNL     1      43.636  63.974  55.648  1.00  0.00     0.000 C 
ENDROOT
BRANCH   1   2
ATOM      2  C   UNL     1      43.159  65.117  56.557  1.00  0.00     0.000 C 
BRANCH   2   3
ATOM      3  C   UNL     1      42.047  64.651  57.508  1.00  0.00     0.000 C 
BRANCH   3   4
ATOM      4  C   UNL     1      40.640  65.036  57.009  1.00  0.00     0.000 C 
BRANCH   4   5
ATOM      5  C   UNL     1      39.573  63.919  57.116  1.00  0.00     0.000 C 
BRANCH   5   6
ATOM      6  C   UNL     1      38.833  63.591  55.806  1.00  0.00     0.000 C 
BRANCH   6   7
ATOM      7  C   UNL     1      37.817  64.670  55.414  1.00  0.00     0.000 C 
BRANCH   7   8
ATOM      8  C   UNL     1      36.385  64.117  55.468  1.00  0.00     0.000 C 
BRANCH   8   9
ATOM      9  C   UNL     1      35.338  65.151  55.008  1.00  0.00     0.000 C 
BRANCH   9  10
ATOM     10  C   UNL     1      35.477  66.525  55.694  1.00  0.00     0.000 C 
BRANCH  10  11
ATOM     11  C   UNL     1      34.688  66.687  57.011  1.00  0.00     0.000 C 
BRANCH  11  12
ATOM     12  C   UNL     1      33.174  66.895  56.816  1.00  0.00     0.000 C 
BRANCH  12  13
ATOM     13  C   UNL     1      32.845  67.710  55.550  1.00  0.00     0.006 C 
BRANCH  13  14
ATOM     14  C   UNL     1      31.947  66.938  54.574  1.00  0.00     0.053 C 
BRANCH  14  15
ATOM     15  C   UNL     1      32.263  67.281  53.148  1.00  0.00     0.041 C 
ATOM     16  O   UNL     1      31.333  67.548  52.337  1.00  0.00    -0.550 OA
ATOM     17  O   UNL     1      33.584  67.329  52.717  1.00  0.00    -0.550 OA
ENDBRANCH  14  15
ENDBRANCH  13  14
ENDBRANCH  12  13
ENDBRANCH  11  12
ENDBRANCH  10  11
ENDBRANCH   9  10
ENDBRANCH   8   9
ENDBRANCH   7   8
ENDBRANCH   6   7
ENDBRANCH   5   6
ENDBRANCH   4   5
ENDBRANCH   3   4
ENDBRANCH   2   3
ENDBRANCH   1   2
BRANCH   1  18
ATOM     18  C   UNL     1      43.613  64.367  54.159  1.00  0.00     0.000 C 
BRANCH  18  19
ATOM     19  C   UNL     1      42.868  65.687  53.914  1.00  0.00     0.000 C 
BRANCH  19  20
ATOM     20  C   UNL     1      43.585  66.544  52.864  1.00  0.00     0.000 C 
BRANCH  20  21
ATOM     21  C   UNL     1      44.649  65.721  52.118  1.00  0.00     0.000 C 
BRANCH  21  22
ATOM     22  C   UNL     1      44.768  66.100  50.631  1.00  0.00     0.000 C 
BRANCH  22  23
ATOM     23  C   UNL     1      44.372  67.546  50.295  1.00  0.00     0.000 C 
BRANCH  23  24
ATOM     24  C   UNL     1      43.220  67.633  49.278  1.00  0.00    -0.000 C 
BRANCH  24  25
ATOM     25  C   UNL     1      41.862  67.904  49.964  1.00  0.00    -0.000 C 
BRANCH  25  26
ATOM     26  C   UNL     1      40.654  67.781  49.023  1.00  0.00    -0.000 C 
BRANCH  26  27
ATOM     27  C   UNL     1      40.998  67.085  47.698  1.00  0.00    -0.000 C 
BRANCH  27  28
ATOM     28  C   UNL     1      40.269  65.737  47.518  1.00  0.00    -0.000 C 
BRANCH  28  29
ATOM     29  C   UNL     1      41.052  64.660  46.744  1.00  0.00    -0.000 C 
BRANCH  29  30
ATOM     30  C   UNL     1      42.508  65.063  46.445  1.00  0.00    -0.000 C 
BRANCH  30  31
ATOM     31  C   UNL     1      42.682  65.620  45.023  1.00  0.00    -0.003 C 
ATOM     32  C   UNL     1      44.105  65.457  44.488  1.00  0.00     0.004 C 
ENDBRANCH  30  31
ENDBRANCH  29  30
ENDBRANCH  28  29
ENDBRANCH  27  28
ENDBRANCH  26  27
ENDBRANCH  25  26
ENDBRANCH  24  25
ENDBRANCH  23  24
ENDBRANCH  22  23
ENDBRANCH  21  22
ENDBRANCH  20  21
ENDBRANCH  19  20
ENDBRANCH  18  19
ENDBRANCH   1  18
TORSDOF 28
ENDMDL
MODEL 7
REMARK VINA RESULT:    -4.780      1.558      2.171
REMARK INTER + INTRA:         -14.066
REMARK INTER:                 -12.424
REMARK INTRA:                  -1.642
REMARK UNBOUND:                -1.463
REMARK SMILES CCCCCCCCCCCCCCCCCCCCCCCCCCCCCC(=O)[O-]
REMARK SMILES IDX 16 1 17 2 18 3 19 4 20 5 21 6 22 7 23 8 24 9 25 10 26 11
REMARK SMILES IDX 27 12 28 13 29 14 30 15 31 16 32 17 15 18 14 19 13 20 12 21
REMARK SMILES IDX 11 22 10 23 9 24 8 25 7 26 6 27 5 28 4 29 3 30 2 31 1 32
REMARK H PARENT
REMARK Flexibility Score: inf
ROOT
ATOM      1  C   UNL     1      39.128  63.465  56.651  1.00  0.00     0.000 C 
ENDROOT
BRANCH   1   2
ATOM      2  C   UNL     1      38.940  64.502  55.532  1.00  0.00     0.000 C 
BRANCH   2   3
ATOM      3  C   UNL     1      40.252  64.750  54.772  1.00  0.00     0.000 C 
BRANCH   3   4
ATOM      4  C   UNL     1      41.319  65.442  55.642  1.00  0.00     0.000 C 
BRANCH   4   5
ATOM      5  C   UNL     1      42.749  64.862  55.519  1.00  0.00     0.000 C 
BRANCH   5   6
ATOM      6  C   UNL     1      43.296  64.765  54.083  1.00  0.00     0.000 C 
BRANCH   6   7
ATOM      7  C   UNL     1      43.115  66.066  53.291  1.00  0.00     0.000 C 
BRANCH   7   8
ATOM      8  C   UNL     1      44.418  66.458  52.579  1.00  0.00     0.000 C 
BRANCH   8   9
ATOM      9  C   UNL     1      44.978  65.316  51.708  1.00  0.00     0.000 C 
BRANCH   9  10
ATOM     10  C   UNL     1      45.469  65.776  50.320  1.00  0.00     0.000 C 
BRANCH  10  11
ATOM     11  C   UNL     1      44.580  66.826  49.621  1.00  0.00     0.000 C 
BRANCH  11  12
ATOM     12  C   UNL     1      44.403  66.593  48.108  1.00  0.00     0.000 C 
BRANCH  12  13
ATOM     13  C   UNL     1      42.922  66.559  47.682  1.00  0.00     0.006 C 
BRANCH  13  14
ATOM     14  C   UNL     1      42.564  65.276  46.917  1.00  0.00     0.053 C 
BRANCH  14  15
ATOM     15  C   UNL     1      41.079  65.065  46.865  1.00  0.00     0.041 C 
ATOM     16  O   UNL     1      40.608  63.911  46.660  1.00  0.00    -0.550 OA
ATOM     17  O   UNL     1      40.213  66.134  47.065  1.00  0.00    -0.550 OA
ENDBRANCH  14  15
ENDBRANCH  13  14
ENDBRANCH  12  13
ENDBRANCH  11  12
ENDBRANCH  10  11
ENDBRANCH   9  10
ENDBRANCH   8   9
ENDBRANCH   7   8
ENDBRANCH   6   7
ENDBRANCH   5   6
ENDBRANCH   4   5
ENDBRANCH   3   4
ENDBRANCH   2   3
ENDBRANCH   1   2
BRANCH   1  18
ATOM     18  C   UNL     1      38.393  62.146  56.351  1.00  0.00     0.000 C 
BRANCH  18  19
ATOM     19  C   UNL     1      36.963  62.375  55.843  1.00  0.00     0.000 C 
BRANCH  19  20
ATOM     20  C   UNL     1      36.160  61.068  55.829  1.00  0.00     0.000 C 
BRANCH  20  21
ATOM     21  C   UNL     1      35.797  60.632  57.259  1.00  0.00     0.000 C 
BRANCH  21  22
ATOM     22  C   UNL     1      36.274  59.208  57.593  1.00  0.00     0.000 C 
BRANCH  22  23
ATOM     23  C   UNL     1      37.265  58.602  56.586  1.00  0.00     0.000 C 
BRANCH  23  24
ATOM     24  C   UNL     1      38.030  57.390  57.150  1.00  0.00    -0.000 C 
BRANCH  24  25
ATOM     25  C   UNL     1      37.081  56.224  57.508  1.00  0.00    -0.000 C 
BRANCH  25  26
ATOM     26  C   UNL     1      36.607  55.413  56.293  1.00  0.00    -0.000 C 
BRANCH  26  27
ATOM     27  C   UNL     1      35.957  54.077  56.683  1.00  0.00    -0.000 C 
BRANCH  27  28
ATOM     28  C   UNL     1      34.471  54.222  57.073  1.00  0.00    -0.000 C 
BRANCH  28  29
ATOM     29  C   UNL     1      33.531  53.140  56.511  1.00  0.00    -0.000 C 
BRANCH  29  30
ATOM     30  C   UNL     1      33.885  52.712  55.074  1.00  0.00    -0.000 C 
BRANCH  30  31
ATOM     31  C   UNL     1      33.612  51.220  54.821  1.00  0.00    -0.003 C 
ATOM     32  C   UNL     1      33.260  50.453  56.096  1.00  0.00     0.004 C 
ENDBRANCH  30  31
ENDBRANCH  29  30
ENDBRANCH  28  29
ENDBRANCH  27  28
ENDBRANCH  26  27
ENDBRANCH  25  26
ENDBRANCH  24  25
ENDBRANCH  23  24
ENDBRANCH  22  23
ENDBRANCH  21  22
ENDBRANCH  20  21
ENDBRANCH  19  20
ENDBRANCH  18  19
ENDBRANCH   1  18
TORSDOF 28
ENDMDL
MODEL 8
REMARK VINA RESULT:    -4.738      6.172     12.960
REMARK INTER + INTRA:         -13.955
REMARK INTER:                 -11.322
REMARK INTRA:                  -2.634
REMARK UNBOUND:                -1.463
REMARK SMILES CCCCCCCCCCCCCCCCCCCCCCCCCCCCCC(=O)[O-]
REMARK SMILES IDX 16 1 17 2 18 3 19 4 20 5 21 6 22 7 23 8 24 9 25 10 26 11
REMARK SMILES IDX 27 12 28 13 29 14 30 15 31 16 32 17 15 18 14 19 13 20 12 21
REMARK SMILES IDX 11 22 10 23 9 24 8 25 7 26 6 27 5 28 4 29 3 30 2 31 1 32
REMARK H PARENT
REMARK Flexibility Score: inf
ROOT
ATOM      1  C   UNL     1      36.921  59.182  55.151  1.00  0.00     0.000 C 
ENDROOT
BRANCH   1   2
ATOM      2  C   UNL     1      37.278  57.730  55.503  1.00  0.00     0.000 C 
BRANCH   2   3
ATOM      3  C   UNL     1      37.856  57.623  56.922  1.00  0.00     0.000 C 
BRANCH   3   4
ATOM      4  C   UNL     1      37.207  56.492  57.745  1.00  0.00     0.000 C 
BRANCH   4   5
ATOM      5  C   UNL     1      36.628  55.322  56.915  1.00  0.00     0.000 C 
BRANCH   5   6
ATOM      6  C   UNL     1      35.434  54.590  57.556  1.00  0.00     0.000 C 
BRANCH   6   7
ATOM      7  C   UNL     1      35.077  53.289  56.829  1.00  0.00     0.000 C 
BRANCH   7   8
ATOM      8  C   UNL     1      34.300  53.581  55.537  1.00  0.00     0.000 C 
BRANCH   8   9
ATOM      9  C   UNL     1      32.775  53.462  55.729  1.00  0.00     0.000 C 
BRANCH   9  10
ATOM     10  C   UNL     1      32.126  52.351  54.878  1.00  0.00     0.000 C 
BRANCH  10  11
ATOM     11  C   UNL     1      33.107  51.324  54.275  1.00  0.00     0.000 C 
BRANCH  11  12
ATOM     12  C   UNL     1      33.337  51.489  52.760  1.00  0.00     0.000 C 
BRANCH  12  13
ATOM     13  C   UNL     1      32.131  51.022  51.922  1.00  0.00     0.006 C 
BRANCH  13  14
ATOM     14  C   UNL     1      32.150  51.597  50.498  1.00  0.00     0.053 C 
BRANCH  14  15
ATOM     15  C   UNL     1      33.128  50.868  49.625  1.00  0.00     0.041 C 
ATOM     16  O   UNL     1      33.866  51.509  48.826  1.00  0.00    -0.550 OA
ATOM     17  O   UNL     1      33.244  49.486  49.708  1.00  0.00    -0.550 OA
ENDBRANCH  14  15
ENDBRANCH  13  14
ENDBRANCH  12  13
ENDBRANCH  11  12
ENDBRANCH  10  11
ENDBRANCH   9  10
ENDBRANCH   8   9
ENDBRANCH   7   8
ENDBRANCH   6   7
ENDBRANCH   5   6
ENDBRANCH   4   5
ENDBRANCH   3   4
ENDBRANCH   2   3
ENDBRANCH   1   2
BRANCH   1  18
ATOM     18  C   UNL     1      36.245  59.916  56.323  1.00  0.00     0.000 C 
BRANCH  18  19
ATOM     19  C   UNL     1      36.537  61.424  56.315  1.00  0.00     0.000 C 
BRANCH  19  20
ATOM     20  C   UNL     1      37.978  61.710  55.875  1.00  0.00     0.000 C 
BRANCH  20  21
ATOM     21  C   UNL     1      38.694  62.612  56.894  1.00  0.00     0.000 C 
BRANCH  21  22
ATOM     22  C   UNL     1      39.258  63.899  56.266  1.00  0.00     0.000 C 
BRANCH  22  23
ATOM     23  C   UNL     1      39.055  65.173  57.102  1.00  0.00     0.000 C 
BRANCH  23  24
ATOM     24  C   UNL     1      37.837  65.087  58.040  1.00  0.00    -0.000 C 
BRANCH  24  25
ATOM     25  C   UNL     1      36.779  66.167  57.714  1.00  0.00    -0.000 C 
BRANCH  25  26
ATOM     26  C   UNL     1      35.403  65.596  57.339  1.00  0.00    -0.000 C 
BRANCH  26  27
ATOM     27  C   UNL     1      35.420  64.820  56.013  1.00  0.00    -0.000 C 
BRANCH  27  28
ATOM     28  C   UNL     1      35.767  65.709  54.799  1.00  0.00    -0.000 C 
BRANCH  28  29
ATOM     29  C   UNL     1      35.119  67.106  54.797  1.00  0.00    -0.000 C 
BRANCH  29  30
ATOM     30  C   UNL     1      33.857  67.191  53.918  1.00  0.00    -0.000 C 
BRANCH  30  31
ATOM     31  C   UNL     1      32.611  66.634  54.625  1.00  0.00    -0.003 C 
ATOM     32  C   UNL     1      32.390  67.238  56.012  1.00  0.00     0.004 C 
ENDBRANCH  30  31
ENDBRANCH  29  30
ENDBRANCH  28  29
ENDBRANCH  27  28
ENDBRANCH  26  27
ENDBRANCH  25  26
ENDBRANCH  24  25
ENDBRANCH  23  24
ENDBRANCH  22  23
ENDBRANCH  21  22
ENDBRANCH  20  21
ENDBRANCH  19  20
ENDBRANCH  18  19
ENDBRANCH   1  18
TORSDOF 28
ENDMDL
