MODEL 1
REMARK VINA RESULT:    -8.444      0.000      0.000
REMARK INTER + INTRA:         -10.199
REMARK INTER:                  -9.925
REMARK INTRA:                  -0.273
REMARK UNBOUND:                -0.273
REMARK SMILES O=c1cc(-c2ccc(O)c(O)c2)oc2cc(O)cc(O)c12
REMARK SMILES IDX 4 1 3 2 2 3 1 4 21 5 19 6 18 7 16 8 15 9 14 10 13 11 5 12
REMARK SMILES IDX 6 13 7 14 8 15 12 16 10 17 9 18 11 20 20 22 17 24
REMARK H PARENT 9 19 11 21 20 23 17 25
REMARK Flexibility Score: inf
ROOT
ATOM      1  C   UNL     1       2.339  45.657   2.419  1.00  0.00     0.138 A 
ATOM      2  C   UNL     1       2.044  45.144   1.149  1.00  0.00     0.100 A 
ATOM      3  C   UNL     1       0.729  44.801   0.832  1.00  0.00     0.197 A 
ATOM      4  O   UNL     1       0.485  44.401  -0.337  1.00  0.00    -0.289 OA
ATOM      5  C   UNL     1      -0.289  44.943   1.804  1.00  0.00     0.107 A 
ATOM      6  C   UNL     1      -1.657  44.587   1.605  1.00  0.00     0.134 A 
ATOM      7  C   UNL     1      -2.597  44.882   2.600  1.00  0.00     0.093 A 
ATOM      8  C   UNL     1      -2.210  45.464   3.809  1.00  0.00     0.123 A 
ATOM      9  C   UNL     1      -0.869  45.766   4.033  1.00  0.00     0.094 A 
ATOM     10  C   UNL     1       0.088  45.516   3.047  1.00  0.00     0.146 A 
ATOM     11  O   UNL     1       1.355  45.832   3.295  1.00  0.00    -0.456 OA
ENDROOT
BRANCH   1  12
ATOM     12  C   UNL     1       3.720  46.038   2.811  1.00  0.00     0.021 A 
ATOM     13  C   UNL     1       4.413  47.077   2.161  1.00  0.00     0.016 A 
ATOM     14  C   UNL     1       5.716  47.408   2.543  1.00  0.00     0.051 A 
ATOM     15  C   UNL     1       6.352  46.703   3.572  1.00  0.00     0.157 A 
ATOM     16  C   UNL     1       4.370  45.326   3.833  1.00  0.00     0.062 A 
ATOM     17  C   UNL     1       5.676  45.655   4.219  1.00  0.00     0.158 A 
BRANCH  15  18
ATOM     18  O   UNL     1       7.651  47.036   3.952  1.00  0.00    -0.504 OA
ATOM     19  H   UNL     1       8.333  46.324   4.190  1.00  0.00     0.293 HD
ENDBRANCH  15  18
BRANCH  17  20
ATOM     20  O   UNL     1       6.282  44.931   5.245  1.00  0.00    -0.504 OA
ATOM     21  H   UNL     1       6.773  44.062   5.073  1.00  0.00     0.293 HD
ENDBRANCH  17  20
ENDBRANCH   1  12
BRANCH   6  22
ATOM     22  O   UNL     1      -2.136  43.925   0.470  1.00  0.00    -0.507 OA
ATOM     23  H   UNL     1      -3.109  43.832   0.226  1.00  0.00     0.293 HD
ENDBRANCH   6  22
BRANCH   8  24
ATOM     24  O   UNL     1      -3.150  45.739   4.799  1.00  0.00    -0.508 OA
ATOM     25  H   UNL     1      -2.949  45.584   5.781  1.00  0.00     0.293 HD
ENDBRANCH   8  24
TORSDOF 5
ENDMDL
MODEL 2
REMARK VINA RESULT:    -8.444      0.701      1.532
REMARK INTER + INTRA:         -10.198
REMARK INTER:                  -9.933
REMARK INTRA:                  -0.265
REMARK UNBOUND:                -0.273
REMARK SMILES O=c1cc(-c2ccc(O)c(O)c2)oc2cc(O)cc(O)c12
REMARK SMILES IDX 4 1 3 2 2 3 1 4 21 5 19 6 18 7 16 8 15 9 14 10 13 11 5 12
REMARK SMILES IDX 6 13 7 14 8 15 12 16 10 17 9 18 11 20 20 22 17 24
REMARK H PARENT 9 19 11 21 20 23 17 25
REMARK Flexibility Score: inf
ROOT
ATOM      1  C   UNL     1       2.157  45.610   2.413  1.00  0.00     0.138 A 
ATOM      2  C   UNL     1       1.836  45.101   1.148  1.00  0.00     0.100 A 
ATOM      3  C   UNL     1       0.514  44.763   0.856  1.00  0.00     0.197 A 
ATOM      4  O   UNL     1       0.245  44.367  -0.309  1.00  0.00    -0.289 OA
ATOM      5  C   UNL     1      -0.485  44.906   1.848  1.00  0.00     0.107 A 
ATOM      6  C   UNL     1      -1.857  44.556   1.675  1.00  0.00     0.134 A 
ATOM      7  C   UNL     1      -2.777  44.851   2.690  1.00  0.00     0.093 A 
ATOM      8  C   UNL     1      -2.364  45.429   3.892  1.00  0.00     0.123 A 
ATOM      9  C   UNL     1      -1.017  45.726   4.090  1.00  0.00     0.094 A 
ATOM     10  C   UNL     1      -0.081  45.475   3.085  1.00  0.00     0.146 A 
ATOM     11  O   UNL     1       1.192  45.787   3.309  1.00  0.00    -0.456 OA
ENDROOT
BRANCH   1  12
ATOM     12  C   UNL     1       3.547  45.985   2.779  1.00  0.00     0.021 A 
ATOM     13  C   UNL     1       4.245  45.323   3.807  1.00  0.00     0.016 A 
ATOM     14  C   UNL     1       5.550  45.703   4.136  1.00  0.00     0.051 A 
ATOM     15  C   UNL     1       6.175  46.753   3.452  1.00  0.00     0.157 A 
ATOM     16  C   UNL     1       4.177  47.047   2.106  1.00  0.00     0.062 A 
ATOM     17  C   UNL     1       5.484  47.429   2.434  1.00  0.00     0.158 A 
BRANCH  15  18
ATOM     18  O   UNL     1       7.476  47.129   3.782  1.00  0.00    -0.504 OA
ATOM     19  H   UNL     1       8.281  46.647   3.398  1.00  0.00     0.293 HD
ENDBRANCH  15  18
BRANCH  17  20
ATOM     20  O   UNL     1       6.077  48.481   1.736  1.00  0.00    -0.504 OA
ATOM     21  H   UNL     1       5.531  49.227   1.321  1.00  0.00     0.293 HD
ENDBRANCH  17  20
ENDBRANCH   1  12
BRANCH   6  22
ATOM     22  O   UNL     1      -2.361  43.898   0.548  1.00  0.00    -0.507 OA
ATOM     23  H   UNL     1      -2.298  42.906   0.384  1.00  0.00     0.293 HD
ENDBRANCH   6  22
BRANCH   8  24
ATOM     24  O   UNL     1      -3.284  45.705   4.901  1.00  0.00    -0.508 OA
ATOM     25  H   UNL     1      -4.012  46.401   4.779  1.00  0.00     0.293 HD
ENDBRANCH   8  24
TORSDOF 5
ENDMDL
MODEL 3
REMARK VINA RESULT:    -8.297      1.412      3.232
REMARK INTER + INTRA:         -10.026
REMARK INTER:                  -9.753
REMARK INTRA:                  -0.272
REMARK UNBOUND:                -0.273
REMARK SMILES O=c1cc(-c2ccc(O)c(O)c2)oc2cc(O)cc(O)c12
REMARK SMILES IDX 4 1 3 2 2 3 1 4 21 5 19 6 18 7 16 8 15 9 14 10 13 11 5 12
REMARK SMILES IDX 6 13 7 14 8 15 12 16 10 17 9 18 11 20 20 22 17 24
REMARK H PARENT 9 19 11 21 20 23 17 25
REMARK Flexibility Score: inf
ROOT
ATOM      1  C   UNL     1       2.285  45.532   2.925  1.00  0.00     0.138 A 
ATOM      2  C   UNL     1       1.157  45.837   3.699  1.00  0.00     0.100 A 
ATOM      3  C   UNL     1      -0.109  45.813   3.113  1.00  0.00     0.197 A 
ATOM      4  O   UNL     1      -1.108  46.030   3.848  1.00  0.00    -0.289 OA
ATOM      5  C   UNL     1      -0.242  45.514   1.736  1.00  0.00     0.107 A 
ATOM      6  C   UNL     1      -1.478  45.500   1.024  1.00  0.00     0.134 A 
ATOM      7  C   UNL     1      -1.499  45.075  -0.311  1.00  0.00     0.093 A 
ATOM      8  C   UNL     1      -0.323  44.722  -0.974  1.00  0.00     0.123 A 
ATOM      9  C   UNL     1       0.896  44.783  -0.302  1.00  0.00     0.094 A 
ATOM     10  C   UNL     1       0.947  45.170   1.039  1.00  0.00     0.146 A 
ATOM     11  O   UNL     1       2.128  45.201   1.648  1.00  0.00    -0.456 OA
ENDROOT
BRANCH   1  12
ATOM     12  C   UNL     1       3.656  45.543   3.497  1.00  0.00     0.021 A 
ATOM     13  C   UNL     1       4.043  44.639   4.505  1.00  0.00     0.016 A 
ATOM     14  C   UNL     1       5.337  44.679   5.032  1.00  0.00     0.051 A 
ATOM     15  C   UNL     1       6.262  45.623   4.570  1.00  0.00     0.157 A 
ATOM     16  C   UNL     1       4.585  46.497   3.048  1.00  0.00     0.062 A 
ATOM     17  C   UNL     1       5.882  46.538   3.574  1.00  0.00     0.158 A 
BRANCH  15  18
ATOM     18  O   UNL     1       7.552  45.659   5.096  1.00  0.00    -0.504 OA
ATOM     19  H   UNL     1       8.292  45.073   4.727  1.00  0.00     0.293 HD
ENDBRANCH  15  18
BRANCH  17  20
ATOM     20  O   UNL     1       6.778  47.494   3.094  1.00  0.00    -0.504 OA
ATOM     21  H   UNL     1       6.472  48.404   2.772  1.00  0.00     0.293 HD
ENDBRANCH  17  20
ENDBRANCH   1  12
BRANCH   6  22
ATOM     22  O   UNL     1      -2.698  45.915   1.567  1.00  0.00    -0.507 OA
ATOM     23  H   UNL     1      -3.192  46.752   1.300  1.00  0.00     0.293 HD
ENDBRANCH   6  22
BRANCH   8  24
ATOM     24  O   UNL     1      -0.352  44.315  -2.306  1.00  0.00    -0.508 OA
ATOM     25  H   UNL     1      -0.401  43.335  -2.560  1.00  0.00     0.293 HD
ENDBRANCH   8  24
TORSDOF 5
ENDMDL
MODEL 4
REMARK VINA RESULT:    -7.951      3.796      6.675
REMARK INTER + INTRA:          -9.619
REMARK INTER:                  -9.312
REMARK INTRA:                  -0.307
REMARK UNBOUND:                -0.273
REMARK SMILES O=c1cc(-c2ccc(O)c(O)c2)oc2cc(O)cc(O)c12
REMARK SMILES IDX 4 1 3 2 2 3 1 4 21 5 19 6 18 7 16 8 15 9 14 10 13 11 5 12
REMARK SMILES IDX 6 13 7 14 8 15 12 16 10 17 9 18 11 20 20 22 17 24
REMARK H PARENT 9 19 11 21 20 23 17 25
REMARK Flexibility Score: inf
ROOT
ATOM      1  C   UNL     1      -1.115  45.073   1.701  1.00  0.00     0.138 A 
ATOM      2  C   UNL     1       0.272  44.937   1.558  1.00  0.00     0.100 A 
ATOM      3  C   UNL     1       0.822  44.771   0.286  1.00  0.00     0.197 A 
ATOM      4  O   UNL     1       2.075  44.714   0.183  1.00  0.00    -0.289 OA
ATOM      5  C   UNL     1      -0.027  44.708  -0.845  1.00  0.00     0.107 A 
ATOM      6  C   UNL     1       0.418  44.501  -2.184  1.00  0.00     0.134 A 
ATOM      7  C   UNL     1      -0.504  44.574  -3.236  1.00  0.00     0.093 A 
ATOM      8  C   UNL     1      -1.862  44.786  -2.992  1.00  0.00     0.123 A 
ATOM      9  C   UNL     1      -2.314  44.937  -1.683  1.00  0.00     0.094 A 
ATOM     10  C   UNL     1      -1.415  44.903  -0.614  1.00  0.00     0.146 A 
ATOM     11  O   UNL     1      -1.886  45.066   0.618  1.00  0.00    -0.456 OA
ENDROOT
BRANCH   1  12
ATOM     12  C   UNL     1      -1.753  45.251   3.030  1.00  0.00     0.021 A 
ATOM     13  C   UNL     1      -1.066  45.846   4.106  1.00  0.00     0.016 A 
ATOM     14  C   UNL     1      -1.688  45.992   5.349  1.00  0.00     0.051 A 
ATOM     15  C   UNL     1      -2.999  45.542   5.543  1.00  0.00     0.157 A 
ATOM     16  C   UNL     1      -3.065  44.789   3.236  1.00  0.00     0.062 A 
ATOM     17  C   UNL     1      -3.690  44.935   4.481  1.00  0.00     0.158 A 
BRANCH  15  18
ATOM     18  O   UNL     1      -3.617  45.690   6.783  1.00  0.00    -0.504 OA
ATOM     19  H   UNL     1      -3.103  46.014   7.596  1.00  0.00     0.293 HD
ENDBRANCH  15  18
BRANCH  17  20
ATOM     20  O   UNL     1      -4.996  44.473   4.641  1.00  0.00    -0.504 OA
ATOM     21  H   UNL     1      -5.231  43.490   4.573  1.00  0.00     0.293 HD
ENDBRANCH  17  20
ENDBRANCH   1  12
BRANCH   6  22
ATOM     22  O   UNL     1       1.738  44.197  -2.531  1.00  0.00    -0.507 OA
ATOM     23  H   UNL     1       2.052  43.971  -3.462  1.00  0.00     0.293 HD
ENDBRANCH   6  22
BRANCH   8  24
ATOM     24  O   UNL     1      -2.774  44.843  -4.043  1.00  0.00    -0.508 OA
ATOM     25  H   UNL     1      -2.477  45.039  -4.993  1.00  0.00     0.293 HD
ENDBRANCH   8  24
TORSDOF 5
ENDMDL
MODEL 5
REMARK VINA RESULT:    -7.857      3.894      6.193
REMARK INTER + INTRA:          -9.508
REMARK INTER:                  -9.199
REMARK INTRA:                  -0.309
REMARK UNBOUND:                -0.273
REMARK SMILES O=c1cc(-c2ccc(O)c(O)c2)oc2cc(O)cc(O)c12
REMARK SMILES IDX 4 1 3 2 2 3 1 4 21 5 19 6 18 7 16 8 15 9 14 10 13 11 5 12
REMARK SMILES IDX 6 13 7 14 8 15 12 16 10 17 9 18 11 20 20 22 17 24
REMARK H PARENT 9 19 11 21 20 23 17 25
REMARK Flexibility Score: inf
ROOT
ATOM      1  C   UNL     1      -1.127  45.152   1.336  1.00  0.00     0.138 A 
ATOM      2  C   UNL     1      -0.205  45.504   2.331  1.00  0.00     0.100 A 
ATOM      3  C   UNL     1      -0.639  45.665   3.647  1.00  0.00     0.197 A 
ATOM      4  O   UNL     1       0.222  45.919   4.530  1.00  0.00    -0.289 OA
ATOM      5  C   UNL     1      -2.010  45.504   3.962  1.00  0.00     0.107 A 
ATOM      6  C   UNL     1      -2.571  45.683   5.261  1.00  0.00     0.134 A 
ATOM      7  C   UNL     1      -3.923  45.383   5.475  1.00  0.00     0.093 A 
ATOM      8  C   UNL     1      -4.744  44.968   4.425  1.00  0.00     0.123 A 
ATOM      9  C   UNL     1      -4.217  44.841   3.142  1.00  0.00     0.094 A 
ATOM     10  C   UNL     1      -2.865  45.101   2.903  1.00  0.00     0.146 A 
ATOM     11  O   UNL     1      -2.399  44.954   1.667  1.00  0.00    -0.456 OA
ENDROOT
BRANCH   1  12
ATOM     12  C   UNL     1      -0.721  44.969  -0.081  1.00  0.00     0.021 A 
ATOM     13  C   UNL     1       0.605  44.653  -0.435  1.00  0.00     0.016 A 
ATOM     14  C   UNL     1       0.962  44.496  -1.777  1.00  0.00     0.051 A 
ATOM     15  C   UNL     1       0.006  44.660  -2.787  1.00  0.00     0.157 A 
ATOM     16  C   UNL     1      -1.671  45.146  -1.102  1.00  0.00     0.062 A 
ATOM     17  C   UNL     1      -1.316  44.989  -2.448  1.00  0.00     0.158 A 
BRANCH  15  18
ATOM     18  O   UNL     1       0.365  44.501  -4.125  1.00  0.00    -0.504 OA
ATOM     19  H   UNL     1       1.329  44.353  -4.401  1.00  0.00     0.293 HD
ENDBRANCH  15  18
BRANCH  17  20
ATOM     20  O   UNL     1      -2.291  45.162  -3.430  1.00  0.00    -0.504 OA
ATOM     21  H   UNL     1      -2.641  44.389  -3.983  1.00  0.00     0.293 HD
ENDBRANCH  17  20
ENDBRANCH   1  12
BRANCH   6  22
ATOM     22  O   UNL     1      -1.859  46.174   6.360  1.00  0.00    -0.507 OA
ATOM     23  H   UNL     1      -1.014  45.765   6.728  1.00  0.00     0.293 HD
ENDBRANCH   6  22
BRANCH   8  24
ATOM     24  O   UNL     1      -6.091  44.686   4.644  1.00  0.00    -0.508 OA
ATOM     25  H   UNL     1      -6.461  43.748   4.537  1.00  0.00     0.293 HD
ENDBRANCH   8  24
TORSDOF 5
ENDMDL
MODEL 6
REMARK VINA RESULT:    -7.576      1.435      6.936
REMARK INTER + INTRA:          -9.177
REMARK INTER:                  -8.903
REMARK INTRA:                  -0.275
REMARK UNBOUND:                -0.273
REMARK SMILES O=c1cc(-c2ccc(O)c(O)c2)oc2cc(O)cc(O)c12
REMARK SMILES IDX 4 1 3 2 2 3 1 4 21 5 19 6 18 7 16 8 15 9 14 10 13 11 5 12
REMARK SMILES IDX 6 13 7 14 8 15 12 16 10 17 9 18 11 20 20 22 17 24
REMARK H PARENT 9 19 11 21 20 23 17 25
REMARK Flexibility Score: inf
ROOT
ATOM      1  C   UNL     1       2.711  45.542   2.483  1.00  0.00     0.138 A 
ATOM      2  C   UNL     1       3.631  46.418   1.889  1.00  0.00     0.100 A 
ATOM      3  C   UNL     1       4.861  46.649   2.505  1.00  0.00     0.197 A 
ATOM      4  O   UNL     1       5.690  47.391   1.917  1.00  0.00    -0.289 OA
ATOM      5  C   UNL     1       5.158  46.024   3.740  1.00  0.00     0.107 A 
ATOM      6  C   UNL     1       6.363  46.218   4.479  1.00  0.00     0.134 A 
ATOM      7  C   UNL     1       6.595  45.456   5.631  1.00  0.00     0.093 A 
ATOM      8  C   UNL     1       5.641  44.552   6.103  1.00  0.00     0.123 A 
ATOM      9  C   UNL     1       4.438  44.395   5.417  1.00  0.00     0.094 A 
ATOM     10  C   UNL     1       4.191  45.116   4.246  1.00  0.00     0.146 A 
ATOM     11  O   UNL     1       3.037  44.926   3.615  1.00  0.00    -0.456 OA
ENDROOT
BRANCH   1  12
ATOM     12  C   UNL     1       1.388  45.261   1.871  1.00  0.00     0.021 A 
ATOM     13  C   UNL     1       1.272  44.654   0.606  1.00  0.00     0.016 A 
ATOM     14  C   UNL     1       0.014  44.410   0.049  1.00  0.00     0.051 A 
ATOM     15  C   UNL     1      -1.148  44.773   0.741  1.00  0.00     0.157 A 
ATOM     16  C   UNL     1       0.217  45.634   2.553  1.00  0.00     0.062 A 
ATOM     17  C   UNL     1      -1.046  45.390   1.998  1.00  0.00     0.158 A 
BRANCH  15  18
ATOM     18  O   UNL     1      -2.402  44.527   0.184  1.00  0.00    -0.504 OA
ATOM     19  H   UNL     1      -3.254  44.836   0.638  1.00  0.00     0.293 HD
ENDBRANCH  15  18
BRANCH  17  20
ATOM     20  O   UNL     1      -2.183  45.767   2.711  1.00  0.00    -0.504 OA
ATOM     21  H   UNL     1      -3.107  45.754   2.297  1.00  0.00     0.293 HD
ENDBRANCH  17  20
ENDBRANCH   1  12
BRANCH   6  22
ATOM     22  O   UNL     1       7.345  47.155   4.143  1.00  0.00    -0.507 OA
ATOM     23  H   UNL     1       7.419  47.617   3.249  1.00  0.00     0.293 HD
ENDBRANCH   6  22
BRANCH   8  24
ATOM     24  O   UNL     1       5.874  43.810   7.258  1.00  0.00    -0.508 OA
ATOM     25  H   UNL     1       6.724  43.271   7.379  1.00  0.00     0.293 HD
ENDBRANCH   8  24
TORSDOF 5
ENDMDL
MODEL 7
REMARK VINA RESULT:    -7.376      5.158      7.069
REMARK INTER + INTRA:          -8.943
REMARK INTER:                  -8.649
REMARK INTRA:                  -0.294
REMARK UNBOUND:                -0.273
REMARK SMILES O=c1cc(-c2ccc(O)c(O)c2)oc2cc(O)cc(O)c12
REMARK SMILES IDX 4 1 3 2 2 3 1 4 21 5 19 6 18 7 16 8 15 9 14 10 13 11 5 12
REMARK SMILES IDX 6 13 7 14 8 15 12 16 10 17 9 18 11 20 20 22 17 24
REMARK H PARENT 9 19 11 21 20 23 17 25
REMARK Flexibility Score: inf
ROOT
ATOM      1  C   UNL     1       6.828  46.148   4.655  1.00  0.00     0.138 A 
ATOM      2  C   UNL     1       7.737  46.357   5.702  1.00  0.00     0.100 A 
ATOM      3  C   UNL     1       7.485  45.798   6.955  1.00  0.00     0.197 A 
ATOM      4  O   UNL     1       8.350  45.951   7.858  1.00  0.00    -0.289 OA
ATOM      5  C   UNL     1       6.302  45.053   7.169  1.00  0.00     0.107 A 
ATOM      6  C   UNL     1       5.922  44.471   8.415  1.00  0.00     0.134 A 
ATOM      7  C   UNL     1       4.785  43.656   8.478  1.00  0.00     0.093 A 
ATOM      8  C   UNL     1       3.982  43.451   7.354  1.00  0.00     0.123 A 
ATOM      9  C   UNL     1       4.315  44.058   6.145  1.00  0.00     0.094 A 
ATOM     10  C   UNL     1       5.462  44.849   6.042  1.00  0.00     0.146 A 
ATOM     11  O   UNL     1       5.752  45.398   4.867  1.00  0.00    -0.456 OA
ENDROOT
BRANCH   1  12
ATOM     12  C   UNL     1       7.045  46.720   3.301  1.00  0.00     0.021 A 
ATOM     13  C   UNL     1       8.312  46.702   2.686  1.00  0.00     0.016 A 
ATOM     14  C   UNL     1       8.490  47.256   1.415  1.00  0.00     0.051 A 
ATOM     15  C   UNL     1       7.411  47.844   0.742  1.00  0.00     0.157 A 
ATOM     16  C   UNL     1       5.971  47.324   2.625  1.00  0.00     0.062 A 
ATOM     17  C   UNL     1       6.147  47.880   1.352  1.00  0.00     0.158 A 
BRANCH  15  18
ATOM     18  O   UNL     1       7.592  48.395  -0.525  1.00  0.00    -0.504 OA
ATOM     19  H   UNL     1       6.841  48.415  -1.207  1.00  0.00     0.293 HD
ENDBRANCH  15  18
BRANCH  17  20
ATOM     20  O   UNL     1       5.053  48.460   0.710  1.00  0.00    -0.504 OA
ATOM     21  H   UNL     1       5.160  49.213   0.040  1.00  0.00     0.293 HD
ENDBRANCH  17  20
ENDBRANCH   1  12
BRANCH   6  22
ATOM     22  O   UNL     1       6.606  44.681   9.617  1.00  0.00    -0.507 OA
ATOM     23  H   UNL     1       7.189  43.998  10.075  1.00  0.00     0.293 HD
ENDBRANCH   6  22
BRANCH   8  24
ATOM     24  O   UNL     1       2.844  42.651   7.429  1.00  0.00    -0.508 OA
ATOM     25  H   UNL     1       2.891  41.690   7.751  1.00  0.00     0.293 HD
ENDBRANCH   8  24
TORSDOF 5
ENDMDL
MODEL 8
REMARK VINA RESULT:    -7.367      5.368      7.472
REMARK INTER + INTRA:          -8.933
REMARK INTER:                  -8.638
REMARK INTRA:                  -0.294
REMARK UNBOUND:                -0.273
REMARK SMILES O=c1cc(-c2ccc(O)c(O)c2)oc2cc(O)cc(O)c12
REMARK SMILES IDX 4 1 3 2 2 3 1 4 21 5 19 6 18 7 16 8 15 9 14 10 13 11 5 12
REMARK SMILES IDX 6 13 7 14 8 15 12 16 10 17 9 18 11 20 20 22 17 24
REMARK H PARENT 9 19 11 21 20 23 17 25
REMARK Flexibility Score: inf
ROOT
ATOM      1  C   UNL     1       7.096  46.318   3.957  1.00  0.00     0.138 A 
ATOM      2  C   UNL     1       8.457  46.362   3.623  1.00  0.00     0.100 A 
ATOM      3  C   UNL     1       8.851  46.912   2.403  1.00  0.00     0.197 A 
ATOM      4  O   UNL     1      10.083  46.995   2.158  1.00  0.00    -0.289 OA
ATOM      5  C   UNL     1       7.873  47.391   1.499  1.00  0.00     0.107 A 
ATOM      6  C   UNL     1       8.156  47.935   0.210  1.00  0.00     0.134 A 
ATOM      7  C   UNL     1       7.115  48.485  -0.549  1.00  0.00     0.093 A 
ATOM      8  C   UNL     1       5.796  48.456  -0.093  1.00  0.00     0.123 A 
ATOM      9  C   UNL     1       5.503  47.879   1.141  1.00  0.00     0.094 A 
ATOM     10  C   UNL     1       6.523  47.353   1.937  1.00  0.00     0.146 A 
ATOM     11  O   UNL     1       6.203  46.824   3.114  1.00  0.00    -0.456 OA
ENDROOT
BRANCH   1  12
ATOM     12  C   UNL     1       6.622  45.743   5.241  1.00  0.00     0.021 A 
ATOM     13  C   UNL     1       7.283  46.002   6.457  1.00  0.00     0.016 A 
ATOM     14  C   UNL     1       6.820  45.440   7.649  1.00  0.00     0.051 A 
ATOM     15  C   UNL     1       5.697  44.603   7.648  1.00  0.00     0.157 A 
ATOM     16  C   UNL     1       5.503  44.891   5.247  1.00  0.00     0.062 A 
ATOM     17  C   UNL     1       5.037  44.326   6.440  1.00  0.00     0.158 A 
BRANCH  15  18
ATOM     18  O   UNL     1       5.237  44.045   8.840  1.00  0.00    -0.504 OA
ATOM     19  H   UNL     1       4.377  44.359   9.276  1.00  0.00     0.293 HD
ENDBRANCH  15  18
BRANCH  17  20
ATOM     20  O   UNL     1       3.918  43.495   6.404  1.00  0.00    -0.504 OA
ATOM     21  H   UNL     1       3.762  42.834   5.652  1.00  0.00     0.293 HD
ENDBRANCH  17  20
ENDBRANCH   1  12
BRANCH   6  22
ATOM     22  O   UNL     1       9.425  47.938  -0.377  1.00  0.00    -0.507 OA
ATOM     23  H   UNL     1      10.284  47.729   0.108  1.00  0.00     0.293 HD
ENDBRANCH   6  22
BRANCH   8  24
ATOM     24  O   UNL     1       4.765  48.992  -0.862  1.00  0.00    -0.508 OA
ATOM     25  H   UNL     1       4.883  49.179  -1.851  1.00  0.00     0.293 HD
ENDBRANCH   8  24
TORSDOF 5
ENDMDL
MODEL 9
REMARK VINA RESULT:    -7.212      7.984     11.286
REMARK INTER + INTRA:          -8.750
REMARK INTER:                  -8.463
REMARK INTRA:                  -0.287
REMARK UNBOUND:                -0.273
REMARK SMILES O=c1cc(-c2ccc(O)c(O)c2)oc2cc(O)cc(O)c12
REMARK SMILES IDX 4 1 3 2 2 3 1 4 21 5 19 6 18 7 16 8 15 9 14 10 13 11 5 12
REMARK SMILES IDX 6 13 7 14 8 15 12 16 10 17 9 18 11 20 20 22 17 24
REMARK H PARENT 9 19 11 21 20 23 17 25
REMARK Flexibility Score: inf
ROOT
ATOM      1  C   UNL     1       8.932  47.093  -2.190  1.00  0.00     0.138 A 
ATOM      2  C   UNL     1       8.122  47.213  -1.052  1.00  0.00     0.100 A 
ATOM      3  C   UNL     1       8.667  47.705   0.134  1.00  0.00     0.197 A 
ATOM      4  O   UNL     1       7.900  47.861   1.120  1.00  0.00    -0.289 OA
ATOM      5  C   UNL     1      10.039  48.049   0.189  1.00  0.00     0.107 A 
ATOM      6  C   UNL     1      10.711  48.523   1.355  1.00  0.00     0.134 A 
ATOM      7  C   UNL     1      12.044  48.942   1.259  1.00  0.00     0.093 A 
ATOM      8  C   UNL     1      12.745  48.848   0.055  1.00  0.00     0.123 A 
ATOM      9  C   UNL     1      12.112  48.338  -1.076  1.00  0.00     0.094 A 
ATOM     10  C   UNL     1      10.773  47.943  -1.022  1.00  0.00     0.146 A 
ATOM     11  O   UNL     1      10.203  47.474  -2.127  1.00  0.00    -0.456 OA
ENDROOT
BRANCH   1  12
ATOM     12  C   UNL     1       8.404  46.574  -3.478  1.00  0.00     0.021 A 
ATOM     13  C   UNL     1       9.246  45.971  -4.432  1.00  0.00     0.016 A 
ATOM     14  C   UNL     1       8.724  45.500  -5.640  1.00  0.00     0.051 A 
ATOM     15  C   UNL     1       7.358  45.630  -5.920  1.00  0.00     0.157 A 
ATOM     16  C   UNL     1       7.037  46.714  -3.772  1.00  0.00     0.062 A 
ATOM     17  C   UNL     1       6.511  46.242  -4.981  1.00  0.00     0.158 A 
BRANCH  15  18
ATOM     18  O   UNL     1       6.841  45.159  -7.125  1.00  0.00    -0.504 OA
ATOM     19  H   UNL     1       6.777  44.166  -7.323  1.00  0.00     0.293 HD
ENDBRANCH  15  18
BRANCH  17  20
ATOM     20  O   UNL     1       5.147  46.391  -5.231  1.00  0.00    -0.504 OA
ATOM     21  H   UNL     1       4.492  46.648  -4.502  1.00  0.00     0.293 HD
ENDBRANCH  17  20
ENDBRANCH   1  12
BRANCH   6  22
ATOM     22  O   UNL     1      10.129  48.577   2.625  1.00  0.00    -0.507 OA
ATOM     23  H   UNL     1       9.452  47.918   2.978  1.00  0.00     0.293 HD
ENDBRANCH   6  22
BRANCH   8  24
ATOM     24  O   UNL     1      14.075  49.254  -0.027  1.00  0.00    -0.508 OA
ATOM     25  H   UNL     1      14.358  50.030  -0.615  1.00  0.00     0.293 HD
ENDBRANCH   8  24
TORSDOF 5
ENDMDL
