MODEL 1
REMARK VINA RESULT:     0.000      0.000      0.000
REMARK INTER + INTRA:          -1.848
REMARK INTER:                   0.000
REMARK INTRA:                  -1.848
REMARK UNBOUND:                -1.848
REMARK SMILES CCCCCCCCCCCC(=O)[O-]
REMARK SMILES IDX 7 1 8 2 9 3 10 4 11 5 12 6 13 7 14 8 6 9 5 10 4 11 3 12 2 13
REMARK SMILES IDX 1 14
REMARK H PARENT
REMARK Flexibility Score: inf
ROOT
ATOM      1  C   UNL     1     178.798 183.490 190.597  1.00  0.00     0.000 C 
ENDROOT
BRANCH   1   2
ATOM      2  C   UNL     1     177.927 184.658 190.108  1.00  0.00     0.000 C 
BRANCH   2   3
ATOM      3  C   UNL     1     176.422 184.369 190.245  1.00  0.00     0.000 C 
BRANCH   3   4
ATOM      4  C   UNL     1     176.136 183.111 191.082  1.00  0.00     0.006 C 
BRANCH   4   5
ATOM      5  C   UNL     1     175.525 183.439 192.450  1.00  0.00     0.053 C 
BRANCH   5   6
ATOM      6  C   UNL     1     176.215 182.666 193.528  1.00  0.00     0.041 C 
ATOM      7  O   UNL     1     177.098 181.816 193.234  1.00  0.00    -0.550 OA
ATOM      8  O   UNL     1     175.921 182.918 194.862  1.00  0.00    -0.550 OA
ENDBRANCH   5   6
ENDBRANCH   4   5
ENDBRANCH   3   4
ENDBRANCH   2   3
ENDBRANCH   1   2
BRANCH   1   9
ATOM      9  C   UNL     1     179.725 183.894 191.758  1.00  0.00     0.000 C 
BRANCH   9  10
ATOM     10  C   UNL     1     179.383 185.277 192.337  1.00  0.00    -0.000 C 
BRANCH  10  11
ATOM     11  C   UNL     1     178.841 185.196 193.775  1.00  0.00    -0.000 C 
BRANCH  11  12
ATOM     12  C   UNL     1     177.627 186.113 194.009  1.00  0.00    -0.000 C 
BRANCH  12  13
ATOM     13  C   UNL     1     177.303 187.074 192.851  1.00  0.00    -0.003 C 
ATOM     14  C   UNL     1     175.804 187.204 192.583  1.00  0.00     0.004 C 
ENDBRANCH  12  13
ENDBRANCH  11  12
ENDBRANCH  10  11
ENDBRANCH   9  10
ENDBRANCH   1   9
TORSDOF 10
ENDMDL
MODEL 2
REMARK VINA RESULT:     0.000      7.435      9.077
REMARK INTER + INTRA:          -1.847
REMARK INTER:                   0.000
REMARK INTRA:                  -1.847
REMARK UNBOUND:                -1.848
REMARK SMILES CCCCCCCCCCCC(=O)[O-]
REMARK SMILES IDX 7 1 8 2 9 3 10 4 11 5 12 6 13 7 14 8 6 9 5 10 4 11 3 12 2 13
REMARK SMILES IDX 1 14
REMARK H PARENT
REMARK Flexibility Score: inf
ROOT
ATOM      1  C   UNL     1     178.551 191.877 185.778  1.00  0.00     0.000 C 
ENDROOT
BRANCH   1   2
ATOM      2  C   UNL     1     179.582 190.946 186.436  1.00  0.00     0.000 C 
BRANCH   2   3
ATOM      3  C   UNL     1     179.102 190.400 187.791  1.00  0.00     0.000 C 
BRANCH   3   4
ATOM      4  C   UNL     1     177.601 190.637 188.025  1.00  0.00     0.006 C 
BRANCH   4   5
ATOM      5  C   UNL     1     176.775 189.350 187.899  1.00  0.00     0.053 C 
BRANCH   5   6
ATOM      6  C   UNL     1     175.582 189.580 187.027  1.00  0.00     0.041 C 
ATOM      7  O   UNL     1     175.290 190.745 186.646  1.00  0.00    -0.550 OA
ATOM      8  O   UNL     1     174.820 188.503 186.593  1.00  0.00    -0.550 OA
ENDBRANCH   5   6
ENDBRANCH   4   5
ENDBRANCH   3   4
ENDBRANCH   2   3
ENDBRANCH   1   2
BRANCH   1   9
ATOM      9  C   UNL     1     178.057 191.343 184.421  1.00  0.00     0.000 C 
BRANCH   9  10
ATOM     10  C   UNL     1     178.618 189.949 184.093  1.00  0.00    -0.000 C 
BRANCH  10  11
ATOM     11  C   UNL     1     177.514 188.887 183.953  1.00  0.00    -0.000 C 
BRANCH  11  12
ATOM     12  C   UNL     1     177.807 187.610 184.760  1.00  0.00    -0.000 C 
BRANCH  12  13
ATOM     13  C   UNL     1     179.257 187.470 185.256  1.00  0.00    -0.003 C 
ATOM     14  C   UNL     1     179.355 186.873 186.660  1.00  0.00     0.004 C 
ENDBRANCH  12  13
ENDBRANCH  11  12
ENDBRANCH  10  11
ENDBRANCH   9  10
ENDBRANCH   1   9
TORSDOF 10
ENDMDL
MODEL 3
REMARK VINA RESULT:     0.005      6.191      8.107
REMARK INTER + INTRA:          -1.841
REMARK INTER:                   0.000
REMARK INTRA:                  -1.841
REMARK UNBOUND:                -1.848
REMARK SMILES CCCCCCCCCCCC(=O)[O-]
REMARK SMILES IDX 7 1 8 2 9 3 10 4 11 5 12 6 13 7 14 8 6 9 5 10 4 11 3 12 2 13
REMARK SMILES IDX 1 14
REMARK H PARENT
REMARK Flexibility Score: inf
ROOT
ATOM      1  C   UNL     1     185.792 187.383 195.515  1.00  0.00     0.000 C 
ENDROOT
BRANCH   1   2
ATOM      2  C   UNL     1     184.379 187.918 195.797  1.00  0.00     0.000 C 
BRANCH   2   3
ATOM      3  C   UNL     1     183.682 187.166 196.945  1.00  0.00     0.000 C 
BRANCH   3   4
ATOM      4  C   UNL     1     184.445 185.901 197.371  1.00  0.00     0.006 C 
BRANCH   4   5
ATOM      5  C   UNL     1     183.704 184.611 196.996  1.00  0.00     0.053 C 
BRANCH   5   6
ATOM      6  C   UNL     1     184.636 183.648 196.334  1.00  0.00     0.041 C 
ATOM      7  O   UNL     1     184.188 182.607 195.783  1.00  0.00    -0.550 OA
ATOM      8  O   UNL     1     185.997 183.923 196.279  1.00  0.00    -0.550 OA
ENDBRANCH   5   6
ENDBRANCH   4   5
ENDBRANCH   3   4
ENDBRANCH   2   3
ENDBRANCH   1   2
BRANCH   1   9
ATOM      9  C   UNL     1     185.936 186.829 194.086  1.00  0.00     0.000 C 
BRANCH   9  10
ATOM     10  C   UNL     1     184.589 186.715 193.355  1.00  0.00    -0.000 C 
BRANCH  10  11
ATOM     11  C   UNL     1     184.201 185.256 193.057  1.00  0.00    -0.000 C 
BRANCH  11  12
ATOM     12  C   UNL     1     182.728 184.950 193.384  1.00  0.00    -0.000 C 
BRANCH  12  13
ATOM     13  C   UNL     1     181.868 186.179 193.728  1.00  0.00    -0.003 C 
ATOM     14  C   UNL     1     180.876 185.917 194.862  1.00  0.00     0.004 C 
ENDBRANCH  12  13
ENDBRANCH  11  12
ENDBRANCH  10  11
ENDBRANCH   9  10
ENDBRANCH   1   9
TORSDOF 10
ENDMDL
MODEL 4
REMARK VINA RESULT:     0.005      5.084      6.798
REMARK INTER + INTRA:          -1.840
REMARK INTER:                   0.000
REMARK INTRA:                  -1.840
REMARK UNBOUND:                -1.848
REMARK SMILES CCCCCCCCCCCC(=O)[O-]
REMARK SMILES IDX 7 1 8 2 9 3 10 4 11 5 12 6 13 7 14 8 6 9 5 10 4 11 3 12 2 13
REMARK SMILES IDX 1 14
REMARK H PARENT
REMARK Flexibility Score: inf
ROOT
ATOM      1  C   UNL     1     185.106 185.633 192.978  1.00  0.00     0.000 C 
ENDROOT
BRANCH   1   2
ATOM      2  C   UNL     1     184.519 186.882 193.655  1.00  0.00     0.000 C 
BRANCH   2   3
ATOM      3  C   UNL     1     183.051 186.690 194.074  1.00  0.00     0.000 C 
BRANCH   3   4
ATOM      4  C   UNL     1     182.440 185.398 193.507  1.00  0.00     0.006 C 
BRANCH   4   5
ATOM      5  C   UNL     1     181.396 185.669 192.415  1.00  0.00     0.053 C 
BRANCH   5   6
ATOM      6  C   UNL     1     181.656 184.808 191.221  1.00  0.00     0.041 C 
ATOM      7  O   UNL     1     182.516 183.890 191.275  1.00  0.00    -0.550 OA
ATOM      8  O   UNL     1     180.913 184.987 190.061  1.00  0.00    -0.550 OA
ENDBRANCH   5   6
ENDBRANCH   4   5
ENDBRANCH   3   4
ENDBRANCH   2   3
ENDBRANCH   1   2
BRANCH   1   9
ATOM      9  C   UNL     1     185.579 185.912 191.539  1.00  0.00     0.000 C 
BRANCH   9  10
ATOM     10  C   UNL     1     185.115 187.281 191.017  1.00  0.00    -0.000 C 
BRANCH  10  11
ATOM     11  C   UNL     1     184.108 187.161 189.860  1.00  0.00    -0.000 C 
BRANCH  11  12
ATOM     12  C   UNL     1     182.907 188.112 190.009  1.00  0.00    -0.000 C 
BRANCH  12  13
ATOM     13  C   UNL     1     183.039 189.156 191.133  1.00  0.00    -0.003 C 
ATOM     14  C   UNL     1     181.729 189.394 191.884  1.00  0.00     0.004 C 
ENDBRANCH  12  13
ENDBRANCH  11  12
ENDBRANCH  10  11
ENDBRANCH   9  10
ENDBRANCH   1   9
TORSDOF 10
ENDMDL
MODEL 5
REMARK VINA RESULT:     0.008      8.959     10.807
REMARK INTER + INTRA:          -1.834
REMARK INTER:                   0.000
REMARK INTRA:                  -1.834
REMARK UNBOUND:                -1.848
REMARK SMILES CCCCCCCCCCCC(=O)[O-]
REMARK SMILES IDX 7 1 8 2 9 3 10 4 11 5 12 6 13 7 14 8 6 9 5 10 4 11 3 12 2 13
REMARK SMILES IDX 1 14
REMARK H PARENT
REMARK Flexibility Score: inf
ROOT
ATOM      1  C   UNL     1     185.511 188.568 195.235  1.00  0.00     0.000 C 
ENDROOT
BRANCH   1   2
ATOM      2  C   UNL     1     187.016 188.880 195.244  1.00  0.00     0.000 C 
BRANCH   2   3
ATOM      3  C   UNL     1     187.644 188.793 193.843  1.00  0.00     0.000 C 
BRANCH   3   4
ATOM      4  C   UNL     1     186.727 188.093 192.827  1.00  0.00     0.006 C 
BRANCH   4   5
ATOM      5  C   UNL     1     187.243 186.705 192.424  1.00  0.00     0.053 C 
BRANCH   5   6
ATOM      6  C   UNL     1     186.129 185.708 192.445  1.00  0.00     0.041 C 
ATOM      7  O   UNL     1     184.972 186.057 192.800  1.00  0.00    -0.550 OA
ATOM      8  O   UNL     1     186.355 184.404 192.024  1.00  0.00    -0.550 OA
ENDBRANCH   5   6
ENDBRANCH   4   5
ENDBRANCH   3   4
ENDBRANCH   2   3
ENDBRANCH   1   2
BRANCH   1   9
ATOM      9  C   UNL     1     185.152 187.375 196.139  1.00  0.00     0.000 C 
BRANCH   9  10
ATOM     10  C   UNL     1     186.392 186.618 196.643  1.00  0.00    -0.000 C 
BRANCH  10  11
ATOM     11  C   UNL     1     186.494 185.199 196.057  1.00  0.00    -0.000 C 
BRANCH  11  12
ATOM     12  C   UNL     1     187.918 184.845 195.590  1.00  0.00    -0.000 C 
BRANCH  12  13
ATOM     13  C   UNL     1     189.010 185.841 196.019  1.00  0.00    -0.003 C 
ATOM     14  C   UNL     1     190.023 186.131 194.911  1.00  0.00     0.004 C 
ENDBRANCH  12  13
ENDBRANCH  11  12
ENDBRANCH  10  11
ENDBRANCH   9  10
ENDBRANCH   1   9
TORSDOF 10
ENDMDL
MODEL 6
REMARK VINA RESULT:     0.009      4.696      6.456
REMARK INTER + INTRA:          -1.834
REMARK INTER:                   0.000
REMARK INTRA:                  -1.834
REMARK UNBOUND:                -1.848
REMARK SMILES CCCCCCCCCCCC(=O)[O-]
REMARK SMILES IDX 7 1 8 2 9 3 10 4 11 5 12 6 13 7 14 8 6 9 5 10 4 11 3 12 2 13
REMARK SMILES IDX 1 14
REMARK H PARENT
REMARK Flexibility Score: inf
ROOT
ATOM      1  C   UNL     1     176.996 190.024 194.722  1.00  0.00     0.000 C 
ENDROOT
BRANCH   1   2
ATOM      2  C   UNL     1     178.027 189.301 193.841  1.00  0.00     0.000 C 
BRANCH   2   3
ATOM      3  C   UNL     1     177.486 187.983 193.261  1.00  0.00     0.000 C 
BRANCH   3   4
ATOM      4  C   UNL     1     175.966 187.838 193.443  1.00  0.00     0.006 C 
BRANCH   4   5
ATOM      5  C   UNL     1     175.198 187.976 192.122  1.00  0.00     0.053 C 
BRANCH   5   6
ATOM      6  C   UNL     1     174.032 188.895 192.291  1.00  0.00     0.041 C 
ATOM      7  O   UNL     1     173.319 189.205 191.299  1.00  0.00    -0.550 OA
ATOM      8  O   UNL     1     173.698 189.371 193.552  1.00  0.00    -0.550 OA
ENDBRANCH   5   6
ENDBRANCH   4   5
ENDBRANCH   3   4
ENDBRANCH   2   3
ENDBRANCH   1   2
BRANCH   1   9
ATOM      9  C   UNL     1     176.642 191.423 194.186  1.00  0.00     0.000 C 
BRANCH   9  10
ATOM     10  C   UNL     1     177.220 191.686 192.786  1.00  0.00    -0.000 C 
BRANCH  10  11
ATOM     11  C   UNL     1     176.126 191.837 191.715  1.00  0.00    -0.000 C 
BRANCH  11  12
ATOM     12  C   UNL     1     176.445 191.068 190.420  1.00  0.00    -0.000 C 
BRANCH  12  13
ATOM     13  C   UNL     1     177.873 190.501 190.334  1.00  0.00    -0.003 C 
ATOM     14  C   UNL     1     177.922 189.088 189.751  1.00  0.00     0.004 C 
ENDBRANCH  12  13
ENDBRANCH  11  12
ENDBRANCH  10  11
ENDBRANCH   9  10
ENDBRANCH   1   9
TORSDOF 10
ENDMDL
MODEL 7
REMARK VINA RESULT:     0.011      7.982     10.097
REMARK INTER + INTRA:          -1.831
REMARK INTER:                   0.000
REMARK INTRA:                  -1.831
REMARK UNBOUND:                -1.848
REMARK SMILES CCCCCCCCCCCC(=O)[O-]
REMARK SMILES IDX 7 1 8 2 9 3 10 4 11 5 12 6 13 7 14 8 6 9 5 10 4 11 3 12 2 13
REMARK SMILES IDX 1 14
REMARK H PARENT
REMARK Flexibility Score: inf
ROOT
ATOM      1  C   UNL     1     172.314 188.425 186.085  1.00  0.00     0.000 C 
ENDROOT
BRANCH   1   2
ATOM      2  C   UNL     1     173.754 188.846 186.418  1.00  0.00     0.000 C 
BRANCH   2   3
ATOM      3  C   UNL     1     174.581 187.697 187.019  1.00  0.00     0.000 C 
BRANCH   3   4
ATOM      4  C   UNL     1     175.945 187.529 186.330  1.00  0.00     0.006 C 
BRANCH   4   5
ATOM      5  C   UNL     1     176.339 188.754 185.494  1.00  0.00     0.053 C 
BRANCH   5   6
ATOM      6  C   UNL     1     177.079 188.330 184.266  1.00  0.00     0.041 C 
ATOM      7  O   UNL     1     177.576 187.175 184.191  1.00  0.00    -0.550 OA
ATOM      8  O   UNL     1     177.179 189.193 183.182  1.00  0.00    -0.550 OA
ENDBRANCH   5   6
ENDBRANCH   4   5
ENDBRANCH   3   4
ENDBRANCH   2   3
ENDBRANCH   1   2
BRANCH   1   9
ATOM      9  C   UNL     1     171.986 188.580 184.589  1.00  0.00     0.000 C 
BRANCH   9  10
ATOM     10  C   UNL     1     173.103 189.291 183.807  1.00  0.00    -0.000 C 
BRANCH  10  11
ATOM     11  C   UNL     1     173.708 188.405 182.704  1.00  0.00    -0.000 C 
BRANCH  11  12
ATOM     12  C   UNL     1     173.249 186.939 182.795  1.00  0.00    -0.000 C 
BRANCH  12  13
ATOM     13  C   UNL     1     174.297 185.963 183.361  1.00  0.00    -0.003 C 
ATOM     14  C   UNL     1     173.750 185.086 184.489  1.00  0.00     0.004 C 
ENDBRANCH  12  13
ENDBRANCH  11  12
ENDBRANCH  10  11
ENDBRANCH   9  10
ENDBRANCH   1   9
TORSDOF 10
ENDMDL
MODEL 8
REMARK VINA RESULT:     0.011      4.001      6.174
REMARK INTER + INTRA:          -1.830
REMARK INTER:                   0.000
REMARK INTRA:                  -1.830
REMARK UNBOUND:                -1.848
REMARK SMILES CCCCCCCCCCCC(=O)[O-]
REMARK SMILES IDX 7 1 8 2 9 3 10 4 11 5 12 6 13 7 14 8 6 9 5 10 4 11 3 12 2 13
REMARK SMILES IDX 1 14
REMARK H PARENT
REMARK Flexibility Score: inf
ROOT
ATOM      1  C   UNL     1     180.700 190.095 195.045  1.00  0.00     0.000 C 
ENDROOT
BRANCH   1   2
ATOM      2  C   UNL     1     181.895 189.239 195.493  1.00  0.00     0.000 C 
BRANCH   2   3
ATOM      3  C   UNL     1     181.984 187.906 194.731  1.00  0.00     0.000 C 
BRANCH   3   4
ATOM      4  C   UNL     1     181.828 186.686 195.654  1.00  0.00     0.006 C 
BRANCH   4   5
ATOM      5  C   UNL     1     180.502 185.946 195.435  1.00  0.00     0.053 C 
BRANCH   5   6
ATOM      6  C   UNL     1     179.536 186.270 196.530  1.00  0.00     0.041 C 
ATOM      7  O   UNL     1     179.942 186.807 197.595  1.00  0.00    -0.550 OA
ATOM      8  O   UNL     1     178.180 186.026 196.356  1.00  0.00    -0.550 OA
ENDBRANCH   5   6
ENDBRANCH   4   5
ENDBRANCH   3   4
ENDBRANCH   2   3
ENDBRANCH   1   2
BRANCH   1   9
ATOM      9  C   UNL     1     179.502 189.981 196.006  1.00  0.00     0.000 C 
BRANCH   9  10
ATOM     10  C   UNL     1     178.230 189.471 195.310  1.00  0.00    -0.000 C 
BRANCH  10  11
ATOM     11  C   UNL     1     178.402 189.341 193.787  1.00  0.00    -0.000 C 
BRANCH  11  12
ATOM     12  C   UNL     1     178.206 187.900 193.283  1.00  0.00    -0.000 C 
BRANCH  12  13
ATOM     13  C   UNL     1     179.231 187.432 192.234  1.00  0.00    -0.003 C 
ATOM     14  C   UNL     1     180.043 188.581 191.637  1.00  0.00     0.004 C 
ENDBRANCH  12  13
ENDBRANCH  11  12
ENDBRANCH  10  11
ENDBRANCH   9  10
ENDBRANCH   1   9
TORSDOF 10
ENDMDL
MODEL 9
REMARK VINA RESULT:     0.012      7.522      9.235
REMARK INTER + INTRA:          -1.829
REMARK INTER:                   0.000
REMARK INTRA:                  -1.829
REMARK UNBOUND:                -1.848
REMARK SMILES CCCCCCCCCCCC(=O)[O-]
REMARK SMILES IDX 7 1 8 2 9 3 10 4 11 5 12 6 13 7 14 8 6 9 5 10 4 11 3 12 2 13
REMARK SMILES IDX 1 14
REMARK H PARENT
REMARK Flexibility Score: inf
ROOT
ATOM      1  C   UNL     1     180.461 187.141 184.289  1.00  0.00     0.000 C 
ENDROOT
BRANCH   1   2
ATOM      2  C   UNL     1     180.744 185.774 184.931  1.00  0.00     0.000 C 
BRANCH   2   3
ATOM      3  C   UNL     1     182.221 185.602 185.325  1.00  0.00     0.000 C 
BRANCH   3   4
ATOM      4  C   UNL     1     182.408 185.396 186.837  1.00  0.00     0.006 C 
BRANCH   4   5
ATOM      5  C   UNL     1     183.045 186.612 187.524  1.00  0.00     0.053 C 
BRANCH   5   6
ATOM      6  C   UNL     1     182.004 187.408 188.243  1.00  0.00     0.041 C 
ATOM      7  O   UNL     1     182.245 188.591 188.602  1.00  0.00    -0.550 OA
ATOM      8  O   UNL     1     180.747 186.863 188.474  1.00  0.00    -0.550 OA
ENDBRANCH   5   6
ENDBRANCH   4   5
ENDBRANCH   3   4
ENDBRANCH   2   3
ENDBRANCH   1   2
BRANCH   1   9
ATOM      9  C   UNL     1     179.809 188.129 185.274  1.00  0.00     0.000 C 
BRANCH   9  10
ATOM     10  C   UNL     1     180.650 189.399 185.484  1.00  0.00    -0.000 C 
BRANCH  10  11
ATOM     11  C   UNL     1     181.843 189.483 184.517  1.00  0.00    -0.000 C 
BRANCH  11  12
ATOM     12  C   UNL     1     183.200 189.534 185.242  1.00  0.00    -0.000 C 
BRANCH  12  13
ATOM     13  C   UNL     1     184.297 188.641 184.636  1.00  0.00    -0.003 C 
ATOM     14  C   UNL     1     183.950 188.137 183.234  1.00  0.00     0.004 C 
ENDBRANCH  12  13
ENDBRANCH  11  12
ENDBRANCH  10  11
ENDBRANCH   9  10
ENDBRANCH   1   9
TORSDOF 10
ENDMDL
