MODEL 1
REMARK VINA RESULT:    -0.365      0.000      0.000
REMARK INTER + INTRA:          -2.947
REMARK INTER:                  -0.834
REMARK INTRA:                  -2.113
REMARK UNBOUND:                -2.113
REMARK SMILES CCCCCCCCCCCCCCCCCCCCCCCC(=O)[O-]
REMARK SMILES IDX 13 1 14 2 15 3 16 4 17 5 18 6 19 7 20 8 21 9 22 10 23 11
REMARK SMILES IDX 24 12 25 13 26 14 12 15 11 16 10 17 9 18 8 19 7 20 6 21 5 22
REMARK SMILES IDX 4 23 3 24 2 25 1 26
REMARK H PARENT
REMARK Flexibility Score: inf
ROOT
ATOM      1  C   UNL     1       9.369 -30.598  17.966  1.00  0.00     0.000 C 
ENDROOT
BRANCH   1   2
ATOM      2  C   UNL     1      10.795 -30.385  17.427  1.00  0.00     0.000 C 
BRANCH   2   3
ATOM      3  C   UNL     1      10.930 -30.435  15.891  1.00  0.00     0.000 C 
BRANCH   3   4
ATOM      4  C   UNL     1      10.528 -31.773  15.244  1.00  0.00     0.000 C 
BRANCH   4   5
ATOM      5  C   UNL     1       9.928 -31.600  13.839  1.00  0.00     0.000 C 
BRANCH   5   6
ATOM      6  C   UNL     1       9.897 -32.917  13.042  1.00  0.00     0.000 C 
BRANCH   6   7
ATOM      7  C   UNL     1      10.579 -34.111  13.739  1.00  0.00     0.000 C 
BRANCH   7   8
ATOM      8  C   UNL     1      11.598 -34.880  12.875  1.00  0.00     0.000 C 
BRANCH   8   9
ATOM      9  C   UNL     1      13.065 -34.454  13.068  1.00  0.00     0.000 C 
BRANCH   9  10
ATOM     10  C   UNL     1      13.203 -33.142  13.859  1.00  0.00     0.006 C 
BRANCH  10  11
ATOM     11  C   UNL     1      14.070 -32.110  13.126  1.00  0.00     0.053 C 
BRANCH  11  12
ATOM     12  C   UNL     1      14.109 -30.797  13.846  1.00  0.00     0.041 C 
ATOM     13  O   UNL     1      14.177 -29.719  13.195  1.00  0.00    -0.550 OA
ATOM     14  O   UNL     1      14.056 -30.761  15.234  1.00  0.00    -0.550 OA
ENDBRANCH  11  12
ENDBRANCH  10  11
ENDBRANCH   9  10
ENDBRANCH   8   9
ENDBRANCH   7   8
ENDBRANCH   6   7
ENDBRANCH   5   6
ENDBRANCH   4   5
ENDBRANCH   3   4
ENDBRANCH   2   3
ENDBRANCH   1   2
BRANCH   1  15
ATOM     15  C   UNL     1       9.267 -31.773  18.951  1.00  0.00     0.000 C 
BRANCH  15  16
ATOM     16  C   UNL     1       8.134 -32.727  18.546  1.00  0.00     0.000 C 
BRANCH  16  17
ATOM     17  C   UNL     1       8.295 -33.261  17.113  1.00  0.00     0.000 C 
BRANCH  17  18
ATOM     18  C   UNL     1       7.627 -32.358  16.067  1.00  0.00    -0.000 C 
BRANCH  18  19
ATOM     19  C   UNL     1       6.405 -33.053  15.448  1.00  0.00    -0.000 C 
BRANCH  19  20
ATOM     20  C   UNL     1       6.252 -32.760  13.948  1.00  0.00    -0.000 C 
BRANCH  20  21
ATOM     21  C   UNL     1       6.268 -34.036  13.093  1.00  0.00    -0.000 C 
BRANCH  21  22
ATOM     22  C   UNL     1       7.274 -35.053  13.646  1.00  0.00    -0.000 C 
BRANCH  22  23
ATOM     23  C   UNL     1       6.687 -36.473  13.625  1.00  0.00    -0.000 C 
BRANCH  23  24
ATOM     24  C   UNL     1       6.014 -36.863  14.954  1.00  0.00    -0.000 C 
BRANCH  24  25
ATOM     25  C   UNL     1       6.933 -36.808  16.187  1.00  0.00    -0.003 C 
ATOM     26  C   UNL     1       6.195 -37.086  17.496  1.00  0.00     0.004 C 
ENDBRANCH  24  25
ENDBRANCH  23  24
ENDBRANCH  22  23
ENDBRANCH  21  22
ENDBRANCH  20  21
ENDBRANCH  19  20
ENDBRANCH  18  19
ENDBRANCH  17  18
ENDBRANCH  16  17
ENDBRANCH  15  16
ENDBRANCH   1  15
TORSDOF 22
ENDMDL
MODEL 2
REMARK VINA RESULT:     0.534      1.485      3.974
REMARK INTER + INTRA:          -0.892
REMARK INTER:                   0.116
REMARK INTRA:                  -1.008
REMARK UNBOUND:                -2.113
REMARK SMILES CCCCCCCCCCCCCCCCCCCCCCCC(=O)[O-]
REMARK SMILES IDX 13 1 14 2 15 3 16 4 17 5 18 6 19 7 20 8 21 9 22 10 23 11
REMARK SMILES IDX 24 12 25 13 26 14 12 15 11 16 10 17 9 18 8 19 7 20 6 21 5 22
REMARK SMILES IDX 4 23 3 24 2 25 1 26
REMARK H PARENT
REMARK Flexibility Score: inf
ROOT
ATOM      1  C   UNL     1       8.367 -34.244  16.678  1.00  0.00     0.000 C 
ENDROOT
BRANCH   1   2
ATOM      2  C   UNL     1       7.982 -32.883  17.283  1.00  0.00     0.000 C 
BRANCH   2   3
ATOM      3  C   UNL     1       8.503 -32.628  18.712  1.00  0.00     0.000 C 
BRANCH   3   4
ATOM      4  C   UNL     1       8.664 -31.146  19.093  1.00  0.00     0.000 C 
BRANCH   4   5
ATOM      5  C   UNL     1       9.659 -30.401  18.188  1.00  0.00     0.000 C 
BRANCH   5   6
ATOM      6  C   UNL     1       9.893 -31.121  16.846  1.00  0.00     0.000 C 
BRANCH   6   7
ATOM      7  C   UNL     1      11.247 -30.814  16.175  1.00  0.00     0.000 C 
BRANCH   7   8
ATOM      8  C   UNL     1      11.430 -31.412  14.766  1.00  0.00     0.000 C 
BRANCH   8   9
ATOM      9  C   UNL     1      12.442 -30.671  13.873  1.00  0.00     0.000 C 
BRANCH   9  10
ATOM     10  C   UNL     1      13.899 -30.910  14.302  1.00  0.00     0.006 C 
BRANCH  10  11
ATOM     11  C   UNL     1      14.336 -29.963  15.428  1.00  0.00     0.053 C 
BRANCH  11  12
ATOM     12  C   UNL     1      15.262 -28.894  14.934  1.00  0.00     0.041 C 
ATOM     13  O   UNL     1      15.814 -29.005  13.806  1.00  0.00    -0.550 OA
ATOM     14  O   UNL     1      15.504 -27.768  15.711  1.00  0.00    -0.550 OA
ENDBRANCH  11  12
ENDBRANCH  10  11
ENDBRANCH   9  10
ENDBRANCH   8   9
ENDBRANCH   7   8
ENDBRANCH   6   7
ENDBRANCH   5   6
ENDBRANCH   4   5
ENDBRANCH   3   4
ENDBRANCH   2   3
ENDBRANCH   1   2
BRANCH   1  15
ATOM     15  C   UNL     1       8.170 -35.415  17.653  1.00  0.00     0.000 C 
BRANCH  15  16
ATOM     16  C   UNL     1       7.170 -36.435  17.087  1.00  0.00     0.000 C 
BRANCH  16  17
ATOM     17  C   UNL     1       6.648 -36.041  15.695  1.00  0.00     0.000 C 
BRANCH  17  18
ATOM     18  C   UNL     1       7.161 -36.969  14.586  1.00  0.00    -0.000 C 
BRANCH  18  19
ATOM     19  C   UNL     1       7.451 -36.175  13.303  1.00  0.00    -0.000 C 
BRANCH  19  20
ATOM     20  C   UNL     1       8.926 -36.253  12.878  1.00  0.00    -0.000 C 
BRANCH  20  21
ATOM     21  C   UNL     1       9.791 -35.177  13.551  1.00  0.00    -0.000 C 
BRANCH  21  22
ATOM     22  C   UNL     1       9.595 -33.814  12.875  1.00  0.00    -0.000 C 
BRANCH  22  23
ATOM     23  C   UNL     1       8.669 -32.916  13.709  1.00  0.00    -0.000 C 
BRANCH  23  24
ATOM     24  C   UNL     1       7.543 -32.277  12.875  1.00  0.00    -0.000 C 
BRANCH  24  25
ATOM     25  C   UNL     1       6.140 -32.855  13.132  1.00  0.00    -0.003 C 
ATOM     26  C   UNL     1       5.877 -33.152  14.607  1.00  0.00     0.004 C 
ENDBRANCH  24  25
ENDBRANCH  23  24
ENDBRANCH  22  23
ENDBRANCH  21  22
ENDBRANCH  20  21
ENDBRANCH  19  20
ENDBRANCH  18  19
ENDBRANCH  17  18
ENDBRANCH  16  17
ENDBRANCH  15  16
ENDBRANCH   1  15
TORSDOF 22
ENDMDL
MODEL 3
REMARK VINA RESULT:     0.767      2.555      7.969
REMARK INTER + INTRA:          -0.360
REMARK INTER:                   1.690
REMARK INTRA:                  -2.050
REMARK UNBOUND:                -2.113
REMARK SMILES CCCCCCCCCCCCCCCCCCCCCCCC(=O)[O-]
REMARK SMILES IDX 13 1 14 2 15 3 16 4 17 5 18 6 19 7 20 8 21 9 22 10 23 11
REMARK SMILES IDX 24 12 25 13 26 14 12 15 11 16 10 17 9 18 8 19 7 20 6 21 5 22
REMARK SMILES IDX 4 23 3 24 2 25 1 26
REMARK H PARENT
REMARK Flexibility Score: inf
ROOT
ATOM      1  C   UNL     1       7.719 -32.343  13.786  1.00  0.00     0.000 C 
ENDROOT
BRANCH   1   2
ATOM      2  C   UNL     1       6.448 -32.781  13.036  1.00  0.00     0.000 C 
BRANCH   2   3
ATOM      3  C   UNL     1       5.929 -34.190  13.391  1.00  0.00     0.000 C 
BRANCH   3   4
ATOM      4  C   UNL     1       6.795 -35.353  12.875  1.00  0.00     0.000 C 
BRANCH   4   5
ATOM      5  C   UNL     1       7.351 -36.231  14.008  1.00  0.00     0.000 C 
BRANCH   5   6
ATOM      6  C   UNL     1       6.246 -36.995  14.762  1.00  0.00     0.000 C 
BRANCH   6   7
ATOM      7  C   UNL     1       6.048 -36.565  16.229  1.00  0.00     0.000 C 
BRANCH   7   8
ATOM      8  C   UNL     1       6.636 -35.187  16.593  1.00  0.00     0.000 C 
BRANCH   8   9
ATOM      9  C   UNL     1       7.817 -35.226  17.580  1.00  0.00     0.000 C 
BRANCH   9  10
ATOM     10  C   UNL     1       8.866 -34.139  17.292  1.00  0.00     0.006 C 
BRANCH  10  11
ATOM     11  C   UNL     1       8.241 -32.741  17.193  1.00  0.00     0.053 C 
BRANCH  11  12
ATOM     12  C   UNL     1       9.215 -31.663  17.558  1.00  0.00     0.041 C 
ATOM     13  O   UNL     1       9.385 -31.344  18.766  1.00  0.00    -0.550 OA
ATOM     14  O   UNL     1       9.947 -31.019  16.567  1.00  0.00    -0.550 OA
ENDBRANCH  11  12
ENDBRANCH  10  11
ENDBRANCH   9  10
ENDBRANCH   8   9
ENDBRANCH   7   8
ENDBRANCH   6   7
ENDBRANCH   5   6
ENDBRANCH   4   5
ENDBRANCH   3   4
ENDBRANCH   2   3
ENDBRANCH   1   2
BRANCH   1  15
ATOM     15  C   UNL     1       8.986 -32.417  12.920  1.00  0.00     0.000 C 
BRANCH  15  16
ATOM     16  C   UNL     1       9.732 -33.739  13.157  1.00  0.00     0.000 C 
BRANCH  16  17
ATOM     17  C   UNL     1      11.239 -33.625  12.875  1.00  0.00     0.000 C 
BRANCH  17  18
ATOM     18  C   UNL     1      12.029 -33.098  14.081  1.00  0.00    -0.000 C 
BRANCH  18  19
ATOM     19  C   UNL     1      13.156 -32.158  13.625  1.00  0.00    -0.000 C 
BRANCH  19  20
ATOM     20  C   UNL     1      12.927 -30.703  14.059  1.00  0.00    -0.000 C 
BRANCH  20  21
ATOM     21  C   UNL     1      14.212 -30.027  14.561  1.00  0.00    -0.000 C 
BRANCH  21  22
ATOM     22  C   UNL     1      14.693 -28.960  13.570  1.00  0.00    -0.000 C 
BRANCH  22  23
ATOM     23  C   UNL     1      15.398 -27.808  14.301  1.00  0.00    -0.000 C 
BRANCH  23  24
ATOM     24  C   UNL     1      15.607 -28.090  15.801  1.00  0.00    -0.000 C 
BRANCH  24  25
ATOM     25  C   UNL     1      15.889 -26.845  16.660  1.00  0.00    -0.003 C 
ATOM     26  C   UNL     1      17.381 -26.575  16.850  1.00  0.00     0.004 C 
ENDBRANCH  24  25
ENDBRANCH  23  24
ENDBRANCH  22  23
ENDBRANCH  21  22
ENDBRANCH  20  21
ENDBRANCH  19  20
ENDBRANCH  18  19
ENDBRANCH  17  18
ENDBRANCH  16  17
ENDBRANCH  15  16
ENDBRANCH   1  15
TORSDOF 22
ENDMDL
MODEL 4
REMARK VINA RESULT:     1.028      5.854     11.280
REMARK INTER + INTRA:           0.237
REMARK INTER:                   1.452
REMARK INTRA:                  -1.215
REMARK UNBOUND:                -2.113
REMARK SMILES CCCCCCCCCCCCCCCCCCCCCCCC(=O)[O-]
REMARK SMILES IDX 13 1 14 2 15 3 16 4 17 5 18 6 19 7 20 8 21 9 22 10 23 11
REMARK SMILES IDX 24 12 25 13 26 14 12 15 11 16 10 17 9 18 8 19 7 20 6 21 5 22
REMARK SMILES IDX 4 23 3 24 2 25 1 26
REMARK H PARENT
REMARK Flexibility Score: inf
ROOT
ATOM      1  C   UNL     1      13.572 -30.779  14.552  1.00  0.00     0.000 C 
ENDROOT
BRANCH   1   2
ATOM      2  C   UNL     1      12.772 -31.797  13.720  1.00  0.00     0.000 C 
BRANCH   2   3
ATOM      3  C   UNL     1      11.252 -31.813  13.986  1.00  0.00     0.000 C 
BRANCH   3   4
ATOM      4  C   UNL     1      10.433 -32.703  13.035  1.00  0.00     0.000 C 
BRANCH   4   5
ATOM      5  C   UNL     1      10.286 -34.146  13.546  1.00  0.00     0.000 C 
BRANCH   5   6
ATOM      6  C   UNL     1       8.889 -34.733  13.270  1.00  0.00     0.000 C 
BRANCH   6   7
ATOM      7  C   UNL     1       7.737 -33.708  13.312  1.00  0.00     0.000 C 
BRANCH   7   8
ATOM      8  C   UNL     1       6.913 -33.702  14.615  1.00  0.00     0.000 C 
BRANCH   8   9
ATOM      9  C   UNL     1       7.053 -32.426  15.465  1.00  0.00     0.000 C 
BRANCH   9  10
ATOM     10  C   UNL     1       8.449 -32.281  16.092  1.00  0.00     0.006 C 
BRANCH  10  11
ATOM     11  C   UNL     1       8.449 -32.608  17.592  1.00  0.00     0.053 C 
BRANCH  11  12
ATOM     12  C   UNL     1       9.195 -31.583  18.390  1.00  0.00     0.041 C 
ATOM     13  O   UNL     1       9.124 -31.585  19.648  1.00  0.00    -0.550 OA
ATOM     14  O   UNL     1       9.980 -30.634  17.746  1.00  0.00    -0.550 OA
ENDBRANCH  11  12
ENDBRANCH  10  11
ENDBRANCH   9  10
ENDBRANCH   8   9
ENDBRANCH   7   8
ENDBRANCH   6   7
ENDBRANCH   5   6
ENDBRANCH   4   5
ENDBRANCH   3   4
ENDBRANCH   2   3
ENDBRANCH   1   2
BRANCH   1  15
ATOM     15  C   UNL     1      14.625 -30.023  13.728  1.00  0.00     0.000 C 
BRANCH  15  16
ATOM     16  C   UNL     1      14.673 -28.541  14.131  1.00  0.00     0.000 C 
BRANCH  16  17
ATOM     17  C   UNL     1      15.513 -28.299  15.396  1.00  0.00     0.000 C 
BRANCH  17  18
ATOM     18  C   UNL     1      16.030 -26.858  15.497  1.00  0.00    -0.000 C 
BRANCH  18  19
ATOM     19  C   UNL     1      16.810 -26.650  16.804  1.00  0.00    -0.000 C 
BRANCH  19  20
ATOM     20  C   UNL     1      18.117 -25.870  16.597  1.00  0.00    -0.000 C 
BRANCH  20  21
ATOM     21  C   UNL     1      17.907 -24.561  15.821  1.00  0.00    -0.000 C 
BRANCH  21  22
ATOM     22  C   UNL     1      19.082 -23.600  16.038  1.00  0.00    -0.000 C 
BRANCH  22  23
ATOM     23  C   UNL     1      18.939 -22.350  15.157  1.00  0.00    -0.000 C 
BRANCH  23  24
ATOM     24  C   UNL     1      19.951 -21.245  15.515  1.00  0.00    -0.000 C 
BRANCH  24  25
ATOM     25  C   UNL     1      19.364 -19.824  15.576  1.00  0.00    -0.003 C 
ATOM     26  C   UNL     1      19.914 -18.904  14.487  1.00  0.00     0.004 C 
ENDBRANCH  24  25
ENDBRANCH  23  24
ENDBRANCH  22  23
ENDBRANCH  21  22
ENDBRANCH  20  21
ENDBRANCH  19  20
ENDBRANCH  18  19
ENDBRANCH  17  18
ENDBRANCH  16  17
ENDBRANCH  15  16
ENDBRANCH   1  15
TORSDOF 22
ENDMDL
MODEL 5
REMARK VINA RESULT:     1.052     16.586     20.790
REMARK INTER + INTRA:           0.292
REMARK INTER:                   1.271
REMARK INTRA:                  -0.978
REMARK UNBOUND:                -2.113
REMARK SMILES CCCCCCCCCCCCCCCCCCCCCCCC(=O)[O-]
REMARK SMILES IDX 13 1 14 2 15 3 16 4 17 5 18 6 19 7 20 8 21 9 22 10 23 11
REMARK SMILES IDX 24 12 25 13 26 14 12 15 11 16 10 17 9 18 8 19 7 20 6 21 5 22
REMARK SMILES IDX 4 23 3 24 2 25 1 26
REMARK H PARENT
REMARK Flexibility Score: inf
ROOT
ATOM      1  C   UNL     1      17.402 -28.831  30.777  1.00  0.00     0.000 C 
ENDROOT
BRANCH   1   2
ATOM      2  C   UNL     1      16.388 -29.983  30.653  1.00  0.00     0.000 C 
BRANCH   2   3
ATOM      3  C   UNL     1      16.525 -31.095  31.713  1.00  0.00     0.000 C 
BRANCH   3   4
ATOM      4  C   UNL     1      15.209 -31.789  32.104  1.00  0.00     0.000 C 
BRANCH   4   5
ATOM      5  C   UNL     1      15.413 -33.243  32.561  1.00  0.00     0.000 C 
BRANCH   5   6
ATOM      6  C   UNL     1      14.273 -34.173  32.106  1.00  0.00     0.000 C 
BRANCH   6   7
ATOM      7  C   UNL     1      14.102 -35.449  32.953  1.00  0.00     0.000 C 
BRANCH   7   8
ATOM      8  C   UNL     1      14.733 -36.722  32.355  1.00  0.00     0.000 C 
BRANCH   8   9
ATOM      9  C   UNL     1      16.265 -36.680  32.207  1.00  0.00     0.000 C 
BRANCH   9  10
ATOM     10  C   UNL     1      16.727 -36.889  30.756  1.00  0.00     0.006 C 
BRANCH  10  11
ATOM     11  C   UNL     1      16.528 -35.634  29.896  1.00  0.00     0.053 C 
BRANCH  11  12
ATOM     12  C   UNL     1      17.507 -35.569  28.763  1.00  0.00     0.041 C 
ATOM     13  O   UNL     1      18.555 -34.878  28.870  1.00  0.00    -0.550 OA
ATOM     14  O   UNL     1      17.269 -36.283  27.595  1.00  0.00    -0.550 OA
ENDBRANCH  11  12
ENDBRANCH  10  11
ENDBRANCH   9  10
ENDBRANCH   8   9
ENDBRANCH   7   8
ENDBRANCH   6   7
ENDBRANCH   5   6
ENDBRANCH   4   5
ENDBRANCH   3   4
ENDBRANCH   2   3
ENDBRANCH   1   2
BRANCH   1  15
ATOM     15  C   UNL     1      17.160 -27.703  29.762  1.00  0.00     0.000 C 
BRANCH  15  16
ATOM     16  C   UNL     1      16.915 -26.367  30.479  1.00  0.00     0.000 C 
BRANCH  16  17
ATOM     17  C   UNL     1      18.221 -25.632  30.821  1.00  0.00     0.000 C 
BRANCH  17  18
ATOM     18  C   UNL     1      17.981 -24.325  31.591  1.00  0.00    -0.000 C 
BRANCH  18  19
ATOM     19  C   UNL     1      19.162 -23.360  31.404  1.00  0.00    -0.000 C 
BRANCH  19  20
ATOM     20  C   UNL     1      20.290 -23.599  32.419  1.00  0.00    -0.000 C 
BRANCH  20  21
ATOM     21  C   UNL     1      21.112 -22.331  32.697  1.00  0.00    -0.000 C 
BRANCH  21  22
ATOM     22  C   UNL     1      22.242 -22.176  31.672  1.00  0.00    -0.000 C 
BRANCH  22  23
ATOM     23  C   UNL     1      22.909 -20.798  31.795  1.00  0.00    -0.000 C 
BRANCH  23  24
ATOM     24  C   UNL     1      24.213 -20.688  30.983  1.00  0.00    -0.000 C 
BRANCH  24  25
ATOM     25  C   UNL     1      24.624 -21.973  30.242  1.00  0.00    -0.003 C 
ATOM     26  C   UNL     1      24.858 -21.752  28.748  1.00  0.00     0.004 C 
ENDBRANCH  24  25
ENDBRANCH  23  24
ENDBRANCH  22  23
ENDBRANCH  21  22
ENDBRANCH  20  21
ENDBRANCH  19  20
ENDBRANCH  18  19
ENDBRANCH  17  18
ENDBRANCH  16  17
ENDBRANCH  15  16
ENDBRANCH   1  15
TORSDOF 22
ENDMDL
MODEL 6
REMARK VINA RESULT:     1.106      6.669      8.962
REMARK INTER + INTRA:           0.414
REMARK INTER:                   1.700
REMARK INTRA:                  -1.286
REMARK UNBOUND:                -2.113
REMARK SMILES CCCCCCCCCCCCCCCCCCCCCCCC(=O)[O-]
REMARK SMILES IDX 13 1 14 2 15 3 16 4 17 5 18 6 19 7 20 8 21 9 22 10 23 11
REMARK SMILES IDX 24 12 25 13 26 14 12 15 11 16 10 17 9 18 8 19 7 20 6 21 5 22
REMARK SMILES IDX 4 23 3 24 2 25 1 26
REMARK H PARENT
REMARK Flexibility Score: inf
ROOT
ATOM      1  C   UNL     1      14.463 -30.202  14.947  1.00  0.00     0.000 C 
ENDROOT
BRANCH   1   2
ATOM      2  C   UNL     1      14.779 -28.828  14.330  1.00  0.00     0.000 C 
BRANCH   2   3
ATOM      3  C   UNL     1      15.974 -28.084  14.962  1.00  0.00     0.000 C 
BRANCH   3   4
ATOM      4  C   UNL     1      15.647 -27.295  16.243  1.00  0.00     0.000 C 
BRANCH   4   5
ATOM      5  C   UNL     1      16.858 -26.524  16.794  1.00  0.00     0.000 C 
BRANCH   5   6
ATOM      6  C   UNL     1      17.369 -25.448  15.819  1.00  0.00     0.000 C 
BRANCH   6   7
ATOM      7  C   UNL     1      18.592 -24.651  16.317  1.00  0.00     0.000 C 
BRANCH   7   8
ATOM      8  C   UNL     1      18.691 -23.206  15.791  1.00  0.00     0.000 C 
BRANCH   8   9
ATOM      9  C   UNL     1      20.070 -22.544  15.968  1.00  0.00     0.000 C 
BRANCH   9  10
ATOM     10  C   UNL     1      20.230 -21.270  15.123  1.00  0.00     0.006 C 
BRANCH  10  11
ATOM     11  C   UNL     1      19.010 -20.345  15.229  1.00  0.00     0.053 C 
BRANCH  11  12
ATOM     12  C   UNL     1      19.406 -18.903  15.328  1.00  0.00     0.041 C 
ATOM     13  O   UNL     1      19.603 -18.376  16.456  1.00  0.00    -0.550 OA
ATOM     14  O   UNL     1      19.570 -18.145  14.175  1.00  0.00    -0.550 OA
ENDBRANCH  11  12
ENDBRANCH  10  11
ENDBRANCH   9  10
ENDBRANCH   8   9
ENDBRANCH   7   8
ENDBRANCH   6   7
ENDBRANCH   5   6
ENDBRANCH   4   5
ENDBRANCH   3   4
ENDBRANCH   2   3
ENDBRANCH   1   2
BRANCH   1  15
ATOM     15  C   UNL     1      13.678 -31.122  13.999  1.00  0.00     0.000 C 
BRANCH  15  16
ATOM     16  C   UNL     1      12.186 -31.135  14.364  1.00  0.00     0.000 C 
BRANCH  16  17
ATOM     17  C   UNL     1      11.453 -32.367  13.809  1.00  0.00     0.000 C 
BRANCH  17  18
ATOM     18  C   UNL     1      10.107 -32.014  13.160  1.00  0.00    -0.000 C 
BRANCH  18  19
ATOM     19  C   UNL     1       9.017 -33.006  13.592  1.00  0.00    -0.000 C 
BRANCH  19  20
ATOM     20  C   UNL     1       7.663 -32.327  13.846  1.00  0.00    -0.000 C 
BRANCH  20  21
ATOM     21  C   UNL     1       7.129 -32.587  15.263  1.00  0.00    -0.000 C 
BRANCH  21  22
ATOM     22  C   UNL     1       7.751 -33.856  15.859  1.00  0.00    -0.000 C 
BRANCH  22  23
ATOM     23  C   UNL     1       8.713 -33.509  17.005  1.00  0.00    -0.000 C 
BRANCH  23  24
ATOM     24  C   UNL     1       8.261 -32.280  17.816  1.00  0.00    -0.000 C 
BRANCH  24  25
ATOM     25  C   UNL     1       9.406 -31.417  18.375  1.00  0.00    -0.003 C 
ATOM     26  C   UNL     1      10.240 -30.750  17.282  1.00  0.00     0.004 C 
ENDBRANCH  24  25
ENDBRANCH  23  24
ENDBRANCH  22  23
ENDBRANCH  21  22
ENDBRANCH  20  21
ENDBRANCH  19  20
ENDBRANCH  18  19
ENDBRANCH  17  18
ENDBRANCH  16  17
ENDBRANCH  15  16
ENDBRANCH   1  15
TORSDOF 22
ENDMDL
MODEL 7
REMARK VINA RESULT:     1.323      1.926      4.885
REMARK INTER + INTRA:           0.910
REMARK INTER:                   1.413
REMARK INTRA:                  -0.503
REMARK UNBOUND:                -2.113
REMARK SMILES CCCCCCCCCCCCCCCCCCCCCCCC(=O)[O-]
REMARK SMILES IDX 13 1 14 2 15 3 16 4 17 5 18 6 19 7 20 8 21 9 22 10 23 11
REMARK SMILES IDX 24 12 25 13 26 14 12 15 11 16 10 17 9 18 8 19 7 20 6 21 5 22
REMARK SMILES IDX 4 23 3 24 2 25 1 26
REMARK H PARENT
REMARK Flexibility Score: inf
ROOT
ATOM      1  C   UNL     1       8.520 -36.297  14.287  1.00  0.00     0.000 C 
ENDROOT
BRANCH   1   2
ATOM      2  C   UNL     1       9.205 -35.219  13.428  1.00  0.00     0.000 C 
BRANCH   2   3
ATOM      3  C   UNL     1      10.732 -35.374  13.276  1.00  0.00     0.000 C 
BRANCH   3   4
ATOM      4  C   UNL     1      11.481 -34.091  12.875  1.00  0.00     0.000 C 
BRANCH   4   5
ATOM      5  C   UNL     1      12.999 -34.191  13.098  1.00  0.00     0.000 C 
BRANCH   5   6
ATOM      6  C   UNL     1      13.615 -32.867  13.588  1.00  0.00     0.000 C 
BRANCH   6   7
ATOM      7  C   UNL     1      12.643 -31.944  14.349  1.00  0.00     0.000 C 
BRANCH   7   8
ATOM      8  C   UNL     1      13.146 -30.505  14.574  1.00  0.00     0.000 C 
BRANCH   8   9
ATOM      9  C   UNL     1      14.067 -29.959  13.468  1.00  0.00     0.000 C 
BRANCH   9  10
ATOM     10  C   UNL     1      15.263 -29.172  14.027  1.00  0.00     0.006 C 
BRANCH  10  11
ATOM     11  C   UNL     1      15.012 -28.668  15.454  1.00  0.00     0.053 C 
BRANCH  11  12
ATOM     12  C   UNL     1      15.768 -27.408  15.746  1.00  0.00     0.041 C 
ATOM     13  O   UNL     1      16.534 -27.345  16.746  1.00  0.00    -0.550 OA
ATOM     14  O   UNL     1      15.640 -26.308  14.906  1.00  0.00    -0.550 OA
ENDBRANCH  11  12
ENDBRANCH  10  11
ENDBRANCH   9  10
ENDBRANCH   8   9
ENDBRANCH   7   8
ENDBRANCH   6   7
ENDBRANCH   5   6
ENDBRANCH   4   5
ENDBRANCH   3   4
ENDBRANCH   2   3
ENDBRANCH   1   2
BRANCH   1  15
ATOM     15  C   UNL     1       7.394 -35.738  15.171  1.00  0.00     0.000 C 
BRANCH  15  16
ATOM     16  C   UNL     1       6.020 -36.005  14.539  1.00  0.00     0.000 C 
BRANCH  16  17
ATOM     17  C   UNL     1       5.892 -35.407  13.128  1.00  0.00     0.000 C 
BRANCH  17  18
ATOM     18  C   UNL     1       6.448 -33.978  13.038  1.00  0.00    -0.000 C 
BRANCH  18  19
ATOM     19  C   UNL     1       5.875 -33.100  14.161  1.00  0.00    -0.000 C 
BRANCH  19  20
ATOM     20  C   UNL     1       6.945 -32.655  15.170  1.00  0.00    -0.000 C 
BRANCH  20  21
ATOM     21  C   UNL     1       8.091 -31.875  14.509  1.00  0.00    -0.000 C 
BRANCH  21  22
ATOM     22  C   UNL     1       9.437 -32.225  15.156  1.00  0.00    -0.000 C 
BRANCH  22  23
ATOM     23  C   UNL     1       9.596 -31.518  16.510  1.00  0.00    -0.000 C 
BRANCH  23  24
ATOM     24  C   UNL     1       8.737 -32.150  17.621  1.00  0.00    -0.000 C 
BRANCH  24  25
ATOM     25  C   UNL     1       8.491 -31.247  18.842  1.00  0.00    -0.003 C 
ATOM     26  C   UNL     1       9.521 -31.450  19.953  1.00  0.00     0.004 C 
ENDBRANCH  24  25
ENDBRANCH  23  24
ENDBRANCH  22  23
ENDBRANCH  21  22
ENDBRANCH  20  21
ENDBRANCH  19  20
ENDBRANCH  18  19
ENDBRANCH  17  18
ENDBRANCH  16  17
ENDBRANCH  15  16
ENDBRANCH   1  15
TORSDOF 22
ENDMDL
MODEL 8
REMARK VINA RESULT:     1.772      2.844      7.987
REMARK INTER + INTRA:           1.938
REMARK INTER:                   3.772
REMARK INTRA:                  -1.834
REMARK UNBOUND:                -2.113
REMARK SMILES CCCCCCCCCCCCCCCCCCCCCCCC(=O)[O-]
REMARK SMILES IDX 13 1 14 2 15 3 16 4 17 5 18 6 19 7 20 8 21 9 22 10 23 11
REMARK SMILES IDX 24 12 25 13 26 14 12 15 11 16 10 17 9 18 8 19 7 20 6 21 5 22
REMARK SMILES IDX 4 23 3 24 2 25 1 26
REMARK H PARENT
REMARK Flexibility Score: inf
ROOT
ATOM      1  C   UNL     1      10.938 -35.230  13.722  1.00  0.00     0.000 C 
ENDROOT
BRANCH   1   2
ATOM      2  C   UNL     1      10.595 -36.471  12.879  1.00  0.00     0.000 C 
BRANCH   2   3
ATOM      3  C   UNL     1       9.202 -37.079  13.141  1.00  0.00     0.000 C 
BRANCH   3   4
ATOM      4  C   UNL     1       8.017 -36.133  12.875  1.00  0.00     0.000 C 
BRANCH   4   5
ATOM      5  C   UNL     1       6.684 -36.683  13.407  1.00  0.00     0.000 C 
BRANCH   5   6
ATOM      6  C   UNL     1       6.083 -35.805  14.521  1.00  0.00     0.000 C 
BRANCH   6   7
ATOM      7  C   UNL     1       6.910 -35.755  15.822  1.00  0.00     0.000 C 
BRANCH   7   8
ATOM      8  C   UNL     1       8.045 -34.713  15.838  1.00  0.00     0.000 C 
BRANCH   8   9
ATOM      9  C   UNL     1       7.638 -33.302  15.375  1.00  0.00     0.000 C 
BRANCH   9  10
ATOM     10  C   UNL     1       7.418 -32.333  16.547  1.00  0.00     0.006 C 
BRANCH  10  11
ATOM     11  C   UNL     1       8.739 -31.892  17.192  1.00  0.00     0.053 C 
BRANCH  11  12
ATOM     12  C   UNL     1       8.612 -31.729  18.676  1.00  0.00     0.041 C 
ATOM     13  O   UNL     1       8.375 -32.729  19.406  1.00  0.00    -0.550 OA
ATOM     14  O   UNL     1       8.771 -30.476  19.256  1.00  0.00    -0.550 OA
ENDBRANCH  11  12
ENDBRANCH  10  11
ENDBRANCH   9  10
ENDBRANCH   8   9
ENDBRANCH   7   8
ENDBRANCH   6   7
ENDBRANCH   5   6
ENDBRANCH   4   5
ENDBRANCH   3   4
ENDBRANCH   2   3
ENDBRANCH   1   2
BRANCH   1  15
ATOM     15  C   UNL     1      11.107 -33.957  12.880  1.00  0.00     0.000 C 
BRANCH  15  16
ATOM     16  C   UNL     1       9.813 -33.129  12.875  1.00  0.00     0.000 C 
BRANCH  16  17
ATOM     17  C   UNL     1      10.023 -31.702  13.407  1.00  0.00     0.000 C 
BRANCH  17  18
ATOM     18  C   UNL     1      10.735 -31.675  14.767  1.00  0.00    -0.000 C 
BRANCH  18  19
ATOM     19  C   UNL     1      11.994 -30.797  14.705  1.00  0.00    -0.000 C 
BRANCH  19  20
ATOM     20  C   UNL     1      13.195 -31.526  14.084  1.00  0.00    -0.000 C 
BRANCH  20  21
ATOM     21  C   UNL     1      14.461 -30.656  14.051  1.00  0.00    -0.000 C 
BRANCH  21  22
ATOM     22  C   UNL     1      14.121 -29.210  13.667  1.00  0.00    -0.000 C 
BRANCH  22  23
ATOM     23  C   UNL     1      15.296 -28.270  13.977  1.00  0.00    -0.000 C 
BRANCH  23  24
ATOM     24  C   UNL     1      15.573 -28.134  15.485  1.00  0.00    -0.000 C 
BRANCH  24  25
ATOM     25  C   UNL     1      15.923 -26.710  15.954  1.00  0.00    -0.003 C 
ATOM     26  C   UNL     1      16.614 -26.683  17.316  1.00  0.00     0.004 C 
ENDBRANCH  24  25
ENDBRANCH  23  24
ENDBRANCH  22  23
ENDBRANCH  21  22
ENDBRANCH  20  21
ENDBRANCH  19  20
ENDBRANCH  18  19
ENDBRANCH  17  18
ENDBRANCH  16  17
ENDBRANCH  15  16
ENDBRANCH   1  15
TORSDOF 22
ENDMDL
