MODEL 1
REMARK VINA RESULT:    -5.558      0.000      0.000
REMARK INTER + INTRA:          -9.232
REMARK INTER:                  -7.994
REMARK INTRA:                  -1.238
REMARK UNBOUND:                -1.238
REMARK SMILES O=c1cc(-c2ccc(O)c(O)c2)oc2cc(O[C@@H]3O[C@@H](CO)[C@H](O)[C@@H](O)[C@@H]3O)cc(O)c12
REMARK SMILES IDX 17 1 16 2 4 3 3 4 13 5 2 6 14 7 1 8 32 9 15 10 30 11 29 12
REMARK SMILES IDX 5 13 6 14 7 15 8 16 12 17 10 18 9 19 11 21 31 23 18 25 27 26
REMARK SMILES IDX 19 27 25 28 20 29 23 30 28 31 26 33 21 35 22 36 24 38
REMARK H PARENT 9 20 11 22 31 24 28 32 26 34 22 37 24 39
REMARK Flexibility Score: inf
ROOT
ATOM      1  O   UNL     1       2.172  -4.599  -5.330  1.00  0.00    -0.462 OA
ENDROOT
BRANCH   1   2
ATOM      2  C   UNL     1       1.260  -5.202  -6.183  1.00  0.00     0.130 A 
ATOM      3  C   UNL     1      -2.910  -3.422  -5.766  1.00  0.00     0.138 A 
ATOM      4  C   UNL     1      -2.804  -2.744  -7.007  1.00  0.00     0.100 A 
ATOM      5  O   UNL     1      -2.071  -4.436  -5.506  1.00  0.00    -0.456 OA
ATOM      6  C   UNL     1      -1.794  -3.134  -7.915  1.00  0.00     0.197 A 
ATOM      7  C   UNL     1      -1.044  -4.733  -6.261  1.00  0.00     0.146 A 
ATOM      8  O   UNL     1      -1.642  -2.464  -8.971  1.00  0.00    -0.289 OA
ATOM      9  C   UNL     1      -0.878  -4.134  -7.543  1.00  0.00     0.107 A 
ATOM     10  C   UNL     1      -0.006  -5.465  -5.676  1.00  0.00     0.094 A 
ATOM     11  C   UNL     1       0.291  -4.432  -8.264  1.00  0.00     0.134 A 
ATOM     12  C   UNL     1       1.375  -4.959  -7.562  1.00  0.00     0.093 A 
BRANCH   3  13
ATOM     13  C   UNL     1      -3.855  -3.015  -4.677  1.00  0.00     0.021 A 
ATOM     14  C   UNL     1      -4.553  -1.793  -4.778  1.00  0.00     0.016 A 
ATOM     15  C   UNL     1      -5.620  -1.504  -3.896  1.00  0.00     0.051 A 
ATOM     16  C   UNL     1      -5.951  -2.399  -2.876  1.00  0.00     0.157 A 
ATOM     17  C   UNL     1      -4.185  -3.883  -3.627  1.00  0.00     0.062 A 
ATOM     18  C   UNL     1      -5.145  -3.533  -2.676  1.00  0.00     0.158 A 
BRANCH  16  19
ATOM     19  O   UNL     1      -7.087  -2.172  -2.090  1.00  0.00    -0.504 OA
ATOM     20  H   UNL     1      -7.048  -1.580  -1.259  1.00  0.00     0.293 HD
ENDBRANCH  16  19
BRANCH  18  21
ATOM     21  O   UNL     1      -5.363  -4.392  -1.586  1.00  0.00    -0.504 OA
ATOM     22  H   UNL     1      -5.832  -5.284  -1.693  1.00  0.00     0.293 HD
ENDBRANCH  18  21
ENDBRANCH   3  13
BRANCH  11  23
ATOM     23  O   UNL     1       0.442  -4.167  -9.627  1.00  0.00    -0.507 OA
ATOM     24  H   UNL     1       0.820  -4.865 -10.257  1.00  0.00     0.293 HD
ENDBRANCH  11  23
ENDBRANCH   1   2
BRANCH   1  25
ATOM     25  C   UNL     1       3.205  -3.712  -5.742  1.00  0.00     0.339 C 
ATOM     26  C   UNL     1       3.041  -2.339  -5.019  1.00  0.00     0.214 C 
ATOM     27  O   UNL     1       4.488  -4.268  -5.504  1.00  0.00    -0.332 OA
ATOM     28  C   UNL     1       3.342  -2.515  -3.510  1.00  0.00     0.180 C 
ATOM     29  C   UNL     1       4.736  -4.501  -4.123  1.00  0.00     0.179 C 
ATOM     30  C   UNL     1       4.722  -3.181  -3.336  1.00  0.00     0.177 C 
BRANCH  26  31
ATOM     31  O   UNL     1       1.734  -1.867  -5.191  1.00  0.00    -0.384 OA
ATOM     32  H   UNL     1       1.375  -2.243  -6.038  1.00  0.00     0.211 HD
ENDBRANCH  26  31
BRANCH  28  33
ATOM     33  O   UNL     1       3.336  -1.313  -2.780  1.00  0.00    -0.387 OA
ATOM     34  H   UNL     1       4.286  -1.064  -2.569  1.00  0.00     0.211 HD
ENDBRANCH  28  33
BRANCH  29  35
ATOM     35  C   UNL     1       6.093  -5.232  -3.971  1.00  0.00     0.191 C 
BRANCH  35  36
ATOM     36  O   UNL     1       6.139  -5.931  -2.747  1.00  0.00    -0.394 OA
ATOM     37  H   UNL     1       5.284  -6.461  -2.673  1.00  0.00     0.210 HD
ENDBRANCH  35  36
ENDBRANCH  29  35
BRANCH  30  38
ATOM     38  O   UNL     1       4.920  -3.447  -1.971  1.00  0.00    -0.387 OA
ATOM     39  H   UNL     1       4.039  -3.388  -1.522  1.00  0.00     0.211 HD
ENDBRANCH  30  38
ENDBRANCH   1  25
TORSDOF 11
ENDMDL
MODEL 2
REMARK VINA RESULT:    -5.543      2.131      7.839
REMARK INTER + INTRA:          -9.211
REMARK INTER:                  -7.965
REMARK INTRA:                  -1.246
REMARK UNBOUND:                -1.238
REMARK SMILES O=c1cc(-c2ccc(O)c(O)c2)oc2cc(O[C@@H]3O[C@@H](CO)[C@H](O)[C@@H](O)[C@@H]3O)cc(O)c12
REMARK SMILES IDX 17 1 16 2 4 3 3 4 13 5 2 6 14 7 1 8 32 9 15 10 30 11 29 12
REMARK SMILES IDX 5 13 6 14 7 15 8 16 12 17 10 18 9 19 11 21 31 23 18 25 27 26
REMARK SMILES IDX 19 27 25 28 20 29 23 30 28 31 26 33 21 35 22 36 24 38
REMARK H PARENT 9 20 11 22 31 24 28 32 26 34 22 37 24 39
REMARK Flexibility Score: inf
ROOT
ATOM      1  O   UNL     1      -3.463  -2.741  -5.429  1.00  0.00    -0.462 OA
ENDROOT
BRANCH   1   2
ATOM      2  C   UNL     1      -3.024  -2.018  -6.529  1.00  0.00     0.130 A 
ATOM      3  C   UNL     1       1.505  -2.161  -6.975  1.00  0.00     0.138 A 
ATOM      4  C   UNL     1       1.422  -3.037  -8.086  1.00  0.00     0.100 A 
ATOM      5  O   UNL     1       0.416  -1.468  -6.612  1.00  0.00    -0.456 OA
ATOM      6  C   UNL     1       0.186  -3.180  -8.754  1.00  0.00     0.197 A 
ATOM      7  C   UNL     1      -0.773  -1.675  -7.120  1.00  0.00     0.146 A 
ATOM      8  O   UNL     1       0.094  -4.033  -9.677  1.00  0.00    -0.289 OA
ATOM      9  C   UNL     1      -0.948  -2.506  -8.263  1.00  0.00     0.107 A 
ATOM     10  C   UNL     1      -1.875  -1.254  -6.370  1.00  0.00     0.094 A 
ATOM     11  C   UNL     1      -2.258  -2.756  -8.704  1.00  0.00     0.134 A 
ATOM     12  C   UNL     1      -3.304  -2.519  -7.811  1.00  0.00     0.093 A 
BRANCH   3  13
ATOM     13  C   UNL     1       2.725  -2.026  -6.114  1.00  0.00     0.021 A 
ATOM     14  C   UNL     1       3.914  -1.507  -6.665  1.00  0.00     0.016 A 
ATOM     15  C   UNL     1       4.993  -1.144  -5.826  1.00  0.00     0.051 A 
ATOM     16  C   UNL     1       4.913  -1.358  -4.447  1.00  0.00     0.157 A 
ATOM     17  C   UNL     1       2.679  -2.260  -4.733  1.00  0.00     0.062 A 
ATOM     18  C   UNL     1       3.794  -2.030  -3.925  1.00  0.00     0.158 A 
BRANCH  16  19
ATOM     19  O   UNL     1       5.926  -0.879  -3.608  1.00  0.00    -0.504 OA
ATOM     20  H   UNL     1       6.709  -1.472  -3.329  1.00  0.00     0.293 HD
ENDBRANCH  16  19
BRANCH  18  21
ATOM     21  O   UNL     1       3.730  -2.379  -2.566  1.00  0.00    -0.504 OA
ATOM     22  H   UNL     1       2.851  -2.596  -2.110  1.00  0.00     0.293 HD
ENDBRANCH  18  21
ENDBRANCH   3  13
BRANCH  11  23
ATOM     23  O   UNL     1      -2.559  -3.287  -9.960  1.00  0.00    -0.507 OA
ATOM     24  H   UNL     1      -1.869  -3.303 -10.702  1.00  0.00     0.293 HD
ENDBRANCH  11  23
ENDBRANCH   1   2
BRANCH   1  25
ATOM     25  C   UNL     1      -3.854  -4.108  -5.460  1.00  0.00     0.339 C 
ATOM     26  C   UNL     1      -3.016  -4.919  -4.425  1.00  0.00     0.214 C 
ATOM     27  O   UNL     1      -5.245  -4.252  -5.222  1.00  0.00    -0.332 OA
ATOM     28  C   UNL     1      -3.421  -4.495  -2.991  1.00  0.00     0.180 C 
ATOM     29  C   UNL     1      -5.630  -3.791  -3.933  1.00  0.00     0.179 C 
ATOM     30  C   UNL     1      -4.949  -4.620  -2.832  1.00  0.00     0.177 C 
BRANCH  26  31
ATOM     31  O   UNL     1      -1.652  -4.676  -4.624  1.00  0.00    -0.384 OA
ATOM     32  H   UNL     1      -1.159  -5.527  -4.480  1.00  0.00     0.211 HD
ENDBRANCH  26  31
BRANCH  28  33
ATOM     33  O   UNL     1      -2.807  -5.249  -1.974  1.00  0.00    -0.387 OA
ATOM     34  H   UNL     1      -3.508  -5.508  -1.304  1.00  0.00     0.211 HD
ENDBRANCH  28  33
BRANCH  29  35
ATOM     35  C   UNL     1      -7.173  -3.857  -3.814  1.00  0.00     0.191 C 
BRANCH  35  36
ATOM     36  O   UNL     1      -7.617  -3.057  -2.743  1.00  0.00    -0.394 OA
ATOM     37  H   UNL     1      -8.137  -2.288  -3.138  1.00  0.00     0.210 HD
ENDBRANCH  35  36
ENDBRANCH  29  35
BRANCH  30  38
ATOM     38  O   UNL     1      -5.309  -4.110  -1.573  1.00  0.00    -0.387 OA
ATOM     39  H   UNL     1      -6.251  -4.367  -1.403  1.00  0.00     0.211 HD
ENDBRANCH  30  38
ENDBRANCH   1  25
TORSDOF 11
ENDMDL
MODEL 3
REMARK VINA RESULT:    -5.470      4.462      6.125
REMARK INTER + INTRA:          -9.105
REMARK INTER:                  -7.973
REMARK INTRA:                  -1.132
REMARK UNBOUND:                -1.238
REMARK SMILES O=c1cc(-c2ccc(O)c(O)c2)oc2cc(O[C@@H]3O[C@@H](CO)[C@H](O)[C@@H](O)[C@@H]3O)cc(O)c12
REMARK SMILES IDX 17 1 16 2 4 3 3 4 13 5 2 6 14 7 1 8 32 9 15 10 30 11 29 12
REMARK SMILES IDX 5 13 6 14 7 15 8 16 12 17 10 18 9 19 11 21 31 23 18 25 27 26
REMARK SMILES IDX 19 27 25 28 20 29 23 30 28 31 26 33 21 35 22 36 24 38
REMARK H PARENT 9 20 11 22 31 24 28 32 26 34 22 37 24 39
REMARK Flexibility Score: inf
ROOT
ATOM      1  O   UNL     1      -2.663  -6.767  -5.349  1.00  0.00    -0.462 OA
ENDROOT
BRANCH   1   2
ATOM      2  C   UNL     1      -3.039  -5.938  -6.396  1.00  0.00     0.130 A 
ATOM      3  C   UNL     1      -5.584  -2.438  -4.980  1.00  0.00     0.138 A 
ATOM      4  C   UNL     1      -4.519  -1.519  -5.162  1.00  0.00     0.100 A 
ATOM      5  O   UNL     1      -5.523  -3.631  -5.589  1.00  0.00    -0.456 OA
ATOM      6  C   UNL     1      -3.411  -1.904  -5.948  1.00  0.00     0.197 A 
ATOM      7  C   UNL     1      -4.457  -4.070  -6.210  1.00  0.00     0.146 A 
ATOM      8  O   UNL     1      -2.425  -1.123  -6.024  1.00  0.00    -0.289 OA
ATOM      9  C   UNL     1      -3.355  -3.208  -6.475  1.00  0.00     0.107 A 
ATOM     10  C   UNL     1      -4.340  -5.452  -6.387  1.00  0.00     0.094 A 
ATOM     11  C   UNL     1      -2.209  -3.764  -7.068  1.00  0.00     0.134 A 
ATOM     12  C   UNL     1      -2.050  -5.149  -7.009  1.00  0.00     0.093 A 
BRANCH   3  13
ATOM     13  C   UNL     1      -6.747  -2.190  -4.068  1.00  0.00     0.021 A 
ATOM     14  C   UNL     1      -8.014  -2.715  -4.393  1.00  0.00     0.016 A 
ATOM     15  C   UNL     1      -9.060  -2.704  -3.440  1.00  0.00     0.051 A 
ATOM     16  C   UNL     1      -8.863  -2.115  -2.189  1.00  0.00     0.157 A 
ATOM     17  C   UNL     1      -6.583  -1.577  -2.818  1.00  0.00     0.062 A 
ATOM     18  C   UNL     1      -7.654  -1.445  -1.933  1.00  0.00     0.158 A 
BRANCH  16  19
ATOM     19  O   UNL     1      -9.853  -2.222  -1.205  1.00  0.00    -0.504 OA
ATOM     20  H   UNL     1     -10.752  -1.749  -1.304  1.00  0.00     0.293 HD
ENDBRANCH  16  19
BRANCH  18  21
ATOM     21  O   UNL     1      -7.462  -0.731  -0.739  1.00  0.00    -0.504 OA
ATOM     22  H   UNL     1      -8.051   0.054  -0.484  1.00  0.00     0.293 HD
ENDBRANCH  18  21
ENDBRANCH   3  13
BRANCH  11  23
ATOM     23  O   UNL     1      -1.197  -3.000  -7.651  1.00  0.00    -0.507 OA
ATOM     24  H   UNL     1      -0.845  -2.163  -7.200  1.00  0.00     0.293 HD
ENDBRANCH  11  23
ENDBRANCH   1   2
BRANCH   1  25
ATOM     25  C   UNL     1      -3.481  -7.786  -4.787  1.00  0.00     0.339 C 
ATOM     26  C   UNL     1      -2.626  -8.686  -3.843  1.00  0.00     0.214 C 
ATOM     27  O   UNL     1      -4.595  -7.235  -4.103  1.00  0.00    -0.332 OA
ATOM     28  C   UNL     1      -2.213  -7.871  -2.592  1.00  0.00     0.180 C 
ATOM     29  C   UNL     1      -4.213  -6.423  -3.000  1.00  0.00     0.179 C 
ATOM     30  C   UNL     1      -3.468  -7.255  -1.943  1.00  0.00     0.177 C 
BRANCH  26  31
ATOM     31  O   UNL     1      -1.484  -9.132  -4.518  1.00  0.00    -0.384 OA
ATOM     32  H   UNL     1      -1.522 -10.124  -4.575  1.00  0.00     0.211 HD
ENDBRANCH  26  31
BRANCH  28  33
ATOM     33  O   UNL     1      -1.534  -8.622  -1.616  1.00  0.00    -0.387 OA
ATOM     34  H   UNL     1      -2.195  -9.228  -1.165  1.00  0.00     0.211 HD
ENDBRANCH  28  33
BRANCH  29  35
ATOM     35  C   UNL     1      -5.477  -5.757  -2.402  1.00  0.00     0.191 C 
BRANCH  35  36
ATOM     36  O   UNL     1      -5.143  -4.531  -1.791  1.00  0.00    -0.394 OA
ATOM     37  H   UNL     1      -4.769  -3.931  -2.510  1.00  0.00     0.210 HD
ENDBRANCH  35  36
ENDBRANCH  29  35
BRANCH  30  38
ATOM     38  O   UNL     1      -3.061  -6.417  -0.891  1.00  0.00    -0.387 OA
ATOM     39  H   UNL     1      -2.921  -6.986  -0.092  1.00  0.00     0.211 HD
ENDBRANCH  30  38
ENDBRANCH   1  25
TORSDOF 11
ENDMDL
MODEL 4
REMARK VINA RESULT:    -5.388      1.317      1.673
REMARK INTER + INTRA:          -8.989
REMARK INTER:                  -8.034
REMARK INTRA:                  -0.954
REMARK UNBOUND:                -1.238
REMARK SMILES O=c1cc(-c2ccc(O)c(O)c2)oc2cc(O[C@@H]3O[C@@H](CO)[C@H](O)[C@@H](O)[C@@H]3O)cc(O)c12
REMARK SMILES IDX 17 1 16 2 4 3 3 4 13 5 2 6 14 7 1 8 32 9 15 10 30 11 29 12
REMARK SMILES IDX 5 13 6 14 7 15 8 16 12 17 10 18 9 19 11 21 31 23 18 25 27 26
REMARK SMILES IDX 19 27 25 28 20 29 23 30 28 31 26 33 21 35 22 36 24 38
REMARK H PARENT 9 20 11 22 31 24 28 32 26 34 22 37 24 39
REMARK Flexibility Score: inf
ROOT
ATOM      1  O   UNL     1       1.962  -3.816  -5.637  1.00  0.00    -0.462 OA
ENDROOT
BRANCH   1   2
ATOM      2  C   UNL     1       1.063  -4.192  -6.625  1.00  0.00     0.130 A 
ATOM      3  C   UNL     1      -3.137  -2.643  -5.794  1.00  0.00     0.138 A 
ATOM      4  C   UNL     1      -3.038  -1.666  -6.817  1.00  0.00     0.100 A 
ATOM      5  O   UNL     1      -2.283  -3.677  -5.799  1.00  0.00    -0.456 OA
ATOM      6  C   UNL     1      -2.018  -1.792  -7.786  1.00  0.00     0.197 A 
ATOM      7  C   UNL     1      -1.248  -3.753  -6.597  1.00  0.00     0.146 A 
ATOM      8  O   UNL     1      -1.873  -0.869  -8.632  1.00  0.00    -0.289 OA
ATOM      9  C   UNL     1      -1.086  -2.840  -7.679  1.00  0.00     0.107 A 
ATOM     10  C   UNL     1      -0.200  -4.595  -6.213  1.00  0.00     0.094 A 
ATOM     11  C   UNL     1       0.089  -2.923  -8.443  1.00  0.00     0.134 A 
ATOM     12  C   UNL     1       1.180  -3.598  -7.893  1.00  0.00     0.093 A 
BRANCH   3  13
ATOM     13  C   UNL     1      -4.093  -2.545  -4.644  1.00  0.00     0.021 A 
ATOM     14  C   UNL     1      -4.969  -1.444  -4.556  1.00  0.00     0.016 A 
ATOM     15  C   UNL     1      -6.035  -1.450  -3.626  1.00  0.00     0.051 A 
ATOM     16  C   UNL     1      -6.191  -2.523  -2.744  1.00  0.00     0.157 A 
ATOM     17  C   UNL     1      -4.251  -3.595  -3.729  1.00  0.00     0.062 A 
ATOM     18  C   UNL     1      -5.218  -3.537  -2.724  1.00  0.00     0.158 A 
BRANCH  16  19
ATOM     19  O   UNL     1      -7.319  -2.587  -1.918  1.00  0.00    -0.504 OA
ATOM     20  H   UNL     1      -7.243  -2.853  -0.936  1.00  0.00     0.293 HD
ENDBRANCH  16  19
BRANCH  18  21
ATOM     21  O   UNL     1      -5.265  -4.565  -1.769  1.00  0.00    -0.504 OA
ATOM     22  H   UNL     1      -4.885  -4.449  -0.837  1.00  0.00     0.293 HD
ENDBRANCH  18  21
ENDBRANCH   3  13
BRANCH  11  23
ATOM     23  O   UNL     1       0.241  -2.313  -9.690  1.00  0.00    -0.507 OA
ATOM     24  H   UNL     1       0.966  -2.610 -10.334  1.00  0.00     0.293 HD
ENDBRANCH  11  23
ENDBRANCH   1   2
BRANCH   1  25
ATOM     25  C   UNL     1       2.785  -2.656  -5.687  1.00  0.00     0.339 C 
ATOM     26  C   UNL     1       3.268  -2.291  -4.250  1.00  0.00     0.214 C 
ATOM     27  O   UNL     1       3.883  -2.840  -6.567  1.00  0.00    -0.332 OA
ATOM     28  C   UNL     1       4.257  -3.374  -3.750  1.00  0.00     0.180 C 
ATOM     29  C   UNL     1       4.750  -3.886  -6.149  1.00  0.00     0.179 C 
ATOM     30  C   UNL     1       5.382  -3.559  -4.787  1.00  0.00     0.177 C 
BRANCH  26  31
ATOM     31  O   UNL     1       2.170  -2.216  -3.385  1.00  0.00    -0.384 OA
ATOM     32  H   UNL     1       2.153  -1.308  -2.979  1.00  0.00     0.211 HD
ENDBRANCH  26  31
BRANCH  28  33
ATOM     33  O   UNL     1       4.845  -3.083  -2.505  1.00  0.00    -0.387 OA
ATOM     34  H   UNL     1       5.397  -3.872  -2.222  1.00  0.00     0.211 HD
ENDBRANCH  28  33
BRANCH  29  35
ATOM     35  C   UNL     1       5.834  -4.107  -7.234  1.00  0.00     0.191 C 
BRANCH  35  36
ATOM     36  O   UNL     1       7.061  -3.549  -6.821  1.00  0.00    -0.394 OA
ATOM     37  H   UNL     1       7.566  -3.287  -7.654  1.00  0.00     0.210 HD
ENDBRANCH  35  36
ENDBRANCH  29  35
BRANCH  30  38
ATOM     38  O   UNL     1       6.194  -4.630  -4.377  1.00  0.00    -0.387 OA
ATOM     39  H   UNL     1       5.603  -5.322  -3.985  1.00  0.00     0.211 HD
ENDBRANCH  30  38
ENDBRANCH   1  25
TORSDOF 11
ENDMDL
MODEL 5
REMARK VINA RESULT:    -5.346      4.916      7.331
REMARK INTER + INTRA:          -8.927
REMARK INTER:                  -7.607
REMARK INTRA:                  -1.320
REMARK UNBOUND:                -1.238
REMARK SMILES O=c1cc(-c2ccc(O)c(O)c2)oc2cc(O[C@@H]3O[C@@H](CO)[C@H](O)[C@@H](O)[C@@H]3O)cc(O)c12
REMARK SMILES IDX 17 1 16 2 4 3 3 4 13 5 2 6 14 7 1 8 32 9 15 10 30 11 29 12
REMARK SMILES IDX 5 13 6 14 7 15 8 16 12 17 10 18 9 19 11 21 31 23 18 25 27 26
REMARK SMILES IDX 19 27 25 28 20 29 23 30 28 31 26 33 21 35 22 36 24 38
REMARK H PARENT 9 20 11 22 31 24 28 32 26 34 22 37 24 39
REMARK Flexibility Score: inf
ROOT
ATOM      1  O   UNL     1      -4.761  -3.404  -6.067  1.00  0.00    -0.462 OA
ENDROOT
BRANCH   1   2
ATOM      2  C   UNL     1      -4.773  -3.298  -7.450  1.00  0.00     0.130 A 
ATOM      3  C   UNL     1      -4.504   1.029  -8.840  1.00  0.00     0.138 A 
ATOM      4  C   UNL     1      -3.161   0.867  -9.263  1.00  0.00     0.100 A 
ATOM      5  O   UNL     1      -5.260  -0.061  -8.645  1.00  0.00    -0.456 OA
ATOM      6  C   UNL     1      -2.649  -0.439  -9.430  1.00  0.00     0.197 A 
ATOM      7  C   UNL     1      -4.783  -1.281  -8.660  1.00  0.00     0.146 A 
ATOM      8  O   UNL     1      -1.429  -0.577  -9.709  1.00  0.00    -0.289 OA
ATOM      9  C   UNL     1      -3.458  -1.545  -9.110  1.00  0.00     0.107 A 
ATOM     10  C   UNL     1      -5.523  -2.269  -8.002  1.00  0.00     0.094 A 
ATOM     11  C   UNL     1      -2.980  -2.863  -9.018  1.00  0.00     0.134 A 
ATOM     12  C   UNL     1      -3.645  -3.741  -8.161  1.00  0.00     0.093 A 
BRANCH   3  13
ATOM     13  C   UNL     1      -5.115   2.357  -8.507  1.00  0.00     0.021 A 
ATOM     14  C   UNL     1      -4.488   3.542  -8.944  1.00  0.00     0.016 A 
ATOM     15  C   UNL     1      -5.163   4.782  -8.857  1.00  0.00     0.051 A 
ATOM     16  C   UNL     1      -6.433   4.852  -8.278  1.00  0.00     0.157 A 
ATOM     17  C   UNL     1      -6.375   2.456  -7.903  1.00  0.00     0.062 A 
ATOM     18  C   UNL     1      -6.980   3.697  -7.693  1.00  0.00     0.158 A 
BRANCH  16  19
ATOM     19  O   UNL     1      -7.149   6.054  -8.311  1.00  0.00    -0.504 OA
ATOM     20  H   UNL     1      -7.678   6.333  -9.139  1.00  0.00     0.293 HD
ENDBRANCH  16  19
BRANCH  18  21
ATOM     21  O   UNL     1      -8.194   3.748  -6.989  1.00  0.00    -0.504 OA
ATOM     22  H   UNL     1      -9.014   3.239  -7.299  1.00  0.00     0.293 HD
ENDBRANCH  18  21
ENDBRANCH   3  13
BRANCH  11  23
ATOM     23  O   UNL     1      -1.842  -3.317  -9.687  1.00  0.00    -0.507 OA
ATOM     24  H   UNL     1      -0.912  -3.111  -9.340  1.00  0.00     0.293 HD
ENDBRANCH  11  23
ENDBRANCH   1   2
BRANCH   1  25
ATOM     25  C   UNL     1      -3.767  -2.842  -5.218  1.00  0.00     0.339 C 
ATOM     26  C   UNL     1      -4.434  -1.864  -4.202  1.00  0.00     0.214 C 
ATOM     27  O   UNL     1      -3.028  -3.852  -4.550  1.00  0.00    -0.332 OA
ATOM     28  C   UNL     1      -5.299  -2.672  -3.203  1.00  0.00     0.180 C 
ATOM     29  C   UNL     1      -3.837  -4.644  -3.691  1.00  0.00     0.179 C 
ATOM     30  C   UNL     1      -4.443  -3.786  -2.568  1.00  0.00     0.177 C 
BRANCH  26  31
ATOM     31  O   UNL     1      -5.235  -0.942  -4.887  1.00  0.00    -0.384 OA
ATOM     32  H   UNL     1      -5.056  -1.035  -5.860  1.00  0.00     0.211 HD
ENDBRANCH  26  31
BRANCH  28  33
ATOM     33  O   UNL     1      -5.855  -1.898  -2.169  1.00  0.00    -0.387 OA
ATOM     34  H   UNL     1      -6.386  -2.504  -1.569  1.00  0.00     0.211 HD
ENDBRANCH  28  33
BRANCH  29  35
ATOM     35  C   UNL     1      -2.980  -5.799  -3.116  1.00  0.00     0.191 C 
BRANCH  35  36
ATOM     36  O   UNL     1      -2.304  -5.377  -1.953  1.00  0.00    -0.394 OA
ATOM     37  H   UNL     1      -1.746  -6.154  -1.632  1.00  0.00     0.210 HD
ENDBRANCH  35  36
ENDBRANCH  29  35
BRANCH  30  38
ATOM     38  O   UNL     1      -5.275  -4.585  -1.766  1.00  0.00    -0.387 OA
ATOM     39  H   UNL     1      -5.962  -4.989  -2.354  1.00  0.00     0.211 HD
ENDBRANCH  30  38
ENDBRANCH   1  25
TORSDOF 11
ENDMDL
MODEL 6
REMARK VINA RESULT:    -5.299      1.594      2.775
REMARK INTER + INTRA:          -8.860
REMARK INTER:                  -7.614
REMARK INTRA:                  -1.246
REMARK UNBOUND:                -1.238
REMARK SMILES O=c1cc(-c2ccc(O)c(O)c2)oc2cc(O[C@@H]3O[C@@H](CO)[C@H](O)[C@@H](O)[C@@H]3O)cc(O)c12
REMARK SMILES IDX 17 1 16 2 4 3 3 4 13 5 2 6 14 7 1 8 32 9 15 10 30 11 29 12
REMARK SMILES IDX 5 13 6 14 7 15 8 16 12 17 10 18 9 19 11 21 31 23 18 25 27 26
REMARK SMILES IDX 19 27 25 28 20 29 23 30 28 31 26 33 21 35 22 36 24 38
REMARK H PARENT 9 20 11 22 31 24 28 32 26 34 22 37 24 39
REMARK Flexibility Score: inf
ROOT
ATOM      1  O   UNL     1       2.308  -3.534  -6.843  1.00  0.00    -0.462 OA
ENDROOT
BRANCH   1   2
ATOM      2  C   UNL     1       1.366  -3.509  -7.861  1.00  0.00     0.130 A 
ATOM      3  C   UNL     1      -2.800  -2.520  -6.312  1.00  0.00     0.138 A 
ATOM      4  C   UNL     1      -2.755  -1.215  -6.864  1.00  0.00     0.100 A 
ATOM      5  O   UNL     1      -1.941  -3.446  -6.762  1.00  0.00    -0.456 OA
ATOM      6  C   UNL     1      -1.782  -0.921  -7.844  1.00  0.00     0.197 A 
ATOM      7  C   UNL     1      -0.944  -3.174  -7.567  1.00  0.00     0.146 A 
ATOM      8  O   UNL     1      -1.683   0.265  -8.257  1.00  0.00    -0.289 OA
ATOM      9  C   UNL     1      -0.840  -1.902  -8.201  1.00  0.00     0.107 A 
ATOM     10  C   UNL     1       0.125  -4.073  -7.593  1.00  0.00     0.094 A 
ATOM     11  C   UNL     1       0.299  -1.646  -8.983  1.00  0.00     0.134 A 
ATOM     12  C   UNL     1       1.418  -2.457  -8.792  1.00  0.00     0.093 A 
BRANCH   3  13
ATOM     13  C   UNL     1      -3.701  -2.912  -5.180  1.00  0.00     0.021 A 
ATOM     14  C   UNL     1      -3.670  -4.232  -4.687  1.00  0.00     0.016 A 
ATOM     15  C   UNL     1      -4.323  -4.560  -3.475  1.00  0.00     0.051 A 
ATOM     16  C   UNL     1      -5.058  -3.589  -2.789  1.00  0.00     0.157 A 
ATOM     17  C   UNL     1      -4.470  -1.964  -4.491  1.00  0.00     0.062 A 
ATOM     18  C   UNL     1      -5.224  -2.321  -3.372  1.00  0.00     0.158 A 
BRANCH  16  19
ATOM     19  O   UNL     1      -5.592  -3.882  -1.529  1.00  0.00    -0.504 OA
ATOM     20  H   UNL     1      -6.600  -3.947  -1.381  1.00  0.00     0.293 HD
ENDBRANCH  16  19
BRANCH  18  21
ATOM     21  O   UNL     1      -6.058  -1.358  -2.781  1.00  0.00    -0.504 OA
ATOM     22  H   UNL     1      -6.090  -1.220  -1.777  1.00  0.00     0.293 HD
ENDBRANCH  18  21
ENDBRANCH   3  13
BRANCH  11  23
ATOM     23  O   UNL     1       0.388  -0.588  -9.888  1.00  0.00    -0.507 OA
ATOM     24  H   UNL     1       0.078  -0.690 -10.848  1.00  0.00     0.293 HD
ENDBRANCH  11  23
ENDBRANCH   1   2
BRANCH   1  25
ATOM     25  C   UNL     1       2.175  -4.267  -5.631  1.00  0.00     0.339 C 
ATOM     26  C   UNL     1       3.274  -5.371  -5.560  1.00  0.00     0.214 C 
ATOM     27  O   UNL     1       2.232  -3.411  -4.502  1.00  0.00    -0.332 OA
ATOM     28  C   UNL     1       4.661  -4.704  -5.389  1.00  0.00     0.180 C 
ATOM     29  C   UNL     1       3.480  -2.739  -4.388  1.00  0.00     0.179 C 
ATOM     30  C   UNL     1       4.624  -3.745  -4.183  1.00  0.00     0.177 C 
BRANCH  26  31
ATOM     31  O   UNL     1       3.256  -6.135  -6.733  1.00  0.00    -0.384 OA
ATOM     32  H   UNL     1       4.145  -6.567  -6.838  1.00  0.00     0.211 HD
ENDBRANCH  26  31
BRANCH  28  33
ATOM     33  O   UNL     1       5.716  -5.615  -5.197  1.00  0.00    -0.387 OA
ATOM     34  H   UNL     1       5.324  -6.515  -4.986  1.00  0.00     0.211 HD
ENDBRANCH  28  33
BRANCH  29  35
ATOM     35  C   UNL     1       3.402  -1.729  -3.215  1.00  0.00     0.191 C 
BRANCH  35  36
ATOM     36  O   UNL     1       3.957  -2.290  -2.047  1.00  0.00    -0.394 OA
ATOM     37  H   UNL     1       3.213  -2.764  -1.560  1.00  0.00     0.210 HD
ENDBRANCH  35  36
ENDBRANCH  29  35
BRANCH  30  38
ATOM     38  O   UNL     1       5.847  -3.056  -4.123  1.00  0.00    -0.387 OA
ATOM     39  H   UNL     1       6.346  -3.256  -4.955  1.00  0.00     0.211 HD
ENDBRANCH  30  38
ENDBRANCH   1  25
TORSDOF 11
ENDMDL
MODEL 7
REMARK VINA RESULT:    -5.249      3.388      8.269
REMARK INTER + INTRA:          -8.788
REMARK INTER:                  -7.483
REMARK INTRA:                  -1.305
REMARK UNBOUND:                -1.238
REMARK SMILES O=c1cc(-c2ccc(O)c(O)c2)oc2cc(O[C@@H]3O[C@@H](CO)[C@H](O)[C@@H](O)[C@@H]3O)cc(O)c12
REMARK SMILES IDX 17 1 16 2 4 3 3 4 13 5 2 6 14 7 1 8 32 9 15 10 30 11 29 12
REMARK SMILES IDX 5 13 6 14 7 15 8 16 12 17 10 18 9 19 11 21 31 23 18 25 27 26
REMARK SMILES IDX 19 27 25 28 20 29 23 30 28 31 26 33 21 35 22 36 24 38
REMARK H PARENT 9 20 11 22 31 24 28 32 26 34 22 37 24 39
REMARK Flexibility Score: inf
ROOT
ATOM      1  O   UNL     1      -3.834  -3.505  -6.530  1.00  0.00    -0.462 OA
ENDROOT
BRANCH   1   2
ATOM      2  C   UNL     1      -2.759  -4.193  -7.074  1.00  0.00     0.130 A 
ATOM      3  C   UNL     1       0.741  -1.434  -8.008  1.00  0.00     0.138 A 
ATOM      4  C   UNL     1       1.493  -1.929  -6.913  1.00  0.00     0.100 A 
ATOM      5  O   UNL     1      -0.297  -2.153  -8.461  1.00  0.00    -0.456 OA
ATOM      6  C   UNL     1       1.104  -3.145  -6.310  1.00  0.00     0.197 A 
ATOM      7  C   UNL     1      -0.766  -3.209  -7.844  1.00  0.00     0.146 A 
ATOM      8  O   UNL     1       1.715  -3.528  -5.277  1.00  0.00    -0.289 OA
ATOM      9  C   UNL     1      -0.056  -3.801  -6.761  1.00  0.00     0.107 A 
ATOM     10  C   UNL     1      -2.083  -3.585  -8.124  1.00  0.00     0.094 A 
ATOM     11  C   UNL     1      -0.657  -4.879  -6.089  1.00  0.00     0.134 A 
ATOM     12  C   UNL     1      -2.032  -5.060  -6.242  1.00  0.00     0.093 A 
BRANCH   3  13
ATOM     13  C   UNL     1       0.981  -0.098  -8.644  1.00  0.00     0.021 A 
ATOM     14  C   UNL     1      -0.061   0.851  -8.690  1.00  0.00     0.016 A 
ATOM     15  C   UNL     1       0.207   2.190  -9.059  1.00  0.00     0.051 A 
ATOM     16  C   UNL     1       1.497   2.568  -9.443  1.00  0.00     0.157 A 
ATOM     17  C   UNL     1       2.259   0.297  -9.062  1.00  0.00     0.062 A 
ATOM     18  C   UNL     1       2.491   1.582  -9.556  1.00  0.00     0.158 A 
BRANCH  16  19
ATOM     19  O   UNL     1       1.785   3.917  -9.680  1.00  0.00    -0.504 OA
ATOM     20  H   UNL     1       1.237   4.469 -10.341  1.00  0.00     0.293 HD
ENDBRANCH  16  19
BRANCH  18  21
ATOM     21  O   UNL     1       3.765   1.894 -10.059  1.00  0.00    -0.504 OA
ATOM     22  H   UNL     1       4.480   2.319  -9.480  1.00  0.00     0.293 HD
ENDBRANCH  18  21
ENDBRANCH   3  13
BRANCH  11  23
ATOM     23  O   UNL     1       0.037  -5.732  -5.229  1.00  0.00    -0.507 OA
ATOM     24  H   UNL     1      -0.436  -6.214  -4.473  1.00  0.00     0.293 HD
ENDBRANCH  11  23
ENDBRANCH   1   2
BRANCH   1  25
ATOM     25  C   UNL     1      -3.769  -2.188  -5.997  1.00  0.00     0.339 C 
ATOM     26  C   UNL     1      -5.000  -1.362  -6.483  1.00  0.00     0.214 C 
ATOM     27  O   UNL     1      -3.690  -2.207  -4.581  1.00  0.00    -0.332 OA
ATOM     28  C   UNL     1      -6.286  -1.920  -5.823  1.00  0.00     0.180 C 
ATOM     29  C   UNL     1      -4.838  -2.790  -3.977  1.00  0.00     0.179 C 
ATOM     30  C   UNL     1      -6.098  -1.968  -4.293  1.00  0.00     0.177 C 
BRANCH  26  31
ATOM     31  O   UNL     1      -5.107  -1.446  -7.876  1.00  0.00    -0.384 OA
ATOM     32  H   UNL     1      -5.678  -2.229  -8.099  1.00  0.00     0.211 HD
ENDBRANCH  26  31
BRANCH  28  33
ATOM     33  O   UNL     1      -7.445  -1.174  -6.103  1.00  0.00    -0.387 OA
ATOM     34  H   UNL     1      -7.864  -1.540  -6.938  1.00  0.00     0.211 HD
ENDBRANCH  28  33
BRANCH  29  35
ATOM     35  C   UNL     1      -4.604  -2.895  -2.448  1.00  0.00     0.191 C 
BRANCH  35  36
ATOM     36  O   UNL     1      -5.490  -3.833  -1.881  1.00  0.00    -0.394 OA
ATOM     37  H   UNL     1      -5.581  -3.604  -0.902  1.00  0.00     0.210 HD
ENDBRANCH  35  36
ENDBRANCH  29  35
BRANCH  30  38
ATOM     38  O   UNL     1      -7.220  -2.594  -3.725  1.00  0.00    -0.387 OA
ATOM     39  H   UNL     1      -7.288  -2.293  -2.784  1.00  0.00     0.211 HD
ENDBRANCH  30  38
ENDBRANCH   1  25
TORSDOF 11
ENDMDL
MODEL 8
REMARK VINA RESULT:    -5.160      4.420      8.248
REMARK INTER + INTRA:          -8.661
REMARK INTER:                  -7.324
REMARK INTRA:                  -1.336
REMARK UNBOUND:                -1.238
REMARK SMILES O=c1cc(-c2ccc(O)c(O)c2)oc2cc(O[C@@H]3O[C@@H](CO)[C@H](O)[C@@H](O)[C@@H]3O)cc(O)c12
REMARK SMILES IDX 17 1 16 2 4 3 3 4 13 5 2 6 14 7 1 8 32 9 15 10 30 11 29 12
REMARK SMILES IDX 5 13 6 14 7 15 8 16 12 17 10 18 9 19 11 21 31 23 18 25 27 26
REMARK SMILES IDX 19 27 25 28 20 29 23 30 28 31 26 33 21 35 22 36 24 38
REMARK H PARENT 9 20 11 22 31 24 28 32 26 34 22 37 24 39
REMARK Flexibility Score: inf
ROOT
ATOM      1  O   UNL     1      -5.116  -4.230  -2.553  1.00  0.00    -0.462 OA
ENDROOT
BRANCH   1   2
ATOM      2  C   UNL     1      -5.670  -2.968  -2.706  1.00  0.00     0.130 A 
ATOM      3  C   UNL     1      -4.332  -0.969  -6.572  1.00  0.00     0.138 A 
ATOM      4  C   UNL     1      -5.602  -1.160  -7.174  1.00  0.00     0.100 A 
ATOM      5  O   UNL     1      -4.226  -1.058  -5.238  1.00  0.00    -0.456 OA
ATOM      6  C   UNL     1      -6.707  -1.476  -6.354  1.00  0.00     0.197 A 
ATOM      7  C   UNL     1      -5.195  -1.479  -4.465  1.00  0.00     0.146 A 
ATOM      8  O   UNL     1      -7.809  -1.742  -6.903  1.00  0.00    -0.289 OA
ATOM      9  C   UNL     1      -6.514  -1.659  -4.972  1.00  0.00     0.107 A 
ATOM     10  C   UNL     1      -4.844  -1.968  -3.203  1.00  0.00     0.094 A 
ATOM     11  C   UNL     1      -7.485  -2.196  -4.111  1.00  0.00     0.134 A 
ATOM     12  C   UNL     1      -7.046  -2.871  -2.971  1.00  0.00     0.093 A 
BRANCH   3  13
ATOM     13  C   UNL     1      -3.069  -0.757  -7.350  1.00  0.00     0.021 A 
ATOM     14  C   UNL     1      -3.109  -0.041  -8.564  1.00  0.00     0.016 A 
ATOM     15  C   UNL     1      -1.910   0.380  -9.186  1.00  0.00     0.051 A 
ATOM     16  C   UNL     1      -0.673   0.033  -8.635  1.00  0.00     0.157 A 
ATOM     17  C   UNL     1      -1.818  -1.118  -6.833  1.00  0.00     0.062 A 
ATOM     18  C   UNL     1      -0.639  -0.821  -7.520  1.00  0.00     0.158 A 
BRANCH  16  19
ATOM     19  O   UNL     1       0.504   0.560  -9.179  1.00  0.00    -0.504 OA
ATOM     20  H   UNL     1       0.736   1.549  -9.083  1.00  0.00     0.293 HD
ENDBRANCH  16  19
BRANCH  18  21
ATOM     21  O   UNL     1       0.580  -1.298  -7.011  1.00  0.00    -0.504 OA
ATOM     22  H   UNL     1       0.622  -2.078  -6.365  1.00  0.00     0.293 HD
ENDBRANCH  18  21
ENDBRANCH   3  13
BRANCH  11  23
ATOM     23  O   UNL     1      -8.856  -2.143  -4.369  1.00  0.00    -0.507 OA
ATOM     24  H   UNL     1      -9.528  -2.044  -3.617  1.00  0.00     0.293 HD
ENDBRANCH  11  23
ENDBRANCH   1   2
BRANCH   1  25
ATOM     25  C   UNL     1      -4.787  -5.108  -3.624  1.00  0.00     0.339 C 
ATOM     26  C   UNL     1      -3.366  -5.708  -3.395  1.00  0.00     0.214 C 
ATOM     27  O   UNL     1      -5.760  -6.130  -3.771  1.00  0.00    -0.332 OA
ATOM     28  C   UNL     1      -3.405  -6.671  -2.182  1.00  0.00     0.180 C 
ATOM     29  C   UNL     1      -5.849  -6.968  -2.626  1.00  0.00     0.179 C 
ATOM     30  C   UNL     1      -4.525  -7.710  -2.388  1.00  0.00     0.177 C 
BRANCH  26  31
ATOM     31  O   UNL     1      -2.449  -4.678  -3.154  1.00  0.00    -0.384 OA
ATOM     32  H   UNL     1      -2.241  -4.666  -2.182  1.00  0.00     0.211 HD
ENDBRANCH  26  31
BRANCH  28  33
ATOM     33  O   UNL     1      -2.198  -7.359  -1.957  1.00  0.00    -0.387 OA
ATOM     34  H   UNL     1      -1.575  -6.752  -1.457  1.00  0.00     0.211 HD
ENDBRANCH  28  33
BRANCH  29  35
ATOM     35  C   UNL     1      -7.023  -7.960  -2.819  1.00  0.00     0.191 C 
BRANCH  35  36
ATOM     36  O   UNL     1      -7.627  -8.253  -1.579  1.00  0.00    -0.394 OA
ATOM     37  H   UNL     1      -8.524  -8.671  -1.774  1.00  0.00     0.210 HD
ENDBRANCH  35  36
ENDBRANCH  29  35
BRANCH  30  38
ATOM     38  O   UNL     1      -4.628  -8.491  -1.225  1.00  0.00    -0.387 OA
ATOM     39  H   UNL     1      -5.064  -7.937  -0.529  1.00  0.00     0.211 HD
ENDBRANCH  30  38
ENDBRANCH   1  25
TORSDOF 11
ENDMDL
MODEL 9
REMARK VINA RESULT:    -5.051      4.386      7.454
REMARK INTER + INTRA:          -8.503
REMARK INTER:                  -7.207
REMARK INTRA:                  -1.296
REMARK UNBOUND:                -1.238
REMARK SMILES O=c1cc(-c2ccc(O)c(O)c2)oc2cc(O[C@@H]3O[C@@H](CO)[C@H](O)[C@@H](O)[C@@H]3O)cc(O)c12
REMARK SMILES IDX 17 1 16 2 4 3 3 4 13 5 2 6 14 7 1 8 32 9 15 10 30 11 29 12
REMARK SMILES IDX 5 13 6 14 7 15 8 16 12 17 10 18 9 19 11 21 31 23 18 25 27 26
REMARK SMILES IDX 19 27 25 28 20 29 23 30 28 31 26 33 21 35 22 36 24 38
REMARK H PARENT 9 20 11 22 31 24 28 32 26 34 22 37 24 39
REMARK Flexibility Score: inf
ROOT
ATOM      1  O   UNL     1      -4.713  -3.368  -6.098  1.00  0.00    -0.462 OA
ENDROOT
BRANCH   1   2
ATOM      2  C   UNL     1      -4.458  -3.761  -7.404  1.00  0.00     0.130 A 
ATOM      3  C   UNL     1      -1.383  -1.081  -9.428  1.00  0.00     0.138 A 
ATOM      4  C   UNL     1      -0.382  -2.082  -9.355  1.00  0.00     0.100 A 
ATOM      5  O   UNL     1      -2.668  -1.436  -9.284  1.00  0.00    -0.456 OA
ATOM      6  C   UNL     1      -0.767  -3.416  -9.096  1.00  0.00     0.197 A 
ATOM      7  C   UNL     1      -3.049  -2.632  -8.912  1.00  0.00     0.146 A 
ATOM      8  O   UNL     1       0.133  -4.283  -8.934  1.00  0.00    -0.289 OA
ATOM      9  C   UNL     1      -2.121  -3.711  -8.851  1.00  0.00     0.107 A 
ATOM     10  C   UNL     1      -4.325  -2.757  -8.355  1.00  0.00     0.094 A 
ATOM     11  C   UNL     1      -2.576  -4.946  -8.361  1.00  0.00     0.134 A 
ATOM     12  C   UNL     1      -3.755  -4.959  -7.615  1.00  0.00     0.093 A 
BRANCH   3  13
ATOM     13  C   UNL     1      -1.085   0.381  -9.569  1.00  0.00     0.021 A 
ATOM     14  C   UNL     1      -2.140   1.290  -9.792  1.00  0.00     0.016 A 
ATOM     15  C   UNL     1      -1.918   2.683  -9.686  1.00  0.00     0.051 A 
ATOM     16  C   UNL     1      -0.635   3.172  -9.422  1.00  0.00     0.157 A 
ATOM     17  C   UNL     1       0.198   0.895  -9.336  1.00  0.00     0.062 A 
ATOM     18  C   UNL     1       0.441   2.270  -9.369  1.00  0.00     0.158 A 
BRANCH  16  19
ATOM     19  O   UNL     1      -0.445   4.539  -9.189  1.00  0.00    -0.504 OA
ATOM     20  H   UNL     1       0.387   4.885  -8.708  1.00  0.00     0.293 HD
ENDBRANCH  16  19
BRANCH  18  21
ATOM     21  O   UNL     1       1.762   2.727  -9.233  1.00  0.00    -0.504 OA
ATOM     22  H   UNL     1       2.545   2.229  -9.640  1.00  0.00     0.293 HD
ENDBRANCH  18  21
ENDBRANCH   3  13
BRANCH  11  23
ATOM     23  O   UNL     1      -1.878  -6.144  -8.526  1.00  0.00    -0.507 OA
ATOM     24  H   UNL     1      -0.950  -6.159  -8.935  1.00  0.00     0.293 HD
ENDBRANCH  11  23
ENDBRANCH   1   2
BRANCH   1  25
ATOM     25  C   UNL     1      -3.760  -2.765  -5.231  1.00  0.00     0.339 C 
ATOM     26  C   UNL     1      -4.485  -1.805  -4.237  1.00  0.00     0.214 C 
ATOM     27  O   UNL     1      -3.000  -3.743  -4.539  1.00  0.00    -0.332 OA
ATOM     28  C   UNL     1      -5.343  -2.639  -3.253  1.00  0.00     0.180 C 
ATOM     29  C   UNL     1      -3.800  -4.559  -3.693  1.00  0.00     0.179 C 
ATOM     30  C   UNL     1      -4.462  -3.717  -2.591  1.00  0.00     0.177 C 
BRANCH  26  31
ATOM     31  O   UNL     1      -5.303  -0.918  -4.947  1.00  0.00    -0.384 OA
ATOM     32  H   UNL     1      -6.157  -1.382  -5.157  1.00  0.00     0.211 HD
ENDBRANCH  26  31
BRANCH  28  33
ATOM     33  O   UNL     1      -5.951  -1.879  -2.237  1.00  0.00    -0.387 OA
ATOM     34  H   UNL     1      -6.565  -1.210  -2.665  1.00  0.00     0.211 HD
ENDBRANCH  28  33
BRANCH  29  35
ATOM     35  C   UNL     1      -2.914  -5.678  -3.090  1.00  0.00     0.191 C 
BRANCH  35  36
ATOM     36  O   UNL     1      -2.275  -5.222  -1.920  1.00  0.00    -0.394 OA
ATOM     37  H   UNL     1      -1.417  -5.743  -1.824  1.00  0.00     0.210 HD
ENDBRANCH  35  36
ENDBRANCH  29  35
BRANCH  30  38
ATOM     38  O   UNL     1      -5.283  -4.541  -1.802  1.00  0.00    -0.387 OA
ATOM     39  H   UNL     1      -6.033  -4.850  -2.370  1.00  0.00     0.211 HD
ENDBRANCH  30  38
ENDBRANCH   1  25
TORSDOF 11
ENDMDL
