MODEL 1
REMARK VINA RESULT:    -5.552      0.000      0.000
REMARK INTER + INTRA:          -9.303
REMARK INTER:                  -8.798
REMARK INTRA:                  -0.505
REMARK UNBOUND:                -0.505
REMARK SMILES CCCCCCCCCCCC(=O)[O-]
REMARK SMILES IDX 7 1 8 2 9 3 10 4 11 5 12 6 13 7 14 8 6 9 5 10 4 11 3 12 2 13
REMARK SMILES IDX 1 14
REMARK H PARENT
REMARK Flexibility Score: inf
ROOT
ATOM      1  C   UNL     1      24.222 -12.703  17.475  1.00  0.00     0.000 C 
ENDROOT
BRANCH   1   2
ATOM      2  C   UNL     1      22.918 -12.674  18.288  1.00  0.00     0.000 C 
BRANCH   2   3
ATOM      3  C   UNL     1      22.991 -13.539  19.555  1.00  0.00     0.000 C 
BRANCH   3   4
ATOM      4  C   UNL     1      22.656 -12.714  20.803  1.00  0.00     0.006 C 
BRANCH   4   5
ATOM      5  C   UNL     1      22.553 -11.224  20.466  1.00  0.00     0.053 C 
BRANCH   5   6
ATOM      6  C   UNL     1      23.514 -10.430  21.293  1.00  0.00     0.041 C 
ATOM      7  O   UNL     1      23.430 -10.444  22.549  1.00  0.00    -0.550 OA
ATOM      8  O   UNL     1      24.533  -9.715  20.679  1.00  0.00    -0.550 OA
ENDBRANCH   5   6
ENDBRANCH   4   5
ENDBRANCH   3   4
ENDBRANCH   2   3
ENDBRANCH   1   2
BRANCH   1   9
ATOM      9  C   UNL     1      24.007 -12.336  15.999  1.00  0.00     0.000 C 
BRANCH   9  10
ATOM     10  C   UNL     1      24.793 -11.070  15.628  1.00  0.00    -0.000 C 
BRANCH  10  11
ATOM     11  C   UNL     1      26.275 -11.140  16.039  1.00  0.00    -0.000 C 
BRANCH  11  12
ATOM     12  C   UNL     1      27.268 -10.632  14.977  1.00  0.00    -0.000 C 
BRANCH  12  13
ATOM     13  C   UNL     1      28.715 -11.057  15.261  1.00  0.00    -0.003 C 
ATOM     14  C   UNL     1      28.901 -11.429  16.730  1.00  0.00     0.004 C 
ENDBRANCH  12  13
ENDBRANCH  11  12
ENDBRANCH  10  11
ENDBRANCH   9  10
ENDBRANCH   1   9
TORSDOF 10
ENDMDL
MODEL 2
REMARK VINA RESULT:    -5.542      2.083      5.970
REMARK INTER + INTRA:          -9.287
REMARK INTER:                  -8.703
REMARK INTRA:                  -0.584
REMARK UNBOUND:                -0.505
REMARK SMILES CCCCCCCCCCCC(=O)[O-]
REMARK SMILES IDX 7 1 8 2 9 3 10 4 11 5 12 6 13 7 14 8 6 9 5 10 4 11 3 12 2 13
REMARK SMILES IDX 1 14
REMARK H PARENT
REMARK Flexibility Score: inf
ROOT
ATOM      1  C   UNL     1      25.123 -11.809  17.043  1.00  0.00     0.000 C 
ENDROOT
BRANCH   1   2
ATOM      2  C   UNL     1      24.883 -11.320  15.606  1.00  0.00     0.000 C 
BRANCH   2   3
ATOM      3  C   UNL     1      26.175 -10.865  14.912  1.00  0.00     0.000 C 
BRANCH   3   4
ATOM      4  C   UNL     1      27.344 -10.823  15.903  1.00  0.00     0.006 C 
BRANCH   4   5
ATOM      5  C   UNL     1      27.859  -9.392  16.086  1.00  0.00     0.053 C 
BRANCH   5   6
ATOM      6  C   UNL     1      28.243  -9.150  17.511  1.00  0.00     0.041 C 
ATOM      7  O   UNL     1      29.454  -9.001  17.824  1.00  0.00    -0.550 OA
ATOM      8  O   UNL     1      27.261  -9.040  18.486  1.00  0.00    -0.550 OA
ENDBRANCH   5   6
ENDBRANCH   4   5
ENDBRANCH   3   4
ENDBRANCH   2   3
ENDBRANCH   1   2
BRANCH   1   9
ATOM      9  C   UNL     1      24.196 -12.970  17.435  1.00  0.00     0.000 C 
BRANCH   9  10
ATOM     10  C   UNL     1      23.075 -12.485  18.369  1.00  0.00    -0.000 C 
BRANCH  10  11
ATOM     11  C   UNL     1      22.903 -13.375  19.613  1.00  0.00    -0.000 C 
BRANCH  11  12
ATOM     12  C   UNL     1      22.593 -12.615  20.916  1.00  0.00    -0.000 C 
BRANCH  12  13
ATOM     13  C   UNL     1      23.055 -11.153  20.880  1.00  0.00    -0.003 C 
ATOM     14  C   UNL     1      23.148 -10.571  22.289  1.00  0.00     0.004 C 
ENDBRANCH  12  13
ENDBRANCH  11  12
ENDBRANCH  10  11
ENDBRANCH   9  10
ENDBRANCH   1   9
TORSDOF 10
ENDMDL
MODEL 3
REMARK VINA RESULT:    -5.466      2.451      5.622
REMARK INTER + INTRA:          -9.167
REMARK INTER:                  -8.364
REMARK INTRA:                  -0.803
REMARK UNBOUND:                -0.505
REMARK SMILES CCCCCCCCCCCC(=O)[O-]
REMARK SMILES IDX 7 1 8 2 9 3 10 4 11 5 12 6 13 7 14 8 6 9 5 10 4 11 3 12 2 13
REMARK SMILES IDX 1 14
REMARK H PARENT
REMARK Flexibility Score: inf
ROOT
ATOM      1  C   UNL     1      23.612 -12.625  16.644  1.00  0.00     0.000 C 
ENDROOT
BRANCH   1   2
ATOM      2  C   UNL     1      24.679 -11.898  15.809  1.00  0.00     0.000 C 
BRANCH   2   3
ATOM      3  C   UNL     1      25.205 -10.629  16.495  1.00  0.00     0.000 C 
BRANCH   3   4
ATOM      4  C   UNL     1      26.723 -10.701  16.693  1.00  0.00     0.006 C 
BRANCH   4   5
ATOM      5  C   UNL     1      27.123 -10.187  18.079  1.00  0.00     0.053 C 
BRANCH   5   6
ATOM      6  C   UNL     1      28.156  -9.112  17.962  1.00  0.00     0.041 C 
ATOM      7  O   UNL     1      29.257  -9.349  17.398  1.00  0.00    -0.550 OA
ATOM      8  O   UNL     1      27.885  -7.833  18.431  1.00  0.00    -0.550 OA
ENDBRANCH   5   6
ENDBRANCH   4   5
ENDBRANCH   3   4
ENDBRANCH   2   3
ENDBRANCH   1   2
BRANCH   1   9
ATOM      9  C   UNL     1      24.142 -13.084  18.011  1.00  0.00     0.000 C 
BRANCH   9  10
ATOM     10  C   UNL     1      22.996 -13.231  19.023  1.00  0.00    -0.000 C 
BRANCH  10  11
ATOM     11  C   UNL     1      22.565 -11.890  19.643  1.00  0.00    -0.000 C 
BRANCH  11  12
ATOM     12  C   UNL     1      22.538 -11.865  21.182  1.00  0.00    -0.000 C 
BRANCH  12  13
ATOM     13  C   UNL     1      23.248 -10.639  21.773  1.00  0.00    -0.003 C 
ATOM     14  C   UNL     1      24.063  -9.910  20.708  1.00  0.00     0.004 C 
ENDBRANCH  12  13
ENDBRANCH  11  12
ENDBRANCH  10  11
ENDBRANCH   9  10
ENDBRANCH   1   9
TORSDOF 10
ENDMDL
MODEL 4
REMARK VINA RESULT:    -5.435      3.556      6.785
REMARK INTER + INTRA:          -9.117
REMARK INTER:                  -8.644
REMARK INTRA:                  -0.473
REMARK UNBOUND:                -0.505
REMARK SMILES CCCCCCCCCCCC(=O)[O-]
REMARK SMILES IDX 7 1 8 2 9 3 10 4 11 5 12 6 13 7 14 8 6 9 5 10 4 11 3 12 2 13
REMARK SMILES IDX 1 14
REMARK H PARENT
REMARK Flexibility Score: inf
ROOT
ATOM      1  C   UNL     1      24.117 -12.232  16.233  1.00  0.00     0.000 C 
ENDROOT
BRANCH   1   2
ATOM      2  C   UNL     1      24.869 -10.945  15.858  1.00  0.00     0.000 C 
BRANCH   2   3
ATOM      3  C   UNL     1      26.131 -11.218  15.026  1.00  0.00     0.000 C 
BRANCH   3   4
ATOM      4  C   UNL     1      27.272 -10.279  15.436  1.00  0.00     0.006 C 
BRANCH   4   5
ATOM      5  C   UNL     1      28.469 -11.070  15.972  1.00  0.00     0.053 C 
BRANCH   5   6
ATOM      6  C   UNL     1      29.641 -10.935  15.053  1.00  0.00     0.041 C 
ATOM      7  O   UNL     1      29.593 -11.416  13.890  1.00  0.00    -0.550 OA
ATOM      8  O   UNL     1      30.768 -10.235  15.462  1.00  0.00    -0.550 OA
ENDBRANCH   5   6
ENDBRANCH   4   5
ENDBRANCH   3   4
ENDBRANCH   2   3
ENDBRANCH   1   2
BRANCH   1   9
ATOM      9  C   UNL     1      24.453 -12.721  17.651  1.00  0.00     0.000 C 
BRANCH   9  10
ATOM     10  C   UNL     1      23.172 -13.012  18.448  1.00  0.00    -0.000 C 
BRANCH  10  11
ATOM     11  C   UNL     1      22.793 -11.875  19.413  1.00  0.00    -0.000 C 
BRANCH  11  12
ATOM     12  C   UNL     1      22.635 -12.298  20.885  1.00  0.00    -0.000 C 
BRANCH  12  13
ATOM     13  C   UNL     1      22.949 -11.164  21.871  1.00  0.00    -0.003 C 
ATOM     14  C   UNL     1      23.734 -10.046  21.190  1.00  0.00     0.004 C 
ENDBRANCH  12  13
ENDBRANCH  11  12
ENDBRANCH  10  11
ENDBRANCH   9  10
ENDBRANCH   1   9
TORSDOF 10
ENDMDL
MODEL 5
REMARK VINA RESULT:    -5.407      2.180      5.902
REMARK INTER + INTRA:          -9.073
REMARK INTER:                  -8.498
REMARK INTRA:                  -0.575
REMARK UNBOUND:                -0.505
REMARK SMILES CCCCCCCCCCCC(=O)[O-]
REMARK SMILES IDX 7 1 8 2 9 3 10 4 11 5 12 6 13 7 14 8 6 9 5 10 4 11 3 12 2 13
REMARK SMILES IDX 1 14
REMARK H PARENT
REMARK Flexibility Score: inf
ROOT
ATOM      1  C   UNL     1      24.369 -11.491  15.525  1.00  0.00     0.000 C 
ENDROOT
BRANCH   1   2
ATOM      2  C   UNL     1      25.753 -11.284  16.161  1.00  0.00     0.000 C 
BRANCH   2   3
ATOM      3  C   UNL     1      26.783 -10.725  15.168  1.00  0.00     0.000 C 
BRANCH   3   4
ATOM      4  C   UNL     1      28.200 -10.797  15.749  1.00  0.00     0.006 C 
BRANCH   4   5
ATOM      5  C   UNL     1      28.175 -10.690  17.277  1.00  0.00     0.053 C 
BRANCH   5   6
ATOM      6  C   UNL     1      28.469  -9.289  17.710  1.00  0.00     0.041 C 
ATOM      7  O   UNL     1      27.536  -8.539  18.102  1.00  0.00    -0.550 OA
ATOM      8  O   UNL     1      29.778  -8.827  17.729  1.00  0.00    -0.550 OA
ENDBRANCH   5   6
ENDBRANCH   4   5
ENDBRANCH   3   4
ENDBRANCH   2   3
ENDBRANCH   1   2
BRANCH   1   9
ATOM      9  C   UNL     1      23.531 -12.546  16.264  1.00  0.00     0.000 C 
BRANCH   9  10
ATOM     10  C   UNL     1      24.042 -12.746  17.699  1.00  0.00    -0.000 C 
BRANCH  10  11
ATOM     11  C   UNL     1      22.943 -12.553  18.760  1.00  0.00    -0.000 C 
BRANCH  11  12
ATOM     12  C   UNL     1      23.271 -11.519  19.853  1.00  0.00    -0.000 C 
BRANCH  12  13
ATOM     13  C   UNL     1      22.575 -11.819  21.188  1.00  0.00    -0.003 C 
ATOM     14  C   UNL     1      22.981 -10.809  22.258  1.00  0.00     0.004 C 
ENDBRANCH  12  13
ENDBRANCH  11  12
ENDBRANCH  10  11
ENDBRANCH   9  10
ENDBRANCH   1   9
TORSDOF 10
ENDMDL
MODEL 6
REMARK VINA RESULT:    -5.400      1.449      2.170
REMARK INTER + INTRA:          -9.062
REMARK INTER:                  -8.213
REMARK INTRA:                  -0.849
REMARK UNBOUND:                -0.505
REMARK SMILES CCCCCCCCCCCC(=O)[O-]
REMARK SMILES IDX 7 1 8 2 9 3 10 4 11 5 12 6 13 7 14 8 6 9 5 10 4 11 3 12 2 13
REMARK SMILES IDX 1 14
REMARK H PARENT
REMARK Flexibility Score: inf
ROOT
ATOM      1  C   UNL     1      24.842 -11.464  16.448  1.00  0.00     0.000 C 
ENDROOT
BRANCH   1   2
ATOM      2  C   UNL     1      23.729 -12.520  16.534  1.00  0.00     0.000 C 
BRANCH   2   3
ATOM      3  C   UNL     1      23.283 -12.794  17.978  1.00  0.00     0.000 C 
BRANCH   3   4
ATOM      4  C   UNL     1      23.731 -11.666  18.914  1.00  0.00     0.006 C 
BRANCH   4   5
ATOM      5  C   UNL     1      22.783 -11.533  20.109  1.00  0.00     0.053 C 
BRANCH   5   6
ATOM      6  C   UNL     1      23.384 -10.657  21.163  1.00  0.00     0.041 C 
ATOM      7  O   UNL     1      24.163  -9.722  20.839  1.00  0.00    -0.550 OA
ATOM      8  O   UNL     1      23.046 -10.842  22.496  1.00  0.00    -0.550 OA
ENDBRANCH   5   6
ENDBRANCH   4   5
ENDBRANCH   3   4
ENDBRANCH   2   3
ENDBRANCH   1   2
BRANCH   1   9
ATOM      9  C   UNL     1      25.385 -11.291  15.021  1.00  0.00     0.000 C 
BRANCH   9  10
ATOM     10  C   UNL     1      26.849 -10.826  15.044  1.00  0.00    -0.000 C 
BRANCH  10  11
ATOM     11  C   UNL     1      27.493 -10.935  16.438  1.00  0.00    -0.000 C 
BRANCH  11  12
ATOM     12  C   UNL     1      28.494  -9.816  16.780  1.00  0.00    -0.000 C 
BRANCH  12  13
ATOM     13  C   UNL     1      27.974  -8.856  17.858  1.00  0.00    -0.003 C 
ATOM     14  C   UNL     1      27.045  -9.576  18.833  1.00  0.00     0.004 C 
ENDBRANCH  12  13
ENDBRANCH  11  12
ENDBRANCH  10  11
ENDBRANCH   9  10
ENDBRANCH   1   9
TORSDOF 10
ENDMDL
MODEL 7
REMARK VINA RESULT:    -5.066      2.642      4.899
REMARK INTER + INTRA:          -8.532
REMARK INTER:                  -7.655
REMARK INTRA:                  -0.877
REMARK UNBOUND:                -0.505
REMARK SMILES CCCCCCCCCCCC(=O)[O-]
REMARK SMILES IDX 7 1 8 2 9 3 10 4 11 5 12 6 13 7 14 8 6 9 5 10 4 11 3 12 2 13
REMARK SMILES IDX 1 14
REMARK H PARENT
REMARK Flexibility Score: inf
ROOT
ATOM      1  C   UNL     1      23.016 -11.214  21.498  1.00  0.00     0.000 C 
ENDROOT
BRANCH   1   2
ATOM      2  C   UNL     1      23.935 -10.012  21.231  1.00  0.00     0.000 C 
BRANCH   2   3
ATOM      3  C   UNL     1      24.491  -9.997  19.800  1.00  0.00     0.000 C 
BRANCH   3   4
ATOM      4  C   UNL     1      25.949  -9.524  19.781  1.00  0.00     0.006 C 
BRANCH   4   5
ATOM      5  C   UNL     1      26.679 -10.037  18.537  1.00  0.00     0.053 C 
BRANCH   5   6
ATOM      6  C   UNL     1      27.792  -9.111  18.161  1.00  0.00     0.041 C 
ATOM      7  O   UNL     1      27.731  -7.891  18.468  1.00  0.00    -0.550 OA
ATOM      8  O   UNL     1      28.918  -9.604  17.517  1.00  0.00    -0.550 OA
ENDBRANCH   5   6
ENDBRANCH   4   5
ENDBRANCH   3   4
ENDBRANCH   2   3
ENDBRANCH   1   2
BRANCH   1   9
ATOM      9  C   UNL     1      22.388 -11.775  20.214  1.00  0.00     0.000 C 
BRANCH   9  10
ATOM     10  C   UNL     1      22.929 -13.180  19.908  1.00  0.00    -0.000 C 
BRANCH  10  11
ATOM     11  C   UNL     1      23.645 -13.265  18.548  1.00  0.00    -0.000 C 
BRANCH  11  12
ATOM     12  C   UNL     1      22.959 -12.497  17.403  1.00  0.00    -0.000 C 
BRANCH  12  13
ATOM     13  C   UNL     1      23.656 -12.691  16.050  1.00  0.00    -0.003 C 
ATOM     14  C   UNL     1      24.749 -11.646  15.840  1.00  0.00     0.004 C 
ENDBRANCH  12  13
ENDBRANCH  11  12
ENDBRANCH  10  11
ENDBRANCH   9  10
ENDBRANCH   1   9
TORSDOF 10
ENDMDL
MODEL 8
REMARK VINA RESULT:    -5.013      3.152      6.110
REMARK INTER + INTRA:          -8.448
REMARK INTER:                  -7.629
REMARK INTRA:                  -0.819
REMARK UNBOUND:                -0.505
REMARK SMILES CCCCCCCCCCCC(=O)[O-]
REMARK SMILES IDX 7 1 8 2 9 3 10 4 11 5 12 6 13 7 14 8 6 9 5 10 4 11 3 12 2 13
REMARK SMILES IDX 1 14
REMARK H PARENT
REMARK Flexibility Score: inf
ROOT
ATOM      1  C   UNL     1      25.973 -11.218  17.181  1.00  0.00     0.000 C 
ENDROOT
BRANCH   1   2
ATOM      2  C   UNL     1      25.928 -10.001  18.118  1.00  0.00     0.000 C 
BRANCH   2   3
ATOM      3  C   UNL     1      27.282  -9.714  18.782  1.00  0.00     0.000 C 
BRANCH   3   4
ATOM      4  C   UNL     1      27.863  -8.383  18.291  1.00  0.00     0.006 C 
BRANCH   4   5
ATOM      5  C   UNL     1      29.241  -8.585  17.655  1.00  0.00     0.053 C 
BRANCH   5   6
ATOM      6  C   UNL     1      29.118  -9.320  16.357  1.00  0.00     0.041 C 
ATOM      7  O   UNL     1      28.279  -8.946  15.496  1.00  0.00    -0.550 OA
ATOM      8  O   UNL     1      29.963 -10.386  16.080  1.00  0.00    -0.550 OA
ENDBRANCH   5   6
ENDBRANCH   4   5
ENDBRANCH   3   4
ENDBRANCH   2   3
ENDBRANCH   1   2
BRANCH   1   9
ATOM      9  C   UNL     1      24.725 -11.327  16.291  1.00  0.00     0.000 C 
BRANCH   9  10
ATOM     10  C   UNL     1      24.008 -12.667  16.516  1.00  0.00    -0.000 C 
BRANCH  10  11
ATOM     11  C   UNL     1      23.908 -13.054  18.002  1.00  0.00    -0.000 C 
BRANCH  11  12
ATOM     12  C   UNL     1      22.661 -12.520  18.730  1.00  0.00    -0.000 C 
BRANCH  12  13
ATOM     13  C   UNL     1      22.785 -12.591  20.258  1.00  0.00    -0.003 C 
ATOM     14  C   UNL     1      22.996 -11.203  20.858  1.00  0.00     0.004 C 
ENDBRANCH  12  13
ENDBRANCH  11  12
ENDBRANCH  10  11
ENDBRANCH   9  10
ENDBRANCH   1   9
TORSDOF 10
ENDMDL
MODEL 9
REMARK VINA RESULT:    -4.864      1.504      2.554
REMARK INTER + INTRA:          -8.213
REMARK INTER:                  -7.631
REMARK INTRA:                  -0.582
REMARK UNBOUND:                -0.505
REMARK SMILES CCCCCCCCCCCC(=O)[O-]
REMARK SMILES IDX 7 1 8 2 9 3 10 4 11 5 12 6 13 7 14 8 6 9 5 10 4 11 3 12 2 13
REMARK SMILES IDX 1 14
REMARK H PARENT
REMARK Flexibility Score: inf
ROOT
ATOM      1  C   UNL     1      25.252 -10.866  16.532  1.00  0.00     0.000 C 
ENDROOT
BRANCH   1   2
ATOM      2  C   UNL     1      24.474 -11.933  15.746  1.00  0.00     0.000 C 
BRANCH   2   3
ATOM      3  C   UNL     1      23.370 -12.596  16.582  1.00  0.00     0.000 C 
BRANCH   3   4
ATOM      4  C   UNL     1      23.780 -12.693  18.056  1.00  0.00     0.006 C 
BRANCH   4   5
ATOM      5  C   UNL     1      22.576 -12.482  18.978  1.00  0.00     0.053 C 
BRANCH   5   6
ATOM      6  C   UNL     1      22.954 -11.634  20.151  1.00  0.00     0.041 C 
ATOM      7  O   UNL     1      22.580 -11.953  21.310  1.00  0.00    -0.550 OA
ATOM      8  O   UNL     1      23.762 -10.519  19.970  1.00  0.00    -0.550 OA
ENDBRANCH   5   6
ENDBRANCH   4   5
ENDBRANCH   3   4
ENDBRANCH   2   3
ENDBRANCH   1   2
BRANCH   1   9
ATOM      9  C   UNL     1      26.774 -11.017  16.387  1.00  0.00     0.000 C 
BRANCH   9  10
ATOM     10  C   UNL     1      27.341  -9.957  15.430  1.00  0.00    -0.000 C 
BRANCH  10  11
ATOM     11  C   UNL     1      28.311  -8.981  16.120  1.00  0.00    -0.000 C 
BRANCH  11  12
ATOM     12  C   UNL     1      29.666  -8.801  15.410  1.00  0.00    -0.000 C 
BRANCH  12  13
ATOM     13  C   UNL     1      30.535 -10.065  15.452  1.00  0.00    -0.003 C 
ATOM     14  C   UNL     1      30.893 -10.438  16.889  1.00  0.00     0.004 C 
ENDBRANCH  12  13
ENDBRANCH  11  12
ENDBRANCH  10  11
ENDBRANCH   9  10
ENDBRANCH   1   9
TORSDOF 10
ENDMDL
