MODEL 1
REMARK VINA RESULT:    -4.709      0.000      0.000
REMARK INTER + INTRA:         -12.957
REMARK INTER:                 -10.214
REMARK INTRA:                  -2.743
REMARK UNBOUND:                -2.743
REMARK SMILES CCCCCCCCCCCCCCCCCCCCCC(=O)[O-]
REMARK SMILES IDX 12 1 11 2 10 3 9 4 8 5 7 6 6 7 5 8 4 9 3 10 2 11 1 12 13 13
REMARK SMILES IDX 14 14 15 15 16 16 17 17 18 18 19 19 20 20 21 21 22 22 23 23
REMARK SMILES IDX 24 24
REMARK H PARENT
REMARK Flexibility Score: inf
ROOT
ATOM      1  C   UNL     1      44.848   0.139  23.504  1.00  0.00     0.000 C 
ENDROOT
BRANCH   1   2
ATOM      2  C   UNL     1      46.032   0.438  22.569  1.00  0.00     0.000 C 
BRANCH   2   3
ATOM      3  C   UNL     1      46.271   1.945  22.382  1.00  0.00     0.000 C 
BRANCH   3   4
ATOM      4  C   UNL     1      47.606   2.255  21.688  1.00  0.00    -0.000 C 
BRANCH   4   5
ATOM      5  C   UNL     1      47.687   1.566  20.320  1.00  0.00    -0.000 C 
BRANCH   5   6
ATOM      6  C   UNL     1      49.035   0.851  20.143  1.00  0.00    -0.000 C 
BRANCH   6   7
ATOM      7  C   UNL     1      49.441   0.035  21.382  1.00  0.00    -0.000 C 
BRANCH   7   8
ATOM      8  C   UNL     1      50.771  -0.710  21.188  1.00  0.00    -0.000 C 
BRANCH   8   9
ATOM      9  C   UNL     1      50.926  -1.294  19.774  1.00  0.00    -0.000 C 
BRANCH   9  10
ATOM     10  C   UNL     1      52.217  -0.844  19.056  1.00  0.00    -0.000 C 
BRANCH  10  11
ATOM     11  C   UNL     1      53.094   0.050  19.945  1.00  0.00    -0.003 C 
ATOM     12  C   UNL     1      53.042   1.504  19.486  1.00  0.00     0.004 C 
ENDBRANCH  10  11
ENDBRANCH   9  10
ENDBRANCH   8   9
ENDBRANCH   7   8
ENDBRANCH   6   7
ENDBRANCH   5   6
ENDBRANCH   4   5
ENDBRANCH   3   4
ENDBRANCH   2   3
ENDBRANCH   1   2
BRANCH   1  13
ATOM     13  C   UNL     1      45.130   0.539  24.961  1.00  0.00     0.000 C 
BRANCH  13  14
ATOM     14  C   UNL     1      44.000   1.380  25.576  1.00  0.00     0.000 C 
BRANCH  14  15
ATOM     15  C   UNL     1      44.240   2.878  25.336  1.00  0.00     0.000 C 
BRANCH  15  16
ATOM     16  C   UNL     1      43.248   3.488  24.330  1.00  0.00     0.000 C 
BRANCH  16  17
ATOM     17  C   UNL     1      42.073   2.573  23.930  1.00  0.00     0.000 C 
BRANCH  17  18
ATOM     18  C   UNL     1      41.688   2.607  22.439  1.00  0.00     0.000 C 
BRANCH  18  19
ATOM     19  C   UNL     1      42.911   2.615  21.507  1.00  0.00     0.000 C 
BRANCH  19  20
ATOM     20  C   UNL     1      42.987   1.369  20.604  1.00  0.00     0.006 C 
BRANCH  20  21
ATOM     21  C   UNL     1      42.099   0.203  21.071  1.00  0.00     0.053 C 
BRANCH  21  22
ATOM     22  C   UNL     1      41.435  -0.511  19.933  1.00  0.00     0.041 C 
ATOM     23  O   UNL     1      40.913  -1.645  20.112  1.00  0.00    -0.550 OA
ATOM     24  O   UNL     1      41.406   0.067  18.670  1.00  0.00    -0.550 OA
ENDBRANCH  21  22
ENDBRANCH  20  21
ENDBRANCH  19  20
ENDBRANCH  18  19
ENDBRANCH  17  18
ENDBRANCH  16  17
ENDBRANCH  15  16
ENDBRANCH  14  15
ENDBRANCH  13  14
ENDBRANCH   1  13
TORSDOF 20
ENDMDL
MODEL 2
REMARK VINA RESULT:    -4.708      2.635      4.815
REMARK INTER + INTRA:         -12.957
REMARK INTER:                 -10.481
REMARK INTRA:                  -2.476
REMARK UNBOUND:                -2.743
REMARK SMILES CCCCCCCCCCCCCCCCCCCCCC(=O)[O-]
REMARK SMILES IDX 12 1 11 2 10 3 9 4 8 5 7 6 6 7 5 8 4 9 3 10 2 11 1 12 13 13
REMARK SMILES IDX 14 14 15 15 16 16 17 17 18 18 19 19 20 20 21 21 22 22 23 23
REMARK SMILES IDX 24 24
REMARK H PARENT
REMARK Flexibility Score: inf
ROOT
ATOM      1  C   UNL     1      44.363   2.504  17.480  1.00  0.00     0.000 C 
ENDROOT
BRANCH   1   2
ATOM      2  C   UNL     1      44.628   2.495  18.996  1.00  0.00     0.000 C 
BRANCH   2   3
ATOM      3  C   UNL     1      46.107   2.738  19.337  1.00  0.00     0.000 C 
BRANCH   3   4
ATOM      4  C   UNL     1      47.057   2.295  18.215  1.00  0.00    -0.000 C 
BRANCH   4   5
ATOM      5  C   UNL     1      48.399   1.818  18.787  1.00  0.00    -0.000 C 
BRANCH   5   6
ATOM      6  C   UNL     1      48.294   1.572  20.300  1.00  0.00    -0.000 C 
BRANCH   6   7
ATOM      7  C   UNL     1      48.545   0.104  20.681  1.00  0.00    -0.000 C 
BRANCH   7   8
ATOM      8  C   UNL     1      49.641  -0.050  21.748  1.00  0.00    -0.000 C 
BRANCH   8   9
ATOM      9  C   UNL     1      50.810  -0.932  21.279  1.00  0.00    -0.000 C 
BRANCH   9  10
ATOM     10  C   UNL     1      50.816  -1.195  19.757  1.00  0.00    -0.000 C 
BRANCH  10  11
ATOM     11  C   UNL     1      52.095  -0.676  19.084  1.00  0.00    -0.003 C 
ATOM     12  C   UNL     1      52.756   0.414  19.923  1.00  0.00     0.004 C 
ENDBRANCH  10  11
ENDBRANCH   9  10
ENDBRANCH   8   9
ENDBRANCH   7   8
ENDBRANCH   6   7
ENDBRANCH   5   6
ENDBRANCH   4   5
ENDBRANCH   3   4
ENDBRANCH   2   3
ENDBRANCH   1   2
BRANCH   1  13
ATOM     13  C   UNL     1      43.264   1.514  17.066  1.00  0.00     0.000 C 
BRANCH  13  14
ATOM     14  C   UNL     1      41.849   2.037  17.362  1.00  0.00     0.000 C 
BRANCH  14  15
ATOM     15  C   UNL     1      41.079   1.057  18.261  1.00  0.00     0.000 C 
BRANCH  15  16
ATOM     16  C   UNL     1      41.911  -0.179  18.647  1.00  0.00     0.000 C 
BRANCH  16  17
ATOM     17  C   UNL     1      41.704  -0.684  20.090  1.00  0.00     0.000 C 
BRANCH  17  18
ATOM     18  C   UNL     1      42.214   0.257  21.197  1.00  0.00     0.000 C 
BRANCH  18  19
ATOM     19  C   UNL     1      43.503  -0.249  21.865  1.00  0.00     0.000 C 
BRANCH  19  20
ATOM     20  C   UNL     1      44.480   0.887  22.221  1.00  0.00     0.006 C 
BRANCH  20  21
ATOM     21  C   UNL     1      45.641   0.453  23.133  1.00  0.00     0.053 C 
BRANCH  21  22
ATOM     22  C   UNL     1      45.211   0.225  24.549  1.00  0.00     0.041 C 
ATOM     23  O   UNL     1      44.869   1.197  25.274  1.00  0.00    -0.550 OA
ATOM     24  O   UNL     1      45.205  -1.060  25.077  1.00  0.00    -0.550 OA
ENDBRANCH  21  22
ENDBRANCH  20  21
ENDBRANCH  19  20
ENDBRANCH  18  19
ENDBRANCH  17  18
ENDBRANCH  16  17
ENDBRANCH  15  16
ENDBRANCH  14  15
ENDBRANCH  13  14
ENDBRANCH   1  13
TORSDOF 20
ENDMDL
MODEL 3
REMARK VINA RESULT:    -4.634      3.221      7.567
REMARK INTER + INTRA:         -12.796
REMARK INTER:                  -9.456
REMARK INTRA:                  -3.340
REMARK UNBOUND:                -2.743
REMARK SMILES CCCCCCCCCCCCCCCCCCCCCC(=O)[O-]
REMARK SMILES IDX 12 1 11 2 10 3 9 4 8 5 7 6 6 7 5 8 4 9 3 10 2 11 1 12 13 13
REMARK SMILES IDX 14 14 15 15 16 16 17 17 18 18 19 19 20 20 21 21 22 22 23 23
REMARK SMILES IDX 24 24
REMARK H PARENT
REMARK Flexibility Score: inf
ROOT
ATOM      1  C   UNL     1      41.801  -0.647  19.179  1.00  0.00     0.000 C 
ENDROOT
BRANCH   1   2
ATOM      2  C   UNL     1      41.605  -0.284  20.661  1.00  0.00     0.000 C 
BRANCH   2   3
ATOM      3  C   UNL     1      42.749  -0.798  21.550  1.00  0.00     0.000 C 
BRANCH   3   4
ATOM      4  C   UNL     1      42.753  -0.157  22.946  1.00  0.00    -0.000 C 
BRANCH   4   5
ATOM      5  C   UNL     1      43.910  -0.697  23.796  1.00  0.00    -0.000 C 
BRANCH   5   6
ATOM      6  C   UNL     1      44.766   0.451  24.354  1.00  0.00    -0.000 C 
BRANCH   6   7
ATOM      7  C   UNL     1      44.122   1.134  25.571  1.00  0.00    -0.000 C 
BRANCH   7   8
ATOM      8  C   UNL     1      44.269   2.663  25.537  1.00  0.00    -0.000 C 
BRANCH   8   9
ATOM      9  C   UNL     1      42.961   3.379  25.159  1.00  0.00    -0.000 C 
BRANCH   9  10
ATOM     10  C   UNL     1      43.107   4.345  23.964  1.00  0.00    -0.000 C 
BRANCH  10  11
ATOM     11  C   UNL     1      41.921   4.249  22.993  1.00  0.00    -0.003 C 
ATOM     12  C   UNL     1      41.130   2.963  23.214  1.00  0.00     0.004 C 
ENDBRANCH  10  11
ENDBRANCH   9  10
ENDBRANCH   8   9
ENDBRANCH   7   8
ENDBRANCH   6   7
ENDBRANCH   5   6
ENDBRANCH   4   5
ENDBRANCH   3   4
ENDBRANCH   2   3
ENDBRANCH   1   2
BRANCH   1  13
ATOM     13  C   UNL     1      41.700   0.576  18.253  1.00  0.00     0.000 C 
BRANCH  13  14
ATOM     14  C   UNL     1      41.958   1.901  18.988  1.00  0.00     0.000 C 
BRANCH  14  15
ATOM     15  C   UNL     1      43.437   2.305  18.885  1.00  0.00     0.000 C 
BRANCH  15  16
ATOM     16  C   UNL     1      43.924   3.103  20.107  1.00  0.00     0.000 C 
BRANCH  16  17
ATOM     17  C   UNL     1      44.683   2.280  21.168  1.00  0.00     0.000 C 
BRANCH  17  18
ATOM     18  C   UNL     1      45.830   3.021  21.881  1.00  0.00     0.000 C 
BRANCH  18  19
ATOM     19  C   UNL     1      47.203   2.373  21.636  1.00  0.00     0.000 C 
BRANCH  19  20
ATOM     20  C   UNL     1      47.185   0.843  21.818  1.00  0.00     0.006 C 
BRANCH  20  21
ATOM     21  C   UNL     1      48.132   0.088  20.868  1.00  0.00     0.053 C 
BRANCH  21  22
ATOM     22  C   UNL     1      49.564   0.155  21.304  1.00  0.00     0.041 C 
ATOM     23  O   UNL     1      50.371   0.926  20.718  1.00  0.00    -0.550 OA
ATOM     24  O   UNL     1      50.013  -0.646  22.345  1.00  0.00    -0.550 OA
ENDBRANCH  21  22
ENDBRANCH  20  21
ENDBRANCH  19  20
ENDBRANCH  18  19
ENDBRANCH  17  18
ENDBRANCH  16  17
ENDBRANCH  15  16
ENDBRANCH  14  15
ENDBRANCH  13  14
ENDBRANCH   1  13
TORSDOF 20
ENDMDL
MODEL 4
REMARK VINA RESULT:    -4.634      3.144      7.019
REMARK INTER + INTRA:         -12.795
REMARK INTER:                  -9.276
REMARK INTRA:                  -3.519
REMARK UNBOUND:                -2.743
REMARK SMILES CCCCCCCCCCCCCCCCCCCCCC(=O)[O-]
REMARK SMILES IDX 12 1 11 2 10 3 9 4 8 5 7 6 6 7 5 8 4 9 3 10 2 11 1 12 13 13
REMARK SMILES IDX 14 14 15 15 16 16 17 17 18 18 19 19 20 20 21 21 22 22 23 23
REMARK SMILES IDX 24 24
REMARK H PARENT
REMARK Flexibility Score: inf
ROOT
ATOM      1  C   UNL     1      43.933   2.533  26.273  1.00  0.00     0.000 C 
ENDROOT
BRANCH   1   2
ATOM      2  C   UNL     1      43.844   3.714  25.291  1.00  0.00     0.000 C 
BRANCH   2   3
ATOM      3  C   UNL     1      44.807   3.566  24.102  1.00  0.00     0.000 C 
BRANCH   3   4
ATOM      4  C   UNL     1      44.206   4.071  22.782  1.00  0.00    -0.000 C 
BRANCH   4   5
ATOM      5  C   UNL     1      42.700   3.785  22.719  1.00  0.00    -0.000 C 
BRANCH   5   6
ATOM      6  C   UNL     1      42.309   3.198  21.354  1.00  0.00    -0.000 C 
BRANCH   6   7
ATOM      7  C   UNL     1      43.447   3.280  20.324  1.00  0.00    -0.000 C 
BRANCH   7   8
ATOM      8  C   UNL     1      43.326   2.213  19.225  1.00  0.00    -0.000 C 
BRANCH   8   9
ATOM      9  C   UNL     1      42.067   1.343  19.374  1.00  0.00    -0.000 C 
BRANCH   9  10
ATOM     10  C   UNL     1      41.994   0.179  18.362  1.00  0.00    -0.000 C 
BRANCH  10  11
ATOM     11  C   UNL     1      41.289  -1.054  18.947  1.00  0.00    -0.003 C 
ATOM     12  C   UNL     1      41.263  -1.003  20.471  1.00  0.00     0.004 C 
ENDBRANCH  10  11
ENDBRANCH   9  10
ENDBRANCH   8   9
ENDBRANCH   7   8
ENDBRANCH   6   7
ENDBRANCH   5   6
ENDBRANCH   4   5
ENDBRANCH   3   4
ENDBRANCH   2   3
ENDBRANCH   1   2
BRANCH   1  13
ATOM     13  C   UNL     1      44.170   1.191  25.563  1.00  0.00     0.000 C 
BRANCH  13  14
ATOM     14  C   UNL     1      42.866   0.425  25.287  1.00  0.00     0.000 C 
BRANCH  14  15
ATOM     15  C   UNL     1      42.636   0.261  23.777  1.00  0.00     0.000 C 
BRANCH  15  16
ATOM     16  C   UNL     1      43.768  -0.516  23.081  1.00  0.00     0.000 C 
BRANCH  16  17
ATOM     17  C   UNL     1      44.578   0.292  22.047  1.00  0.00     0.000 C 
BRANCH  17  18
ATOM     18  C   UNL     1      46.052   0.547  22.416  1.00  0.00     0.000 C 
BRANCH  18  19
ATOM     19  C   UNL     1      46.870   1.120  21.248  1.00  0.00     0.000 C 
BRANCH  19  20
ATOM     20  C   UNL     1      48.334   1.416  21.629  1.00  0.00     0.006 C 
BRANCH  20  21
ATOM     21  C   UNL     1      49.367   0.824  20.654  1.00  0.00     0.053 C 
BRANCH  21  22
ATOM     22  C   UNL     1      50.171  -0.283  21.263  1.00  0.00     0.041 C 
ATOM     23  O   UNL     1      49.939  -0.662  22.443  1.00  0.00    -0.550 OA
ATOM     24  O   UNL     1      51.191  -0.885  20.537  1.00  0.00    -0.550 OA
ENDBRANCH  21  22
ENDBRANCH  20  21
ENDBRANCH  19  20
ENDBRANCH  18  19
ENDBRANCH  17  18
ENDBRANCH  16  17
ENDBRANCH  15  16
ENDBRANCH  14  15
ENDBRANCH  13  14
ENDBRANCH   1  13
TORSDOF 20
ENDMDL
MODEL 5
REMARK VINA RESULT:    -4.578      2.451      4.913
REMARK INTER + INTRA:         -12.675
REMARK INTER:                 -10.690
REMARK INTRA:                  -1.985
REMARK UNBOUND:                -2.743
REMARK SMILES CCCCCCCCCCCCCCCCCCCCCC(=O)[O-]
REMARK SMILES IDX 12 1 11 2 10 3 9 4 8 5 7 6 6 7 5 8 4 9 3 10 2 11 1 12 13 13
REMARK SMILES IDX 14 14 15 15 16 16 17 17 18 18 19 19 20 20 21 21 22 22 23 23
REMARK SMILES IDX 24 24
REMARK H PARENT
REMARK Flexibility Score: inf
ROOT
ATOM      1  C   UNL     1      41.986   1.978  17.152  1.00  0.00     0.000 C 
ENDROOT
BRANCH   1   2
ATOM      2  C   UNL     1      43.372   1.393  16.831  1.00  0.00     0.000 C 
BRANCH   2   3
ATOM      3  C   UNL     1      44.495   2.435  16.955  1.00  0.00     0.000 C 
BRANCH   3   4
ATOM      4  C   UNL     1      44.873   2.733  18.414  1.00  0.00    -0.000 C 
BRANCH   4   5
ATOM      5  C   UNL     1      46.343   2.385  18.682  1.00  0.00    -0.000 C 
BRANCH   5   6
ATOM      6  C   UNL     1      46.662   2.468  20.183  1.00  0.00    -0.000 C 
BRANCH   6   7
ATOM      7  C   UNL     1      48.064   1.937  20.522  1.00  0.00    -0.000 C 
BRANCH   7   8
ATOM      8  C   UNL     1      48.086   0.413  20.719  1.00  0.00    -0.000 C 
BRANCH   8   9
ATOM      9  C   UNL     1      49.350  -0.077  21.445  1.00  0.00    -0.000 C 
BRANCH   9  10
ATOM     10  C   UNL     1      50.637   0.049  20.601  1.00  0.00    -0.000 C 
BRANCH  10  11
ATOM     11  C   UNL     1      51.000  -1.268  19.898  1.00  0.00    -0.003 C 
ATOM     12  C   UNL     1      51.747  -1.008  18.593  1.00  0.00     0.004 C 
ENDBRANCH  10  11
ENDBRANCH   9  10
ENDBRANCH   8   9
ENDBRANCH   7   8
ENDBRANCH   6   7
ENDBRANCH   5   6
ENDBRANCH   4   5
ENDBRANCH   3   4
ENDBRANCH   2   3
ENDBRANCH   1   2
BRANCH   1  13
ATOM     13  C   UNL     1      41.128   1.032  18.005  1.00  0.00     0.000 C 
BRANCH  13  14
ATOM     14  C   UNL     1      41.918  -0.178  18.528  1.00  0.00     0.000 C 
BRANCH  14  15
ATOM     15  C   UNL     1      41.297  -0.719  19.825  1.00  0.00     0.000 C 
BRANCH  15  16
ATOM     16  C   UNL     1      42.104  -0.338  21.079  1.00  0.00     0.000 C 
BRANCH  16  17
ATOM     17  C   UNL     1      42.616   1.117  21.112  1.00  0.00     0.000 C 
BRANCH  17  18
ATOM     18  C   UNL     1      43.985   1.319  21.788  1.00  0.00     0.000 C 
BRANCH  18  19
ATOM     19  C   UNL     1      44.521   0.037  22.448  1.00  0.00     0.000 C 
BRANCH  19  20
ATOM     20  C   UNL     1      45.575   0.318  23.536  1.00  0.00     0.006 C 
BRANCH  20  21
ATOM     21  C   UNL     1      45.174  -0.173  24.938  1.00  0.00     0.053 C 
BRANCH  21  22
ATOM     22  C   UNL     1      43.768  -0.688  24.993  1.00  0.00     0.041 C 
ATOM     23  O   UNL     1      42.800   0.115  25.078  1.00  0.00    -0.550 OA
ATOM     24  O   UNL     1      43.526  -2.055  24.967  1.00  0.00    -0.550 OA
ENDBRANCH  21  22
ENDBRANCH  20  21
ENDBRANCH  19  20
ENDBRANCH  18  19
ENDBRANCH  17  18
ENDBRANCH  16  17
ENDBRANCH  15  16
ENDBRANCH  14  15
ENDBRANCH  13  14
ENDBRANCH   1  13
TORSDOF 20
ENDMDL
MODEL 6
REMARK VINA RESULT:    -4.545      1.748      2.789
REMARK INTER + INTRA:         -12.602
REMARK INTER:                  -9.976
REMARK INTRA:                  -2.626
REMARK UNBOUND:                -2.743
REMARK SMILES CCCCCCCCCCCCCCCCCCCCCC(=O)[O-]
REMARK SMILES IDX 12 1 11 2 10 3 9 4 8 5 7 6 6 7 5 8 4 9 3 10 2 11 1 12 13 13
REMARK SMILES IDX 14 14 15 15 16 16 17 17 18 18 19 19 20 20 21 21 22 22 23 23
REMARK SMILES IDX 24 24
REMARK H PARENT
REMARK Flexibility Score: inf
ROOT
ATOM      1  C   UNL     1      45.219   3.751  24.225  1.00  0.00     0.000 C 
ENDROOT
BRANCH   1   2
ATOM      2  C   UNL     1      45.709   3.668  22.769  1.00  0.00     0.000 C 
BRANCH   2   3
ATOM      3  C   UNL     1      44.879   2.689  21.922  1.00  0.00     0.000 C 
BRANCH   3   4
ATOM      4  C   UNL     1      45.749   1.688  21.146  1.00  0.00    -0.000 C 
BRANCH   4   5
ATOM      5  C   UNL     1      46.466   0.727  22.103  1.00  0.00    -0.000 C 
BRANCH   5   6
ATOM      6  C   UNL     1      47.834   0.310  21.539  1.00  0.00    -0.000 C 
BRANCH   6   7
ATOM      7  C   UNL     1      48.160   0.997  20.203  1.00  0.00    -0.000 C 
BRANCH   7   8
ATOM      8  C   UNL     1      49.645   1.371  20.079  1.00  0.00    -0.000 C 
BRANCH   8   9
ATOM      9  C   UNL     1      50.583   0.272  20.605  1.00  0.00    -0.000 C 
BRANCH   9  10
ATOM     10  C   UNL     1      50.734  -0.926  19.643  1.00  0.00    -0.000 C 
BRANCH  10  11
ATOM     11  C   UNL     1      52.137  -0.998  19.022  1.00  0.00    -0.003 C 
ATOM     12  C   UNL     1      52.062  -1.118  17.503  1.00  0.00     0.004 C 
ENDBRANCH  10  11
ENDBRANCH   9  10
ENDBRANCH   8   9
ENDBRANCH   7   8
ENDBRANCH   6   7
ENDBRANCH   5   6
ENDBRANCH   4   5
ENDBRANCH   3   4
ENDBRANCH   2   3
ENDBRANCH   1   2
BRANCH   1  13
ATOM     13  C   UNL     1      44.022   2.827  24.499  1.00  0.00     0.000 C 
BRANCH  13  14
ATOM     14  C   UNL     1      44.304   1.804  25.612  1.00  0.00     0.000 C 
BRANCH  14  15
ATOM     15  C   UNL     1      44.385   0.381  25.039  1.00  0.00     0.000 C 
BRANCH  15  16
ATOM     16  C   UNL     1      43.086  -0.057  24.340  1.00  0.00     0.000 C 
BRANCH  16  17
ATOM     17  C   UNL     1      43.253  -0.532  22.882  1.00  0.00     0.000 C 
BRANCH  17  18
ATOM     18  C   UNL     1      42.286   0.103  21.866  1.00  0.00     0.000 C 
BRANCH  18  19
ATOM     19  C   UNL     1      42.045  -0.785  20.634  1.00  0.00     0.000 C 
BRANCH  19  20
ATOM     20  C   UNL     1      41.701   0.025  19.369  1.00  0.00     0.006 C 
BRANCH  20  21
ATOM     21  C   UNL     1      42.195   1.482  19.404  1.00  0.00     0.053 C 
BRANCH  21  22
ATOM     22  C   UNL     1      42.802   1.920  18.106  1.00  0.00     0.041 C 
ATOM     23  O   UNL     1      43.875   2.581  18.097  1.00  0.00    -0.550 OA
ATOM     24  O   UNL     1      42.173   1.615  16.906  1.00  0.00    -0.550 OA
ENDBRANCH  21  22
ENDBRANCH  20  21
ENDBRANCH  19  20
ENDBRANCH  18  19
ENDBRANCH  17  18
ENDBRANCH  16  17
ENDBRANCH  15  16
ENDBRANCH  14  15
ENDBRANCH  13  14
ENDBRANCH   1  13
TORSDOF 20
ENDMDL
MODEL 7
REMARK VINA RESULT:    -4.530      1.500      3.362
REMARK INTER + INTRA:         -12.570
REMARK INTER:                  -9.842
REMARK INTRA:                  -2.728
REMARK UNBOUND:                -2.743
REMARK SMILES CCCCCCCCCCCCCCCCCCCCCC(=O)[O-]
REMARK SMILES IDX 12 1 11 2 10 3 9 4 8 5 7 6 6 7 5 8 4 9 3 10 2 11 1 12 13 13
REMARK SMILES IDX 14 14 15 15 16 16 17 17 18 18 19 19 20 20 21 21 22 22 23 23
REMARK SMILES IDX 24 24
REMARK H PARENT
REMARK Flexibility Score: inf
ROOT
ATOM      1  C   UNL     1      47.019   0.528  21.497  1.00  0.00     0.000 C 
ENDROOT
BRANCH   1   2
ATOM      2  C   UNL     1      48.385   0.180  20.881  1.00  0.00     0.000 C 
BRANCH   2   3
ATOM      3  C   UNL     1      49.403  -0.292  21.933  1.00  0.00     0.000 C 
BRANCH   3   4
ATOM      4  C   UNL     1      50.813  -0.481  21.354  1.00  0.00    -0.000 C 
BRANCH   4   5
ATOM      5  C   UNL     1      50.763  -1.241  20.022  1.00  0.00    -0.000 C 
BRANCH   5   6
ATOM      6  C   UNL     1      52.012  -0.949  19.176  1.00  0.00    -0.000 C 
BRANCH   6   7
ATOM      7  C   UNL     1      52.666   0.397  19.527  1.00  0.00    -0.000 C 
BRANCH   7   8
ATOM      8  C   UNL     1      52.241   1.526  18.574  1.00  0.00    -0.000 C 
BRANCH   8   9
ATOM      9  C   UNL     1      50.982   2.268  19.054  1.00  0.00    -0.000 C 
BRANCH   9  10
ATOM     10  C   UNL     1      51.258   3.293  20.176  1.00  0.00    -0.000 C 
BRANCH  10  11
ATOM     11  C   UNL     1      49.963   3.904  20.734  1.00  0.00    -0.003 C 
ATOM     12  C   UNL     1      49.978   3.927  22.259  1.00  0.00     0.004 C 
ENDBRANCH  10  11
ENDBRANCH   9  10
ENDBRANCH   8   9
ENDBRANCH   7   8
ENDBRANCH   6   7
ENDBRANCH   5   6
ENDBRANCH   4   5
ENDBRANCH   3   4
ENDBRANCH   2   3
ENDBRANCH   1   2
BRANCH   1  13
ATOM     13  C   UNL     1      46.958   1.970  22.025  1.00  0.00     0.000 C 
BRANCH  13  14
ATOM     14  C   UNL     1      45.520   2.456  22.262  1.00  0.00     0.000 C 
BRANCH  14  15
ATOM     15  C   UNL     1      45.282   2.757  23.750  1.00  0.00     0.000 C 
BRANCH  15  16
ATOM     16  C   UNL     1      44.962   1.495  24.571  1.00  0.00     0.000 C 
BRANCH  16  17
ATOM     17  C   UNL     1      43.486   1.343  24.993  1.00  0.00     0.000 C 
BRANCH  17  18
ATOM     18  C   UNL     1      42.567   0.684  23.947  1.00  0.00     0.000 C 
BRANCH  18  19
ATOM     19  C   UNL     1      43.122  -0.650  23.419  1.00  0.00     0.000 C 
BRANCH  19  20
ATOM     20  C   UNL     1      43.426  -0.617  21.909  1.00  0.00     0.006 C 
BRANCH  20  21
ATOM     21  C   UNL     1      42.591   0.409  21.123  1.00  0.00     0.053 C 
BRANCH  21  22
ATOM     22  C   UNL     1      41.658  -0.233  20.142  1.00  0.00     0.041 C 
ATOM     23  O   UNL     1      41.364   0.354  19.067  1.00  0.00    -0.550 OA
ATOM     24  O   UNL     1      41.097  -1.473  20.423  1.00  0.00    -0.550 OA
ENDBRANCH  21  22
ENDBRANCH  20  21
ENDBRANCH  19  20
ENDBRANCH  18  19
ENDBRANCH  17  18
ENDBRANCH  16  17
ENDBRANCH  15  16
ENDBRANCH  14  15
ENDBRANCH  13  14
ENDBRANCH   1  13
TORSDOF 20
ENDMDL
MODEL 8
REMARK VINA RESULT:    -4.508      3.064      7.240
REMARK INTER + INTRA:         -12.522
REMARK INTER:                  -8.994
REMARK INTRA:                  -3.528
REMARK UNBOUND:                -2.743
REMARK SMILES CCCCCCCCCCCCCCCCCCCCCC(=O)[O-]
REMARK SMILES IDX 12 1 11 2 10 3 9 4 8 5 7 6 6 7 5 8 4 9 3 10 2 11 1 12 13 13
REMARK SMILES IDX 14 14 15 15 16 16 17 17 18 18 19 19 20 20 21 21 22 22 23 23
REMARK SMILES IDX 24 24
REMARK H PARENT
REMARK Flexibility Score: inf
ROOT
ATOM      1  C   UNL     1      41.853  -0.441  18.899  1.00  0.00     0.000 C 
ENDROOT
BRANCH   1   2
ATOM      2  C   UNL     1      41.521  -0.566  20.396  1.00  0.00     0.000 C 
BRANCH   2   3
ATOM      3  C   UNL     1      42.781  -0.627  21.276  1.00  0.00     0.000 C 
BRANCH   3   4
ATOM      4  C   UNL     1      43.285   0.763  21.692  1.00  0.00    -0.000 C 
BRANCH   4   5
ATOM      5  C   UNL     1      42.116   1.740  21.872  1.00  0.00    -0.000 C 
BRANCH   5   6
ATOM      6  C   UNL     1      42.484   2.862  22.856  1.00  0.00    -0.000 C 
BRANCH   6   7
ATOM      7  C   UNL     1      43.880   2.676  23.472  1.00  0.00    -0.000 C 
BRANCH   7   8
ATOM      8  C   UNL     1      43.868   2.786  25.005  1.00  0.00    -0.000 C 
BRANCH   8   9
ATOM      9  C   UNL     1      44.494   1.562  25.695  1.00  0.00    -0.000 C 
BRANCH   9  10
ATOM     10  C   UNL     1      45.256   0.629  24.729  1.00  0.00    -0.000 C 
BRANCH  10  11
ATOM     11  C   UNL     1      44.942  -0.853  24.986  1.00  0.00    -0.003 C 
ATOM     12  C   UNL     1      43.445  -1.125  24.882  1.00  0.00     0.004 C 
ENDBRANCH  10  11
ENDBRANCH   9  10
ENDBRANCH   8   9
ENDBRANCH   7   8
ENDBRANCH   6   7
ENDBRANCH   5   6
ENDBRANCH   4   5
ENDBRANCH   3   4
ENDBRANCH   2   3
ENDBRANCH   1   2
BRANCH   1  13
ATOM     13  C   UNL     1      41.158   0.759  18.237  1.00  0.00     0.000 C 
BRANCH  13  14
ATOM     14  C   UNL     1      42.067   1.995  18.144  1.00  0.00     0.000 C 
BRANCH  14  15
ATOM     15  C   UNL     1      43.380   1.656  17.421  1.00  0.00     0.000 C 
BRANCH  15  16
ATOM     16  C   UNL     1      44.550   2.556  17.854  1.00  0.00     0.000 C 
BRANCH  16  17
ATOM     17  C   UNL     1      44.475   3.079  19.303  1.00  0.00     0.000 C 
BRANCH  17  18
ATOM     18  C   UNL     1      45.833   3.308  19.993  1.00  0.00     0.000 C 
BRANCH  18  19
ATOM     19  C   UNL     1      46.425   2.021  20.592  1.00  0.00     0.000 C 
BRANCH  19  20
ATOM     20  C   UNL     1      47.263   2.279  21.858  1.00  0.00     0.006 C 
BRANCH  20  21
ATOM     21  C   UNL     1      48.781   2.147  21.642  1.00  0.00     0.053 C 
BRANCH  21  22
ATOM     22  C   UNL     1      49.172   0.820  21.068  1.00  0.00     0.041 C 
ATOM     23  O   UNL     1      49.048  -0.230  21.753  1.00  0.00    -0.550 OA
ATOM     24  O   UNL     1      49.691   0.744  19.781  1.00  0.00    -0.550 OA
ENDBRANCH  21  22
ENDBRANCH  20  21
ENDBRANCH  19  20
ENDBRANCH  18  19
ENDBRANCH  17  18
ENDBRANCH  16  17
ENDBRANCH  15  16
ENDBRANCH  14  15
ENDBRANCH  13  14
ENDBRANCH   1  13
TORSDOF 20
ENDMDL
MODEL 9
REMARK VINA RESULT:    -4.487      3.665      8.109
REMARK INTER + INTRA:         -12.477
REMARK INTER:                 -10.260
REMARK INTRA:                  -2.217
REMARK UNBOUND:                -2.743
REMARK SMILES CCCCCCCCCCCCCCCCCCCCCC(=O)[O-]
REMARK SMILES IDX 12 1 11 2 10 3 9 4 8 5 7 6 6 7 5 8 4 9 3 10 2 11 1 12 13 13
REMARK SMILES IDX 14 14 15 15 16 16 17 17 18 18 19 19 20 20 21 21 22 22 23 23
REMARK SMILES IDX 24 24
REMARK H PARENT
REMARK Flexibility Score: inf
ROOT
ATOM      1  C   UNL     1      44.909   3.220  22.642  1.00  0.00     0.000 C 
ENDROOT
BRANCH   1   2
ATOM      2  C   UNL     1      43.750   3.172  23.652  1.00  0.00     0.000 C 
BRANCH   2   3
ATOM      3  C   UNL     1      44.235   2.960  25.096  1.00  0.00     0.000 C 
BRANCH   3   4
ATOM      4  C   UNL     1      44.068   1.509  25.572  1.00  0.00    -0.000 C 
BRANCH   4   5
ATOM      5  C   UNL     1      45.172   0.612  24.998  1.00  0.00    -0.000 C 
BRANCH   5   6
ATOM      6  C   UNL     1      44.587  -0.700  24.452  1.00  0.00    -0.000 C 
BRANCH   6   7
ATOM      7  C   UNL     1      43.267  -0.490  23.693  1.00  0.00    -0.000 C 
BRANCH   7   8
ATOM      8  C   UNL     1      43.449  -0.539  22.168  1.00  0.00    -0.000 C 
BRANCH   8   9
ATOM      9  C   UNL     1      42.266   0.081  21.406  1.00  0.00    -0.000 C 
BRANCH   9  10
ATOM     10  C   UNL     1      41.556  -0.907  20.455  1.00  0.00    -0.000 C 
BRANCH  10  11
ATOM     11  C   UNL     1      41.852  -0.606  18.978  1.00  0.00    -0.003 C 
ATOM     12  C   UNL     1      41.529   0.845  18.636  1.00  0.00     0.004 C 
ENDBRANCH  10  11
ENDBRANCH   9  10
ENDBRANCH   8   9
ENDBRANCH   7   8
ENDBRANCH   6   7
ENDBRANCH   5   6
ENDBRANCH   4   5
ENDBRANCH   3   4
ENDBRANCH   2   3
ENDBRANCH   1   2
BRANCH   1  13
ATOM     13  C   UNL     1      44.424   3.181  21.184  1.00  0.00     0.000 C 
BRANCH  13  14
ATOM     14  C   UNL     1      45.193   2.161  20.330  1.00  0.00     0.000 C 
BRANCH  14  15
ATOM     15  C   UNL     1      46.658   2.062  20.781  1.00  0.00     0.000 C 
BRANCH  15  16
ATOM     16  C   UNL     1      46.935   0.822  21.649  1.00  0.00     0.000 C 
BRANCH  16  17
ATOM     17  C   UNL     1      48.277   0.114  21.373  1.00  0.00     0.000 C 
BRANCH  17  18
ATOM     18  C   UNL     1      49.337   0.968  20.653  1.00  0.00     0.000 C 
BRANCH  18  19
ATOM     19  C   UNL     1      50.149   0.168  19.621  1.00  0.00     0.000 C 
BRANCH  19  20
ATOM     20  C   UNL     1      50.906  -1.021  20.243  1.00  0.00     0.006 C 
BRANCH  20  21
ATOM     21  C   UNL     1      52.438  -0.910  20.144  1.00  0.00     0.053 C 
BRANCH  21  22
ATOM     22  C   UNL     1      52.882   0.227  19.276  1.00  0.00     0.041 C 
ATOM     23  O   UNL     1      53.053   0.053  18.040  1.00  0.00    -0.550 OA
ATOM     24  O   UNL     1      53.125   1.475  19.834  1.00  0.00    -0.550 OA
ENDBRANCH  21  22
ENDBRANCH  20  21
ENDBRANCH  19  20
ENDBRANCH  18  19
ENDBRANCH  17  18
ENDBRANCH  16  17
ENDBRANCH  15  16
ENDBRANCH  14  15
ENDBRANCH  13  14
ENDBRANCH   1  13
TORSDOF 20
ENDMDL
