MODEL 1
REMARK VINA RESULT:    -4.363      0.000      0.000
REMARK INTER + INTRA:         -14.030
REMARK INTER:                 -10.994
REMARK INTRA:                  -3.036
REMARK UNBOUND:                -3.036
REMARK SMILES CCCCCCCCCCCCCCCCCCCCCCCCCCCC(=O)[O-]
REMARK SMILES IDX 15 1 16 2 17 3 18 4 19 5 20 6 21 7 22 8 23 9 24 10 25 11
REMARK SMILES IDX 26 12 27 13 28 14 29 15 30 16 14 17 13 18 12 19 11 20 10 21
REMARK SMILES IDX 9 22 8 23 7 24 6 25 5 26 4 27 3 28 2 29 1 30
REMARK H PARENT
REMARK Flexibility Score: inf
ROOT
ATOM      1  C   UNL     1     -22.056  40.739  -6.104  1.00  0.00     0.000 C 
ENDROOT
BRANCH   1   2
ATOM      2  C   UNL     1     -22.318  40.112  -7.482  1.00  0.00     0.000 C 
BRANCH   2   3
ATOM      3  C   UNL     1     -21.297  39.010  -7.790  1.00  0.00     0.000 C 
BRANCH   3   4
ATOM      4  C   UNL     1     -20.570  39.283  -9.115  1.00  0.00     0.000 C 
BRANCH   4   5
ATOM      5  C   UNL     1     -19.037  39.323  -8.966  1.00  0.00     0.000 C 
BRANCH   5   6
ATOM      6  C   UNL     1     -18.435  40.728  -8.783  1.00  0.00     0.000 C 
BRANCH   6   7
ATOM      7  C   UNL     1     -18.218  41.099  -7.308  1.00  0.00     0.000 C 
BRANCH   7   8
ATOM      8  C   UNL     1     -17.364  40.043  -6.594  1.00  0.00     0.000 C 
BRANCH   8   9
ATOM      9  C   UNL     1     -17.996  39.637  -5.256  1.00  0.00     0.000 C 
BRANCH   9  10
ATOM     10  C   UNL     1     -17.064  39.885  -4.057  1.00  0.00     0.000 C 
BRANCH  10  11
ATOM     11  C   UNL     1     -15.708  40.516  -4.439  1.00  0.00     0.000 C 
BRANCH  11  12
ATOM     12  C   UNL     1     -15.597  42.023  -4.119  1.00  0.00     0.006 C 
BRANCH  12  13
ATOM     13  C   UNL     1     -16.735  42.553  -3.225  1.00  0.00     0.053 C 
BRANCH  13  14
ATOM     14  C   UNL     1     -17.954  42.922  -4.013  1.00  0.00     0.041 C 
ATOM     15  O   UNL     1     -17.926  43.908  -4.799  1.00  0.00    -0.550 OA
ATOM     16  O   UNL     1     -19.113  42.163  -3.900  1.00  0.00    -0.550 OA
ENDBRANCH  13  14
ENDBRANCH  12  13
ENDBRANCH  11  12
ENDBRANCH  10  11
ENDBRANCH   9  10
ENDBRANCH   8   9
ENDBRANCH   7   8
ENDBRANCH   6   7
ENDBRANCH   5   6
ENDBRANCH   4   5
ENDBRANCH   3   4
ENDBRANCH   2   3
ENDBRANCH   1   2
BRANCH   1  17
ATOM     17  C   UNL     1     -21.132  41.969  -6.166  1.00  0.00     0.000 C 
BRANCH  17  18
ATOM     18  C   UNL     1     -21.797  43.265  -6.663  1.00  0.00     0.000 C 
BRANCH  18  19
ATOM     19  C   UNL     1     -21.725  43.428  -8.192  1.00  0.00     0.000 C 
BRANCH  19  20
ATOM     20  C   UNL     1     -20.284  43.602  -8.711  1.00  0.00     0.000 C 
BRANCH  20  21
ATOM     21  C   UNL     1     -19.373  44.490  -7.839  1.00  0.00     0.000 C 
BRANCH  21  22
ATOM     22  C   UNL     1     -19.748  45.983  -7.816  1.00  0.00    -0.000 C 
BRANCH  22  23
ATOM     23  C   UNL     1     -19.780  46.623  -6.415  1.00  0.00    -0.000 C 
BRANCH  23  24
ATOM     24  C   UNL     1     -21.185  46.962  -5.884  1.00  0.00    -0.000 C 
BRANCH  24  25
ATOM     25  C   UNL     1     -22.276  46.845  -6.964  1.00  0.00    -0.000 C 
BRANCH  25  26
ATOM     26  C   UNL     1     -23.686  47.125  -6.419  1.00  0.00    -0.000 C 
BRANCH  26  27
ATOM     27  C   UNL     1     -24.275  45.928  -5.651  1.00  0.00    -0.000 C 
BRANCH  27  28
ATOM     28  C   UNL     1     -24.715  44.786  -6.582  1.00  0.00    -0.000 C 
BRANCH  28  29
ATOM     29  C   UNL     1     -25.629  45.269  -7.719  1.00  0.00    -0.003 C 
ATOM     30  C   UNL     1     -24.981  45.031  -9.081  1.00  0.00     0.004 C 
ENDBRANCH  28  29
ENDBRANCH  27  28
ENDBRANCH  26  27
ENDBRANCH  25  26
ENDBRANCH  24  25
ENDBRANCH  23  24
ENDBRANCH  22  23
ENDBRANCH  21  22
ENDBRANCH  20  21
ENDBRANCH  19  20
ENDBRANCH  18  19
ENDBRANCH  17  18
ENDBRANCH   1  17
TORSDOF 26
ENDMDL
MODEL 2
REMARK VINA RESULT:    -3.884      2.751      7.184
REMARK INTER + INTRA:         -12.823
REMARK INTER:                 -10.211
REMARK INTRA:                  -2.612
REMARK UNBOUND:                -3.036
REMARK SMILES CCCCCCCCCCCCCCCCCCCCCCCCCCCC(=O)[O-]
REMARK SMILES IDX 15 1 16 2 17 3 18 4 19 5 20 6 21 7 22 8 23 9 24 10 25 11
REMARK SMILES IDX 26 12 27 13 28 14 29 15 30 16 14 17 13 18 12 19 11 20 10 21
REMARK SMILES IDX 9 22 8 23 7 24 6 25 5 26 4 27 3 28 2 29 1 30
REMARK H PARENT
REMARK Flexibility Score: inf
ROOT
ATOM      1  C   UNL     1     -19.624  40.955  -4.506  1.00  0.00     0.000 C 
ENDROOT
BRANCH   1   2
ATOM      2  C   UNL     1     -20.682  41.386  -5.534  1.00  0.00     0.000 C 
BRANCH   2   3
ATOM      3  C   UNL     1     -21.332  40.168  -6.201  1.00  0.00     0.000 C 
BRANCH   3   4
ATOM      4  C   UNL     1     -22.480  40.591  -7.129  1.00  0.00     0.000 C 
BRANCH   4   5
ATOM      5  C   UNL     1     -23.613  41.328  -6.390  1.00  0.00     0.000 C 
BRANCH   5   6
ATOM      6  C   UNL     1     -23.681  42.845  -6.645  1.00  0.00     0.000 C 
BRANCH   6   7
ATOM      7  C   UNL     1     -22.846  43.287  -7.856  1.00  0.00     0.000 C 
BRANCH   7   8
ATOM      8  C   UNL     1     -21.845  44.383  -7.464  1.00  0.00     0.000 C 
BRANCH   8   9
ATOM      9  C   UNL     1     -22.572  45.671  -7.055  1.00  0.00     0.000 C 
BRANCH   9  10
ATOM     10  C   UNL     1     -23.240  45.566  -5.673  1.00  0.00     0.000 C 
BRANCH  10  11
ATOM     11  C   UNL     1     -24.009  46.837  -5.252  1.00  0.00     0.000 C 
BRANCH  11  12
ATOM     12  C   UNL     1     -25.269  47.125  -6.095  1.00  0.00     0.006 C 
BRANCH  12  13
ATOM     13  C   UNL     1     -25.819  45.888  -6.833  1.00  0.00     0.053 C 
BRANCH  13  14
ATOM     14  C   UNL     1     -25.878  46.089  -8.315  1.00  0.00     0.041 C 
ATOM     15  O   UNL     1     -26.624  45.360  -9.025  1.00  0.00    -0.550 OA
ATOM     16  O   UNL     1     -25.128  47.095  -8.912  1.00  0.00    -0.550 OA
ENDBRANCH  13  14
ENDBRANCH  12  13
ENDBRANCH  11  12
ENDBRANCH  10  11
ENDBRANCH   9  10
ENDBRANCH   8   9
ENDBRANCH   7   8
ENDBRANCH   6   7
ENDBRANCH   5   6
ENDBRANCH   4   5
ENDBRANCH   3   4
ENDBRANCH   2   3
ENDBRANCH   1   2
BRANCH   1  17
ATOM     17  C   UNL     1     -18.787  39.749  -4.970  1.00  0.00     0.000 C 
BRANCH  17  18
ATOM     18  C   UNL     1     -17.516  40.099  -5.764  1.00  0.00     0.000 C 
BRANCH  18  19
ATOM     19  C   UNL     1     -17.176  39.054  -6.842  1.00  0.00     0.000 C 
BRANCH  19  20
ATOM     20  C   UNL     1     -18.382  38.691  -7.729  1.00  0.00     0.000 C 
BRANCH  20  21
ATOM     21  C   UNL     1     -18.393  39.348  -9.125  1.00  0.00     0.000 C 
BRANCH  21  22
ATOM     22  C   UNL     1     -18.242  40.880  -9.124  1.00  0.00    -0.000 C 
BRANCH  22  23
ATOM     23  C   UNL     1     -19.538  41.660  -8.829  1.00  0.00    -0.000 C 
BRANCH  23  24
ATOM     24  C   UNL     1     -19.333  43.082  -8.274  1.00  0.00    -0.000 C 
BRANCH  24  25
ATOM     25  C   UNL     1     -18.306  43.133  -7.128  1.00  0.00    -0.000 C 
BRANCH  25  26
ATOM     26  C   UNL     1     -18.646  44.198  -6.072  1.00  0.00    -0.000 C 
BRANCH  26  27
ATOM     27  C   UNL     1     -17.534  44.371  -5.022  1.00  0.00    -0.000 C 
BRANCH  27  28
ATOM     28  C   UNL     1     -16.793  43.057  -4.724  1.00  0.00    -0.000 C 
BRANCH  28  29
ATOM     29  C   UNL     1     -16.908  42.634  -3.251  1.00  0.00    -0.003 C 
ATOM     30  C   UNL     1     -16.121  41.354  -2.986  1.00  0.00     0.004 C 
ENDBRANCH  28  29
ENDBRANCH  27  28
ENDBRANCH  26  27
ENDBRANCH  25  26
ENDBRANCH  24  25
ENDBRANCH  23  24
ENDBRANCH  22  23
ENDBRANCH  21  22
ENDBRANCH  20  21
ENDBRANCH  19  20
ENDBRANCH  18  19
ENDBRANCH  17  18
ENDBRANCH   1  17
TORSDOF 26
ENDMDL
MODEL 3
REMARK VINA RESULT:    -3.841      2.360      5.948
REMARK INTER + INTRA:         -12.717
REMARK INTER:                 -10.442
REMARK INTRA:                  -2.275
REMARK UNBOUND:                -3.036
REMARK SMILES CCCCCCCCCCCCCCCCCCCCCCCCCCCC(=O)[O-]
REMARK SMILES IDX 15 1 16 2 17 3 18 4 19 5 20 6 21 7 22 8 23 9 24 10 25 11
REMARK SMILES IDX 26 12 27 13 28 14 29 15 30 16 14 17 13 18 12 19 11 20 10 21
REMARK SMILES IDX 9 22 8 23 7 24 6 25 5 26 4 27 3 28 2 29 1 30
REMARK H PARENT
REMARK Flexibility Score: inf
ROOT
ATOM      1  C   UNL     1     -23.920  43.558  -9.122  1.00  0.00     0.000 C 
ENDROOT
BRANCH   1   2
ATOM      2  C   UNL     1     -24.037  42.792  -7.795  1.00  0.00     0.000 C 
BRANCH   2   3
ATOM      3  C   UNL     1     -24.251  43.753  -6.620  1.00  0.00     0.000 C 
BRANCH   3   4
ATOM      4  C   UNL     1     -23.264  43.463  -5.480  1.00  0.00     0.000 C 
BRANCH   4   5
ATOM      5  C   UNL     1     -21.916  42.906  -5.975  1.00  0.00     0.000 C 
BRANCH   5   6
ATOM      6  C   UNL     1     -21.955  41.449  -6.471  1.00  0.00     0.000 C 
BRANCH   6   7
ATOM      7  C   UNL     1     -20.575  40.923  -6.894  1.00  0.00     0.000 C 
BRANCH   7   8
ATOM      8  C   UNL     1     -19.838  41.948  -7.765  1.00  0.00     0.000 C 
BRANCH   8   9
ATOM      9  C   UNL     1     -18.489  41.395  -8.245  1.00  0.00     0.000 C 
BRANCH   9  10
ATOM     10  C   UNL     1     -17.862  40.405  -7.248  1.00  0.00     0.000 C 
BRANCH  10  11
ATOM     11  C   UNL     1     -17.408  39.076  -7.888  1.00  0.00     0.000 C 
BRANCH  11  12
ATOM     12  C   UNL     1     -18.235  38.650  -9.120  1.00  0.00     0.006 C 
BRANCH  12  13
ATOM     13  C   UNL     1     -18.749  37.198  -9.052  1.00  0.00     0.053 C 
BRANCH  13  14
ATOM     14  C   UNL     1     -20.230  37.128  -8.844  1.00  0.00     0.041 C 
ATOM     15  O   UNL     1     -20.760  36.070  -8.406  1.00  0.00    -0.550 OA
ATOM     16  O   UNL     1     -21.024  38.237  -9.108  1.00  0.00    -0.550 OA
ENDBRANCH  13  14
ENDBRANCH  12  13
ENDBRANCH  11  12
ENDBRANCH  10  11
ENDBRANCH   9  10
ENDBRANCH   8   9
ENDBRANCH   7   8
ENDBRANCH   6   7
ENDBRANCH   5   6
ENDBRANCH   4   5
ENDBRANCH   3   4
ENDBRANCH   2   3
ENDBRANCH   1   2
BRANCH   1  17
ATOM     17  C   UNL     1     -23.822  45.083  -8.933  1.00  0.00     0.000 C 
BRANCH  17  18
ATOM     18  C   UNL     1     -22.391  45.640  -8.826  1.00  0.00     0.000 C 
BRANCH  18  19
ATOM     19  C   UNL     1     -22.326  46.983  -8.078  1.00  0.00     0.000 C 
BRANCH  19  20
ATOM     20  C   UNL     1     -22.413  46.826  -6.548  1.00  0.00     0.000 C 
BRANCH  20  21
ATOM     21  C   UNL     1     -21.058  46.793  -5.812  1.00  0.00     0.000 C 
BRANCH  21  22
ATOM     22  C   UNL     1     -19.876  46.266  -6.647  1.00  0.00    -0.000 C 
BRANCH  22  23
ATOM     23  C   UNL     1     -18.667  45.780  -5.824  1.00  0.00    -0.000 C 
BRANCH  23  24
ATOM     24  C   UNL     1     -18.781  44.342  -5.283  1.00  0.00    -0.000 C 
BRANCH  24  25
ATOM     25  C   UNL     1     -17.459  43.560  -5.382  1.00  0.00    -0.000 C 
BRANCH  25  26
ATOM     26  C   UNL     1     -17.024  42.955  -4.037  1.00  0.00    -0.000 C 
BRANCH  26  27
ATOM     27  C   UNL     1     -16.038  41.784  -4.203  1.00  0.00    -0.000 C 
BRANCH  27  28
ATOM     28  C   UNL     1     -16.676  40.424  -3.879  1.00  0.00    -0.000 C 
BRANCH  28  29
ATOM     29  C   UNL     1     -18.123  40.314  -4.384  1.00  0.00    -0.003 C 
ATOM     30  C   UNL     1     -19.092  40.997  -3.423  1.00  0.00     0.004 C 
ENDBRANCH  28  29
ENDBRANCH  27  28
ENDBRANCH  26  27
ENDBRANCH  25  26
ENDBRANCH  24  25
ENDBRANCH  23  24
ENDBRANCH  22  23
ENDBRANCH  21  22
ENDBRANCH  20  21
ENDBRANCH  19  20
ENDBRANCH  18  19
ENDBRANCH  17  18
ENDBRANCH   1  17
TORSDOF 26
ENDMDL
MODEL 4
REMARK VINA RESULT:    -3.690      1.638      6.541
REMARK INTER + INTRA:         -12.334
REMARK INTER:                  -9.970
REMARK INTRA:                  -2.365
REMARK UNBOUND:                -3.036
REMARK SMILES CCCCCCCCCCCCCCCCCCCCCCCCCCCC(=O)[O-]
REMARK SMILES IDX 15 1 16 2 17 3 18 4 19 5 20 6 21 7 22 8 23 9 24 10 25 11
REMARK SMILES IDX 26 12 27 13 28 14 29 15 30 16 14 17 13 18 12 19 11 20 10 21
REMARK SMILES IDX 9 22 8 23 7 24 6 25 5 26 4 27 3 28 2 29 1 30
REMARK H PARENT
REMARK Flexibility Score: inf
ROOT
ATOM      1  C   UNL     1     -24.246  42.593  -5.798  1.00  0.00     0.000 C 
ENDROOT
BRANCH   1   2
ATOM      2  C   UNL     1     -23.142  43.649  -5.970  1.00  0.00     0.000 C 
BRANCH   2   3
ATOM      3  C   UNL     1     -23.741  45.034  -6.241  1.00  0.00     0.000 C 
BRANCH   3   4
ATOM      4  C   UNL     1     -24.281  45.132  -7.675  1.00  0.00     0.000 C 
BRANCH   4   5
ATOM      5  C   UNL     1     -23.534  46.171  -8.533  1.00  0.00     0.000 C 
BRANCH   5   6
ATOM      6  C   UNL     1     -22.048  45.861  -8.787  1.00  0.00     0.000 C 
BRANCH   6   7
ATOM      7  C   UNL     1     -21.188  47.125  -8.932  1.00  0.00     0.000 C 
BRANCH   7   8
ATOM      8  C   UNL     1     -19.940  47.046  -8.043  1.00  0.00     0.000 C 
BRANCH   8   9
ATOM      9  C   UNL     1     -20.053  45.894  -7.036  1.00  0.00     0.000 C 
BRANCH   9  10
ATOM     10  C   UNL     1     -18.796  45.739  -6.164  1.00  0.00     0.000 C 
BRANCH  10  11
ATOM     11  C   UNL     1     -18.395  44.271  -5.900  1.00  0.00     0.000 C 
BRANCH  11  12
ATOM     12  C   UNL     1     -19.535  43.393  -5.341  1.00  0.00     0.006 C 
BRANCH  12  13
ATOM     13  C   UNL     1     -19.068  42.358  -4.298  1.00  0.00     0.053 C 
BRANCH  13  14
ATOM     14  C   UNL     1     -19.723  41.025  -4.485  1.00  0.00     0.041 C 
ATOM     15  O   UNL     1     -20.562  40.855  -5.412  1.00  0.00    -0.550 OA
ATOM     16  O   UNL     1     -19.391  39.963  -3.653  1.00  0.00    -0.550 OA
ENDBRANCH  13  14
ENDBRANCH  12  13
ENDBRANCH  11  12
ENDBRANCH  10  11
ENDBRANCH   9  10
ENDBRANCH   8   9
ENDBRANCH   7   8
ENDBRANCH   6   7
ENDBRANCH   5   6
ENDBRANCH   4   5
ENDBRANCH   3   4
ENDBRANCH   2   3
ENDBRANCH   1   2
BRANCH   1  17
ATOM     17  C   UNL     1     -23.953  41.285  -6.556  1.00  0.00     0.000 C 
BRANCH  17  18
ATOM     18  C   UNL     1     -22.574  41.215  -7.236  1.00  0.00     0.000 C 
BRANCH  18  19
ATOM     19  C   UNL     1     -22.609  41.660  -8.709  1.00  0.00     0.000 C 
BRANCH  19  20
ATOM     20  C   UNL     1     -21.627  42.808  -9.014  1.00  0.00     0.000 C 
BRANCH  20  21
ATOM     21  C   UNL     1     -20.256  42.703  -8.315  1.00  0.00     0.000 C 
BRANCH  21  22
ATOM     22  C   UNL     1     -19.167  41.973  -9.123  1.00  0.00    -0.000 C 
BRANCH  22  23
ATOM     23  C   UNL     1     -19.145  40.442  -8.947  1.00  0.00    -0.000 C 
BRANCH  23  24
ATOM     24  C   UNL     1     -17.761  39.786  -9.108  1.00  0.00    -0.000 C 
BRANCH  24  25
ATOM     25  C   UNL     1     -17.567  38.568  -8.187  1.00  0.00    -0.000 C 
BRANCH  25  26
ATOM     26  C   UNL     1     -17.698  38.922  -6.697  1.00  0.00    -0.000 C 
BRANCH  26  27
ATOM     27  C   UNL     1     -16.793  40.096  -6.282  1.00  0.00    -0.000 C 
BRANCH  27  28
ATOM     28  C   UNL     1     -16.505  40.116  -4.772  1.00  0.00    -0.000 C 
BRANCH  28  29
ATOM     29  C   UNL     1     -15.559  41.257  -4.365  1.00  0.00    -0.003 C 
ATOM     30  C   UNL     1     -16.201  42.148  -3.305  1.00  0.00     0.004 C 
ENDBRANCH  28  29
ENDBRANCH  27  28
ENDBRANCH  26  27
ENDBRANCH  25  26
ENDBRANCH  24  25
ENDBRANCH  23  24
ENDBRANCH  22  23
ENDBRANCH  21  22
ENDBRANCH  20  21
ENDBRANCH  19  20
ENDBRANCH  18  19
ENDBRANCH  17  18
ENDBRANCH   1  17
TORSDOF 26
ENDMDL
MODEL 5
REMARK VINA RESULT:    -3.606      2.788      7.520
REMARK INTER + INTRA:         -12.123
REMARK INTER:                  -9.903
REMARK INTRA:                  -2.221
REMARK UNBOUND:                -3.036
REMARK SMILES CCCCCCCCCCCCCCCCCCCCCCCCCCCC(=O)[O-]
REMARK SMILES IDX 15 1 16 2 17 3 18 4 19 5 20 6 21 7 22 8 23 9 24 10 25 11
REMARK SMILES IDX 26 12 27 13 28 14 29 15 30 16 14 17 13 18 12 19 11 20 10 21
REMARK SMILES IDX 9 22 8 23 7 24 6 25 5 26 4 27 3 28 2 29 1 30
REMARK H PARENT
REMARK Flexibility Score: inf
ROOT
ATOM      1  C   UNL     1     -21.323  40.513  -4.825  1.00  0.00     0.000 C 
ENDROOT
BRANCH   1   2
ATOM      2  C   UNL     1     -19.941  41.130  -5.093  1.00  0.00     0.000 C 
BRANCH   2   3
ATOM      3  C   UNL     1     -19.946  42.637  -4.808  1.00  0.00     0.000 C 
BRANCH   3   4
ATOM      4  C   UNL     1     -20.194  43.443  -6.091  1.00  0.00     0.000 C 
BRANCH   4   5
ATOM      5  C   UNL     1     -19.022  44.373  -6.456  1.00  0.00     0.000 C 
BRANCH   5   6
ATOM      6  C   UNL     1     -19.318  45.878  -6.327  1.00  0.00     0.000 C 
BRANCH   6   7
ATOM      7  C   UNL     1     -19.395  46.593  -7.685  1.00  0.00     0.000 C 
BRANCH   7   8
ATOM      8  C   UNL     1     -20.298  45.826  -8.660  1.00  0.00     0.000 C 
BRANCH   8   9
ATOM      9  C   UNL     1     -21.707  46.433  -8.700  1.00  0.00     0.000 C 
BRANCH   9  10
ATOM     10  C   UNL     1     -22.172  46.951  -7.328  1.00  0.00     0.000 C 
BRANCH  10  11
ATOM     11  C   UNL     1     -23.705  46.967  -7.153  1.00  0.00     0.000 C 
BRANCH  11  12
ATOM     12  C   UNL     1     -24.250  45.850  -6.237  1.00  0.00     0.006 C 
BRANCH  12  13
ATOM     13  C   UNL     1     -25.464  45.103  -6.823  1.00  0.00     0.053 C 
BRANCH  13  14
ATOM     14  C   UNL     1     -26.473  46.035  -7.421  1.00  0.00     0.041 C 
ATOM     15  O   UNL     1     -27.377  46.537  -6.699  1.00  0.00    -0.550 OA
ATOM     16  O   UNL     1     -26.401  46.368  -8.768  1.00  0.00    -0.550 OA
ENDBRANCH  13  14
ENDBRANCH  12  13
ENDBRANCH  11  12
ENDBRANCH  10  11
ENDBRANCH   9  10
ENDBRANCH   8   9
ENDBRANCH   7   8
ENDBRANCH   6   7
ENDBRANCH   5   6
ENDBRANCH   4   5
ENDBRANCH   3   4
ENDBRANCH   2   3
ENDBRANCH   1   2
BRANCH   1  17
ATOM     17  C   UNL     1     -21.972  39.917  -6.087  1.00  0.00     0.000 C 
BRANCH  17  18
ATOM     18  C   UNL     1     -23.319  40.543  -6.490  1.00  0.00     0.000 C 
BRANCH  18  19
ATOM     19  C   UNL     1     -23.213  42.047  -6.796  1.00  0.00     0.000 C 
BRANCH  19  20
ATOM     20  C   UNL     1     -22.981  42.343  -8.290  1.00  0.00     0.000 C 
BRANCH  20  21
ATOM     21  C   UNL     1     -21.511  42.281  -8.752  1.00  0.00     0.000 C 
BRANCH  21  22
ATOM     22  C   UNL     1     -21.003  40.876  -9.125  1.00  0.00    -0.000 C 
BRANCH  22  23
ATOM     23  C   UNL     1     -19.955  40.289  -8.160  1.00  0.00    -0.000 C 
BRANCH  23  24
ATOM     24  C   UNL     1     -18.595  41.011  -8.155  1.00  0.00    -0.000 C 
BRANCH  24  25
ATOM     25  C   UNL     1     -17.448  40.121  -7.642  1.00  0.00    -0.000 C 
BRANCH  25  26
ATOM     26  C   UNL     1     -17.641  39.686  -6.180  1.00  0.00    -0.000 C 
BRANCH  26  27
ATOM     27  C   UNL     1     -16.362  39.845  -5.339  1.00  0.00    -0.000 C 
BRANCH  27  28
ATOM     28  C   UNL     1     -16.654  40.293  -3.897  1.00  0.00    -0.000 C 
BRANCH  28  29
ATOM     29  C   UNL     1     -15.910  41.581  -3.515  1.00  0.00    -0.003 C 
ATOM     30  C   UNL     1     -16.536  42.797  -4.193  1.00  0.00     0.004 C 
ENDBRANCH  28  29
ENDBRANCH  27  28
ENDBRANCH  26  27
ENDBRANCH  25  26
ENDBRANCH  24  25
ENDBRANCH  23  24
ENDBRANCH  22  23
ENDBRANCH  21  22
ENDBRANCH  20  21
ENDBRANCH  19  20
ENDBRANCH  18  19
ENDBRANCH  17  18
ENDBRANCH   1  17
TORSDOF 26
ENDMDL
MODEL 6
REMARK VINA RESULT:    -3.440      1.384      7.111
REMARK INTER + INTRA:         -11.705
REMARK INTER:                  -9.448
REMARK INTRA:                  -2.257
REMARK UNBOUND:                -3.036
REMARK SMILES CCCCCCCCCCCCCCCCCCCCCCCCCCCC(=O)[O-]
REMARK SMILES IDX 15 1 16 2 17 3 18 4 19 5 20 6 21 7 22 8 23 9 24 10 25 11
REMARK SMILES IDX 26 12 27 13 28 14 29 15 30 16 14 17 13 18 12 19 11 20 10 21
REMARK SMILES IDX 9 22 8 23 7 24 6 25 5 26 4 27 3 28 2 29 1 30
REMARK H PARENT
REMARK Flexibility Score: inf
ROOT
ATOM      1  C   UNL     1     -21.899  42.110  -5.046  1.00  0.00     0.000 C 
ENDROOT
BRANCH   1   2
ATOM      2  C   UNL     1     -22.180  43.418  -5.803  1.00  0.00     0.000 C 
BRANCH   2   3
ATOM      3  C   UNL     1     -23.166  44.301  -5.030  1.00  0.00     0.000 C 
BRANCH   3   4
ATOM      4  C   UNL     1     -22.885  45.791  -5.276  1.00  0.00     0.000 C 
BRANCH   4   5
ATOM      5  C   UNL     1     -24.142  46.584  -5.682  1.00  0.00     0.000 C 
BRANCH   5   6
ATOM      6  C   UNL     1     -25.429  45.749  -5.806  1.00  0.00     0.000 C 
BRANCH   6   7
ATOM      7  C   UNL     1     -25.716  45.300  -7.246  1.00  0.00     0.000 C 
BRANCH   7   8
ATOM      8  C   UNL     1     -24.697  44.250  -7.710  1.00  0.00     0.000 C 
BRANCH   8   9
ATOM      9  C   UNL     1     -24.190  44.562  -9.124  1.00  0.00     0.000 C 
BRANCH   9  10
ATOM     10  C   UNL     1     -22.827  45.275  -9.125  1.00  0.00     0.000 C 
BRANCH  10  11
ATOM     11  C   UNL     1     -22.785  46.547  -8.251  1.00  0.00     0.000 C 
BRANCH  11  12
ATOM     12  C   UNL     1     -21.368  47.116  -8.027  1.00  0.00     0.006 C 
BRANCH  12  13
ATOM     13  C   UNL     1     -20.254  46.053  -8.088  1.00  0.00     0.053 C 
BRANCH  13  14
ATOM     14  C   UNL     1     -19.466  45.980  -6.817  1.00  0.00     0.041 C 
ATOM     15  O   UNL     1     -19.040  47.035  -6.274  1.00  0.00    -0.550 OA
ATOM     16  O   UNL     1     -19.222  44.749  -6.219  1.00  0.00    -0.550 OA
ENDBRANCH  13  14
ENDBRANCH  12  13
ENDBRANCH  11  12
ENDBRANCH  10  11
ENDBRANCH   9  10
ENDBRANCH   8   9
ENDBRANCH   7   8
ENDBRANCH   6   7
ENDBRANCH   5   6
ENDBRANCH   4   5
ENDBRANCH   3   4
ENDBRANCH   2   3
ENDBRANCH   1   2
BRANCH   1  17
ATOM     17  C   UNL     1     -20.958  41.160  -5.811  1.00  0.00     0.000 C 
BRANCH  17  18
ATOM     18  C   UNL     1     -21.658  40.155  -6.744  1.00  0.00     0.000 C 
BRANCH  18  19
ATOM     19  C   UNL     1     -22.438  40.837  -7.882  1.00  0.00     0.000 C 
BRANCH  19  20
ATOM     20  C   UNL     1     -21.546  41.216  -9.080  1.00  0.00     0.000 C 
BRANCH  20  21
ATOM     21  C   UNL     1     -20.712  42.501  -8.899  1.00  0.00     0.000 C 
BRANCH  21  22
ATOM     22  C   UNL     1     -19.193  42.323  -9.077  1.00  0.00    -0.000 C 
BRANCH  22  23
ATOM     23  C   UNL     1     -18.457  41.767  -7.842  1.00  0.00    -0.000 C 
BRANCH  23  24
ATOM     24  C   UNL     1     -17.824  40.376  -8.032  1.00  0.00    -0.000 C 
BRANCH  24  25
ATOM     25  C   UNL     1     -17.186  39.829  -6.742  1.00  0.00    -0.000 C 
BRANCH  25  26
ATOM     26  C   UNL     1     -18.189  39.725  -5.581  1.00  0.00    -0.000 C 
BRANCH  26  27
ATOM     27  C   UNL     1     -17.603  40.213  -4.244  1.00  0.00    -0.000 C 
BRANCH  27  28
ATOM     28  C   UNL     1     -16.357  41.093  -4.430  1.00  0.00    -0.000 C 
BRANCH  28  29
ATOM     29  C   UNL     1     -16.706  42.575  -4.637  1.00  0.00    -0.003 C 
ATOM     30  C   UNL     1     -17.713  43.052  -3.594  1.00  0.00     0.004 C 
ENDBRANCH  28  29
ENDBRANCH  27  28
ENDBRANCH  26  27
ENDBRANCH  25  26
ENDBRANCH  24  25
ENDBRANCH  23  24
ENDBRANCH  22  23
ENDBRANCH  21  22
ENDBRANCH  20  21
ENDBRANCH  19  20
ENDBRANCH  18  19
ENDBRANCH  17  18
ENDBRANCH   1  17
TORSDOF 26
ENDMDL
MODEL 7
REMARK VINA RESULT:    -3.407      2.417      7.350
REMARK INTER + INTRA:         -11.623
REMARK INTER:                  -9.150
REMARK INTRA:                  -2.473
REMARK UNBOUND:                -3.036
REMARK SMILES CCCCCCCCCCCCCCCCCCCCCCCCCCCC(=O)[O-]
REMARK SMILES IDX 15 1 16 2 17 3 18 4 19 5 20 6 21 7 22 8 23 9 24 10 25 11
REMARK SMILES IDX 26 12 27 13 28 14 29 15 30 16 14 17 13 18 12 19 11 20 10 21
REMARK SMILES IDX 9 22 8 23 7 24 6 25 5 26 4 27 3 28 2 29 1 30
REMARK H PARENT
REMARK Flexibility Score: inf
ROOT
ATOM      1  C   UNL     1     -21.036  41.853  -5.907  1.00  0.00     0.000 C 
ENDROOT
BRANCH   1   2
ATOM      2  C   UNL     1     -19.748  42.283  -6.626  1.00  0.00     0.000 C 
BRANCH   2   3
ATOM      3  C   UNL     1     -19.855  43.726  -7.134  1.00  0.00     0.000 C 
BRANCH   3   4
ATOM      4  C   UNL     1     -20.609  43.789  -8.470  1.00  0.00     0.000 C 
BRANCH   4   5
ATOM      5  C   UNL     1     -20.567  45.184  -9.122  1.00  0.00     0.000 C 
BRANCH   5   6
ATOM      6  C   UNL     1     -19.350  46.046  -8.742  1.00  0.00     0.000 C 
BRANCH   6   7
ATOM      7  C   UNL     1     -19.681  47.125  -7.700  1.00  0.00     0.000 C 
BRANCH   7   8
ATOM      8  C   UNL     1     -19.753  46.524  -6.289  1.00  0.00     0.000 C 
BRANCH   8   9
ATOM      9  C   UNL     1     -20.920  47.125  -5.494  1.00  0.00     0.000 C 
BRANCH   9  10
ATOM     10  C   UNL     1     -22.250  47.085  -6.265  1.00  0.00     0.000 C 
BRANCH  10  11
ATOM     11  C   UNL     1     -23.460  46.667  -5.402  1.00  0.00     0.000 C 
BRANCH  11  12
ATOM     12  C   UNL     1     -24.831  46.956  -6.051  1.00  0.00     0.006 C 
BRANCH  12  13
ATOM     13  C   UNL     1     -25.626  45.686  -6.415  1.00  0.00     0.053 C 
BRANCH  13  14
ATOM     14  C   UNL     1     -25.533  45.355  -7.872  1.00  0.00     0.041 C 
ATOM     15  O   UNL     1     -24.598  44.621  -8.297  1.00  0.00    -0.550 OA
ATOM     16  O   UNL     1     -26.490  45.834  -8.758  1.00  0.00    -0.550 OA
ENDBRANCH  13  14
ENDBRANCH  12  13
ENDBRANCH  11  12
ENDBRANCH  10  11
ENDBRANCH   9  10
ENDBRANCH   8   9
ENDBRANCH   7   8
ENDBRANCH   6   7
ENDBRANCH   5   6
ENDBRANCH   4   5
ENDBRANCH   3   4
ENDBRANCH   2   3
ENDBRANCH   1   2
BRANCH   1  17
ATOM     17  C   UNL     1     -21.175  40.325  -5.780  1.00  0.00     0.000 C 
BRANCH  17  18
ATOM     18  C   UNL     1     -22.287  39.693  -6.636  1.00  0.00     0.000 C 
BRANCH  18  19
ATOM     19  C   UNL     1     -22.055  39.871  -8.147  1.00  0.00     0.000 C 
BRANCH  19  20
ATOM     20  C   UNL     1     -20.721  39.265  -8.626  1.00  0.00     0.000 C 
BRANCH  20  21
ATOM     21  C   UNL     1     -19.589  40.282  -8.878  1.00  0.00     0.000 C 
BRANCH  21  22
ATOM     22  C   UNL     1     -18.184  39.670  -9.019  1.00  0.00    -0.000 C 
BRANCH  22  23
ATOM     23  C   UNL     1     -17.313  39.746  -7.750  1.00  0.00    -0.000 C 
BRANCH  23  24
ATOM     24  C   UNL     1     -17.867  38.985  -6.531  1.00  0.00    -0.000 C 
BRANCH  24  25
ATOM     25  C   UNL     1     -17.582  39.702  -5.199  1.00  0.00    -0.000 C 
BRANCH  25  26
ATOM     26  C   UNL     1     -16.400  40.681  -5.291  1.00  0.00    -0.000 C 
BRANCH  26  27
ATOM     27  C   UNL     1     -16.302  41.611  -4.068  1.00  0.00    -0.000 C 
BRANCH  27  28
ATOM     28  C   UNL     1     -16.989  42.967  -4.301  1.00  0.00    -0.000 C 
BRANCH  28  29
ATOM     29  C   UNL     1     -18.211  43.174  -3.392  1.00  0.00    -0.003 C 
ATOM     30  C   UNL     1     -19.043  41.899  -3.294  1.00  0.00     0.004 C 
ENDBRANCH  28  29
ENDBRANCH  27  28
ENDBRANCH  26  27
ENDBRANCH  25  26
ENDBRANCH  24  25
ENDBRANCH  23  24
ENDBRANCH  22  23
ENDBRANCH  21  22
ENDBRANCH  20  21
ENDBRANCH  19  20
ENDBRANCH  18  19
ENDBRANCH  17  18
ENDBRANCH   1  17
TORSDOF 26
ENDMDL
MODEL 8
REMARK VINA RESULT:    -2.991      7.507     11.047
REMARK INTER + INTRA:         -10.574
REMARK INTER:                  -8.637
REMARK INTRA:                  -1.937
REMARK UNBOUND:                -3.036
REMARK SMILES CCCCCCCCCCCCCCCCCCCCCCCCCCCC(=O)[O-]
REMARK SMILES IDX 15 1 16 2 17 3 18 4 19 5 20 6 21 7 22 8 23 9 24 10 25 11
REMARK SMILES IDX 26 12 27 13 28 14 29 15 30 16 14 17 13 18 12 19 11 20 10 21
REMARK SMILES IDX 9 22 8 23 7 24 6 25 5 26 4 27 3 28 2 29 1 30
REMARK H PARENT
REMARK Flexibility Score: inf
ROOT
ATOM      1  C   UNL     1     -18.859  44.127   0.256  1.00  0.00     0.000 C 
ENDROOT
BRANCH   1   2
ATOM      2  C   UNL     1     -17.864  43.739  -0.849  1.00  0.00     0.000 C 
BRANCH   2   3
ATOM      3  C   UNL     1     -18.565  42.979  -1.981  1.00  0.00     0.000 C 
BRANCH   3   4
ATOM      4  C   UNL     1     -17.715  42.985  -3.261  1.00  0.00     0.000 C 
BRANCH   4   5
ATOM      5  C   UNL     1     -16.348  42.298  -3.081  1.00  0.00     0.000 C 
BRANCH   5   6
ATOM      6  C   UNL     1     -15.958  41.318  -4.202  1.00  0.00     0.000 C 
BRANCH   6   7
ATOM      7  C   UNL     1     -16.806  40.038  -4.202  1.00  0.00     0.000 C 
BRANCH   7   8
ATOM      8  C   UNL     1     -18.076  40.219  -5.045  1.00  0.00     0.000 C 
BRANCH   8   9
ATOM      9  C   UNL     1     -17.755  40.149  -6.544  1.00  0.00     0.000 C 
BRANCH   9  10
ATOM     10  C   UNL     1     -18.219  41.399  -7.312  1.00  0.00     0.000 C 
BRANCH  10  11
ATOM     11  C   UNL     1     -18.993  42.415  -6.444  1.00  0.00     0.000 C 
BRANCH  11  12
ATOM     12  C   UNL     1     -20.490  42.540  -6.796  1.00  0.00     0.006 C 
BRANCH  12  13
ATOM     13  C   UNL     1     -21.385  41.512  -6.075  1.00  0.00     0.053 C 
BRANCH  13  14
ATOM     14  C   UNL     1     -22.505  41.026  -6.942  1.00  0.00     0.041 C 
ATOM     15  O   UNL     1     -23.642  40.799  -6.443  1.00  0.00    -0.550 OA
ATOM     16  O   UNL     1     -22.304  40.845  -8.305  1.00  0.00    -0.550 OA
ENDBRANCH  13  14
ENDBRANCH  12  13
ENDBRANCH  11  12
ENDBRANCH  10  11
ENDBRANCH   9  10
ENDBRANCH   8   9
ENDBRANCH   7   8
ENDBRANCH   6   7
ENDBRANCH   5   6
ENDBRANCH   4   5
ENDBRANCH   3   4
ENDBRANCH   2   3
ENDBRANCH   1   2
BRANCH   1  17
ATOM     17  C   UNL     1     -18.633  43.356   1.570  1.00  0.00     0.000 C 
BRANCH  17  18
ATOM     18  C   UNL     1     -19.550  43.766   2.737  1.00  0.00     0.000 C 
BRANCH  18  19
ATOM     19  C   UNL     1     -19.008  43.325   4.108  1.00  0.00     0.000 C 
BRANCH  19  20
ATOM     20  C   UNL     1     -19.499  41.926   4.527  1.00  0.00     0.000 C 
BRANCH  20  21
ATOM     21  C   UNL     1     -20.707  41.387   3.734  1.00  0.00     0.000 C 
BRANCH  21  22
ATOM     22  C   UNL     1     -21.442  40.204   4.390  1.00  0.00    -0.000 C 
BRANCH  22  23
ATOM     23  C   UNL     1     -21.073  39.949   5.865  1.00  0.00    -0.000 C 
BRANCH  23  24
ATOM     24  C   UNL     1     -21.967  38.928   6.594  1.00  0.00    -0.000 C 
BRANCH  24  25
ATOM     25  C   UNL     1     -22.663  37.949   5.631  1.00  0.00    -0.000 C 
BRANCH  25  26
ATOM     26  C   UNL     1     -22.699  36.509   6.170  1.00  0.00    -0.000 C 
BRANCH  26  27
ATOM     27  C   UNL     1     -22.758  36.451   7.707  1.00  0.00    -0.000 C 
BRANCH  27  28
ATOM     28  C   UNL     1     -21.729  35.477   8.302  1.00  0.00    -0.000 C 
BRANCH  28  29
ATOM     29  C   UNL     1     -20.422  36.173   8.710  1.00  0.00    -0.003 C 
ATOM     30  C   UNL     1     -19.450  36.246   7.535  1.00  0.00     0.004 C 
ENDBRANCH  28  29
ENDBRANCH  27  28
ENDBRANCH  26  27
ENDBRANCH  25  26
ENDBRANCH  24  25
ENDBRANCH  23  24
ENDBRANCH  22  23
ENDBRANCH  21  22
ENDBRANCH  20  21
ENDBRANCH  19  20
ENDBRANCH  18  19
ENDBRANCH  17  18
ENDBRANCH   1  17
TORSDOF 26
ENDMDL
