MODEL 1
REMARK VINA RESULT:    -5.569      0.000      0.000
REMARK INTER + INTRA:          -5.894
REMARK INTER:                  -5.894
REMARK INTRA:                   0.000
REMARK UNBOUND:                 0.000
REMARK SMILES O=c1ccc2cc(O)c(O)cc2o1
REMARK SMILES IDX 4 1 3 2 2 3 1 4 13 5 12 6 11 7 9 8 7 9 6 10 5 11 8 12 10 14
REMARK H PARENT 8 13 10 15
REMARK Flexibility Score: inf
ROOT
ATOM      1  C   UNL     1      10.130  -7.208  -9.684  1.00  0.00     0.019 A 
ATOM      2  C   UNL     1       9.335  -7.890 -10.605  1.00  0.00     0.094 A 
ATOM      3  C   UNL     1       7.961  -7.997 -10.366  1.00  0.00     0.336 A 
ATOM      4  O   UNL     1       7.227  -8.609 -11.185  1.00  0.00    -0.246 OA
ATOM      5  O   UNL     1       7.422  -7.456  -9.277  1.00  0.00    -0.423 OA
ATOM      6  C   UNL     1       8.144  -6.797  -8.373  1.00  0.00     0.142 A 
ATOM      7  C   UNL     1       7.522  -6.248  -7.246  1.00  0.00     0.098 A 
ATOM      8  C   UNL     1       8.279  -5.553  -6.292  1.00  0.00     0.161 A 
ATOM      9  C   UNL     1       9.662  -5.406  -6.464  1.00  0.00     0.158 A 
ATOM     10  C   UNL     1      10.292  -5.953  -7.593  1.00  0.00     0.062 A 
ATOM     11  C   UNL     1       9.537  -6.648  -8.547  1.00  0.00     0.022 A 
ENDROOT
BRANCH   9  12
ATOM     12  O   UNL     1      10.406  -4.713  -5.510  1.00  0.00    -0.504 OA
ATOM     13  H   UNL     1      10.275  -3.720  -5.354  1.00  0.00     0.293 HD
ENDBRANCH   9  12
BRANCH   8  14
ATOM     14  O   UNL     1       7.661  -5.005  -5.168  1.00  0.00    -0.504 OA
ATOM     15  H   UNL     1       7.069  -4.187  -5.235  1.00  0.00     0.293 HD
ENDBRANCH   8  14
TORSDOF 2
ENDMDL
MODEL 2
REMARK VINA RESULT:    -5.388      1.254      2.301
REMARK INTER + INTRA:          -5.703
REMARK INTER:                  -5.703
REMARK INTRA:                   0.000
REMARK UNBOUND:                 0.000
REMARK SMILES O=c1ccc2cc(O)c(O)cc2o1
REMARK SMILES IDX 4 1 3 2 2 3 1 4 13 5 12 6 11 7 9 8 7 9 6 10 5 11 8 12 10 14
REMARK H PARENT 8 13 10 15
REMARK Flexibility Score: inf
ROOT
ATOM      1  C   UNL     1       7.613  -7.851  -9.179  1.00  0.00     0.019 A 
ATOM      2  C   UNL     1       8.320  -8.396 -10.251  1.00  0.00     0.094 A 
ATOM      3  C   UNL     1       9.687  -8.124 -10.368  1.00  0.00     0.336 A 
ATOM      4  O   UNL     1      10.344  -8.606 -11.328  1.00  0.00    -0.246 OA
ATOM      5  O   UNL     1      10.302  -7.358  -9.471  1.00  0.00    -0.423 OA
ATOM      6  C   UNL     1       9.664  -6.819  -8.434  1.00  0.00     0.142 A 
ATOM      7  C   UNL     1      10.363  -6.021  -7.522  1.00  0.00     0.098 A 
ATOM      8  C   UNL     1       9.695  -5.451  -6.428  1.00  0.00     0.161 A 
ATOM      9  C   UNL     1       8.324  -5.679  -6.245  1.00  0.00     0.158 A 
ATOM     10  C   UNL     1       7.618  -6.479  -7.157  1.00  0.00     0.062 A 
ATOM     11  C   UNL     1       8.284  -7.049  -8.250  1.00  0.00     0.022 A 
ENDROOT
BRANCH   9  12
ATOM     12  O   UNL     1       7.670  -5.108  -5.155  1.00  0.00    -0.504 OA
ATOM     13  H   UNL     1       8.157  -4.911  -4.288  1.00  0.00     0.293 HD
ENDBRANCH   9  12
BRANCH   8  14
ATOM     14  O   UNL     1      10.390  -4.655  -5.517  1.00  0.00    -0.504 OA
ATOM     15  H   UNL     1       9.953  -4.316  -4.669  1.00  0.00     0.293 HD
ENDBRANCH   8  14
TORSDOF 2
ENDMDL
MODEL 3
REMARK VINA RESULT:    -5.380     17.109     18.225
REMARK INTER + INTRA:          -5.695
REMARK INTER:                  -5.695
REMARK INTRA:                   0.000
REMARK UNBOUND:                 0.000
REMARK SMILES O=c1ccc2cc(O)c(O)cc2o1
REMARK SMILES IDX 4 1 3 2 2 3 1 4 13 5 12 6 11 7 9 8 7 9 6 10 5 11 8 12 10 14
REMARK H PARENT 8 13 10 15
REMARK Flexibility Score: inf
ROOT
ATOM      1  C   UNL     1      20.383  -1.079 -21.711  1.00  0.00     0.019 A 
ATOM      2  C   UNL     1      21.150  -0.410 -22.665  1.00  0.00     0.094 A 
ATOM      3  C   UNL     1      21.875   0.722 -22.279  1.00  0.00     0.336 A 
ATOM      4  O   UNL     1      22.572   1.340 -23.125  1.00  0.00    -0.246 OA
ATOM      5  O   UNL     1      21.831   1.154 -21.021  1.00  0.00    -0.423 OA
ATOM      6  C   UNL     1      21.113   0.544 -20.080  1.00  0.00     0.142 A 
ATOM      7  C   UNL     1      21.106   1.043 -18.773  1.00  0.00     0.098 A 
ATOM      8  C   UNL     1      20.350   0.405 -17.779  1.00  0.00     0.161 A 
ATOM      9  C   UNL     1      19.599  -0.736 -18.092  1.00  0.00     0.158 A 
ATOM     10  C   UNL     1      19.602  -1.241 -19.401  1.00  0.00     0.062 A 
ATOM     11  C   UNL     1      20.357  -0.605 -20.396  1.00  0.00     0.022 A 
ENDROOT
BRANCH   9  12
ATOM     12  O   UNL     1      18.851  -1.363 -17.097  1.00  0.00    -0.504 OA
ATOM     13  H   UNL     1      17.856  -1.524 -17.204  1.00  0.00     0.293 HD
ENDBRANCH   9  12
BRANCH   8  14
ATOM     14  O   UNL     1      20.342   0.901 -16.475  1.00  0.00    -0.504 OA
ATOM     15  H   UNL     1      19.619   0.643 -15.815  1.00  0.00     0.293 HD
ENDBRANCH   8  14
TORSDOF 2
ENDMDL
MODEL 4
REMARK VINA RESULT:    -5.180     16.676     18.238
REMARK INTER + INTRA:          -5.483
REMARK INTER:                  -5.483
REMARK INTRA:                   0.000
REMARK UNBOUND:                 0.000
REMARK SMILES O=c1ccc2cc(O)c(O)cc2o1
REMARK SMILES IDX 4 1 3 2 2 3 1 4 13 5 12 6 11 7 9 8 7 9 6 10 5 11 8 12 10 14
REMARK H PARENT 8 13 10 15
REMARK Flexibility Score: inf
ROOT
ATOM      1  C   UNL     1      19.184  -1.217 -18.395  1.00  0.00     0.019 A 
ATOM      2  C   UNL     1      19.132  -0.620 -17.136  1.00  0.00     0.094 A 
ATOM      3  C   UNL     1      19.852   0.559 -16.916  1.00  0.00     0.336 A 
ATOM      4  O   UNL     1      19.819   1.113 -15.786  1.00  0.00    -0.246 OA
ATOM      5  O   UNL     1      20.575   1.100 -17.893  1.00  0.00    -0.423 OA
ATOM      6  C   UNL     1      20.651   0.563 -19.108  1.00  0.00     0.142 A 
ATOM      7  C   UNL     1      21.427   1.177 -20.097  1.00  0.00     0.098 A 
ATOM      8  C   UNL     1      21.510   0.614 -21.379  1.00  0.00     0.161 A 
ATOM      9  C   UNL     1      20.815  -0.567 -21.674  1.00  0.00     0.158 A 
ATOM     10  C   UNL     1      20.035  -1.188 -20.686  1.00  0.00     0.062 A 
ATOM     11  C   UNL     1      19.951  -0.626 -19.405  1.00  0.00     0.022 A 
ENDROOT
BRANCH   9  12
ATOM     12  O   UNL     1      20.904  -1.119 -22.951  1.00  0.00    -0.504 OA
ATOM     13  H   UNL     1      20.093  -1.506 -23.419  1.00  0.00     0.293 HD
ENDBRANCH   9  12
BRANCH   8  14
ATOM     14  O   UNL     1      22.283   1.225 -22.366  1.00  0.00    -0.504 OA
ATOM     15  H   UNL     1      22.516   0.747 -23.228  1.00  0.00     0.293 HD
ENDBRANCH   8  14
TORSDOF 2
ENDMDL
MODEL 5
REMARK VINA RESULT:    -5.159      1.965      2.757
REMARK INTER + INTRA:          -5.460
REMARK INTER:                  -5.460
REMARK INTRA:                   0.000
REMARK UNBOUND:                 0.000
REMARK SMILES O=c1ccc2cc(O)c(O)cc2o1
REMARK SMILES IDX 4 1 3 2 2 3 1 4 13 5 12 6 11 7 9 8 7 9 6 10 5 11 8 12 10 14
REMARK H PARENT 8 13 10 15
REMARK Flexibility Score: inf
ROOT
ATOM      1  C   UNL     1       8.028  -7.993  -8.480  1.00  0.00     0.019 A 
ATOM      2  C   UNL     1       8.449  -7.315  -9.624  1.00  0.00     0.094 A 
ATOM      3  C   UNL     1       8.860  -5.983  -9.509  1.00  0.00     0.336 A 
ATOM      4  O   UNL     1       9.243  -5.354 -10.529  1.00  0.00    -0.246 OA
ATOM      5  O   UNL     1       8.850  -5.373  -8.326  1.00  0.00    -0.423 OA
ATOM      6  C   UNL     1       8.456  -5.984  -7.211  1.00  0.00     0.142 A 
ATOM      7  C   UNL     1       8.467  -5.292  -5.994  1.00  0.00     0.098 A 
ATOM      8  C   UNL     1       8.052  -5.932  -4.816  1.00  0.00     0.161 A 
ATOM      9  C   UNL     1       7.627  -7.267  -4.854  1.00  0.00     0.158 A 
ATOM     10  C   UNL     1       7.614  -7.965  -6.071  1.00  0.00     0.062 A 
ATOM     11  C   UNL     1       8.028  -7.328  -7.249  1.00  0.00     0.022 A 
ENDROOT
BRANCH   9  12
ATOM     12  O   UNL     1       7.217  -7.893  -3.678  1.00  0.00    -0.504 OA
ATOM     13  H   UNL     1       6.573  -8.676  -3.691  1.00  0.00     0.293 HD
ENDBRANCH   9  12
BRANCH   8  14
ATOM     14  O   UNL     1       8.062  -5.244  -3.603  1.00  0.00    -0.504 OA
ATOM     15  H   UNL     1       8.456  -5.655  -2.765  1.00  0.00     0.293 HD
ENDBRANCH   8  14
TORSDOF 2
ENDMDL
MODEL 6
REMARK VINA RESULT:    -5.143      1.583      2.045
REMARK INTER + INTRA:          -5.444
REMARK INTER:                  -5.444
REMARK INTRA:                   0.000
REMARK UNBOUND:                 0.000
REMARK SMILES O=c1ccc2cc(O)c(O)cc2o1
REMARK SMILES IDX 4 1 3 2 2 3 1 4 13 5 12 6 11 7 9 8 7 9 6 10 5 11 8 12 10 14
REMARK H PARENT 8 13 10 15
REMARK Flexibility Score: inf
ROOT
ATOM      1  C   UNL     1       8.747  -5.635  -8.714  1.00  0.00     0.019 A 
ATOM      2  C   UNL     1       8.730  -6.483  -9.821  1.00  0.00     0.094 A 
ATOM      3  C   UNL     1       8.349  -7.817  -9.647  1.00  0.00     0.336 A 
ATOM      4  O   UNL     1       8.327  -8.598 -10.634  1.00  0.00    -0.246 OA
ATOM      5  O   UNL     1       8.008  -8.270  -8.443  1.00  0.00    -0.423 OA
ATOM      6  C   UNL     1       8.010  -7.495  -7.361  1.00  0.00     0.142 A 
ATOM      7  C   UNL     1       7.642  -8.026  -6.120  1.00  0.00     0.098 A 
ATOM      8  C   UNL     1       7.644  -7.213  -4.977  1.00  0.00     0.161 A 
ATOM      9  C   UNL     1       8.015  -5.865  -5.074  1.00  0.00     0.158 A 
ATOM     10  C   UNL     1       8.385  -5.326  -6.316  1.00  0.00     0.062 A 
ATOM     11  C   UNL     1       8.384  -6.137  -7.459  1.00  0.00     0.022 A 
ENDROOT
BRANCH   9  12
ATOM     12  O   UNL     1       8.013  -5.065  -3.932  1.00  0.00    -0.504 OA
ATOM     13  H   UNL     1       8.782  -4.438  -3.723  1.00  0.00     0.293 HD
ENDBRANCH   9  12
BRANCH   8  14
ATOM     14  O   UNL     1       7.277  -7.740  -3.739  1.00  0.00    -0.504 OA
ATOM     15  H   UNL     1       6.324  -8.023  -3.545  1.00  0.00     0.293 HD
ENDBRANCH   8  14
TORSDOF 2
ENDMDL
MODEL 7
REMARK VINA RESULT:    -5.048      1.726      2.160
REMARK INTER + INTRA:          -5.343
REMARK INTER:                  -5.343
REMARK INTRA:                   0.000
REMARK UNBOUND:                 0.000
REMARK SMILES O=c1ccc2cc(O)c(O)cc2o1
REMARK SMILES IDX 4 1 3 2 2 3 1 4 13 5 12 6 11 7 9 8 7 9 6 10 5 11 8 12 10 14
REMARK H PARENT 8 13 10 15
REMARK Flexibility Score: inf
ROOT
ATOM      1  C   UNL     1      11.440  -7.880 -10.644  1.00  0.00     0.019 A 
ATOM      2  C   UNL     1      10.985  -8.356 -11.873  1.00  0.00     0.094 A 
ATOM      3  C   UNL     1       9.684  -8.046 -12.280  1.00  0.00     0.336 A 
ATOM      4  O   UNL     1       9.254  -8.466 -13.386  1.00  0.00    -0.246 OA
ATOM      5  O   UNL     1       8.893  -7.307 -11.506  1.00  0.00    -0.423 OA
ATOM      6  C   UNL     1       9.288  -6.833 -10.326  1.00  0.00     0.142 A 
ATOM      7  C   UNL     1       8.413  -6.061  -9.555  1.00  0.00     0.098 A 
ATOM      8  C   UNL     1       8.824  -5.559  -8.311  1.00  0.00     0.161 A 
ATOM      9  C   UNL     1      10.116  -5.830  -7.838  1.00  0.00     0.158 A 
ATOM     10  C   UNL     1      10.998  -6.603  -8.607  1.00  0.00     0.062 A 
ATOM     11  C   UNL     1      10.589  -7.105  -9.850  1.00  0.00     0.022 A 
ENDROOT
BRANCH   9  12
ATOM     12  O   UNL     1      10.516  -5.326  -6.600  1.00  0.00    -0.504 OA
ATOM     13  H   UNL     1      10.392  -5.859  -5.747  1.00  0.00     0.293 HD
ENDBRANCH   9  12
BRANCH   8  14
ATOM     14  O   UNL     1       7.954  -4.789  -7.540  1.00  0.00    -0.504 OA
ATOM     15  H   UNL     1       8.184  -4.519  -6.592  1.00  0.00     0.293 HD
ENDBRANCH   8  14
TORSDOF 2
ENDMDL
MODEL 8
REMARK VINA RESULT:    -5.029      1.885      5.176
REMARK INTER + INTRA:          -5.323
REMARK INTER:                  -5.323
REMARK INTRA:                   0.000
REMARK UNBOUND:                 0.000
REMARK SMILES O=c1ccc2cc(O)c(O)cc2o1
REMARK SMILES IDX 4 1 3 2 2 3 1 4 13 5 12 6 11 7 9 8 7 9 6 10 5 11 8 12 10 14
REMARK H PARENT 8 13 10 15
REMARK Flexibility Score: inf
ROOT
ATOM      1  C   UNL     1       8.382  -8.367  -8.369  1.00  0.00     0.019 A 
ATOM      2  C   UNL     1       8.995  -7.612  -7.370  1.00  0.00     0.094 A 
ATOM      3  C   UNL     1       9.426  -6.315  -7.668  1.00  0.00     0.336 A 
ATOM      4  O   UNL     1       9.982  -5.618  -6.780  1.00  0.00    -0.246 OA
ATOM      5  O   UNL     1       9.254  -5.811  -8.887  1.00  0.00    -0.423 OA
ATOM      6  C   UNL     1       8.674  -6.498  -9.869  1.00  0.00     0.142 A 
ATOM      7  C   UNL     1       8.520  -5.916 -11.132  1.00  0.00     0.098 A 
ATOM      8  C   UNL     1       7.909  -6.636 -12.170  1.00  0.00     0.161 A 
ATOM      9  C   UNL     1       7.452  -7.941 -11.945  1.00  0.00     0.158 A 
ATOM     10  C   UNL     1       7.604  -8.530 -10.680  1.00  0.00     0.062 A 
ATOM     11  C   UNL     1       8.213  -7.812  -9.642  1.00  0.00     0.022 A 
ENDROOT
BRANCH   9  12
ATOM     12  O   UNL     1       6.847  -8.648 -12.983  1.00  0.00    -0.504 OA
ATOM     13  H   UNL     1       6.869  -9.661 -13.018  1.00  0.00     0.293 HD
ENDBRANCH   9  12
BRANCH   8  14
ATOM     14  O   UNL     1       7.754  -6.057 -13.430  1.00  0.00    -0.504 OA
ATOM     15  H   UNL     1       8.355  -5.306 -13.746  1.00  0.00     0.293 HD
ENDBRANCH   8  14
TORSDOF 2
ENDMDL
MODEL 9
REMARK VINA RESULT:    -4.948      1.933      2.415
REMARK INTER + INTRA:          -5.237
REMARK INTER:                  -5.237
REMARK INTRA:                   0.000
REMARK UNBOUND:                 0.000
REMARK SMILES O=c1ccc2cc(O)c(O)cc2o1
REMARK SMILES IDX 4 1 3 2 2 3 1 4 13 5 12 6 11 7 9 8 7 9 6 10 5 11 8 12 10 14
REMARK H PARENT 8 13 10 15
REMARK Flexibility Score: inf
ROOT
ATOM      1  C   UNL     1      10.891  -7.403  -8.388  1.00  0.00     0.019 A 
ATOM      2  C   UNL     1      11.379  -7.737  -9.651  1.00  0.00     0.094 A 
ATOM      3  C   UNL     1      10.668  -7.323 -10.783  1.00  0.00     0.336 A 
ATOM      4  O   UNL     1      11.092  -7.615 -11.931  1.00  0.00    -0.246 OA
ATOM      5  O   UNL     1       9.545  -6.622 -10.654  1.00  0.00    -0.423 OA
ATOM      6  C   UNL     1       9.045  -6.282  -9.468  1.00  0.00     0.142 A 
ATOM      7  C   UNL     1       7.859  -5.544  -9.394  1.00  0.00     0.098 A 
ATOM      8  C   UNL     1       7.329  -5.184  -8.147  1.00  0.00     0.161 A 
ATOM      9  C   UNL     1       7.987  -5.563  -6.968  1.00  0.00     0.158 A 
ATOM     10  C   UNL     1       9.177  -6.304  -7.036  1.00  0.00     0.062 A 
ATOM     11  C   UNL     1       9.708  -6.664  -8.282  1.00  0.00     0.022 A 
ENDROOT
BRANCH   9  12
ATOM     12  O   UNL     1       7.452  -5.200  -5.733  1.00  0.00    -0.504 OA
ATOM     13  H   UNL     1       7.745  -4.355  -5.256  1.00  0.00     0.293 HD
ENDBRANCH   9  12
BRANCH   8  14
ATOM     14  O   UNL     1       6.148  -4.447  -8.071  1.00  0.00    -0.504 OA
ATOM     15  H   UNL     1       6.119  -3.465  -8.316  1.00  0.00     0.293 HD
ENDBRANCH   8  14
TORSDOF 2
ENDMDL
