MODEL 1
REMARK VINA RESULT:    -4.101      0.000      0.000
REMARK INTER + INTRA:         -13.551
REMARK INTER:                  -9.376
REMARK INTRA:                  -4.175
REMARK UNBOUND:                -4.175
REMARK SMILES CCCCCCCCCCCCCCCCCCCCCCCC(=O)[O-]
REMARK SMILES IDX 13 1 14 2 15 3 16 4 17 5 18 6 19 7 20 8 21 9 22 10 23 11
REMARK SMILES IDX 24 12 25 13 26 14 12 15 11 16 10 17 9 18 8 19 7 20 6 21 5 22
REMARK SMILES IDX 4 23 3 24 2 25 1 26
REMARK H PARENT
REMARK Flexibility Score: inf
ROOT
ATOM      1  C   UNL     1     -16.905 114.974  -1.357  1.00  0.00     0.000 C 
ENDROOT
BRANCH   1   2
ATOM      2  C   UNL     1     -17.088 115.124  -2.881  1.00  0.00     0.000 C 
BRANCH   2   3
ATOM      3  C   UNL     1     -17.680 113.893  -3.596  1.00  0.00     0.000 C 
BRANCH   3   4
ATOM      4  C   UNL     1     -18.986 114.153  -4.369  1.00  0.00     0.000 C 
BRANCH   4   5
ATOM      5  C   UNL     1     -19.222 115.647  -4.653  1.00  0.00     0.000 C 
BRANCH   5   6
ATOM      6  C   UNL     1     -20.713 116.022  -4.661  1.00  0.00     0.000 C 
BRANCH   6   7
ATOM      7  C   UNL     1     -21.632 114.821  -4.371  1.00  0.00     0.000 C 
BRANCH   7   8
ATOM      8  C   UNL     1     -22.743 115.161  -3.360  1.00  0.00     0.000 C 
BRANCH   8   9
ATOM      9  C   UNL     1     -23.127 116.652  -3.323  1.00  0.00     0.000 C 
BRANCH   9  10
ATOM     10  C   UNL     1     -23.930 117.024  -2.063  1.00  0.00     0.006 C 
BRANCH  10  11
ATOM     11  C   UNL     1     -23.949 115.888  -1.031  1.00  0.00     0.053 C 
BRANCH  11  12
ATOM     12  C   UNL     1     -25.013 116.090   0.003  1.00  0.00     0.041 C 
ATOM     13  O   UNL     1     -25.380 117.254   0.315  1.00  0.00    -0.550 OA
ATOM     14  O   UNL     1     -25.578 114.996   0.644  1.00  0.00    -0.550 OA
ENDBRANCH  11  12
ENDBRANCH  10  11
ENDBRANCH   9  10
ENDBRANCH   8   9
ENDBRANCH   7   8
ENDBRANCH   6   7
ENDBRANCH   5   6
ENDBRANCH   4   5
ENDBRANCH   3   4
ENDBRANCH   2   3
ENDBRANCH   1   2
BRANCH   1  15
ATOM     15  C   UNL     1     -17.807 113.918  -0.694  1.00  0.00     0.000 C 
BRANCH  15  16
ATOM     16  C   UNL     1     -18.981 114.536   0.078  1.00  0.00     0.000 C 
BRANCH  16  17
ATOM     17  C   UNL     1     -20.098 114.973  -0.879  1.00  0.00     0.000 C 
BRANCH  17  18
ATOM     18  C   UNL     1     -20.507 116.428  -0.620  1.00  0.00    -0.000 C 
BRANCH  18  19
ATOM     19  C   UNL     1     -19.652 117.396  -1.454  1.00  0.00    -0.000 C 
BRANCH  19  20
ATOM     20  C   UNL     1     -20.439 118.629  -1.925  1.00  0.00    -0.000 C 
BRANCH  20  21
ATOM     21  C   UNL     1     -19.784 119.951  -1.490  1.00  0.00    -0.000 C 
BRANCH  21  22
ATOM     22  C   UNL     1     -20.813 121.013  -1.057  1.00  0.00    -0.000 C 
BRANCH  22  23
ATOM     23  C   UNL     1     -22.076 120.457  -0.374  1.00  0.00    -0.000 C 
BRANCH  23  24
ATOM     24  C   UNL     1     -23.408 120.864  -1.031  1.00  0.00    -0.000 C 
BRANCH  24  25
ATOM     25  C   UNL     1     -23.418 120.706  -2.567  1.00  0.00    -0.003 C 
ATOM     26  C   UNL     1     -24.597 121.423  -3.224  1.00  0.00     0.004 C 
ENDBRANCH  24  25
ENDBRANCH  23  24
ENDBRANCH  22  23
ENDBRANCH  21  22
ENDBRANCH  20  21
ENDBRANCH  19  20
ENDBRANCH  18  19
ENDBRANCH  17  18
ENDBRANCH  16  17
ENDBRANCH  15  16
ENDBRANCH   1  15
TORSDOF 22
ENDMDL
MODEL 2
REMARK VINA RESULT:    -4.101      2.105      5.635
REMARK INTER + INTRA:         -13.550
REMARK INTER:                  -8.734
REMARK INTRA:                  -4.816
REMARK UNBOUND:                -4.175
REMARK SMILES CCCCCCCCCCCCCCCCCCCCCCCC(=O)[O-]
REMARK SMILES IDX 13 1 14 2 15 3 16 4 17 5 18 6 19 7 20 8 21 9 22 10 23 11
REMARK SMILES IDX 24 12 25 13 26 14 12 15 11 16 10 17 9 18 8 19 7 20 6 21 5 22
REMARK SMILES IDX 4 23 3 24 2 25 1 26
REMARK H PARENT
REMARK Flexibility Score: inf
ROOT
ATOM      1  C   UNL     1     -20.581 120.296  -2.051  1.00  0.00     0.000 C 
ENDROOT
BRANCH   1   2
ATOM      2  C   UNL     1     -21.432 120.750  -0.848  1.00  0.00     0.000 C 
BRANCH   2   3
ATOM      3  C   UNL     1     -21.395 119.814   0.375  1.00  0.00     0.000 C 
BRANCH   3   4
ATOM      4  C   UNL     1     -22.430 118.674   0.357  1.00  0.00     0.000 C 
BRANCH   4   5
ATOM      5  C   UNL     1     -21.888 117.368   0.964  1.00  0.00     0.000 C 
BRANCH   5   6
ATOM      6  C   UNL     1     -22.329 116.121   0.180  1.00  0.00     0.000 C 
BRANCH   6   7
ATOM      7  C   UNL     1     -23.796 116.194  -0.281  1.00  0.00     0.000 C 
BRANCH   7   8
ATOM      8  C   UNL     1     -23.952 115.932  -1.791  1.00  0.00     0.000 C 
BRANCH   8   9
ATOM      9  C   UNL     1     -24.321 117.182  -2.612  1.00  0.00     0.000 C 
BRANCH   9  10
ATOM     10  C   UNL     1     -25.168 118.187  -1.811  1.00  0.00     0.006 C 
BRANCH  10  11
ATOM     11  C   UNL     1     -25.608 119.384  -2.665  1.00  0.00     0.053 C 
BRANCH  11  12
ATOM     12  C   UNL     1     -24.855 120.629  -2.312  1.00  0.00     0.041 C 
ATOM     13  O   UNL     1     -24.129 121.195  -3.171  1.00  0.00    -0.550 OA
ATOM     14  O   UNL     1     -24.932 121.149  -1.026  1.00  0.00    -0.550 OA
ENDBRANCH  11  12
ENDBRANCH  10  11
ENDBRANCH   9  10
ENDBRANCH   8   9
ENDBRANCH   7   8
ENDBRANCH   6   7
ENDBRANCH   5   6
ENDBRANCH   4   5
ENDBRANCH   3   4
ENDBRANCH   2   3
ENDBRANCH   1   2
BRANCH   1  15
ATOM     15  C   UNL     1     -21.291 119.340  -3.026  1.00  0.00     0.000 C 
BRANCH  15  16
ATOM     16  C   UNL     1     -20.779 117.896  -2.924  1.00  0.00     0.000 C 
BRANCH  16  17
ATOM     17  C   UNL     1     -19.568 117.807  -1.986  1.00  0.00     0.000 C 
BRANCH  17  18
ATOM     18  C   UNL     1     -19.216 116.347  -1.679  1.00  0.00    -0.000 C 
BRANCH  18  19
ATOM     19  C   UNL     1     -18.418 115.719  -2.833  1.00  0.00    -0.000 C 
BRANCH  19  20
ATOM     20  C   UNL     1     -19.025 114.395  -3.325  1.00  0.00    -0.000 C 
BRANCH  20  21
ATOM     21  C   UNL     1     -20.321 114.026  -2.583  1.00  0.00    -0.000 C 
BRANCH  21  22
ATOM     22  C   UNL     1     -21.554 114.014  -3.505  1.00  0.00    -0.000 C 
BRANCH  22  23
ATOM     23  C   UNL     1     -21.301 114.516  -4.940  1.00  0.00    -0.000 C 
BRANCH  23  24
ATOM     24  C   UNL     1     -22.212 115.670  -5.399  1.00  0.00    -0.000 C 
BRANCH  24  25
ATOM     25  C   UNL     1     -21.583 116.564  -6.488  1.00  0.00    -0.003 C 
ATOM     26  C   UNL     1     -20.082 116.772  -6.284  1.00  0.00     0.004 C 
ENDBRANCH  24  25
ENDBRANCH  23  24
ENDBRANCH  22  23
ENDBRANCH  21  22
ENDBRANCH  20  21
ENDBRANCH  19  20
ENDBRANCH  18  19
ENDBRANCH  17  18
ENDBRANCH  16  17
ENDBRANCH  15  16
ENDBRANCH   1  15
TORSDOF 22
ENDMDL
MODEL 3
REMARK VINA RESULT:    -4.066      1.331      4.712
REMARK INTER + INTRA:         -13.470
REMARK INTER:                  -9.378
REMARK INTRA:                  -4.092
REMARK UNBOUND:                -4.175
REMARK SMILES CCCCCCCCCCCCCCCCCCCCCCCC(=O)[O-]
REMARK SMILES IDX 13 1 14 2 15 3 16 4 17 5 18 6 19 7 20 8 21 9 22 10 23 11
REMARK SMILES IDX 24 12 25 13 26 14 12 15 11 16 10 17 9 18 8 19 7 20 6 21 5 22
REMARK SMILES IDX 4 23 3 24 2 25 1 26
REMARK H PARENT
REMARK Flexibility Score: inf
ROOT
ATOM      1  C   UNL     1     -17.831 113.960  -0.639  1.00  0.00     0.000 C 
ENDROOT
BRANCH   1   2
ATOM      2  C   UNL     1     -19.296 113.996  -0.160  1.00  0.00     0.000 C 
BRANCH   2   3
ATOM      3  C   UNL     1     -20.218 114.961  -0.933  1.00  0.00     0.000 C 
BRANCH   3   4
ATOM      4  C   UNL     1     -21.105 115.861  -0.054  1.00  0.00     0.000 C 
BRANCH   4   5
ATOM      5  C   UNL     1     -21.190 117.305  -0.576  1.00  0.00     0.000 C 
BRANCH   5   6
ATOM      6  C   UNL     1     -20.177 117.593  -1.697  1.00  0.00     0.000 C 
BRANCH   6   7
ATOM      7  C   UNL     1     -20.431 118.940  -2.398  1.00  0.00     0.000 C 
BRANCH   7   8
ATOM      8  C   UNL     1     -19.738 120.115  -1.682  1.00  0.00     0.000 C 
BRANCH   8   9
ATOM      9  C   UNL     1     -20.692 121.008  -0.868  1.00  0.00     0.000 C 
BRANCH   9  10
ATOM     10  C   UNL     1     -22.128 120.997  -1.422  1.00  0.00     0.006 C 
BRANCH  10  11
ATOM     11  C   UNL     1     -23.157 120.588  -0.358  1.00  0.00     0.053 C 
BRANCH  11  12
ATOM     12  C   UNL     1     -24.085 119.524  -0.858  1.00  0.00     0.041 C 
ATOM     13  O   UNL     1     -24.549 118.665  -0.063  1.00  0.00    -0.550 OA
ATOM     14  O   UNL     1     -24.415 119.464  -2.205  1.00  0.00    -0.550 OA
ENDBRANCH  11  12
ENDBRANCH  10  11
ENDBRANCH   9  10
ENDBRANCH   8   9
ENDBRANCH   7   8
ENDBRANCH   6   7
ENDBRANCH   5   6
ENDBRANCH   4   5
ENDBRANCH   3   4
ENDBRANCH   2   3
ENDBRANCH   1   2
BRANCH   1  15
ATOM     15  C   UNL     1     -17.264 115.314  -1.102  1.00  0.00     0.000 C 
BRANCH  15  16
ATOM     16  C   UNL     1     -17.012 115.370  -2.615  1.00  0.00     0.000 C 
BRANCH  16  17
ATOM     17  C   UNL     1     -17.416 114.052  -3.289  1.00  0.00     0.000 C 
BRANCH  17  18
ATOM     18  C   UNL     1     -18.490 114.286  -4.358  1.00  0.00    -0.000 C 
BRANCH  18  19
ATOM     19  C   UNL     1     -18.989 115.740  -4.327  1.00  0.00    -0.000 C 
BRANCH  19  20
ATOM     20  C   UNL     1     -19.596 116.189  -5.665  1.00  0.00    -0.000 C 
BRANCH  20  21
ATOM     21  C   UNL     1     -20.887 117.005  -5.485  1.00  0.00    -0.000 C 
BRANCH  21  22
ATOM     22  C   UNL     1     -22.152 116.217  -5.875  1.00  0.00    -0.000 C 
BRANCH  22  23
ATOM     23  C   UNL     1     -22.341 114.880  -5.135  1.00  0.00    -0.000 C 
BRANCH  23  24
ATOM     24  C   UNL     1     -22.631 115.003  -3.627  1.00  0.00    -0.000 C 
BRANCH  24  25
ATOM     25  C   UNL     1     -23.708 116.053  -3.283  1.00  0.00    -0.003 C 
ATOM     26  C   UNL     1     -24.371 115.794  -1.930  1.00  0.00     0.004 C 
ENDBRANCH  24  25
ENDBRANCH  23  24
ENDBRANCH  22  23
ENDBRANCH  21  22
ENDBRANCH  20  21
ENDBRANCH  19  20
ENDBRANCH  18  19
ENDBRANCH  17  18
ENDBRANCH  16  17
ENDBRANCH  15  16
ENDBRANCH   1  15
TORSDOF 22
ENDMDL
MODEL 4
REMARK VINA RESULT:    -4.046      1.252      2.831
REMARK INTER + INTRA:         -13.425
REMARK INTER:                  -9.263
REMARK INTRA:                  -4.162
REMARK UNBOUND:                -4.175
REMARK SMILES CCCCCCCCCCCCCCCCCCCCCCCC(=O)[O-]
REMARK SMILES IDX 13 1 14 2 15 3 16 4 17 5 18 6 19 7 20 8 21 9 22 10 23 11
REMARK SMILES IDX 24 12 25 13 26 14 12 15 11 16 10 17 9 18 8 19 7 20 6 21 5 22
REMARK SMILES IDX 4 23 3 24 2 25 1 26
REMARK H PARENT
REMARK Flexibility Score: inf
ROOT
ATOM      1  C   UNL     1     -17.567 115.059  -3.581  1.00  0.00     0.000 C 
ENDROOT
BRANCH   1   2
ATOM      2  C   UNL     1     -17.303 114.569  -2.143  1.00  0.00     0.000 C 
BRANCH   2   3
ATOM      3  C   UNL     1     -17.973 115.399  -1.031  1.00  0.00     0.000 C 
BRANCH   3   4
ATOM      4  C   UNL     1     -19.028 114.646  -0.199  1.00  0.00     0.000 C 
BRANCH   4   5
ATOM      5  C   UNL     1     -20.129 114.014  -1.068  1.00  0.00     0.000 C 
BRANCH   5   6
ATOM      6  C   UNL     1     -21.408 114.866  -1.120  1.00  0.00     0.000 C 
BRANCH   6   7
ATOM      7  C   UNL     1     -21.524 115.839   0.068  1.00  0.00     0.000 C 
BRANCH   7   8
ATOM      8  C   UNL     1     -22.795 116.706  -0.004  1.00  0.00     0.000 C 
BRANCH   8   9
ATOM      9  C   UNL     1     -23.858 116.186  -0.990  1.00  0.00     0.000 C 
BRANCH   9  10
ATOM     10  C   UNL     1     -25.210 116.905  -0.834  1.00  0.00     0.006 C 
BRANCH  10  11
ATOM     11  C   UNL     1     -25.340 117.606   0.526  1.00  0.00     0.053 C 
BRANCH  11  12
ATOM     12  C   UNL     1     -26.208 116.835   1.472  1.00  0.00     0.041 C 
ATOM     13  O   UNL     1     -26.586 115.670   1.178  1.00  0.00    -0.550 OA
ATOM     14  O   UNL     1     -26.623 117.412   2.665  1.00  0.00    -0.550 OA
ENDBRANCH  11  12
ENDBRANCH  10  11
ENDBRANCH   9  10
ENDBRANCH   8   9
ENDBRANCH   7   8
ENDBRANCH   6   7
ENDBRANCH   5   6
ENDBRANCH   4   5
ENDBRANCH   3   4
ENDBRANCH   2   3
ENDBRANCH   1   2
BRANCH   1  15
ATOM     15  C   UNL     1     -18.641 114.270  -4.350  1.00  0.00     0.000 C 
BRANCH  15  16
ATOM     16  C   UNL     1     -19.887 115.110  -4.666  1.00  0.00     0.000 C 
BRANCH  16  17
ATOM     17  C   UNL     1     -19.803 116.490  -4.002  1.00  0.00     0.000 C 
BRANCH  17  18
ATOM     18  C   UNL     1     -21.119 117.259  -4.162  1.00  0.00    -0.000 C 
BRANCH  18  19
ATOM     19  C   UNL     1     -21.146 118.498  -3.252  1.00  0.00    -0.000 C 
BRANCH  19  20
ATOM     20  C   UNL     1     -20.175 118.385  -2.066  1.00  0.00    -0.000 C 
BRANCH  20  21
ATOM     21  C   UNL     1     -19.577 119.743  -1.659  1.00  0.00    -0.000 C 
BRANCH  21  22
ATOM     22  C   UNL     1     -20.642 120.742  -1.171  1.00  0.00    -0.000 C 
BRANCH  22  23
ATOM     23  C   UNL     1     -21.733 120.142  -0.263  1.00  0.00    -0.000 C 
BRANCH  23  24
ATOM     24  C   UNL     1     -23.155 120.682  -0.505  1.00  0.00    -0.000 C 
BRANCH  24  25
ATOM     25  C   UNL     1     -23.454 121.007  -1.984  1.00  0.00    -0.003 C 
ATOM     26  C   UNL     1     -24.536 120.105  -2.577  1.00  0.00     0.004 C 
ENDBRANCH  24  25
ENDBRANCH  23  24
ENDBRANCH  22  23
ENDBRANCH  21  22
ENDBRANCH  20  21
ENDBRANCH  19  20
ENDBRANCH  18  19
ENDBRANCH  17  18
ENDBRANCH  16  17
ENDBRANCH  15  16
ENDBRANCH   1  15
TORSDOF 22
ENDMDL
MODEL 5
REMARK VINA RESULT:    -4.037      2.642      4.717
REMARK INTER + INTRA:         -13.405
REMARK INTER:                  -8.780
REMARK INTRA:                  -4.625
REMARK UNBOUND:                -4.175
REMARK SMILES CCCCCCCCCCCCCCCCCCCCCCCC(=O)[O-]
REMARK SMILES IDX 13 1 14 2 15 3 16 4 17 5 18 6 19 7 20 8 21 9 22 10 23 11
REMARK SMILES IDX 24 12 25 13 26 14 12 15 11 16 10 17 9 18 8 19 7 20 6 21 5 22
REMARK SMILES IDX 4 23 3 24 2 25 1 26
REMARK H PARENT
REMARK Flexibility Score: inf
ROOT
ATOM      1  C   UNL     1     -23.016 115.820  -2.398  1.00  0.00     0.000 C 
ENDROOT
BRANCH   1   2
ATOM      2  C   UNL     1     -23.426 115.017  -3.649  1.00  0.00     0.000 C 
BRANCH   2   3
ATOM      3  C   UNL     1     -22.406 113.959  -4.114  1.00  0.00     0.000 C 
BRANCH   3   4
ATOM      4  C   UNL     1     -21.761 114.232  -5.486  1.00  0.00     0.000 C 
BRANCH   4   5
ATOM      5  C   UNL     1     -22.469 115.354  -6.263  1.00  0.00     0.000 C 
BRANCH   5   6
ATOM      6  C   UNL     1     -21.498 116.435  -6.766  1.00  0.00     0.000 C 
BRANCH   6   7
ATOM      7  C   UNL     1     -20.260 116.590  -5.863  1.00  0.00     0.000 C 
BRANCH   7   8
ATOM      8  C   UNL     1     -20.572 117.351  -4.561  1.00  0.00     0.000 C 
BRANCH   8   9
ATOM      9  C   UNL     1     -19.788 116.850  -3.334  1.00  0.00     0.000 C 
BRANCH   9  10
ATOM     10  C   UNL     1     -18.843 115.683  -3.674  1.00  0.00     0.006 C 
BRANCH  10  11
ATOM     11  C   UNL     1     -18.866 114.587  -2.599  1.00  0.00     0.053 C 
BRANCH  11  12
ATOM     12  C   UNL     1     -18.239 115.047  -1.319  1.00  0.00     0.041 C 
ATOM     13  O   UNL     1     -18.804 114.814  -0.217  1.00  0.00    -0.550 OA
ATOM     14  O   UNL     1     -17.046 115.757  -1.343  1.00  0.00    -0.550 OA
ENDBRANCH  11  12
ENDBRANCH  10  11
ENDBRANCH   9  10
ENDBRANCH   8   9
ENDBRANCH   7   8
ENDBRANCH   6   7
ENDBRANCH   5   6
ENDBRANCH   4   5
ENDBRANCH   3   4
ENDBRANCH   2   3
ENDBRANCH   1   2
BRANCH   1  15
ATOM     15  C   UNL     1     -22.226 115.025  -1.344  1.00  0.00     0.000 C 
BRANCH  15  16
ATOM     16  C   UNL     1     -22.115 115.760  -0.001  1.00  0.00     0.000 C 
BRANCH  16  17
ATOM     17  C   UNL     1     -21.671 117.215  -0.206  1.00  0.00     0.000 C 
BRANCH  17  18
ATOM     18  C   UNL     1     -22.506 118.171   0.655  1.00  0.00    -0.000 C 
BRANCH  18  19
ATOM     19  C   UNL     1     -23.951 117.667   0.792  1.00  0.00    -0.000 C 
BRANCH  19  20
ATOM     20  C   UNL     1     -24.896 118.279  -0.255  1.00  0.00    -0.000 C 
BRANCH  20  21
ATOM     21  C   UNL     1     -24.447 119.677  -0.714  1.00  0.00    -0.000 C 
BRANCH  21  22
ATOM     22  C   UNL     1     -24.392 119.813  -2.247  1.00  0.00    -0.000 C 
BRANCH  22  23
ATOM     23  C   UNL     1     -23.260 120.711  -2.782  1.00  0.00    -0.000 C 
BRANCH  23  24
ATOM     24  C   UNL     1     -21.846 120.106  -2.690  1.00  0.00    -0.000 C 
BRANCH  24  25
ATOM     25  C   UNL     1     -20.929 120.820  -1.675  1.00  0.00    -0.003 C 
ATOM     26  C   UNL     1     -19.633 120.053  -1.411  1.00  0.00     0.004 C 
ENDBRANCH  24  25
ENDBRANCH  23  24
ENDBRANCH  22  23
ENDBRANCH  21  22
ENDBRANCH  20  21
ENDBRANCH  19  20
ENDBRANCH  18  19
ENDBRANCH  17  18
ENDBRANCH  16  17
ENDBRANCH  15  16
ENDBRANCH   1  15
TORSDOF 22
ENDMDL
MODEL 6
REMARK VINA RESULT:    -3.995      1.849      5.776
REMARK INTER + INTRA:         -13.308
REMARK INTER:                  -8.677
REMARK INTRA:                  -4.631
REMARK UNBOUND:                -4.175
REMARK SMILES CCCCCCCCCCCCCCCCCCCCCCCC(=O)[O-]
REMARK SMILES IDX 13 1 14 2 15 3 16 4 17 5 18 6 19 7 20 8 21 9 22 10 23 11
REMARK SMILES IDX 24 12 25 13 26 14 12 15 11 16 10 17 9 18 8 19 7 20 6 21 5 22
REMARK SMILES IDX 4 23 3 24 2 25 1 26
REMARK H PARENT
REMARK Flexibility Score: inf
ROOT
ATOM      1  C   UNL     1     -19.990 120.074  -1.775  1.00  0.00     0.000 C 
ENDROOT
BRANCH   1   2
ATOM      2  C   UNL     1     -20.785 120.710  -0.617  1.00  0.00     0.000 C 
BRANCH   2   3
ATOM      3  C   UNL     1     -22.203 121.194  -0.979  1.00  0.00     0.000 C 
BRANCH   3   4
ATOM      4  C   UNL     1     -22.782 120.604  -2.278  1.00  0.00     0.000 C 
BRANCH   4   5
ATOM      5  C   UNL     1     -23.655 119.362  -2.030  1.00  0.00     0.000 C 
BRANCH   5   6
ATOM      6  C   UNL     1     -24.218 119.307  -0.600  1.00  0.00     0.000 C 
BRANCH   6   7
ATOM      7  C   UNL     1     -23.614 118.162   0.234  1.00  0.00     0.000 C 
BRANCH   7   8
ATOM      8  C   UNL     1     -24.649 117.072   0.572  1.00  0.00     0.000 C 
BRANCH   8   9
ATOM      9  C   UNL     1     -24.513 115.791  -0.272  1.00  0.00     0.000 C 
BRANCH   9  10
ATOM     10  C   UNL     1     -25.367 115.834  -1.553  1.00  0.00     0.006 C 
BRANCH  10  11
ATOM     11  C   UNL     1     -24.559 115.451  -2.801  1.00  0.00     0.053 C 
BRANCH  11  12
ATOM     12  C   UNL     1     -24.946 116.273  -3.991  1.00  0.00     0.041 C 
ATOM     13  O   UNL     1     -25.821 117.172  -3.882  1.00  0.00    -0.550 OA
ATOM     14  O   UNL     1     -24.362 116.029  -5.227  1.00  0.00    -0.550 OA
ENDBRANCH  11  12
ENDBRANCH  10  11
ENDBRANCH   9  10
ENDBRANCH   8   9
ENDBRANCH   7   8
ENDBRANCH   6   7
ENDBRANCH   5   6
ENDBRANCH   4   5
ENDBRANCH   3   4
ENDBRANCH   2   3
ENDBRANCH   1   2
BRANCH   1  15
ATOM     15  C   UNL     1     -19.741 118.562  -1.640  1.00  0.00     0.000 C 
BRANCH  15  16
ATOM     16  C   UNL     1     -20.396 117.746  -2.764  1.00  0.00     0.000 C 
BRANCH  16  17
ATOM     17  C   UNL     1     -21.255 116.612  -2.191  1.00  0.00     0.000 C 
BRANCH  17  18
ATOM     18  C   UNL     1     -20.775 116.212  -0.790  1.00  0.00    -0.000 C 
BRANCH  18  19
ATOM     19  C   UNL     1     -20.762 114.683  -0.629  1.00  0.00    -0.000 C 
BRANCH  19  20
ATOM     20  C   UNL     1     -19.423 114.053  -1.043  1.00  0.00    -0.000 C 
BRANCH  20  21
ATOM     21  C   UNL     1     -18.227 114.988  -0.796  1.00  0.00    -0.000 C 
BRANCH  21  22
ATOM     22  C   UNL     1     -17.523 115.413  -2.099  1.00  0.00    -0.000 C 
BRANCH  22  23
ATOM     23  C   UNL     1     -17.696 114.441  -3.281  1.00  0.00    -0.000 C 
BRANCH  23  24
ATOM     24  C   UNL     1     -18.598 114.952  -4.421  1.00  0.00    -0.000 C 
BRANCH  24  25
ATOM     25  C   UNL     1     -19.831 114.062  -4.685  1.00  0.00    -0.003 C 
ATOM     26  C   UNL     1     -20.970 114.823  -5.364  1.00  0.00     0.004 C 
ENDBRANCH  24  25
ENDBRANCH  23  24
ENDBRANCH  22  23
ENDBRANCH  21  22
ENDBRANCH  20  21
ENDBRANCH  19  20
ENDBRANCH  18  19
ENDBRANCH  17  18
ENDBRANCH  16  17
ENDBRANCH  15  16
ENDBRANCH   1  15
TORSDOF 22
ENDMDL
MODEL 7
REMARK VINA RESULT:    -3.976      3.082      6.111
REMARK INTER + INTRA:         -13.265
REMARK INTER:                  -8.929
REMARK INTRA:                  -4.335
REMARK UNBOUND:                -4.175
REMARK SMILES CCCCCCCCCCCCCCCCCCCCCCCC(=O)[O-]
REMARK SMILES IDX 13 1 14 2 15 3 16 4 17 5 18 6 19 7 20 8 21 9 22 10 23 11
REMARK SMILES IDX 24 12 25 13 26 14 12 15 11 16 10 17 9 18 8 19 7 20 6 21 5 22
REMARK SMILES IDX 4 23 3 24 2 25 1 26
REMARK H PARENT
REMARK Flexibility Score: inf
ROOT
ATOM      1  C   UNL     1     -20.566 120.562  -0.807  1.00  0.00     0.000 C 
ENDROOT
BRANCH   1   2
ATOM      2  C   UNL     1     -20.090 119.834  -2.080  1.00  0.00     0.000 C 
BRANCH   2   3
ATOM      3  C   UNL     1     -20.116 118.294  -2.005  1.00  0.00     0.000 C 
BRANCH   3   4
ATOM      4  C   UNL     1     -21.193 117.617  -2.872  1.00  0.00     0.000 C 
BRANCH   4   5
ATOM      5  C   UNL     1     -20.628 117.048  -4.186  1.00  0.00     0.000 C 
BRANCH   5   6
ATOM      6  C   UNL     1     -20.328 115.542  -4.101  1.00  0.00     0.000 C 
BRANCH   6   7
ATOM      7  C   UNL     1     -21.250 114.805  -3.112  1.00  0.00     0.000 C 
BRANCH   7   8
ATOM      8  C   UNL     1     -20.463 113.985  -2.073  1.00  0.00     0.000 C 
BRANCH   8   9
ATOM      9  C   UNL     1     -20.234 114.715  -0.737  1.00  0.00     0.000 C 
BRANCH   9  10
ATOM     10  C   UNL     1     -18.767 114.651  -0.273  1.00  0.00     0.006 C 
BRANCH  10  11
ATOM     11  C   UNL     1     -17.824 115.393  -1.230  1.00  0.00     0.053 C 
BRANCH  11  12
ATOM     12  C   UNL     1     -16.606 114.583  -1.553  1.00  0.00     0.041 C 
ATOM     13  O   UNL     1     -16.411 114.176  -2.729  1.00  0.00    -0.550 OA
ATOM     14  O   UNL     1     -15.702 114.254  -0.552  1.00  0.00    -0.550 OA
ENDBRANCH  11  12
ENDBRANCH  10  11
ENDBRANCH   9  10
ENDBRANCH   8   9
ENDBRANCH   7   8
ENDBRANCH   6   7
ENDBRANCH   5   6
ENDBRANCH   4   5
ENDBRANCH   3   4
ENDBRANCH   2   3
ENDBRANCH   1   2
BRANCH   1  15
ATOM     15  C   UNL     1     -21.859 121.381  -0.971  1.00  0.00     0.000 C 
BRANCH  15  16
ATOM     16  C   UNL     1     -22.978 120.595  -1.670  1.00  0.00     0.000 C 
BRANCH  16  17
ATOM     17  C   UNL     1     -24.073 120.194  -0.673  1.00  0.00     0.000 C 
BRANCH  17  18
ATOM     18  C   UNL     1     -25.230 119.480  -1.382  1.00  0.00    -0.000 C 
BRANCH  18  19
ATOM     19  C   UNL     1     -24.766 118.876  -2.717  1.00  0.00    -0.000 C 
BRANCH  19  20
ATOM     20  C   UNL     1     -24.872 117.343  -2.745  1.00  0.00    -0.000 C 
BRANCH  20  21
ATOM     21  C   UNL     1     -25.821 116.795  -1.666  1.00  0.00    -0.000 C 
BRANCH  21  22
ATOM     22  C   UNL     1     -25.164 115.716  -0.784  1.00  0.00    -0.000 C 
BRANCH  22  23
ATOM     23  C   UNL     1     -23.640 115.856  -0.609  1.00  0.00    -0.000 C 
BRANCH  23  24
ATOM     24  C   UNL     1     -23.185 116.374   0.768  1.00  0.00    -0.000 C 
BRANCH  24  25
ATOM     25  C   UNL     1     -22.213 117.570   0.693  1.00  0.00    -0.003 C 
ATOM     26  C   UNL     1     -21.662 117.967   2.063  1.00  0.00     0.004 C 
ENDBRANCH  24  25
ENDBRANCH  23  24
ENDBRANCH  22  23
ENDBRANCH  21  22
ENDBRANCH  20  21
ENDBRANCH  19  20
ENDBRANCH  18  19
ENDBRANCH  17  18
ENDBRANCH  16  17
ENDBRANCH  15  16
ENDBRANCH   1  15
TORSDOF 22
ENDMDL
MODEL 8
REMARK VINA RESULT:    -3.945      1.298      5.323
REMARK INTER + INTRA:         -13.195
REMARK INTER:                  -9.046
REMARK INTRA:                  -4.149
REMARK UNBOUND:                -4.175
REMARK SMILES CCCCCCCCCCCCCCCCCCCCCCCC(=O)[O-]
REMARK SMILES IDX 13 1 14 2 15 3 16 4 17 5 18 6 19 7 20 8 21 9 22 10 23 11
REMARK SMILES IDX 24 12 25 13 26 14 12 15 11 16 10 17 9 18 8 19 7 20 6 21 5 22
REMARK SMILES IDX 4 23 3 24 2 25 1 26
REMARK H PARENT
REMARK Flexibility Score: inf
ROOT
ATOM      1  C   UNL     1     -20.724 118.139  -2.798  1.00  0.00     0.000 C 
ENDROOT
BRANCH   1   2
ATOM      2  C   UNL     1     -19.983 118.816  -1.628  1.00  0.00     0.000 C 
BRANCH   2   3
ATOM      3  C   UNL     1     -19.896 120.353  -1.706  1.00  0.00     0.000 C 
BRANCH   3   4
ATOM      4  C   UNL     1     -20.736 121.108  -0.659  1.00  0.00     0.000 C 
BRANCH   4   5
ATOM      5  C   UNL     1     -22.190 120.610  -0.591  1.00  0.00     0.000 C 
BRANCH   5   6
ATOM      6  C   UNL     1     -23.016 121.012  -1.824  1.00  0.00     0.000 C 
BRANCH   6   7
ATOM      7  C   UNL     1     -24.510 120.674  -1.676  1.00  0.00     0.000 C 
BRANCH   7   8
ATOM      8  C   UNL     1     -24.914 119.427  -2.485  1.00  0.00     0.000 C 
BRANCH   8   9
ATOM      9  C   UNL     1     -25.931 118.516  -1.773  1.00  0.00     0.000 C 
BRANCH   9  10
ATOM     10  C   UNL     1     -25.854 118.630  -0.239  1.00  0.00     0.006 C 
BRANCH  10  11
ATOM     11  C   UNL     1     -24.875 117.615   0.368  1.00  0.00     0.053 C 
BRANCH  11  12
ATOM     12  C   UNL     1     -25.484 116.253   0.486  1.00  0.00     0.041 C 
ATOM     13  O   UNL     1     -25.173 115.347  -0.331  1.00  0.00    -0.550 OA
ATOM     14  O   UNL     1     -26.417 115.990   1.481  1.00  0.00    -0.550 OA
ENDBRANCH  11  12
ENDBRANCH  10  11
ENDBRANCH   9  10
ENDBRANCH   8   9
ENDBRANCH   7   8
ENDBRANCH   6   7
ENDBRANCH   5   6
ENDBRANCH   4   5
ENDBRANCH   3   4
ENDBRANCH   2   3
ENDBRANCH   1   2
BRANCH   1  15
ATOM     15  C   UNL     1     -21.949 117.300  -2.394  1.00  0.00     0.000 C 
BRANCH  15  16
ATOM     16  C   UNL     1     -21.721 116.492  -1.109  1.00  0.00     0.000 C 
BRANCH  16  17
ATOM     17  C   UNL     1     -21.835 114.986  -1.378  1.00  0.00     0.000 C 
BRANCH  17  18
ATOM     18  C   UNL     1     -20.468 114.301  -1.261  1.00  0.00    -0.000 C 
BRANCH  18  19
ATOM     19  C   UNL     1     -19.510 115.132  -0.394  1.00  0.00    -0.000 C 
BRANCH  19  20
ATOM     20  C   UNL     1     -18.035 114.935  -0.780  1.00  0.00    -0.000 C 
BRANCH  20  21
ATOM     21  C   UNL     1     -17.632 115.755  -2.018  1.00  0.00    -0.000 C 
BRANCH  21  22
ATOM     22  C   UNL     1     -17.171 114.874  -3.194  1.00  0.00    -0.000 C 
BRANCH  22  23
ATOM     23  C   UNL     1     -18.288 114.441  -4.162  1.00  0.00    -0.000 C 
BRANCH  23  24
ATOM     24  C   UNL     1     -19.147 115.589  -4.725  1.00  0.00    -0.000 C 
BRANCH  24  25
ATOM     25  C   UNL     1     -20.575 115.160  -5.125  1.00  0.00    -0.003 C 
ATOM     26  C   UNL     1     -21.280 116.202  -5.993  1.00  0.00     0.004 C 
ENDBRANCH  24  25
ENDBRANCH  23  24
ENDBRANCH  22  23
ENDBRANCH  21  22
ENDBRANCH  20  21
ENDBRANCH  19  20
ENDBRANCH  18  19
ENDBRANCH  17  18
ENDBRANCH  16  17
ENDBRANCH  15  16
ENDBRANCH   1  15
TORSDOF 22
ENDMDL
MODEL 9
REMARK VINA RESULT:    -3.924      2.872      6.387
REMARK INTER + INTRA:         -13.146
REMARK INTER:                  -8.701
REMARK INTRA:                  -4.445
REMARK UNBOUND:                -4.175
REMARK SMILES CCCCCCCCCCCCCCCCCCCCCCCC(=O)[O-]
REMARK SMILES IDX 13 1 14 2 15 3 16 4 17 5 18 6 19 7 20 8 21 9 22 10 23 11
REMARK SMILES IDX 24 12 25 13 26 14 12 15 11 16 10 17 9 18 8 19 7 20 6 21 5 22
REMARK SMILES IDX 4 23 3 24 2 25 1 26
REMARK H PARENT
REMARK Flexibility Score: inf
ROOT
ATOM      1  C   UNL     1     -20.569 120.975  -1.043  1.00  0.00     0.000 C 
ENDROOT
BRANCH   1   2
ATOM      2  C   UNL     1     -21.685 120.495  -0.094  1.00  0.00     0.000 C 
BRANCH   2   3
ATOM      3  C   UNL     1     -23.119 120.631  -0.643  1.00  0.00     0.000 C 
BRANCH   3   4
ATOM      4  C   UNL     1     -23.930 119.323  -0.681  1.00  0.00     0.000 C 
BRANCH   4   5
ATOM      5  C   UNL     1     -23.373 118.250   0.270  1.00  0.00     0.000 C 
BRANCH   5   6
ATOM      6  C   UNL     1     -24.257 116.993   0.331  1.00  0.00     0.000 C 
BRANCH   6   7
ATOM      7  C   UNL     1     -23.463 115.694   0.101  1.00  0.00     0.000 C 
BRANCH   7   8
ATOM      8  C   UNL     1     -21.940 115.926   0.113  1.00  0.00     0.000 C 
BRANCH   8   9
ATOM      9  C   UNL     1     -21.139 114.890  -0.696  1.00  0.00     0.000 C 
BRANCH   9  10
ATOM     10  C   UNL     1     -19.629 115.191  -0.710  1.00  0.00     0.006 C 
BRANCH  10  11
ATOM     11  C   UNL     1     -19.040 115.136  -2.127  1.00  0.00     0.053 C 
BRANCH  11  12
ATOM     12  C   UNL     1     -17.569 115.415  -2.131  1.00  0.00     0.041 C 
ATOM     13  O   UNL     1     -17.078 116.241  -1.317  1.00  0.00    -0.550 OA
ATOM     14  O   UNL     1     -16.743 114.784  -3.053  1.00  0.00    -0.550 OA
ENDBRANCH  11  12
ENDBRANCH  10  11
ENDBRANCH   9  10
ENDBRANCH   8   9
ENDBRANCH   7   8
ENDBRANCH   6   7
ENDBRANCH   5   6
ENDBRANCH   4   5
ENDBRANCH   3   4
ENDBRANCH   2   3
ENDBRANCH   1   2
BRANCH   1  15
ATOM     15  C   UNL     1     -20.385 120.124  -2.313  1.00  0.00     0.000 C 
BRANCH  15  16
ATOM     16  C   UNL     1     -20.363 118.617  -2.023  1.00  0.00     0.000 C 
BRANCH  16  17
ATOM     17  C   UNL     1     -21.390 117.875  -2.889  1.00  0.00     0.000 C 
BRANCH  17  18
ATOM     18  C   UNL     1     -21.136 118.127  -4.380  1.00  0.00    -0.000 C 
BRANCH  18  19
ATOM     19  C   UNL     1     -20.476 116.905  -5.039  1.00  0.00    -0.000 C 
BRANCH  19  20
ATOM     20  C   UNL     1     -21.206 116.450  -6.314  1.00  0.00    -0.000 C 
BRANCH  20  21
ATOM     21  C   UNL     1     -21.892 115.084  -6.147  1.00  0.00    -0.000 C 
BRANCH  21  22
ATOM     22  C   UNL     1     -21.749 114.513  -4.723  1.00  0.00    -0.000 C 
BRANCH  22  23
ATOM     23  C   UNL     1     -23.004 114.640  -3.839  1.00  0.00    -0.000 C 
BRANCH  23  24
ATOM     24  C   UNL     1     -24.090 115.590  -4.379  1.00  0.00    -0.000 C 
BRANCH  24  25
ATOM     25  C   UNL     1     -24.861 116.345  -3.276  1.00  0.00    -0.003 C 
ATOM     26  C   UNL     1     -25.943 115.486  -2.621  1.00  0.00     0.004 C 
ENDBRANCH  24  25
ENDBRANCH  23  24
ENDBRANCH  22  23
ENDBRANCH  21  22
ENDBRANCH  20  21
ENDBRANCH  19  20
ENDBRANCH  18  19
ENDBRANCH  17  18
ENDBRANCH  16  17
ENDBRANCH  15  16
ENDBRANCH   1  15
TORSDOF 22
ENDMDL
