MODEL 1
REMARK VINA RESULT:   143.861      0.000      0.000
REMARK INTER + INTRA:         156.580
REMARK INTER:                 156.476
REMARK INTRA:                   0.105
REMARK UNBOUND:                 0.105
REMARK SMILES C[C@H]1[C@H]2C3=CC[C@@H]4[C@]5(C)CC[C@@H](O)C(C)(C)[C@@H]5CC[C@]4(C)[C@]3(C)CC[C@@]2(C(=O)[O-])CC[C@@H]1C
REMARK SMILES IDX 26 1 30 2 25 3 3 4 31 5 24 6 4 7 2 8 32 9 22 10 5 11 1 12
REMARK SMILES IDX 33 13 23 14 20 15 6 16 7 17 19 18 21 19 8 20 18 21 17 22
REMARK SMILES IDX 10 23 9 24 14 25 11 26 12 27 15 28 16 29 27 30 28 31 29 32
REMARK SMILES IDX 13 33
REMARK H PARENT 13 34
REMARK Flexibility Score: inf
ROOT
ATOM      1  C   UNL     1      18.756  32.508   1.081  1.00  0.00     0.017 C 
ATOM      2  C   UNL     1      17.397  33.224   1.362  1.00  0.00     0.014 C 
ATOM      3  C   UNL     1      19.872  33.086   2.017  1.00  0.00     0.014 C 
ATOM      4  C   UNL     1      19.093  32.722  -0.433  1.00  0.00     0.030 C 
ATOM      5  C   UNL     1      16.246  32.707   0.477  1.00  0.00     0.004 C 
ATOM      6  C   UNL     1      21.056  33.752   1.289  1.00  0.00     0.013 C 
ATOM      7  C   UNL     1      19.562  34.180  -0.693  1.00  0.00    -0.063 C 
ATOM      8  C   UNL     1      17.943  32.138  -1.332  1.00  0.00    -0.003 C 
ATOM      9  C   UNL     1      16.570  32.807  -1.031  1.00  0.00    -0.011 C 
ATOM     10  C   UNL     1      20.640  34.795   0.199  1.00  0.00    -0.006 C 
ATOM     11  C   UNL     1      19.212  34.865  -1.797  1.00  0.00    -0.027 C 
ATOM     12  C   UNL     1      18.310  32.044  -2.836  1.00  0.00     0.008 C 
ATOM     13  C   UNL     1      15.435  32.155  -1.837  1.00  0.00     0.008 C 
ATOM     14  C   UNL     1      20.006  36.022   0.935  1.00  0.00     0.017 C 
ATOM     15  C   UNL     1      21.877  35.249  -0.726  1.00  0.00    -0.020 C 
ATOM     16  C   UNL     1      20.017  35.988  -2.399  1.00  0.00     0.032 C 
ATOM     17  C   UNL     1      21.388  36.371  -1.737  1.00  0.00     0.006 C 
ATOM     18  C   UNL     1      22.457  34.033  -1.535  1.00  0.00     0.008 C 
ATOM     19  C   UNL     1      23.030  35.791   0.178  1.00  0.00     0.012 C 
ATOM     20  C   UNL     1      22.503  36.888  -2.793  1.00  0.00    -0.025 C 
ATOM     21  C   UNL     1      22.844  34.335  -2.992  1.00  0.00     0.005 C 
ATOM     22  C   UNL     1      23.511  35.724  -3.193  1.00  0.00     0.003 C 
ATOM     23  C   UNL     1      21.858  37.559  -4.074  1.00  0.00     0.010 C 
ATOM     24  C   UNL     1      23.290  38.057  -2.102  1.00  0.00     0.012 C 
ATOM     25  C   UNL     1      24.160  35.876  -4.634  1.00  0.00    -0.006 C 
ATOM     26  C   UNL     1      21.790  36.717  -5.366  1.00  0.00     0.033 C 
ATOM     27  C   UNL     1      23.047  35.893  -5.725  1.00  0.00     0.120 C 
ATOM     28  C   UNL     1      25.124  34.690  -4.932  1.00  0.00     0.014 C 
ATOM     29  C   UNL     1      25.047  37.151  -4.723  1.00  0.00     0.014 C 
ENDROOT
BRANCH   1  30
ATOM     30  C   UNL     1      18.646  31.019   1.411  1.00  0.00     0.048 C 
ATOM     31  O   UNL     1      19.520  30.201   1.003  1.00  0.00    -0.550 OA
ATOM     32  O   UNL     1      17.526  30.527   2.074  1.00  0.00    -0.550 OA
ENDBRANCH   1  30
BRANCH  27  33
ATOM     33  O   UNL     1      23.575  36.342  -6.953  1.00  0.00    -0.393 OA
ATOM     34  H   UNL     1      23.666  35.548  -7.544  1.00  0.00     0.210 HD
ENDBRANCH  27  33
TORSDOF 2
ENDMDL
MODEL 2
REMARK VINA RESULT:   146.808     10.051     12.431
REMARK INTER + INTRA:         159.786
REMARK INTER:                 159.730
REMARK INTRA:                   0.056
REMARK UNBOUND:                 0.105
REMARK SMILES C[C@H]1[C@H]2C3=CC[C@@H]4[C@]5(C)CC[C@@H](O)C(C)(C)[C@@H]5CC[C@]4(C)[C@]3(C)CC[C@@]2(C(=O)[O-])CC[C@@H]1C
REMARK SMILES IDX 26 1 30 2 25 3 3 4 31 5 24 6 4 7 2 8 32 9 22 10 5 11 1 12
REMARK SMILES IDX 33 13 23 14 20 15 6 16 7 17 19 18 21 19 8 20 18 21 17 22
REMARK SMILES IDX 10 23 9 24 14 25 11 26 12 27 15 28 16 29 27 30 28 31 29 32
REMARK SMILES IDX 13 33
REMARK H PARENT 13 34
REMARK Flexibility Score: inf
ROOT
ATOM      1  C   UNL     1      20.555  40.543  10.823  1.00  0.00     0.017 C 
ATOM      2  C   UNL     1      21.407  41.396  11.816  1.00  0.00     0.014 C 
ATOM      3  C   UNL     1      21.455  39.458  10.137  1.00  0.00     0.014 C 
ATOM      4  C   UNL     1      19.929  41.528   9.779  1.00  0.00     0.030 C 
ATOM      5  C   UNL     1      20.588  42.487  12.533  1.00  0.00     0.004 C 
ATOM      6  C   UNL     1      21.562  39.570   8.604  1.00  0.00     0.013 C 
ATOM      7  C   UNL     1      21.002  42.021   8.772  1.00  0.00    -0.063 C 
ATOM      8  C   UNL     1      19.045  42.603  10.511  1.00  0.00    -0.003 C 
ATOM      9  C   UNL     1      19.868  43.430  11.542  1.00  0.00    -0.011 C 
ATOM     10  C   UNL     1      21.914  41.005   8.085  1.00  0.00    -0.006 C 
ATOM     11  C   UNL     1      21.038  43.287   8.316  1.00  0.00    -0.027 C 
ATOM     12  C   UNL     1      18.159  43.442   9.555  1.00  0.00     0.008 C 
ATOM     13  C   UNL     1      18.973  44.403  12.328  1.00  0.00     0.008 C 
ATOM     14  C   UNL     1      23.386  41.316   8.516  1.00  0.00     0.017 C 
ATOM     15  C   UNL     1      21.734  41.146   6.491  1.00  0.00    -0.020 C 
ATOM     16  C   UNL     1      21.626  43.702   6.992  1.00  0.00     0.032 C 
ATOM     17  C   UNL     1      22.200  42.594   6.039  1.00  0.00     0.006 C 
ATOM     18  C   UNL     1      20.238  40.921   6.066  1.00  0.00     0.008 C 
ATOM     19  C   UNL     1      22.584  40.049   5.773  1.00  0.00     0.012 C 
ATOM     20  C   UNL     1      22.014  42.924   4.464  1.00  0.00    -0.025 C 
ATOM     21  C   UNL     1      19.712  41.871   4.978  1.00  0.00     0.005 C 
ATOM     22  C   UNL     1      20.744  42.181   3.859  1.00  0.00     0.003 C 
ATOM     23  C   UNL     1      21.966  44.481   4.174  1.00  0.00     0.010 C 
ATOM     24  C   UNL     1      23.313  42.437   3.732  1.00  0.00     0.012 C 
ATOM     25  C   UNL     1      20.081  42.912   2.615  1.00  0.00    -0.006 C 
ATOM     26  C   UNL     1      20.582  45.121   3.929  1.00  0.00     0.033 C 
ATOM     27  C   UNL     1      19.607  44.340   3.021  1.00  0.00     0.120 C 
ATOM     28  C   UNL     1      18.847  42.112   2.100  1.00  0.00     0.014 C 
ATOM     29  C   UNL     1      21.058  42.972   1.406  1.00  0.00     0.014 C 
ENDROOT
BRANCH   1  30
ATOM     30  C   UNL     1      19.466  39.782  11.580  1.00  0.00     0.048 C 
ATOM     31  O   UNL     1      18.373  39.490  11.016  1.00  0.00    -0.550 OA
ATOM     32  O   UNL     1      19.619  39.496  12.933  1.00  0.00    -0.550 OA
ENDBRANCH   1  30
BRANCH  27  33
ATOM     33  O   UNL     1      19.315  45.103   1.870  1.00  0.00    -0.393 OA
ATOM     34  H   UNL     1      18.475  45.601   2.052  1.00  0.00     0.210 HD
ENDBRANCH  27  33
TORSDOF 2
ENDMDL
