MODEL 1
REMARK VINA RESULT:    -3.536      0.000      0.000
REMARK INTER + INTRA:          -8.164
REMARK INTER:                  -6.430
REMARK INTRA:                  -1.734
REMARK UNBOUND:                -1.734
REMARK SMILES CCCCCCCCCCCCCCCC(=O)[O-]
REMARK SMILES IDX 9 1 10 2 11 3 12 4 13 5 14 6 15 7 16 8 17 9 18 10 8 11 7 12
REMARK SMILES IDX 6 13 5 14 4 15 3 16 2 17 1 18
REMARK H PARENT
REMARK Flexibility Score: inf
ROOT
ATOM      1  C   UNL     1      50.004  30.553  90.140  1.00  0.00     0.000 C 
ENDROOT
BRANCH   1   2
ATOM      2  C   UNL     1      49.934  31.636  89.048  1.00  0.00     0.000 C 
BRANCH   2   3
ATOM      3  C   UNL     1      49.361  31.115  87.722  1.00  0.00     0.000 C 
BRANCH   3   4
ATOM      4  C   UNL     1      48.298  32.076  87.168  1.00  0.00     0.000 C 
BRANCH   4   5
ATOM      5  C   UNL     1      48.184  33.378  87.980  1.00  0.00     0.000 C 
BRANCH   5   6
ATOM      6  C   UNL     1      48.593  34.658  87.223  1.00  0.00     0.006 C 
BRANCH   6   7
ATOM      7  C   UNL     1      49.799  35.397  87.825  1.00  0.00     0.053 C 
BRANCH   7   8
ATOM      8  C   UNL     1      51.098  34.878  87.291  1.00  0.00     0.041 C 
ATOM      9  O   UNL     1      52.175  35.122  87.899  1.00  0.00    -0.550 OA
ATOM     10  O   UNL     1      51.118  34.096  86.144  1.00  0.00    -0.550 OA
ENDBRANCH   7   8
ENDBRANCH   6   7
ENDBRANCH   5   6
ENDBRANCH   4   5
ENDBRANCH   3   4
ENDBRANCH   2   3
ENDBRANCH   1   2
BRANCH   1  11
ATOM     11  C   UNL     1      48.982  30.707  91.282  1.00  0.00     0.000 C 
BRANCH  11  12
ATOM     12  C   UNL     1      47.567  30.253  90.882  1.00  0.00    -0.000 C 
BRANCH  12  13
ATOM     13  C   UNL     1      46.604  31.435  90.680  1.00  0.00    -0.000 C 
BRANCH  13  14
ATOM     14  C   UNL     1      45.305  31.025  89.967  1.00  0.00    -0.000 C 
BRANCH  14  15
ATOM     15  C   UNL     1      44.085  31.289  90.862  1.00  0.00    -0.000 C 
BRANCH  15  16
ATOM     16  C   UNL     1      43.763  30.106  91.789  1.00  0.00    -0.000 C 
BRANCH  16  17
ATOM     17  C   UNL     1      44.186  30.362  93.243  1.00  0.00    -0.003 C 
ATOM     18  C   UNL     1      43.828  31.782  93.676  1.00  0.00     0.004 C 
ENDBRANCH  16  17
ENDBRANCH  15  16
ENDBRANCH  14  15
ENDBRANCH  13  14
ENDBRANCH  12  13
ENDBRANCH  11  12
ENDBRANCH   1  11
TORSDOF 14
ENDMDL
MODEL 2
REMARK VINA RESULT:    -3.423     16.744     18.924
REMARK INTER + INTRA:          -7.958
REMARK INTER:                  -6.731
REMARK INTRA:                  -1.227
REMARK UNBOUND:                -1.734
REMARK SMILES CCCCCCCCCCCCCCCC(=O)[O-]
REMARK SMILES IDX 9 1 10 2 11 3 12 4 13 5 14 6 15 7 16 8 17 9 18 10 8 11 7 12
REMARK SMILES IDX 6 13 5 14 4 15 3 16 2 17 1 18
REMARK H PARENT
REMARK Flexibility Score: inf
ROOT
ATOM      1  C   UNL     1      46.011  20.151  78.264  1.00  0.00     0.000 C 
ENDROOT
BRANCH   1   2
ATOM      2  C   UNL     1      44.828  20.885  78.921  1.00  0.00     0.000 C 
BRANCH   2   3
ATOM      3  C   UNL     1      43.499  20.125  78.785  1.00  0.00     0.000 C 
BRANCH   3   4
ATOM      4  C   UNL     1      42.328  20.968  79.313  1.00  0.00     0.000 C 
BRANCH   4   5
ATOM      5  C   UNL     1      41.291  20.136  80.088  1.00  0.00     0.000 C 
BRANCH   5   6
ATOM      6  C   UNL     1      39.946  19.929  79.364  1.00  0.00     0.006 C 
BRANCH   6   7
ATOM      7  C   UNL     1      38.716  20.398  80.157  1.00  0.00     0.053 C 
BRANCH   7   8
ATOM      8  C   UNL     1      37.940  19.247  80.719  1.00  0.00     0.041 C 
ATOM      9  O   UNL     1      37.249  19.399  81.761  1.00  0.00    -0.550 OA
ATOM     10  O   UNL     1      37.951  18.017  80.074  1.00  0.00    -0.550 OA
ENDBRANCH   7   8
ENDBRANCH   6   7
ENDBRANCH   5   6
ENDBRANCH   4   5
ENDBRANCH   3   4
ENDBRANCH   2   3
ENDBRANCH   1   2
BRANCH   1  11
ATOM     11  C   UNL     1      45.734  18.688  77.867  1.00  0.00     0.000 C 
BRANCH  11  12
ATOM     12  C   UNL     1      45.940  18.428  76.364  1.00  0.00    -0.000 C 
BRANCH  12  13
ATOM     13  C   UNL     1      45.678  19.679  75.508  1.00  0.00    -0.000 C 
BRANCH  13  14
ATOM     14  C   UNL     1      46.655  19.805  74.329  1.00  0.00    -0.000 C 
BRANCH  14  15
ATOM     15  C   UNL     1      46.977  21.279  74.041  1.00  0.00    -0.000 C 
BRANCH  15  16
ATOM     16  C   UNL     1      47.389  22.052  75.305  1.00  0.00    -0.000 C 
BRANCH  16  17
ATOM     17  C   UNL     1      48.897  21.969  75.584  1.00  0.00    -0.003 C 
ATOM     18  C   UNL     1      49.174  21.190  76.868  1.00  0.00     0.004 C 
ENDBRANCH  16  17
ENDBRANCH  15  16
ENDBRANCH  14  15
ENDBRANCH  13  14
ENDBRANCH  12  13
ENDBRANCH  11  12
ENDBRANCH   1  11
TORSDOF 14
ENDMDL
MODEL 3
REMARK VINA RESULT:    -3.288      3.944      7.011
REMARK INTER + INTRA:          -7.713
REMARK INTER:                  -6.033
REMARK INTRA:                  -1.681
REMARK UNBOUND:                -1.734
REMARK SMILES CCCCCCCCCCCCCCCC(=O)[O-]
REMARK SMILES IDX 9 1 10 2 11 3 12 4 13 5 14 6 15 7 16 8 17 9 18 10 8 11 7 12
REMARK SMILES IDX 6 13 5 14 4 15 3 16 2 17 1 18
REMARK H PARENT
REMARK Flexibility Score: inf
ROOT
ATOM      1  C   UNL     1      49.724  29.946  91.046  1.00  0.00     0.000 C 
ENDROOT
BRANCH   1   2
ATOM      2  C   UNL     1      48.291  29.853  90.491  1.00  0.00     0.000 C 
BRANCH   2   3
ATOM      3  C   UNL     1      47.396  31.019  90.937  1.00  0.00     0.000 C 
BRANCH   3   4
ATOM      4  C   UNL     1      46.251  31.247  89.939  1.00  0.00     0.000 C 
BRANCH   4   5
ATOM      5  C   UNL     1      44.872  31.335  90.617  1.00  0.00     0.000 C 
BRANCH   5   6
ATOM      6  C   UNL     1      44.906  31.458  92.153  1.00  0.00     0.006 C 
BRANCH   6   7
ATOM      7  C   UNL     1      43.786  30.695  92.879  1.00  0.00     0.053 C 
BRANCH   7   8
ATOM      8  C   UNL     1      44.189  29.293  93.216  1.00  0.00     0.041 C 
ATOM      9  O   UNL     1      43.400  28.543  93.850  1.00  0.00    -0.550 OA
ATOM     10  O   UNL     1      45.420  28.803  92.800  1.00  0.00    -0.550 OA
ENDBRANCH   7   8
ENDBRANCH   6   7
ENDBRANCH   5   6
ENDBRANCH   4   5
ENDBRANCH   3   4
ENDBRANCH   2   3
ENDBRANCH   1   2
BRANCH   1  11
ATOM     11  C   UNL     1      50.046  31.244  91.810  1.00  0.00     0.000 C 
BRANCH  11  12
ATOM     12  C   UNL     1      51.364  31.894  91.355  1.00  0.00    -0.000 C 
BRANCH  12  13
ATOM     13  C   UNL     1      51.625  31.707  89.851  1.00  0.00    -0.000 C 
BRANCH  13  14
ATOM     14  C   UNL     1      51.141  32.901  89.013  1.00  0.00    -0.000 C 
BRANCH  14  15
ATOM     15  C   UNL     1      50.535  32.426  87.685  1.00  0.00    -0.000 C 
BRANCH  15  16
ATOM     16  C   UNL     1      49.010  32.238  87.763  1.00  0.00    -0.000 C 
BRANCH  16  17
ATOM     17  C   UNL     1      48.253  33.572  87.841  1.00  0.00    -0.003 C 
ATOM     18  C   UNL     1      48.631  34.486  86.678  1.00  0.00     0.004 C 
ENDBRANCH  16  17
ENDBRANCH  15  16
ENDBRANCH  14  15
ENDBRANCH  13  14
ENDBRANCH  12  13
ENDBRANCH  11  12
ENDBRANCH   1  11
TORSDOF 14
ENDMDL
MODEL 4
REMARK VINA RESULT:    -3.273      3.496      7.190
REMARK INTER + INTRA:          -7.686
REMARK INTER:                  -5.880
REMARK INTRA:                  -1.805
REMARK UNBOUND:                -1.734
REMARK SMILES CCCCCCCCCCCCCCCC(=O)[O-]
REMARK SMILES IDX 9 1 10 2 11 3 12 4 13 5 14 6 15 7 16 8 17 9 18 10 8 11 7 12
REMARK SMILES IDX 6 13 5 14 4 15 3 16 2 17 1 18
REMARK H PARENT
REMARK Flexibility Score: inf
ROOT
ATOM      1  C   UNL     1      48.573  32.272  87.128  1.00  0.00     0.000 C 
ENDROOT
BRANCH   1   2
ATOM      2  C   UNL     1      49.796  31.538  87.708  1.00  0.00     0.000 C 
BRANCH   2   3
ATOM      3  C   UNL     1      50.065  31.889  89.179  1.00  0.00     0.000 C 
BRANCH   3   4
ATOM      4  C   UNL     1      50.059  30.627  90.055  1.00  0.00     0.000 C 
BRANCH   4   5
ATOM      5  C   UNL     1      48.815  30.526  90.956  1.00  0.00     0.000 C 
BRANCH   5   6
ATOM      6  C   UNL     1      47.474  30.403  90.205  1.00  0.00     0.006 C 
BRANCH   6   7
ATOM      7  C   UNL     1      46.389  31.388  90.672  1.00  0.00     0.053 C 
BRANCH   7   8
ATOM      8  C   UNL     1      45.263  30.691  91.370  1.00  0.00     0.041 C 
ATOM      9  O   UNL     1      44.076  31.077  91.199  1.00  0.00    -0.550 OA
ATOM     10  O   UNL     1      45.518  29.592  92.181  1.00  0.00    -0.550 OA
ENDBRANCH   7   8
ENDBRANCH   6   7
ENDBRANCH   5   6
ENDBRANCH   4   5
ENDBRANCH   3   4
ENDBRANCH   2   3
ENDBRANCH   1   2
BRANCH   1  11
ATOM     11  C   UNL     1      48.246  33.623  87.791  1.00  0.00     0.000 C 
BRANCH  11  12
ATOM     12  C   UNL     1      48.870  34.818  87.050  1.00  0.00    -0.000 C 
BRANCH  12  13
ATOM     13  C   UNL     1      50.069  35.417  87.804  1.00  0.00    -0.000 C 
BRANCH  13  14
ATOM     14  C   UNL     1      51.416  34.863  87.312  1.00  0.00    -0.000 C 
BRANCH  14  15
ATOM     15  C   UNL     1      52.499  35.022  88.390  1.00  0.00    -0.000 C 
BRANCH  15  16
ATOM     16  C   UNL     1      53.213  33.699  88.711  1.00  0.00    -0.000 C 
BRANCH  16  17
ATOM     17  C   UNL     1      53.896  33.714  90.086  1.00  0.00    -0.003 C 
ATOM     18  C   UNL     1      53.190  32.773  91.059  1.00  0.00     0.004 C 
ENDBRANCH  16  17
ENDBRANCH  15  16
ENDBRANCH  14  15
ENDBRANCH  13  14
ENDBRANCH  12  13
ENDBRANCH  11  12
ENDBRANCH   1  11
TORSDOF 14
ENDMDL
MODEL 5
REMARK VINA RESULT:    -3.241      3.576      6.756
REMARK INTER + INTRA:          -7.627
REMARK INTER:                  -5.721
REMARK INTRA:                  -1.906
REMARK UNBOUND:                -1.734
REMARK SMILES CCCCCCCCCCCCCCCC(=O)[O-]
REMARK SMILES IDX 9 1 10 2 11 3 12 4 13 5 14 6 15 7 16 8 17 9 18 10 8 11 7 12
REMARK SMILES IDX 6 13 5 14 4 15 3 16 2 17 1 18
REMARK H PARENT
REMARK Flexibility Score: inf
ROOT
ATOM      1  C   UNL     1      50.751  30.769  88.994  1.00  0.00     0.000 C 
ENDROOT
BRANCH   1   2
ATOM      2  C   UNL     1      49.883  29.685  89.659  1.00  0.00     0.000 C 
BRANCH   2   3
ATOM      3  C   UNL     1      48.377  29.964  89.539  1.00  0.00     0.000 C 
BRANCH   3   4
ATOM      4  C   UNL     1      47.870  30.764  90.748  1.00  0.00     0.000 C 
BRANCH   4   5
ATOM      5  C   UNL     1      46.608  31.589  90.436  1.00  0.00     0.000 C 
BRANCH   5   6
ATOM      6  C   UNL     1      45.356  30.760  90.087  1.00  0.00     0.006 C 
BRANCH   6   7
ATOM      7  C   UNL     1      44.115  31.092  90.931  1.00  0.00     0.053 C 
BRANCH   7   8
ATOM      8  C   UNL     1      44.333  30.808  92.385  1.00  0.00     0.041 C 
ATOM      9  O   UNL     1      44.741  29.676  92.754  1.00  0.00    -0.550 OA
ATOM     10  O   UNL     1      44.119  31.804  93.329  1.00  0.00    -0.550 OA
ENDBRANCH   7   8
ENDBRANCH   6   7
ENDBRANCH   5   6
ENDBRANCH   4   5
ENDBRANCH   3   4
ENDBRANCH   2   3
ENDBRANCH   1   2
BRANCH   1  11
ATOM     11  C   UNL     1      51.361  31.802  89.960  1.00  0.00     0.000 C 
BRANCH  11  12
ATOM     12  C   UNL     1      51.810  33.091  89.251  1.00  0.00    -0.000 C 
BRANCH  12  13
ATOM     13  C   UNL     1      51.808  32.952  87.719  1.00  0.00    -0.000 C 
BRANCH  13  14
ATOM     14  C   UNL     1      51.433  34.260  87.006  1.00  0.00    -0.000 C 
BRANCH  14  15
ATOM     15  C   UNL     1      50.320  34.997  87.766  1.00  0.00    -0.000 C 
BRANCH  15  16
ATOM     16  C   UNL     1      48.925  34.737  87.173  1.00  0.00    -0.000 C 
BRANCH  16  17
ATOM     17  C   UNL     1      48.241  33.508  87.789  1.00  0.00    -0.003 C 
ATOM     18  C   UNL     1      48.142  32.370  86.777  1.00  0.00     0.004 C 
ENDBRANCH  16  17
ENDBRANCH  15  16
ENDBRANCH  14  15
ENDBRANCH  13  14
ENDBRANCH  12  13
ENDBRANCH  11  12
ENDBRANCH   1  11
TORSDOF 14
ENDMDL
MODEL 6
REMARK VINA RESULT:    -3.236      1.135      2.511
REMARK INTER + INTRA:          -7.619
REMARK INTER:                  -5.593
REMARK INTRA:                  -2.026
REMARK UNBOUND:                -1.734
REMARK SMILES CCCCCCCCCCCCCCCC(=O)[O-]
REMARK SMILES IDX 9 1 10 2 11 3 12 4 13 5 14 6 15 7 16 8 17 9 18 10 8 11 7 12
REMARK SMILES IDX 6 13 5 14 4 15 3 16 2 17 1 18
REMARK H PARENT
REMARK Flexibility Score: inf
ROOT
ATOM      1  C   UNL     1      50.062  30.762  87.636  1.00  0.00     0.000 C 
ENDROOT
BRANCH   1   2
ATOM      2  C   UNL     1      48.562  30.454  87.476  1.00  0.00     0.000 C 
BRANCH   2   3
ATOM      3  C   UNL     1      47.694  31.719  87.392  1.00  0.00     0.000 C 
BRANCH   3   4
ATOM      4  C   UNL     1      48.351  32.886  88.144  1.00  0.00     0.000 C 
BRANCH   4   5
ATOM      5  C   UNL     1      48.342  34.199  87.342  1.00  0.00     0.000 C 
BRANCH   5   6
ATOM      6  C   UNL     1      49.549  35.125  87.591  1.00  0.00     0.006 C 
BRANCH   6   7
ATOM      7  C   UNL     1      50.844  34.394  87.981  1.00  0.00     0.053 C 
BRANCH   7   8
ATOM      8  C   UNL     1      51.992  34.777  87.101  1.00  0.00     0.041 C 
ATOM      9  O   UNL     1      52.935  35.476  87.558  1.00  0.00    -0.550 OA
ATOM     10  O   UNL     1      52.040  34.334  85.785  1.00  0.00    -0.550 OA
ENDBRANCH   7   8
ENDBRANCH   6   7
ENDBRANCH   5   6
ENDBRANCH   4   5
ENDBRANCH   3   4
ENDBRANCH   2   3
ENDBRANCH   1   2
BRANCH   1  11
ATOM     11  C   UNL     1      50.751  30.063  88.822  1.00  0.00     0.000 C 
BRANCH  11  12
ATOM     12  C   UNL     1      50.965  30.998  90.025  1.00  0.00    -0.000 C 
BRANCH  12  13
ATOM     13  C   UNL     1      50.217  30.522  91.282  1.00  0.00    -0.000 C 
BRANCH  13  14
ATOM     14  C   UNL     1      48.708  30.806  91.216  1.00  0.00    -0.000 C 
BRANCH  14  15
ATOM     15  C   UNL     1      47.916  29.505  91.017  1.00  0.00    -0.000 C 
BRANCH  15  16
ATOM     16  C   UNL     1      46.400  29.745  90.919  1.00  0.00    -0.000 C 
BRANCH  16  17
ATOM     17  C   UNL     1      46.031  31.234  90.988  1.00  0.00    -0.003 C 
ATOM     18  C   UNL     1      44.739  31.442  91.774  1.00  0.00     0.004 C 
ENDBRANCH  16  17
ENDBRANCH  15  16
ENDBRANCH  14  15
ENDBRANCH  13  14
ENDBRANCH  12  13
ENDBRANCH  11  12
ENDBRANCH   1  11
TORSDOF 14
ENDMDL
MODEL 7
REMARK VINA RESULT:    -3.235      2.479      4.893
REMARK INTER + INTRA:          -7.617
REMARK INTER:                  -5.535
REMARK INTRA:                  -2.082
REMARK UNBOUND:                -1.734
REMARK SMILES CCCCCCCCCCCCCCCC(=O)[O-]
REMARK SMILES IDX 9 1 10 2 11 3 12 4 13 5 14 6 15 7 16 8 17 9 18 10 8 11 7 12
REMARK SMILES IDX 6 13 5 14 4 15 3 16 2 17 1 18
REMARK H PARENT
REMARK Flexibility Score: inf
ROOT
ATOM      1  C   UNL     1      51.782  35.001  87.257  1.00  0.00     0.000 C 
ENDROOT
BRANCH   1   2
ATOM      2  C   UNL     1      52.635  34.060  88.127  1.00  0.00     0.000 C 
BRANCH   2   3
ATOM      3  C   UNL     1      52.690  32.624  87.582  1.00  0.00     0.000 C 
BRANCH   3   4
ATOM      4  C   UNL     1      51.683  31.721  88.310  1.00  0.00     0.000 C 
BRANCH   4   5
ATOM      5  C   UNL     1      51.196  32.317  89.644  1.00  0.00     0.000 C 
BRANCH   5   6
ATOM      6  C   UNL     1      51.397  31.411  90.875  1.00  0.00     0.006 C 
BRANCH   6   7
ATOM      7  C   UNL     1      52.456  31.914  91.870  1.00  0.00     0.053 C 
BRANCH   7   8
ATOM      8  C   UNL     1      53.797  32.079  91.225  1.00  0.00     0.041 C 
ATOM      9  O   UNL     1      54.373  31.090  90.698  1.00  0.00    -0.550 OA
ATOM     10  O   UNL     1      54.397  33.331  91.175  1.00  0.00    -0.550 OA
ENDBRANCH   7   8
ENDBRANCH   6   7
ENDBRANCH   5   6
ENDBRANCH   4   5
ENDBRANCH   3   4
ENDBRANCH   2   3
ENDBRANCH   1   2
BRANCH   1  11
ATOM     11  C   UNL     1      50.367  35.285  87.794  1.00  0.00     0.000 C 
BRANCH  11  12
ATOM     12  C   UNL     1      49.261  34.661  86.925  1.00  0.00    -0.000 C 
BRANCH  12  13
ATOM     13  C   UNL     1      48.271  33.819  87.747  1.00  0.00    -0.000 C 
BRANCH  13  14
ATOM     14  C   UNL     1      48.188  32.362  87.263  1.00  0.00    -0.000 C 
BRANCH  14  15
ATOM     15  C   UNL     1      47.283  31.531  88.184  1.00  0.00    -0.000 C 
BRANCH  15  16
ATOM     16  C   UNL     1      48.078  30.717  89.218  1.00  0.00    -0.000 C 
BRANCH  16  17
ATOM     17  C   UNL     1      47.432  30.740  90.612  1.00  0.00    -0.003 C 
ATOM     18  C   UNL     1      46.108  31.501  90.590  1.00  0.00     0.004 C 
ENDBRANCH  16  17
ENDBRANCH  15  16
ENDBRANCH  14  15
ENDBRANCH  13  14
ENDBRANCH  12  13
ENDBRANCH  11  12
ENDBRANCH   1  11
TORSDOF 14
ENDMDL
MODEL 8
REMARK VINA RESULT:    -3.231      2.548      6.630
REMARK INTER + INTRA:          -7.609
REMARK INTER:                  -5.539
REMARK INTRA:                  -2.070
REMARK UNBOUND:                -1.734
REMARK SMILES CCCCCCCCCCCCCCCC(=O)[O-]
REMARK SMILES IDX 9 1 10 2 11 3 12 4 13 5 14 6 15 7 16 8 17 9 18 10 8 11 7 12
REMARK SMILES IDX 6 13 5 14 4 15 3 16 2 17 1 18
REMARK H PARENT
REMARK Flexibility Score: inf
ROOT
ATOM      1  C   UNL     1      48.060  32.216  87.376  1.00  0.00     0.000 C 
ENDROOT
BRANCH   1   2
ATOM      2  C   UNL     1      47.185  31.206  88.139  1.00  0.00     0.000 C 
BRANCH   2   3
ATOM      3  C   UNL     1      47.008  31.564  89.623  1.00  0.00     0.000 C 
BRANCH   3   4
ATOM      4  C   UNL     1      47.658  30.505  90.525  1.00  0.00     0.000 C 
BRANCH   4   5
ATOM      5  C   UNL     1      48.980  30.979  91.153  1.00  0.00     0.000 C 
BRANCH   5   6
ATOM      6  C   UNL     1      50.236  30.738  90.292  1.00  0.00     0.006 C 
BRANCH   6   7
ATOM      7  C   UNL     1      50.968  32.019  89.859  1.00  0.00     0.053 C 
BRANCH   7   8
ATOM      8  C   UNL     1      52.192  32.271  90.685  1.00  0.00     0.041 C 
ATOM      9  O   UNL     1      52.372  31.640  91.760  1.00  0.00    -0.550 OA
ATOM     10  O   UNL     1      53.151  33.177  90.250  1.00  0.00    -0.550 OA
ENDBRANCH   7   8
ENDBRANCH   6   7
ENDBRANCH   5   6
ENDBRANCH   4   5
ENDBRANCH   3   4
ENDBRANCH   2   3
ENDBRANCH   1   2
BRANCH   1  11
ATOM     11  C   UNL     1      48.198  33.597  88.043  1.00  0.00     0.000 C 
BRANCH  11  12
ATOM     12  C   UNL     1      48.585  34.706  87.049  1.00  0.00    -0.000 C 
BRANCH  12  13
ATOM     13  C   UNL     1      50.053  34.610  86.602  1.00  0.00    -0.000 C 
BRANCH  13  14
ATOM     14  C   UNL     1      51.035  35.076  87.689  1.00  0.00    -0.000 C 
BRANCH  14  15
ATOM     15  C   UNL     1      52.487  34.943  87.206  1.00  0.00    -0.000 C 
BRANCH  15  16
ATOM     16  C   UNL     1      52.655  33.868  86.120  1.00  0.00    -0.000 C 
BRANCH  16  17
ATOM     17  C   UNL     1      52.997  32.488  86.702  1.00  0.00    -0.003 C 
ATOM     18  C   UNL     1      51.939  31.455  86.321  1.00  0.00     0.004 C 
ENDBRANCH  16  17
ENDBRANCH  15  16
ENDBRANCH  14  15
ENDBRANCH  13  14
ENDBRANCH  12  13
ENDBRANCH  11  12
ENDBRANCH   1  11
TORSDOF 14
ENDMDL
