MODEL 1
REMARK VINA RESULT:    -3.256      0.000      0.000
REMARK INTER + INTRA:          -6.315
REMARK INTER:                  -5.159
REMARK INTRA:                  -1.156
REMARK UNBOUND:                -1.156
REMARK SMILES CCCCCCCCCCCC(=O)[O-]
REMARK SMILES IDX 7 1 8 2 9 3 10 4 11 5 12 6 13 7 14 8 6 9 5 10 4 11 3 12 2 13
REMARK SMILES IDX 1 14
REMARK H PARENT
REMARK Flexibility Score: inf
ROOT
ATOM      1  C   UNL     1     132.036 140.742 140.539  1.00  0.00     0.000 C 
ENDROOT
BRANCH   1   2
ATOM      2  C   UNL     1     131.457 139.372 140.157  1.00  0.00     0.000 C 
BRANCH   2   3
ATOM      3  C   UNL     1     130.507 139.445 138.951  1.00  0.00     0.000 C 
BRANCH   3   4
ATOM      4  C   UNL     1     129.035 139.249 139.344  1.00  0.00     0.006 C 
BRANCH   4   5
ATOM      5  C   UNL     1     128.918 138.438 140.638  1.00  0.00     0.053 C 
BRANCH   5   6
ATOM      6  C   UNL     1     128.128 137.189 140.403  1.00  0.00     0.041 C 
ATOM      7  O   UNL     1     126.878 137.246 140.267  1.00  0.00    -0.550 OA
ATOM      8  O   UNL     1     128.778 135.967 140.287  1.00  0.00    -0.550 OA
ENDBRANCH   5   6
ENDBRANCH   4   5
ENDBRANCH   3   4
ENDBRANCH   2   3
ENDBRANCH   1   2
BRANCH   1   9
ATOM      9  C   UNL     1     131.252 141.365 141.700  1.00  0.00     0.000 C 
BRANCH   9  10
ATOM     10  C   UNL     1     130.899 142.830 141.404  1.00  0.00    -0.000 C 
BRANCH  10  11
ATOM     11  C   UNL     1     131.981 143.552 140.581  1.00  0.00    -0.000 C 
BRANCH  11  12
ATOM     12  C   UNL     1     131.479 144.230 139.291  1.00  0.00    -0.000 C 
BRANCH  12  13
ATOM     13  C   UNL     1     131.644 143.393 138.010  1.00  0.00    -0.003 C 
ATOM     14  C   UNL     1     130.329 142.787 137.523  1.00  0.00     0.004 C 
ENDBRANCH  12  13
ENDBRANCH  11  12
ENDBRANCH  10  11
ENDBRANCH   9  10
ENDBRANCH   1   9
TORSDOF 10
ENDMDL
MODEL 2
REMARK VINA RESULT:    -3.229      1.073      2.767
REMARK INTER + INTRA:          -6.273
REMARK INTER:                  -5.365
REMARK INTRA:                  -0.909
REMARK UNBOUND:                -1.156
REMARK SMILES CCCCCCCCCCCC(=O)[O-]
REMARK SMILES IDX 7 1 8 2 9 3 10 4 11 5 12 6 13 7 14 8 6 9 5 10 4 11 3 12 2 13
REMARK SMILES IDX 1 14
REMARK H PARENT
REMARK Flexibility Score: inf
ROOT
ATOM      1  C   UNL     1     129.925 141.849 137.974  1.00  0.00     0.000 C 
ENDROOT
BRANCH   1   2
ATOM      2  C   UNL     1     130.107 141.370 139.422  1.00  0.00     0.000 C 
BRANCH   2   3
ATOM      3  C   UNL     1     130.864 140.036 139.514  1.00  0.00     0.000 C 
BRANCH   3   4
ATOM      4  C   UNL     1     130.103 138.979 140.328  1.00  0.00     0.006 C 
BRANCH   4   5
ATOM      5  C   UNL     1     128.699 138.756 139.759  1.00  0.00     0.053 C 
BRANCH   5   6
ATOM      6  C   UNL     1     128.136 137.459 140.247  1.00  0.00     0.041 C 
ATOM      7  O   UNL     1     128.904 136.539 140.631  1.00  0.00    -0.550 OA
ATOM      8  O   UNL     1     126.760 137.283 140.324  1.00  0.00    -0.550 OA
ENDBRANCH   5   6
ENDBRANCH   4   5
ENDBRANCH   3   4
ENDBRANCH   2   3
ENDBRANCH   1   2
BRANCH   1   9
ATOM      9  C   UNL     1     130.549 143.234 137.771  1.00  0.00     0.000 C 
BRANCH   9  10
ATOM     10  C   UNL     1     132.040 143.121 137.421  1.00  0.00    -0.000 C 
BRANCH  10  11
ATOM     11  C   UNL     1     132.955 143.759 138.481  1.00  0.00    -0.000 C 
BRANCH  11  12
ATOM     12  C   UNL     1     132.232 144.621 139.535  1.00  0.00    -0.000 C 
BRANCH  12  13
ATOM     13  C   UNL     1     132.648 144.351 140.993  1.00  0.00    -0.003 C 
ATOM     14  C   UNL     1     131.584 143.589 141.782  1.00  0.00     0.004 C 
ENDBRANCH  12  13
ENDBRANCH  11  12
ENDBRANCH  10  11
ENDBRANCH   9  10
ENDBRANCH   1   9
TORSDOF 10
ENDMDL
MODEL 3
REMARK VINA RESULT:    -3.222      3.357      4.985
REMARK INTER + INTRA:          -6.262
REMARK INTER:                  -5.176
REMARK INTRA:                  -1.086
REMARK UNBOUND:                -1.156
REMARK SMILES CCCCCCCCCCCC(=O)[O-]
REMARK SMILES IDX 7 1 8 2 9 3 10 4 11 5 12 6 13 7 14 8 6 9 5 10 4 11 3 12 2 13
REMARK SMILES IDX 1 14
REMARK H PARENT
REMARK Flexibility Score: inf
ROOT
ATOM      1  C   UNL     1     132.165 138.261 144.202  1.00  0.00     0.000 C 
ENDROOT
BRANCH   1   2
ATOM      2  C   UNL     1     131.853 139.285 143.100  1.00  0.00     0.000 C 
BRANCH   2   3
ATOM      3  C   UNL     1     131.893 138.669 141.693  1.00  0.00     0.000 C 
BRANCH   3   4
ATOM      4  C   UNL     1     130.606 138.930 140.895  1.00  0.00     0.006 C 
BRANCH   4   5
ATOM      5  C   UNL     1     129.574 137.826 141.145  1.00  0.00     0.053 C 
BRANCH   5   6
ATOM      6  C   UNL     1     128.351 138.055 140.313  1.00  0.00     0.041 C 
ATOM      7  O   UNL     1     128.240 139.104 139.626  1.00  0.00    -0.550 OA
ATOM      8  O   UNL     1     127.356 137.088 140.259  1.00  0.00    -0.550 OA
ENDBRANCH   5   6
ENDBRANCH   4   5
ENDBRANCH   3   4
ENDBRANCH   2   3
ENDBRANCH   1   2
BRANCH   1   9
ATOM      9  C   UNL     1     130.943 138.031 145.099  1.00  0.00     0.000 C 
BRANCH   9  10
ATOM     10  C   UNL     1     129.798 138.983 144.724  1.00  0.00    -0.000 C 
BRANCH  10  11
ATOM     11  C   UNL     1     129.181 139.689 145.946  1.00  0.00    -0.000 C 
BRANCH  11  12
ATOM     12  C   UNL     1     129.300 141.226 145.942  1.00  0.00    -0.000 C 
BRANCH  12  13
ATOM     13  C   UNL     1     130.671 141.773 146.378  1.00  0.00    -0.003 C 
ATOM     14  C   UNL     1     131.490 142.323 145.211  1.00  0.00     0.004 C 
ENDBRANCH  12  13
ENDBRANCH  11  12
ENDBRANCH  10  11
ENDBRANCH   9  10
ENDBRANCH   1   9
TORSDOF 10
ENDMDL
MODEL 4
REMARK VINA RESULT:    -3.155      2.231      4.195
REMARK INTER + INTRA:          -6.156
REMARK INTER:                  -5.183
REMARK INTRA:                  -0.973
REMARK UNBOUND:                -1.156
REMARK SMILES CCCCCCCCCCCC(=O)[O-]
REMARK SMILES IDX 7 1 8 2 9 3 10 4 11 5 12 6 13 7 14 8 6 9 5 10 4 11 3 12 2 13
REMARK SMILES IDX 1 14
REMARK H PARENT
REMARK Flexibility Score: inf
ROOT
ATOM      1  C   UNL     1     131.000 141.433 141.199  1.00  0.00     0.000 C 
ENDROOT
BRANCH   1   2
ATOM      2  C   UNL     1     131.211 140.473 140.018  1.00  0.00     0.000 C 
BRANCH   2   3
ATOM      3  C   UNL     1     130.013 140.448 139.055  1.00  0.00     0.000 C 
BRANCH   3   4
ATOM      4  C   UNL     1     128.892 139.511 139.529  1.00  0.00     0.006 C 
BRANCH   4   5
ATOM      5  C   UNL     1     129.464 138.330 140.320  1.00  0.00     0.053 C 
BRANCH   5   6
ATOM      6  C   UNL     1     128.467 137.216 140.391  1.00  0.00     0.041 C 
ATOM      7  O   UNL     1     127.235 137.463 140.323  1.00  0.00    -0.550 OA
ATOM      8  O   UNL     1     128.902 135.900 140.485  1.00  0.00    -0.550 OA
ENDBRANCH   5   6
ENDBRANCH   4   5
ENDBRANCH   3   4
ENDBRANCH   2   3
ENDBRANCH   1   2
BRANCH   1   9
ATOM      9  C   UNL     1     131.953 141.102 142.353  1.00  0.00     0.000 C 
BRANCH   9  10
ATOM     10  C   UNL     1     132.093 139.584 142.532  1.00  0.00    -0.000 C 
BRANCH  10  11
ATOM     11  C   UNL     1     131.662 139.103 143.930  1.00  0.00    -0.000 C 
BRANCH  11  12
ATOM     12  C   UNL     1     130.155 138.818 144.088  1.00  0.00    -0.000 C 
BRANCH  12  13
ATOM     13  C   UNL     1     129.510 139.414 145.352  1.00  0.00    -0.003 C 
ATOM     14  C   UNL     1     129.750 140.917 145.489  1.00  0.00     0.004 C 
ENDBRANCH  12  13
ENDBRANCH  11  12
ENDBRANCH  10  11
ENDBRANCH   9  10
ENDBRANCH   1   9
TORSDOF 10
ENDMDL
MODEL 5
REMARK VINA RESULT:    -3.153      3.981      5.770
REMARK INTER + INTRA:          -6.152
REMARK INTER:                  -5.444
REMARK INTRA:                  -0.708
REMARK UNBOUND:                -1.156
REMARK SMILES CCCCCCCCCCCC(=O)[O-]
REMARK SMILES IDX 7 1 8 2 9 3 10 4 11 5 12 6 13 7 14 8 6 9 5 10 4 11 3 12 2 13
REMARK SMILES IDX 1 14
REMARK H PARENT
REMARK Flexibility Score: inf
ROOT
ATOM      1  C   UNL     1     131.415 138.978 142.499  1.00  0.00     0.000 C 
ENDROOT
BRANCH   1   2
ATOM      2  C   UNL     1     130.770 139.706 141.310  1.00  0.00     0.000 C 
BRANCH   2   3
ATOM      3  C   UNL     1     129.851 138.792 140.484  1.00  0.00     0.000 C 
BRANCH   3   4
ATOM      4  C   UNL     1     129.308 139.482 139.224  1.00  0.00     0.006 C 
BRANCH   4   5
ATOM      5  C   UNL     1     129.500 141.000 139.305  1.00  0.00     0.053 C 
BRANCH   5   6
ATOM      6  C   UNL     1     130.300 141.490 138.139  1.00  0.00     0.041 C 
ATOM      7  O   UNL     1     131.356 140.893 137.800  1.00  0.00    -0.550 OA
ATOM      8  O   UNL     1     129.854 142.575 137.397  1.00  0.00    -0.550 OA
ENDBRANCH   5   6
ENDBRANCH   4   5
ENDBRANCH   3   4
ENDBRANCH   2   3
ENDBRANCH   1   2
BRANCH   1   9
ATOM      9  C   UNL     1     130.352 138.522 143.505  1.00  0.00     0.000 C 
BRANCH   9  10
ATOM     10  C   UNL     1     130.999 138.059 144.818  1.00  0.00    -0.000 C 
BRANCH  10  11
ATOM     11  C   UNL     1     130.354 138.696 146.062  1.00  0.00    -0.000 C 
BRANCH  11  12
ATOM     12  C   UNL     1     129.099 139.548 145.784  1.00  0.00    -0.000 C 
BRANCH  12  13
ATOM     13  C   UNL     1     129.268 141.056 146.042  1.00  0.00    -0.003 C 
ATOM     14  C   UNL     1     130.732 141.488 146.110  1.00  0.00     0.004 C 
ENDBRANCH  12  13
ENDBRANCH  11  12
ENDBRANCH  10  11
ENDBRANCH   9  10
ENDBRANCH   1   9
TORSDOF 10
ENDMDL
MODEL 6
REMARK VINA RESULT:    -3.149      1.917      2.996
REMARK INTER + INTRA:          -6.145
REMARK INTER:                  -5.385
REMARK INTRA:                  -0.760
REMARK UNBOUND:                -1.156
REMARK SMILES CCCCCCCCCCCC(=O)[O-]
REMARK SMILES IDX 7 1 8 2 9 3 10 4 11 5 12 6 13 7 14 8 6 9 5 10 4 11 3 12 2 13
REMARK SMILES IDX 1 14
REMARK H PARENT
REMARK Flexibility Score: inf
ROOT
ATOM      1  C   UNL     1     130.666 143.103 137.816  1.00  0.00     0.000 C 
ENDROOT
BRANCH   1   2
ATOM      2  C   UNL     1     129.941 141.817 138.241  1.00  0.00     0.000 C 
BRANCH   2   3
ATOM      3  C   UNL     1     130.705 141.036 139.321  1.00  0.00     0.000 C 
BRANCH   3   4
ATOM      4  C   UNL     1     130.438 139.525 139.260  1.00  0.00     0.006 C 
BRANCH   4   5
ATOM      5  C   UNL     1     128.946 139.225 139.436  1.00  0.00     0.053 C 
BRANCH   5   6
ATOM      6  C   UNL     1     128.750 138.071 140.369  1.00  0.00     0.041 C 
ATOM      7  O   UNL     1     129.495 137.936 141.375  1.00  0.00    -0.550 OA
ATOM      8  O   UNL     1     127.715 137.172 140.153  1.00  0.00    -0.550 OA
ENDBRANCH   5   6
ENDBRANCH   4   5
ENDBRANCH   3   4
ENDBRANCH   2   3
ENDBRANCH   1   2
BRANCH   1   9
ATOM      9  C   UNL     1     131.433 143.716 138.994  1.00  0.00     0.000 C 
BRANCH   9  10
ATOM     10  C   UNL     1     132.733 144.380 138.520  1.00  0.00    -0.000 C 
BRANCH  10  11
ATOM     11  C   UNL     1     133.396 143.630 137.350  1.00  0.00    -0.000 C 
BRANCH  11  12
ATOM     12  C   UNL     1     133.565 144.453 136.057  1.00  0.00    -0.000 C 
BRANCH  12  13
ATOM     13  C   UNL     1     132.940 143.824 134.799  1.00  0.00    -0.003 C 
ATOM     14  C   UNL     1     131.552 144.379 134.484  1.00  0.00     0.004 C 
ENDBRANCH  12  13
ENDBRANCH  11  12
ENDBRANCH  10  11
ENDBRANCH   9  10
ENDBRANCH   1   9
TORSDOF 10
ENDMDL
MODEL 7
REMARK VINA RESULT:    -3.092      3.364      5.151
REMARK INTER + INTRA:          -6.055
REMARK INTER:                  -4.667
REMARK INTRA:                  -1.388
REMARK UNBOUND:                -1.156
REMARK SMILES CCCCCCCCCCCC(=O)[O-]
REMARK SMILES IDX 7 1 8 2 9 3 10 4 11 5 12 6 13 7 14 8 6 9 5 10 4 11 3 12 2 13
REMARK SMILES IDX 1 14
REMARK H PARENT
REMARK Flexibility Score: inf
ROOT
ATOM      1  C   UNL     1     132.746 139.778 143.853  1.00  0.00     0.000 C 
ENDROOT
BRANCH   1   2
ATOM      2  C   UNL     1     132.451 138.550 142.978  1.00  0.00     0.000 C 
BRANCH   2   3
ATOM      3  C   UNL     1     131.236 137.749 143.472  1.00  0.00     0.000 C 
BRANCH   3   4
ATOM      4  C   UNL     1     129.959 138.062 142.679  1.00  0.00     0.006 C 
BRANCH   4   5
ATOM      5  C   UNL     1     130.294 138.476 141.242  1.00  0.00     0.053 C 
BRANCH   5   6
ATOM      6  C   UNL     1     129.114 138.261 140.347  1.00  0.00     0.041 C 
ATOM      7  O   UNL     1     128.414 137.221 140.459  1.00  0.00    -0.550 OA
ATOM      8  O   UNL     1     128.759 139.233 139.421  1.00  0.00    -0.550 OA
ENDBRANCH   5   6
ENDBRANCH   4   5
ENDBRANCH   3   4
ENDBRANCH   2   3
ENDBRANCH   1   2
BRANCH   1   9
ATOM      9  C   UNL     1     132.240 141.062 143.186  1.00  0.00     0.000 C 
BRANCH   9  10
ATOM     10  C   UNL     1     131.063 141.662 143.968  1.00  0.00    -0.000 C 
BRANCH  10  11
ATOM     11  C   UNL     1     130.859 141.002 145.344  1.00  0.00    -0.000 C 
BRANCH  11  12
ATOM     12  C   UNL     1     129.399 140.952 145.835  1.00  0.00    -0.000 C 
BRANCH  12  13
ATOM     13  C   UNL     1     128.870 139.543 146.158  1.00  0.00    -0.003 C 
ATOM     14  C   UNL     1     129.878 138.691 146.928  1.00  0.00     0.004 C 
ENDBRANCH  12  13
ENDBRANCH  11  12
ENDBRANCH  10  11
ENDBRANCH   9  10
ENDBRANCH   1   9
TORSDOF 10
ENDMDL
MODEL 8
REMARK VINA RESULT:    -3.056      1.708      2.671
REMARK INTER + INTRA:          -5.999
REMARK INTER:                  -4.729
REMARK INTRA:                  -1.270
REMARK UNBOUND:                -1.156
REMARK SMILES CCCCCCCCCCCC(=O)[O-]
REMARK SMILES IDX 7 1 8 2 9 3 10 4 11 5 12 6 13 7 14 8 6 9 5 10 4 11 3 12 2 13
REMARK SMILES IDX 1 14
REMARK H PARENT
REMARK Flexibility Score: inf
ROOT
ATOM      1  C   UNL     1     131.673 143.256 141.124  1.00  0.00     0.000 C 
ENDROOT
BRANCH   1   2
ATOM      2  C   UNL     1     130.708 142.071 140.966  1.00  0.00     0.000 C 
BRANCH   2   3
ATOM      3  C   UNL     1     130.379 141.767 139.496  1.00  0.00     0.000 C 
BRANCH   3   4
ATOM      4  C   UNL     1     130.499 140.273 139.159  1.00  0.00     0.006 C 
BRANCH   4   5
ATOM      5  C   UNL     1     129.120 139.605 139.139  1.00  0.00     0.053 C 
BRANCH   5   6
ATOM      6  C   UNL     1     129.053 138.513 140.160  1.00  0.00     0.041 C 
ATOM      7  O   UNL     1     128.043 137.764 140.221  1.00  0.00    -0.550 OA
ATOM      8  O   UNL     1     130.126 138.293 141.014  1.00  0.00    -0.550 OA
ENDBRANCH   5   6
ENDBRANCH   4   5
ENDBRANCH   3   4
ENDBRANCH   2   3
ENDBRANCH   1   2
BRANCH   1   9
ATOM      9  C   UNL     1     131.540 144.232 139.949  1.00  0.00     0.000 C 
BRANCH   9  10
ATOM     10  C   UNL     1     132.846 145.008 139.728  1.00  0.00    -0.000 C 
BRANCH  10  11
ATOM     11  C   UNL     1     133.461 144.763 138.338  1.00  0.00    -0.000 C 
BRANCH  11  12
ATOM     12  C   UNL     1     132.906 143.538 137.585  1.00  0.00    -0.000 C 
BRANCH  12  13
ATOM     13  C   UNL     1     133.877 142.348 137.473  1.00  0.00    -0.003 C 
ATOM     14  C   UNL     1     134.027 141.579 138.785  1.00  0.00     0.004 C 
ENDBRANCH  12  13
ENDBRANCH  11  12
ENDBRANCH  10  11
ENDBRANCH   9  10
ENDBRANCH   1   9
TORSDOF 10
ENDMDL
MODEL 9
REMARK VINA RESULT:    -3.016      2.018      3.202
REMARK INTER + INTRA:          -5.934
REMARK INTER:                  -4.648
REMARK INTRA:                  -1.287
REMARK UNBOUND:                -1.156
REMARK SMILES CCCCCCCCCCCC(=O)[O-]
REMARK SMILES IDX 7 1 8 2 9 3 10 4 11 5 12 6 13 7 14 8 6 9 5 10 4 11 3 12 2 13
REMARK SMILES IDX 1 14
REMARK H PARENT
REMARK Flexibility Score: inf
ROOT
ATOM      1  C   UNL     1     131.129 142.735 138.982  1.00  0.00     0.000 C 
ENDROOT
BRANCH   1   2
ATOM      2  C   UNL     1     130.406 141.671 139.821  1.00  0.00     0.000 C 
BRANCH   2   3
ATOM      3  C   UNL     1     129.227 141.029 139.074  1.00  0.00     0.000 C 
BRANCH   3   4
ATOM      4  C   UNL     1     129.197 139.500 139.217  1.00  0.00     0.006 C 
BRANCH   4   5
ATOM      5  C   UNL     1     130.236 139.025 140.237  1.00  0.00     0.053 C 
BRANCH   5   6
ATOM      6  C   UNL     1     129.649 137.984 141.137  1.00  0.00     0.041 C 
ATOM      7  O   UNL     1     128.867 137.113 140.673  1.00  0.00    -0.550 OA
ATOM      8  O   UNL     1     130.004 137.945 142.479  1.00  0.00    -0.550 OA
ENDBRANCH   5   6
ENDBRANCH   4   5
ENDBRANCH   3   4
ENDBRANCH   2   3
ENDBRANCH   1   2
BRANCH   1   9
ATOM      9  C   UNL     1     130.412 142.960 137.645  1.00  0.00     0.000 C 
BRANCH   9  10
ATOM     10  C   UNL     1     131.418 143.259 136.524  1.00  0.00    -0.000 C 
BRANCH  10  11
ATOM     11  C   UNL     1     132.874 142.963 136.931  1.00  0.00    -0.000 C 
BRANCH  11  12
ATOM     12  C   UNL     1     133.475 141.681 136.323  1.00  0.00    -0.000 C 
BRANCH  12  13
ATOM     13  C   UNL     1     133.621 140.503 137.303  1.00  0.00    -0.003 C 
ATOM     14  C   UNL     1     132.430 139.546 137.264  1.00  0.00     0.004 C 
ENDBRANCH  12  13
ENDBRANCH  11  12
ENDBRANCH  10  11
ENDBRANCH   9  10
ENDBRANCH   1   9
TORSDOF 10
ENDMDL
