MODEL 1
REMARK VINA RESULT:    -3.688      0.000      0.000
REMARK INTER + INTRA:          -7.203
REMARK INTER:                  -5.843
REMARK INTRA:                  -1.359
REMARK UNBOUND:                -1.359
REMARK SMILES CCCCCCCCCCCC(=O)[O-]
REMARK SMILES IDX 7 1 8 2 9 3 10 4 11 5 12 6 13 7 14 8 6 9 5 10 4 11 3 12 2 13
REMARK SMILES IDX 1 14
REMARK H PARENT
REMARK Flexibility Score: inf
ROOT
ATOM      1  C   UNL     1      28.897 -23.156  25.495  1.00  0.00     0.000 C 
ENDROOT
BRANCH   1   2
ATOM      2  C   UNL     1      27.559 -22.564  25.968  1.00  0.00     0.000 C 
BRANCH   2   3
ATOM      3  C   UNL     1      27.425 -21.068  25.634  1.00  0.00     0.000 C 
BRANCH   3   4
ATOM      4  C   UNL     1      28.723 -20.287  25.899  1.00  0.00     0.006 C 
BRANCH   4   5
ATOM      5  C   UNL     1      28.566 -19.234  27.004  1.00  0.00     0.053 C 
BRANCH   5   6
ATOM      6  C   UNL     1      29.372 -19.614  28.205  1.00  0.00     0.041 C 
ATOM      7  O   UNL     1      29.847 -18.723  28.957  1.00  0.00    -0.550 OA
ATOM      8  O   UNL     1      29.642 -20.952  28.467  1.00  0.00    -0.550 OA
ENDBRANCH   5   6
ENDBRANCH   4   5
ENDBRANCH   3   4
ENDBRANCH   2   3
ENDBRANCH   1   2
BRANCH   1   9
ATOM      9  C   UNL     1      28.739 -24.100  24.293  1.00  0.00     0.000 C 
BRANCH   9  10
ATOM     10  C   UNL     1      29.921 -23.954  23.323  1.00  0.00    -0.000 C 
BRANCH  10  11
ATOM     11  C   UNL     1      30.758 -22.694  23.598  1.00  0.00    -0.000 C 
BRANCH  11  12
ATOM     12  C   UNL     1      30.928 -21.813  22.349  1.00  0.00    -0.000 C 
BRANCH  12  13
ATOM     13  C   UNL     1      30.087 -20.530  22.414  1.00  0.00    -0.003 C 
ATOM     14  C   UNL     1      28.602 -20.784  22.159  1.00  0.00     0.004 C 
ENDBRANCH  12  13
ENDBRANCH  11  12
ENDBRANCH  10  11
ENDBRANCH   9  10
ENDBRANCH   1   9
TORSDOF 10
ENDMDL
MODEL 2
REMARK VINA RESULT:    -3.568      3.376      4.892
REMARK INTER + INTRA:          -7.014
REMARK INTER:                  -5.851
REMARK INTRA:                  -1.163
REMARK UNBOUND:                -1.359
REMARK SMILES CCCCCCCCCCCC(=O)[O-]
REMARK SMILES IDX 7 1 8 2 9 3 10 4 11 5 12 6 13 7 14 8 6 9 5 10 4 11 3 12 2 13
REMARK SMILES IDX 1 14
REMARK H PARENT
REMARK Flexibility Score: inf
ROOT
ATOM      1  C   UNL     1      28.677 -21.411  22.357  1.00  0.00     0.000 C 
ENDROOT
BRANCH   1   2
ATOM      2  C   UNL     1      29.091 -19.947  22.139  1.00  0.00     0.000 C 
BRANCH   2   3
ATOM      3  C   UNL     1      30.022 -19.425  23.247  1.00  0.00     0.000 C 
BRANCH   3   4
ATOM      4  C   UNL     1      29.698 -17.978  23.656  1.00  0.00     0.006 C 
BRANCH   4   5
ATOM      5  C   UNL     1      29.679 -17.015  22.462  1.00  0.00     0.053 C 
BRANCH   5   6
ATOM      6  C   UNL     1      28.591 -16.002  22.627  1.00  0.00     0.041 C 
ATOM      7  O   UNL     1      28.267 -15.601  23.776  1.00  0.00    -0.550 OA
ATOM      8  O   UNL     1      27.899 -15.536  21.516  1.00  0.00    -0.550 OA
ENDBRANCH   5   6
ENDBRANCH   4   5
ENDBRANCH   3   4
ENDBRANCH   2   3
ENDBRANCH   1   2
BRANCH   1   9
ATOM      9  C   UNL     1      29.684 -22.192  23.217  1.00  0.00     0.000 C 
BRANCH   9  10
ATOM     10  C   UNL     1      28.958 -23.127  24.196  1.00  0.00    -0.000 C 
BRANCH  10  11
ATOM     11  C   UNL     1      28.904 -22.562  25.624  1.00  0.00    -0.000 C 
BRANCH  11  12
ATOM     12  C   UNL     1      27.475 -22.208  26.068  1.00  0.00    -0.000 C 
BRANCH  12  13
ATOM     13  C   UNL     1      27.072 -20.780  25.673  1.00  0.00    -0.003 C 
ATOM     14  C   UNL     1      27.929 -19.715  26.357  1.00  0.00     0.004 C 
ENDBRANCH  12  13
ENDBRANCH  11  12
ENDBRANCH  10  11
ENDBRANCH   9  10
ENDBRANCH   1   9
TORSDOF 10
ENDMDL
MODEL 3
REMARK VINA RESULT:    -3.542      2.180      3.084
REMARK INTER + INTRA:          -6.971
REMARK INTER:                  -5.725
REMARK INTRA:                  -1.247
REMARK UNBOUND:                -1.359
REMARK SMILES CCCCCCCCCCCC(=O)[O-]
REMARK SMILES IDX 7 1 8 2 9 3 10 4 11 5 12 6 13 7 14 8 6 9 5 10 4 11 3 12 2 13
REMARK SMILES IDX 1 14
REMARK H PARENT
REMARK Flexibility Score: inf
ROOT
ATOM      1  C   UNL     1      27.081 -20.878  25.591  1.00  0.00     0.000 C 
ENDROOT
BRANCH   1   2
ATOM      2  C   UNL     1      27.328 -19.537  26.302  1.00  0.00     0.000 C 
BRANCH   2   3
ATOM      3  C   UNL     1      28.715 -19.467  26.964  1.00  0.00     0.000 C 
BRANCH   3   4
ATOM      4  C   UNL     1      29.738 -18.702  26.109  1.00  0.00     0.006 C 
BRANCH   4   5
ATOM      5  C   UNL     1      29.077 -17.745  25.108  1.00  0.00     0.053 C 
BRANCH   5   6
ATOM      6  C   UNL     1      28.936 -16.381  25.705  1.00  0.00     0.041 C 
ATOM      7  O   UNL     1      28.011 -15.616  25.325  1.00  0.00    -0.550 OA
ATOM      8  O   UNL     1      29.855 -15.935  26.647  1.00  0.00    -0.550 OA
ENDBRANCH   5   6
ENDBRANCH   4   5
ENDBRANCH   3   4
ENDBRANCH   2   3
ENDBRANCH   1   2
BRANCH   1   9
ATOM      9  C   UNL     1      27.710 -22.069  26.331  1.00  0.00     0.000 C 
BRANCH   9  10
ATOM     10  C   UNL     1      28.374 -23.039  25.343  1.00  0.00    -0.000 C 
BRANCH  10  11
ATOM     11  C   UNL     1      29.374 -22.338  24.408  1.00  0.00    -0.000 C 
BRANCH  11  12
ATOM     12  C   UNL     1      29.100 -22.630  22.923  1.00  0.00    -0.000 C 
BRANCH  12  13
ATOM     13  C   UNL     1      28.525 -21.415  22.181  1.00  0.00    -0.003 C 
ATOM     14  C   UNL     1      29.400 -20.170  22.320  1.00  0.00     0.004 C 
ENDBRANCH  12  13
ENDBRANCH  11  12
ENDBRANCH  10  11
ENDBRANCH   9  10
ENDBRANCH   1   9
TORSDOF 10
ENDMDL
MODEL 4
REMARK VINA RESULT:    -3.522      3.007      5.123
REMARK INTER + INTRA:          -6.940
REMARK INTER:                  -5.642
REMARK INTRA:                  -1.298
REMARK UNBOUND:                -1.359
REMARK SMILES CCCCCCCCCCCC(=O)[O-]
REMARK SMILES IDX 7 1 8 2 9 3 10 4 11 5 12 6 13 7 14 8 6 9 5 10 4 11 3 12 2 13
REMARK SMILES IDX 1 14
REMARK H PARENT
REMARK Flexibility Score: inf
ROOT
ATOM      1  C   UNL     1      29.264 -22.379  24.333  1.00  0.00     0.000 C 
ENDROOT
BRANCH   1   2
ATOM      2  C   UNL     1      28.840 -22.516  22.861  1.00  0.00     0.000 C 
BRANCH   2   3
ATOM      3  C   UNL     1      28.752 -21.158  22.144  1.00  0.00     0.000 C 
BRANCH   3   4
ATOM      4  C   UNL     1      29.975 -20.267  22.418  1.00  0.00     0.006 C 
BRANCH   4   5
ATOM      5  C   UNL     1      31.024 -20.339  21.300  1.00  0.00     0.053 C 
BRANCH   5   6
ATOM      6  C   UNL     1      32.040 -21.393  21.606  1.00  0.00     0.041 C 
ATOM      7  O   UNL     1      32.480 -22.134  20.688  1.00  0.00    -0.550 OA
ATOM      8  O   UNL     1      32.465 -21.592  22.914  1.00  0.00    -0.550 OA
ENDBRANCH   5   6
ENDBRANCH   4   5
ENDBRANCH   3   4
ENDBRANCH   2   3
ENDBRANCH   1   2
BRANCH   1   9
ATOM      9  C   UNL     1      28.318 -23.114  25.296  1.00  0.00     0.000 C 
BRANCH   9  10
ATOM     10  C   UNL     1      27.643 -22.127  26.260  1.00  0.00    -0.000 C 
BRANCH  10  11
ATOM     11  C   UNL     1      27.212 -20.824  25.566  1.00  0.00    -0.000 C 
BRANCH  11  12
ATOM     12  C   UNL     1      27.668 -19.569  26.329  1.00  0.00    -0.000 C 
BRANCH  12  13
ATOM     13  C   UNL     1      28.836 -18.851  25.637  1.00  0.00    -0.003 C 
ATOM     14  C   UNL     1      30.197 -19.272  26.190  1.00  0.00     0.004 C 
ENDBRANCH  12  13
ENDBRANCH  11  12
ENDBRANCH  10  11
ENDBRANCH   9  10
ENDBRANCH   1   9
TORSDOF 10
ENDMDL
MODEL 5
REMARK VINA RESULT:    -3.471      2.875      4.516
REMARK INTER + INTRA:          -6.860
REMARK INTER:                  -5.839
REMARK INTRA:                  -1.020
REMARK UNBOUND:                -1.359
REMARK SMILES CCCCCCCCCCCC(=O)[O-]
REMARK SMILES IDX 7 1 8 2 9 3 10 4 11 5 12 6 13 7 14 8 6 9 5 10 4 11 3 12 2 13
REMARK SMILES IDX 1 14
REMARK H PARENT
REMARK Flexibility Score: inf
ROOT
ATOM      1  C   UNL     1      30.111 -20.760  21.830  1.00  0.00     0.000 C 
ENDROOT
BRANCH   1   2
ATOM      2  C   UNL     1      28.723 -21.127  22.380  1.00  0.00     0.000 C 
BRANCH   2   3
ATOM      3  C   UNL     1      28.714 -22.489  23.097  1.00  0.00     0.000 C 
BRANCH   3   4
ATOM      4  C   UNL     1      29.579 -22.492  24.368  1.00  0.00     0.006 C 
BRANCH   4   5
ATOM      5  C   UNL     1      29.143 -21.429  25.385  1.00  0.00     0.053 C 
BRANCH   5   6
ATOM      6  C   UNL     1      27.764 -21.722  25.886  1.00  0.00     0.041 C 
ATOM      7  O   UNL     1      27.524 -22.804  26.483  1.00  0.00    -0.550 OA
ATOM      8  O   UNL     1      26.732 -20.822  25.650  1.00  0.00    -0.550 OA
ENDBRANCH   5   6
ENDBRANCH   4   5
ENDBRANCH   3   4
ENDBRANCH   2   3
ENDBRANCH   1   2
BRANCH   1   9
ATOM      9  C   UNL     1      30.348 -19.243  21.778  1.00  0.00     0.000 C 
BRANCH   9  10
ATOM     10  C   UNL     1      30.523 -18.668  23.191  1.00  0.00    -0.000 C 
BRANCH  10  11
ATOM     11  C   UNL     1      29.565 -17.501  23.477  1.00  0.00    -0.000 C 
BRANCH  11  12
ATOM     12  C   UNL     1      29.669 -16.379  22.430  1.00  0.00    -0.000 C 
BRANCH  12  13
ATOM     13  C   UNL     1      28.295 -15.907  21.933  1.00  0.00    -0.003 C 
ATOM     14  C   UNL     1      27.876 -16.581  20.627  1.00  0.00     0.004 C 
ENDBRANCH  12  13
ENDBRANCH  11  12
ENDBRANCH  10  11
ENDBRANCH   9  10
ENDBRANCH   1   9
TORSDOF 10
ENDMDL
MODEL 6
REMARK VINA RESULT:    -3.461     12.851     14.813
REMARK INTER + INTRA:          -6.843
REMARK INTER:                  -5.917
REMARK INTRA:                  -0.926
REMARK UNBOUND:                -1.359
REMARK SMILES CCCCCCCCCCCC(=O)[O-]
REMARK SMILES IDX 7 1 8 2 9 3 10 4 11 5 12 6 13 7 14 8 6 9 5 10 4 11 3 12 2 13
REMARK SMILES IDX 1 14
REMARK H PARENT
REMARK Flexibility Score: inf
ROOT
ATOM      1  C   UNL     1      32.361  -7.468  16.128  1.00  0.00     0.000 C 
ENDROOT
BRANCH   1   2
ATOM      2  C   UNL     1      31.578  -7.051  17.385  1.00  0.00     0.000 C 
BRANCH   2   3
ATOM      3  C   UNL     1      32.320  -5.992  18.218  1.00  0.00     0.000 C 
BRANCH   3   4
ATOM      4  C   UNL     1      32.233  -6.263  19.729  1.00  0.00     0.006 C 
BRANCH   4   5
ATOM      5  C   UNL     1      31.251  -7.391  20.073  1.00  0.00     0.053 C 
BRANCH   5   6
ATOM      6  C   UNL     1      30.965  -7.403  21.541  1.00  0.00     0.041 C 
ATOM      7  O   UNL     1      29.981  -8.048  21.990  1.00  0.00    -0.550 OA
ATOM      8  O   UNL     1      31.756  -6.661  22.410  1.00  0.00    -0.550 OA
ENDBRANCH   5   6
ENDBRANCH   4   5
ENDBRANCH   3   4
ENDBRANCH   2   3
ENDBRANCH   1   2
BRANCH   1   9
ATOM      9  C   UNL     1      32.486  -8.992  15.984  1.00  0.00     0.000 C 
BRANCH   9  10
ATOM     10  C   UNL     1      32.320  -9.686  17.344  1.00  0.00    -0.000 C 
BRANCH  10  11
ATOM     11  C   UNL     1      32.726 -11.168  17.305  1.00  0.00    -0.000 C 
BRANCH  11  12
ATOM     12  C   UNL     1      32.415 -11.902  18.621  1.00  0.00    -0.000 C 
BRANCH  12  13
ATOM     13  C   UNL     1      32.032 -10.940  19.755  1.00  0.00    -0.003 C 
ATOM     14  C   UNL     1      31.034 -11.553  20.737  1.00  0.00     0.004 C 
ENDBRANCH  12  13
ENDBRANCH  11  12
ENDBRANCH  10  11
ENDBRANCH   9  10
ENDBRANCH   1   9
TORSDOF 10
ENDMDL
MODEL 7
REMARK VINA RESULT:    -3.433     12.679     14.541
REMARK INTER + INTRA:          -6.799
REMARK INTER:                  -5.746
REMARK INTRA:                  -1.053
REMARK UNBOUND:                -1.359
REMARK SMILES CCCCCCCCCCCC(=O)[O-]
REMARK SMILES IDX 7 1 8 2 9 3 10 4 11 5 12 6 13 7 14 8 6 9 5 10 4 11 3 12 2 13
REMARK SMILES IDX 1 14
REMARK H PARENT
REMARK Flexibility Score: inf
ROOT
ATOM      1  C   UNL     1      32.307  -6.266  17.868  1.00  0.00     0.000 C 
ENDROOT
BRANCH   1   2
ATOM      2  C   UNL     1      32.338  -6.242  19.406  1.00  0.00     0.000 C 
BRANCH   2   3
ATOM      3  C   UNL     1      31.301  -7.192  20.031  1.00  0.00     0.000 C 
BRANCH   3   4
ATOM      4  C   UNL     1      31.212  -7.043  21.559  1.00  0.00     0.006 C 
BRANCH   4   5
ATOM      5  C   UNL     1      30.113  -7.918  22.177  1.00  0.00     0.053 C 
BRANCH   5   6
ATOM      6  C   UNL     1      30.713  -8.959  23.067  1.00  0.00     0.041 C 
ATOM      7  O   UNL     1      31.826  -8.754  23.619  1.00  0.00    -0.550 OA
ATOM      8  O   UNL     1      30.069 -10.176  23.247  1.00  0.00    -0.550 OA
ENDBRANCH   5   6
ENDBRANCH   4   5
ENDBRANCH   3   4
ENDBRANCH   2   3
ENDBRANCH   1   2
BRANCH   1   9
ATOM      9  C   UNL     1      31.424  -7.392  17.308  1.00  0.00     0.000 C 
BRANCH   9  10
ATOM     10  C   UNL     1      32.122  -8.104  16.140  1.00  0.00    -0.000 C 
BRANCH  10  11
ATOM     11  C   UNL     1      32.413  -9.584  16.438  1.00  0.00    -0.000 C 
BRANCH  11  12
ATOM     12  C   UNL     1      32.954  -9.806  17.860  1.00  0.00    -0.000 C 
BRANCH  12  13
ATOM     13  C   UNL     1      32.365 -11.058  18.526  1.00  0.00    -0.003 C 
ATOM     14  C   UNL     1      31.815 -10.779  19.925  1.00  0.00     0.004 C 
ENDBRANCH  12  13
ENDBRANCH  11  12
ENDBRANCH  10  11
ENDBRANCH   9  10
ENDBRANCH   1   9
TORSDOF 10
ENDMDL
MODEL 8
REMARK VINA RESULT:    -3.428      1.697      2.298
REMARK INTER + INTRA:          -6.792
REMARK INTER:                  -5.566
REMARK INTRA:                  -1.226
REMARK UNBOUND:                -1.359
REMARK SMILES CCCCCCCCCCCC(=O)[O-]
REMARK SMILES IDX 7 1 8 2 9 3 10 4 11 5 12 6 13 7 14 8 6 9 5 10 4 11 3 12 2 13
REMARK SMILES IDX 1 14
REMARK H PARENT
REMARK Flexibility Score: inf
ROOT
ATOM      1  C   UNL     1      28.890 -22.845  25.534  1.00  0.00     0.000 C 
ENDROOT
BRANCH   1   2
ATOM      2  C   UNL     1      27.539 -22.357  26.081  1.00  0.00     0.000 C 
BRANCH   2   3
ATOM      3  C   UNL     1      27.278 -20.873  25.771  1.00  0.00     0.000 C 
BRANCH   3   4
ATOM      4  C   UNL     1      28.410 -19.959  26.269  1.00  0.00     0.006 C 
BRANCH   4   5
ATOM      5  C   UNL     1      28.866 -18.947  25.209  1.00  0.00     0.053 C 
BRANCH   5   6
ATOM      6  C   UNL     1      29.068 -17.600  25.826  1.00  0.00     0.041 C 
ATOM      7  O   UNL     1      29.834 -17.465  26.816  1.00  0.00    -0.550 OA
ATOM      8  O   UNL     1      28.370 -16.501  25.340  1.00  0.00    -0.550 OA
ENDBRANCH   5   6
ENDBRANCH   4   5
ENDBRANCH   3   4
ENDBRANCH   2   3
ENDBRANCH   1   2
BRANCH   1   9
ATOM      9  C   UNL     1      28.739 -23.782  24.325  1.00  0.00     0.000 C 
BRANCH   9  10
ATOM     10  C   UNL     1      29.372 -23.162  23.070  1.00  0.00    -0.000 C 
BRANCH  10  11
ATOM     11  C   UNL     1      28.498 -22.058  22.452  1.00  0.00    -0.000 C 
BRANCH  11  12
ATOM     12  C   UNL     1      29.300 -20.791  22.109  1.00  0.00    -0.000 C 
BRANCH  12  13
ATOM     13  C   UNL     1      30.810 -21.056  22.022  1.00  0.00    -0.003 C 
ATOM     14  C   UNL     1      31.616 -20.207  23.005  1.00  0.00     0.004 C 
ENDBRANCH  12  13
ENDBRANCH  11  12
ENDBRANCH  10  11
ENDBRANCH   9  10
ENDBRANCH   1   9
TORSDOF 10
ENDMDL
