MODEL 1
REMARK VINA RESULT:    -3.550      0.000      0.000
REMARK INTER + INTRA:         -14.096
REMARK INTER:                  -9.361
REMARK INTRA:                  -4.734
REMARK UNBOUND:                -4.734
REMARK SMILES CCCCCCCCCCCCCCCCCCCCCCCCCCCCCC(=O)[O-]
REMARK SMILES IDX 16 1 17 2 18 3 19 4 20 5 21 6 22 7 23 8 24 9 25 10 26 11
REMARK SMILES IDX 27 12 28 13 29 14 30 15 31 16 32 17 15 18 14 19 13 20 12 21
REMARK SMILES IDX 11 22 10 23 9 24 8 25 7 26 6 27 5 28 4 29 3 30 2 31 1 32
REMARK H PARENT
REMARK Flexibility Score: inf
ROOT
ATOM      1  C   UNL     1      -6.202  -6.226  63.657  1.00  0.00     0.000 C 
ENDROOT
BRANCH   1   2
ATOM      2  C   UNL     1      -6.436  -4.861  62.987  1.00  0.00     0.000 C 
BRANCH   2   3
ATOM      3  C   UNL     1      -5.149  -4.025  62.866  1.00  0.00     0.000 C 
BRANCH   3   4
ATOM      4  C   UNL     1      -3.901  -4.804  62.413  1.00  0.00     0.000 C 
BRANCH   4   5
ATOM      5  C   UNL     1      -2.796  -4.838  63.482  1.00  0.00     0.000 C 
BRANCH   5   6
ATOM      6  C   UNL     1      -2.539  -6.257  64.020  1.00  0.00     0.000 C 
BRANCH   6   7
ATOM      7  C   UNL     1      -2.607  -6.333  65.553  1.00  0.00     0.000 C 
BRANCH   7   8
ATOM      8  C   UNL     1      -3.015  -4.978  66.152  1.00  0.00     0.000 C 
BRANCH   8   9
ATOM      9  C   UNL     1      -2.046  -4.500  67.247  1.00  0.00     0.000 C 
BRANCH   9  10
ATOM     10  C   UNL     1      -0.712  -3.990  66.672  1.00  0.00     0.000 C 
BRANCH  10  11
ATOM     11  C   UNL     1      -0.303  -2.625  67.246  1.00  0.00     0.000 C 
BRANCH  11  12
ATOM     12  C   UNL     1       1.052  -2.136  66.712  1.00  0.00     0.000 C 
BRANCH  12  13
ATOM     13  C   UNL     1       2.067  -3.288  66.664  1.00  0.00     0.006 C 
BRANCH  13  14
ATOM     14  C   UNL     1       3.487  -2.800  66.345  1.00  0.00     0.053 C 
BRANCH  14  15
ATOM     15  C   UNL     1       4.363  -2.798  67.559  1.00  0.00     0.041 C 
ATOM     16  O   UNL     1       4.736  -1.708  68.070  1.00  0.00    -0.550 OA
ATOM     17  O   UNL     1       4.783  -3.999  68.118  1.00  0.00    -0.550 OA
ENDBRANCH  14  15
ENDBRANCH  13  14
ENDBRANCH  12  13
ENDBRANCH  11  12
ENDBRANCH  10  11
ENDBRANCH   9  10
ENDBRANCH   8   9
ENDBRANCH   7   8
ENDBRANCH   6   7
ENDBRANCH   5   6
ENDBRANCH   4   5
ENDBRANCH   3   4
ENDBRANCH   2   3
ENDBRANCH   1   2
BRANCH   1  18
ATOM     18  C   UNL     1      -6.655  -6.244  65.126  1.00  0.00     0.000 C 
BRANCH  18  19
ATOM     19  C   UNL     1      -6.127  -7.475  65.883  1.00  0.00     0.000 C 
BRANCH  19  20
ATOM     20  C   UNL     1      -6.797  -8.784  65.434  1.00  0.00     0.000 C 
BRANCH  20  21
ATOM     21  C   UNL     1      -5.869  -9.769  64.698  1.00  0.00     0.000 C 
BRANCH  21  22
ATOM     22  C   UNL     1      -4.365  -9.501  64.926  1.00  0.00     0.000 C 
BRANCH  22  23
ATOM     23  C   UNL     1      -3.512 -10.771  64.751  1.00  0.00     0.000 C 
BRANCH  23  24
ATOM     24  C   UNL     1      -4.353 -11.974  64.287  1.00  0.00    -0.000 C 
BRANCH  24  25
ATOM     25  C   UNL     1      -4.263 -13.181  65.247  1.00  0.00    -0.000 C 
BRANCH  25  26
ATOM     26  C   UNL     1      -5.562 -14.000  65.334  1.00  0.00    -0.000 C 
BRANCH  26  27
ATOM     27  C   UNL     1      -6.623 -13.340  66.228  1.00  0.00    -0.000 C 
BRANCH  27  28
ATOM     28  C   UNL     1      -6.091 -12.988  67.630  1.00  0.00    -0.000 C 
BRANCH  28  29
ATOM     29  C   UNL     1      -6.158 -11.492  68.000  1.00  0.00    -0.000 C 
BRANCH  29  30
ATOM     30  C   UNL     1      -4.805 -10.840  68.351  1.00  0.00    -0.000 C 
BRANCH  30  31
ATOM     31  C   UNL     1      -4.892  -9.370  68.796  1.00  0.00    -0.003 C 
ATOM     32  C   UNL     1      -3.634  -8.573  68.457  1.00  0.00     0.004 C 
ENDBRANCH  30  31
ENDBRANCH  29  30
ENDBRANCH  28  29
ENDBRANCH  27  28
ENDBRANCH  26  27
ENDBRANCH  25  26
ENDBRANCH  24  25
ENDBRANCH  23  24
ENDBRANCH  22  23
ENDBRANCH  21  22
ENDBRANCH  20  21
ENDBRANCH  19  20
ENDBRANCH  18  19
ENDBRANCH   1  18
TORSDOF 28
ENDMDL
MODEL 2
REMARK VINA RESULT:    -3.467      1.151      2.163
REMARK INTER + INTRA:         -13.876
REMARK INTER:                  -9.948
REMARK INTRA:                  -3.928
REMARK UNBOUND:                -4.734
REMARK SMILES CCCCCCCCCCCCCCCCCCCCCCCCCCCCCC(=O)[O-]
REMARK SMILES IDX 16 1 17 2 18 3 19 4 20 5 21 6 22 7 23 8 24 9 25 10 26 11
REMARK SMILES IDX 27 12 28 13 29 14 30 15 31 16 32 17 15 18 14 19 13 20 12 21
REMARK SMILES IDX 11 22 10 23 9 24 8 25 7 26 6 27 5 28 4 29 3 30 2 31 1 32
REMARK H PARENT
REMARK Flexibility Score: inf
ROOT
ATOM      1  C   UNL     1      -6.794  -7.115  64.897  1.00  0.00     0.000 C 
ENDROOT
BRANCH   1   2
ATOM      2  C   UNL     1      -6.108  -6.117  63.949  1.00  0.00     0.000 C 
BRANCH   2   3
ATOM      3  C   UNL     1      -4.826  -5.507  64.545  1.00  0.00     0.000 C 
BRANCH   3   4
ATOM      4  C   UNL     1      -3.557  -5.686  63.692  1.00  0.00     0.000 C 
BRANCH   4   5
ATOM      5  C   UNL     1      -2.275  -5.780  64.537  1.00  0.00     0.000 C 
BRANCH   5   6
ATOM      6  C   UNL     1      -2.561  -6.160  66.001  1.00  0.00     0.000 C 
BRANCH   6   7
ATOM      7  C   UNL     1      -2.055  -5.106  66.998  1.00  0.00     0.000 C 
BRANCH   7   8
ATOM      8  C   UNL     1      -0.735  -4.485  66.517  1.00  0.00     0.000 C 
BRANCH   8   9
ATOM      9  C   UNL     1      -0.654  -2.975  66.801  1.00  0.00     0.000 C 
BRANCH   9  10
ATOM     10  C   UNL     1       0.625  -2.587  67.564  1.00  0.00     0.000 C 
BRANCH  10  11
ATOM     11  C   UNL     1       1.788  -2.227  66.628  1.00  0.00     0.000 C 
BRANCH  11  12
ATOM     12  C   UNL     1       2.747  -3.404  66.390  1.00  0.00     0.000 C 
BRANCH  12  13
ATOM     13  C   UNL     1       4.178  -3.035  66.808  1.00  0.00     0.006 C 
BRANCH  13  14
ATOM     14  C   UNL     1       4.207  -2.073  68.002  1.00  0.00     0.053 C 
BRANCH  14  15
ATOM     15  C   UNL     1       4.225  -2.804  69.309  1.00  0.00     0.041 C 
ATOM     16  O   UNL     1       3.897  -2.212  70.372  1.00  0.00    -0.550 OA
ATOM     17  O   UNL     1       4.621  -4.135  69.358  1.00  0.00    -0.550 OA
ENDBRANCH  14  15
ENDBRANCH  13  14
ENDBRANCH  12  13
ENDBRANCH  11  12
ENDBRANCH  10  11
ENDBRANCH   9  10
ENDBRANCH   8   9
ENDBRANCH   7   8
ENDBRANCH   6   7
ENDBRANCH   5   6
ENDBRANCH   4   5
ENDBRANCH   3   4
ENDBRANCH   2   3
ENDBRANCH   1   2
BRANCH   1  18
ATOM     18  C   UNL     1      -5.787  -8.016  65.630  1.00  0.00     0.000 C 
BRANCH  18  19
ATOM     19  C   UNL     1      -5.393  -9.247  64.796  1.00  0.00     0.000 C 
BRANCH  19  20
ATOM     20  C   UNL     1      -3.871  -9.419  64.666  1.00  0.00     0.000 C 
BRANCH  20  21
ATOM     21  C   UNL     1      -3.402 -10.857  64.378  1.00  0.00     0.000 C 
BRANCH  21  22
ATOM     22  C   UNL     1      -4.555 -11.849  64.108  1.00  0.00     0.000 C 
BRANCH  22  23
ATOM     23  C   UNL     1      -4.044 -13.258  63.760  1.00  0.00     0.000 C 
BRANCH  23  24
ATOM     24  C   UNL     1      -4.563 -14.323  64.744  1.00  0.00    -0.000 C 
BRANCH  24  25
ATOM     25  C   UNL     1      -6.004 -14.046  65.228  1.00  0.00    -0.000 C 
BRANCH  25  26
ATOM     26  C   UNL     1      -6.229 -14.367  66.716  1.00  0.00    -0.000 C 
BRANCH  26  27
ATOM     27  C   UNL     1      -6.899 -13.215  67.479  1.00  0.00    -0.000 C 
BRANCH  27  28
ATOM     28  C   UNL     1      -6.338 -11.834  67.092  1.00  0.00    -0.000 C 
BRANCH  28  29
ATOM     29  C   UNL     1      -5.973 -10.918  68.278  1.00  0.00    -0.000 C 
BRANCH  29  30
ATOM     30  C   UNL     1      -4.467 -10.823  68.596  1.00  0.00    -0.000 C 
BRANCH  30  31
ATOM     31  C   UNL     1      -3.558 -11.654  67.675  1.00  0.00    -0.003 C 
ATOM     32  C   UNL     1      -3.093 -12.958  68.319  1.00  0.00     0.004 C 
ENDBRANCH  30  31
ENDBRANCH  29  30
ENDBRANCH  28  29
ENDBRANCH  27  28
ENDBRANCH  26  27
ENDBRANCH  25  26
ENDBRANCH  24  25
ENDBRANCH  23  24
ENDBRANCH  22  23
ENDBRANCH  21  22
ENDBRANCH  20  21
ENDBRANCH  19  20
ENDBRANCH  18  19
ENDBRANCH   1  18
TORSDOF 28
ENDMDL
MODEL 3
REMARK VINA RESULT:    -3.438      3.983      9.278
REMARK INTER + INTRA:         -13.801
REMARK INTER:                  -9.247
REMARK INTRA:                  -4.554
REMARK UNBOUND:                -4.734
REMARK SMILES CCCCCCCCCCCCCCCCCCCCCCCCCCCCCC(=O)[O-]
REMARK SMILES IDX 16 1 17 2 18 3 19 4 20 5 21 6 22 7 23 8 24 9 25 10 26 11
REMARK SMILES IDX 27 12 28 13 29 14 30 15 31 16 32 17 15 18 14 19 13 20 12 21
REMARK SMILES IDX 11 22 10 23 9 24 8 25 7 26 6 27 5 28 4 29 3 30 2 31 1 32
REMARK H PARENT
REMARK Flexibility Score: inf
ROOT
ATOM      1  C   UNL     1      -3.016  -3.146  62.106  1.00  0.00     0.000 C 
ENDROOT
BRANCH   1   2
ATOM      2  C   UNL     1      -2.543  -2.887  60.665  1.00  0.00     0.000 C 
BRANCH   2   3
ATOM      3  C   UNL     1      -2.916  -1.484  60.154  1.00  0.00     0.000 C 
BRANCH   3   4
ATOM      4  C   UNL     1      -3.786  -1.458  58.884  1.00  0.00     0.000 C 
BRANCH   4   5
ATOM      5  C   UNL     1      -5.264  -1.779  59.165  1.00  0.00     0.000 C 
BRANCH   5   6
ATOM      6  C   UNL     1      -5.635  -3.225  58.791  1.00  0.00     0.000 C 
BRANCH   6   7
ATOM      7  C   UNL     1      -6.080  -4.057  60.003  1.00  0.00     0.000 C 
BRANCH   7   8
ATOM      8  C   UNL     1      -6.640  -3.154  61.112  1.00  0.00     0.000 C 
BRANCH   8   9
ATOM      9  C   UNL     1      -6.711  -3.866  62.474  1.00  0.00     0.000 C 
BRANCH   9  10
ATOM     10  C   UNL     1      -6.109  -5.282  62.431  1.00  0.00     0.000 C 
BRANCH  10  11
ATOM     11  C   UNL     1      -6.103  -5.965  63.807  1.00  0.00     0.000 C 
BRANCH  11  12
ATOM     12  C   UNL     1      -4.880  -5.587  64.656  1.00  0.00     0.000 C 
BRANCH  12  13
ATOM     13  C   UNL     1      -3.601  -6.213  64.079  1.00  0.00     0.006 C 
BRANCH  13  14
ATOM     14  C   UNL     1      -2.947  -7.203  65.052  1.00  0.00     0.053 C 
BRANCH  14  15
ATOM     15  C   UNL     1      -3.475  -8.593  64.874  1.00  0.00     0.041 C 
ATOM     16  O   UNL     1      -2.938  -9.374  64.044  1.00  0.00    -0.550 OA
ATOM     17  O   UNL     1      -4.571  -9.022  65.613  1.00  0.00    -0.550 OA
ENDBRANCH  14  15
ENDBRANCH  13  14
ENDBRANCH  12  13
ENDBRANCH  11  12
ENDBRANCH  10  11
ENDBRANCH   9  10
ENDBRANCH   8   9
ENDBRANCH   7   8
ENDBRANCH   6   7
ENDBRANCH   5   6
ENDBRANCH   4   5
ENDBRANCH   3   4
ENDBRANCH   2   3
ENDBRANCH   1   2
BRANCH   1  18
ATOM     18  C   UNL     1      -3.466  -1.859  62.816  1.00  0.00     0.000 C 
BRANCH  18  19
ATOM     19  C   UNL     1      -3.883  -2.114  64.275  1.00  0.00     0.000 C 
BRANCH  19  20
ATOM     20  C   UNL     1      -2.707  -2.005  65.259  1.00  0.00     0.000 C 
BRANCH  20  21
ATOM     21  C   UNL     1      -2.178  -3.350  65.791  1.00  0.00     0.000 C 
BRANCH  21  22
ATOM     22  C   UNL     1      -0.895  -3.225  66.642  1.00  0.00     0.000 C 
BRANCH  22  23
ATOM     23  C   UNL     1      -1.038  -2.179  67.763  1.00  0.00     0.000 C 
BRANCH  23  24
ATOM     24  C   UNL     1       0.125  -1.170  67.765  1.00  0.00    -0.000 C 
BRANCH  24  25
ATOM     25  C   UNL     1       0.797  -1.020  66.382  1.00  0.00    -0.000 C 
BRANCH  25  26
ATOM     26  C   UNL     1       2.332  -0.931  66.447  1.00  0.00    -0.000 C 
BRANCH  26  27
ATOM     27  C   UNL     1       3.027  -1.994  65.582  1.00  0.00    -0.000 C 
BRANCH  27  28
ATOM     28  C   UNL     1       3.310  -3.299  66.349  1.00  0.00    -0.000 C 
BRANCH  28  29
ATOM     29  C   UNL     1       4.490  -3.235  67.340  1.00  0.00    -0.000 C 
BRANCH  29  30
ATOM     30  C   UNL     1       4.116  -3.434  68.823  1.00  0.00    -0.000 C 
BRANCH  30  31
ATOM     31  C   UNL     1       3.912  -2.134  69.619  1.00  0.00    -0.003 C 
ATOM     32  C   UNL     1       2.577  -2.096  70.360  1.00  0.00     0.004 C 
ENDBRANCH  30  31
ENDBRANCH  29  30
ENDBRANCH  28  29
ENDBRANCH  27  28
ENDBRANCH  26  27
ENDBRANCH  25  26
ENDBRANCH  24  25
ENDBRANCH  23  24
ENDBRANCH  22  23
ENDBRANCH  21  22
ENDBRANCH  20  21
ENDBRANCH  19  20
ENDBRANCH  18  19
ENDBRANCH   1  18
TORSDOF 28
ENDMDL
MODEL 4
REMARK VINA RESULT:    -3.397      1.134      2.823
REMARK INTER + INTRA:         -13.692
REMARK INTER:                  -8.828
REMARK INTRA:                  -4.864
REMARK UNBOUND:                -4.734
REMARK SMILES CCCCCCCCCCCCCCCCCCCCCCCCCCCCCC(=O)[O-]
REMARK SMILES IDX 16 1 17 2 18 3 19 4 20 5 21 6 22 7 23 8 24 9 25 10 26 11
REMARK SMILES IDX 27 12 28 13 29 14 30 15 31 16 32 17 15 18 14 19 13 20 12 21
REMARK SMILES IDX 11 22 10 23 9 24 8 25 7 26 6 27 5 28 4 29 3 30 2 31 1 32
REMARK H PARENT
REMARK Flexibility Score: inf
ROOT
ATOM      1  C   UNL     1      -5.882  -8.399  66.023  1.00  0.00     0.000 C 
ENDROOT
BRANCH   1   2
ATOM      2  C   UNL     1      -7.025  -7.469  65.579  1.00  0.00     0.000 C 
BRANCH   2   3
ATOM      3  C   UNL     1      -6.525  -6.102  65.078  1.00  0.00     0.000 C 
BRANCH   3   4
ATOM      4  C   UNL     1      -6.554  -5.913  63.550  1.00  0.00     0.000 C 
BRANCH   4   5
ATOM      5  C   UNL     1      -5.583  -4.824  63.064  1.00  0.00     0.000 C 
BRANCH   5   6
ATOM      6  C   UNL     1      -4.378  -4.643  64.004  1.00  0.00     0.000 C 
BRANCH   6   7
ATOM      7  C   UNL     1      -3.064  -5.150  63.391  1.00  0.00     0.000 C 
BRANCH   7   8
ATOM      8  C   UNL     1      -2.245  -5.939  64.424  1.00  0.00     0.000 C 
BRANCH   8   9
ATOM      9  C   UNL     1      -2.926  -5.992  65.803  1.00  0.00     0.000 C 
BRANCH   9  10
ATOM     10  C   UNL     1      -2.138  -5.224  66.879  1.00  0.00     0.000 C 
BRANCH  10  11
ATOM     11  C   UNL     1      -1.108  -4.254  66.280  1.00  0.00     0.000 C 
BRANCH  11  12
ATOM     12  C   UNL     1      -1.199  -2.843  66.881  1.00  0.00     0.000 C 
BRANCH  12  13
ATOM     13  C   UNL     1       0.187  -2.185  66.943  1.00  0.00     0.006 C 
BRANCH  13  14
ATOM     14  C   UNL     1       1.321  -3.218  66.979  1.00  0.00     0.053 C 
BRANCH  14  15
ATOM     15  C   UNL     1       2.513  -2.768  66.192  1.00  0.00     0.041 C 
ATOM     16  O   UNL     1       3.363  -3.608  65.793  1.00  0.00    -0.550 OA
ATOM     17  O   UNL     1       2.695  -1.419  65.912  1.00  0.00    -0.550 OA
ENDBRANCH  14  15
ENDBRANCH  13  14
ENDBRANCH  12  13
ENDBRANCH  11  12
ENDBRANCH  10  11
ENDBRANCH   9  10
ENDBRANCH   8   9
ENDBRANCH   7   8
ENDBRANCH   6   7
ENDBRANCH   5   6
ENDBRANCH   4   5
ENDBRANCH   3   4
ENDBRANCH   2   3
ENDBRANCH   1   2
BRANCH   1  18
ATOM     18  C   UNL     1      -5.343  -9.259  64.869  1.00  0.00     0.000 C 
BRANCH  18  19
ATOM     19  C   UNL     1      -3.829  -9.506  64.986  1.00  0.00     0.000 C 
BRANCH  19  20
ATOM     20  C   UNL     1      -3.423 -10.933  64.581  1.00  0.00     0.000 C 
BRANCH  20  21
ATOM     21  C   UNL     1      -4.564 -11.794  64.008  1.00  0.00     0.000 C 
BRANCH  21  22
ATOM     22  C   UNL     1      -4.187 -13.278  63.806  1.00  0.00     0.000 C 
BRANCH  22  23
ATOM     23  C   UNL     1      -4.569 -14.148  65.017  1.00  0.00     0.000 C 
BRANCH  23  24
ATOM     24  C   UNL     1      -6.084 -14.126  65.291  1.00  0.00    -0.000 C 
BRANCH  24  25
ATOM     25  C   UNL     1      -6.430 -13.713  66.739  1.00  0.00    -0.000 C 
BRANCH  25  26
ATOM     26  C   UNL     1      -6.668 -12.203  66.912  1.00  0.00    -0.000 C 
BRANCH  26  27
ATOM     27  C   UNL     1      -5.828 -11.593  68.045  1.00  0.00    -0.000 C 
BRANCH  27  28
ATOM     28  C   UNL     1      -4.332 -11.939  67.934  1.00  0.00    -0.000 C 
BRANCH  28  29
ATOM     29  C   UNL     1      -3.367 -10.844  68.432  1.00  0.00    -0.000 C 
BRANCH  29  30
ATOM     30  C   UNL     1      -4.042  -9.563  68.961  1.00  0.00    -0.000 C 
BRANCH  30  31
ATOM     31  C   UNL     1      -3.258  -8.264  68.700  1.00  0.00    -0.003 C 
ATOM     32  C   UNL     1      -3.473  -7.214  69.789  1.00  0.00     0.004 C 
ENDBRANCH  30  31
ENDBRANCH  29  30
ENDBRANCH  28  29
ENDBRANCH  27  28
ENDBRANCH  26  27
ENDBRANCH  25  26
ENDBRANCH  24  25
ENDBRANCH  23  24
ENDBRANCH  22  23
ENDBRANCH  21  22
ENDBRANCH  20  21
ENDBRANCH  19  20
ENDBRANCH  18  19
ENDBRANCH   1  18
TORSDOF 28
ENDMDL
MODEL 5
REMARK VINA RESULT:    -3.395      5.734     11.133
REMARK INTER + INTRA:         -13.688
REMARK INTER:                  -9.727
REMARK INTRA:                  -3.961
REMARK UNBOUND:                -4.734
REMARK SMILES CCCCCCCCCCCCCCCCCCCCCCCCCCCCCC(=O)[O-]
REMARK SMILES IDX 16 1 17 2 18 3 19 4 20 5 21 6 22 7 23 8 24 9 25 10 26 11
REMARK SMILES IDX 27 12 28 13 29 14 30 15 31 16 32 17 15 18 14 19 13 20 12 21
REMARK SMILES IDX 11 22 10 23 9 24 8 25 7 26 6 27 5 28 4 29 3 30 2 31 1 32
REMARK H PARENT
REMARK Flexibility Score: inf
ROOT
ATOM      1  C   UNL     1       1.999   1.192  57.654  1.00  0.00     0.000 C 
ENDROOT
BRANCH   1   2
ATOM      2  C   UNL     1       2.057  -0.345  57.634  1.00  0.00     0.000 C 
BRANCH   2   3
ATOM      3  C   UNL     1       0.750  -0.988  57.136  1.00  0.00     0.000 C 
BRANCH   3   4
ATOM      4  C   UNL     1       0.161  -2.073  58.056  1.00  0.00     0.000 C 
BRANCH   4   5
ATOM      5  C   UNL     1      -1.303  -1.801  58.442  1.00  0.00     0.000 C 
BRANCH   5   6
ATOM      6  C   UNL     1      -2.015  -0.875  57.440  1.00  0.00     0.000 C 
BRANCH   6   7
ATOM      7  C   UNL     1      -3.544  -1.003  57.495  1.00  0.00     0.000 C 
BRANCH   7   8
ATOM      8  C   UNL     1      -3.976  -2.474  57.393  1.00  0.00     0.000 C 
BRANCH   8   9
ATOM      9  C   UNL     1      -5.094  -2.833  58.387  1.00  0.00     0.000 C 
BRANCH   9  10
ATOM     10  C   UNL     1      -4.906  -2.154  59.755  1.00  0.00     0.000 C 
BRANCH  10  11
ATOM     11  C   UNL     1      -4.640  -3.161  60.885  1.00  0.00     0.000 C 
BRANCH  11  12
ATOM     12  C   UNL     1      -3.207  -3.079  61.431  1.00  0.00     0.000 C 
BRANCH  12  13
ATOM     13  C   UNL     1      -3.165  -3.471  62.916  1.00  0.00     0.006 C 
BRANCH  13  14
ATOM     14  C   UNL     1      -2.947  -4.977  63.115  1.00  0.00     0.053 C 
BRANCH  14  15
ATOM     15  C   UNL     1      -2.365  -5.285  64.459  1.00  0.00     0.041 C 
ATOM     16  O   UNL     1      -2.469  -6.443  64.944  1.00  0.00    -0.550 OA
ATOM     17  O   UNL     1      -1.721  -4.290  65.185  1.00  0.00    -0.550 OA
ENDBRANCH  14  15
ENDBRANCH  13  14
ENDBRANCH  12  13
ENDBRANCH  11  12
ENDBRANCH  10  11
ENDBRANCH   9  10
ENDBRANCH   8   9
ENDBRANCH   7   8
ENDBRANCH   6   7
ENDBRANCH   5   6
ENDBRANCH   4   5
ENDBRANCH   3   4
ENDBRANCH   2   3
ENDBRANCH   1   2
BRANCH   1  18
ATOM     18  C   UNL     1       0.561   1.726  57.552  1.00  0.00     0.000 C 
BRANCH  18  19
ATOM     19  C   UNL     1       0.132   2.487  58.818  1.00  0.00     0.000 C 
BRANCH  19  20
ATOM     20  C   UNL     1      -0.474   1.567  59.891  1.00  0.00     0.000 C 
BRANCH  20  21
ATOM     21  C   UNL     1      -1.987   1.740  60.116  1.00  0.00     0.000 C 
BRANCH  21  22
ATOM     22  C   UNL     1      -2.644   0.570  60.881  1.00  0.00     0.000 C 
BRANCH  22  23
ATOM     23  C   UNL     1      -3.510   1.054  62.058  1.00  0.00     0.000 C 
BRANCH  23  24
ATOM     24  C   UNL     1      -2.674   1.760  63.140  1.00  0.00    -0.000 C 
BRANCH  24  25
ATOM     25  C   UNL     1      -1.942   0.774  64.078  1.00  0.00    -0.000 C 
BRANCH  25  26
ATOM     26  C   UNL     1      -0.617   1.320  64.637  1.00  0.00    -0.000 C 
BRANCH  26  27
ATOM     27  C   UNL     1      -0.654   1.532  66.158  1.00  0.00    -0.000 C 
BRANCH  27  28
ATOM     28  C   UNL     1       0.670   1.157  66.848  1.00  0.00    -0.000 C 
BRANCH  28  29
ATOM     29  C   UNL     1       1.214  -0.246  66.507  1.00  0.00    -0.000 C 
BRANCH  29  30
ATOM     30  C   UNL     1       2.637  -0.275  65.915  1.00  0.00    -0.000 C 
BRANCH  30  31
ATOM     31  C   UNL     1       3.094  -1.649  65.395  1.00  0.00    -0.003 C 
ATOM     32  C   UNL     1       3.779  -2.491  66.469  1.00  0.00     0.004 C 
ENDBRANCH  30  31
ENDBRANCH  29  30
ENDBRANCH  28  29
ENDBRANCH  27  28
ENDBRANCH  26  27
ENDBRANCH  25  26
ENDBRANCH  24  25
ENDBRANCH  23  24
ENDBRANCH  22  23
ENDBRANCH  21  22
ENDBRANCH  20  21
ENDBRANCH  19  20
ENDBRANCH  18  19
ENDBRANCH   1  18
TORSDOF 28
ENDMDL
MODEL 6
REMARK VINA RESULT:    -3.393      5.535      9.303
REMARK INTER + INTRA:         -13.682
REMARK INTER:                  -8.229
REMARK INTRA:                  -5.452
REMARK UNBOUND:                -4.734
REMARK SMILES CCCCCCCCCCCCCCCCCCCCCCCCCCCCCC(=O)[O-]
REMARK SMILES IDX 16 1 17 2 18 3 19 4 20 5 21 6 22 7 23 8 24 9 25 10 26 11
REMARK SMILES IDX 27 12 28 13 29 14 30 15 31 16 32 17 15 18 14 19 13 20 12 21
REMARK SMILES IDX 11 22 10 23 9 24 8 25 7 26 6 27 5 28 4 29 3 30 2 31 1 32
REMARK H PARENT
REMARK Flexibility Score: inf
ROOT
ATOM      1  C   UNL     1      -0.249  -2.128  58.396  1.00  0.00     0.000 C 
ENDROOT
BRANCH   1   2
ATOM      2  C   UNL     1       0.241  -1.254  57.228  1.00  0.00     0.000 C 
BRANCH   2   3
ATOM      3  C   UNL     1       1.614  -0.612  57.496  1.00  0.00     0.000 C 
BRANCH   3   4
ATOM      4  C   UNL     1       1.574   0.859  57.948  1.00  0.00     0.000 C 
BRANCH   4   5
ATOM      5  C   UNL     1       0.429   1.654  57.298  1.00  0.00     0.000 C 
BRANCH   5   6
ATOM      6  C   UNL     1      -0.506   2.298  58.337  1.00  0.00     0.000 C 
BRANCH   6   7
ATOM      7  C   UNL     1      -0.277   1.760  59.757  1.00  0.00     0.000 C 
BRANCH   7   8
ATOM      8  C   UNL     1      -1.610   1.601  60.505  1.00  0.00     0.000 C 
BRANCH   8   9
ATOM      9  C   UNL     1      -1.602   2.292  61.880  1.00  0.00     0.000 C 
BRANCH   9  10
ATOM     10  C   UNL     1      -0.179   2.598  62.378  1.00  0.00     0.000 C 
BRANCH  10  11
ATOM     11  C   UNL     1      -0.012   2.350  63.885  1.00  0.00     0.000 C 
BRANCH  11  12
ATOM     12  C   UNL     1      -1.091   1.419  64.458  1.00  0.00     0.000 C 
BRANCH  12  13
ATOM     13  C   UNL     1      -0.487   0.451  65.486  1.00  0.00     0.006 C 
BRANCH  13  14
ATOM     14  C   UNL     1       0.936   0.850  65.897  1.00  0.00     0.053 C 
BRANCH  14  15
ATOM     15  C   UNL     1       1.837  -0.339  66.020  1.00  0.00     0.041 C 
ATOM     16  O   UNL     1       2.697  -0.578  65.130  1.00  0.00    -0.550 OA
ATOM     17  O   UNL     1       1.719  -1.194  67.109  1.00  0.00    -0.550 OA
ENDBRANCH  14  15
ENDBRANCH  13  14
ENDBRANCH  12  13
ENDBRANCH  11  12
ENDBRANCH  10  11
ENDBRANCH   9  10
ENDBRANCH   8   9
ENDBRANCH   7   8
ENDBRANCH   6   7
ENDBRANCH   5   6
ENDBRANCH   4   5
ENDBRANCH   3   4
ENDBRANCH   2   3
ENDBRANCH   1   2
BRANCH   1  18
ATOM     18  C   UNL     1      -1.668  -1.752  58.855  1.00  0.00     0.000 C 
BRANCH  18  19
ATOM     19  C   UNL     1      -2.393  -0.860  57.833  1.00  0.00     0.000 C 
BRANCH  19  20
ATOM     20  C   UNL     1      -3.916  -1.067  57.834  1.00  0.00     0.000 C 
BRANCH  20  21
ATOM     21  C   UNL     1      -4.374  -2.515  58.091  1.00  0.00     0.000 C 
BRANCH  21  22
ATOM     22  C   UNL     1      -5.629  -2.626  58.985  1.00  0.00     0.000 C 
BRANCH  22  23
ATOM     23  C   UNL     1      -5.945  -1.307  59.713  1.00  0.00     0.000 C 
BRANCH  23  24
ATOM     24  C   UNL     1      -6.636  -1.545  61.068  1.00  0.00    -0.000 C 
BRANCH  24  25
ATOM     25  C   UNL     1      -5.857  -0.943  62.259  1.00  0.00    -0.000 C 
BRANCH  25  26
ATOM     26  C   UNL     1      -4.557  -0.228  61.849  1.00  0.00    -0.000 C 
BRANCH  26  27
ATOM     27  C   UNL     1      -3.296  -1.004  62.258  1.00  0.00    -0.000 C 
BRANCH  27  28
ATOM     28  C   UNL     1      -3.482  -1.807  63.559  1.00  0.00    -0.000 C 
BRANCH  28  29
ATOM     29  C   UNL     1      -3.277  -3.330  63.424  1.00  0.00    -0.000 C 
BRANCH  29  30
ATOM     30  C   UNL     1      -3.246  -3.865  61.979  1.00  0.00    -0.000 C 
BRANCH  30  31
ATOM     31  C   UNL     1      -4.375  -4.851  61.629  1.00  0.00    -0.003 C 
ATOM     32  C   UNL     1      -5.556  -4.765  62.593  1.00  0.00     0.004 C 
ENDBRANCH  30  31
ENDBRANCH  29  30
ENDBRANCH  28  29
ENDBRANCH  27  28
ENDBRANCH  26  27
ENDBRANCH  25  26
ENDBRANCH  24  25
ENDBRANCH  23  24
ENDBRANCH  22  23
ENDBRANCH  21  22
ENDBRANCH  20  21
ENDBRANCH  19  20
ENDBRANCH  18  19
ENDBRANCH   1  18
TORSDOF 28
ENDMDL
MODEL 7
REMARK VINA RESULT:    -3.386      4.648      9.116
REMARK INTER + INTRA:         -13.662
REMARK INTER:                  -7.877
REMARK INTRA:                  -5.785
REMARK UNBOUND:                -4.734
REMARK SMILES CCCCCCCCCCCCCCCCCCCCCCCCCCCCCC(=O)[O-]
REMARK SMILES IDX 16 1 17 2 18 3 19 4 20 5 21 6 22 7 23 8 24 9 25 10 26 11
REMARK SMILES IDX 27 12 28 13 29 14 30 15 31 16 32 17 15 18 14 19 13 20 12 21
REMARK SMILES IDX 11 22 10 23 9 24 8 25 7 26 6 27 5 28 4 29 3 30 2 31 1 32
REMARK H PARENT
REMARK Flexibility Score: inf
ROOT
ATOM      1  C   UNL     1      -3.570 -11.072  64.610  1.00  0.00     0.000 C 
ENDROOT
BRANCH   1   2
ATOM      2  C   UNL     1      -4.630 -12.143  64.303  1.00  0.00     0.000 C 
BRANCH   2   3
ATOM      3  C   UNL     1      -4.144 -13.572  64.604  1.00  0.00     0.000 C 
BRANCH   3   4
ATOM      4  C   UNL     1      -4.835 -14.263  65.794  1.00  0.00     0.000 C 
BRANCH   4   5
ATOM      5  C   UNL     1      -6.329 -13.914  65.903  1.00  0.00     0.000 C 
BRANCH   5   6
ATOM      6  C   UNL     1      -6.699 -13.325  67.276  1.00  0.00     0.000 C 
BRANCH   6   7
ATOM      7  C   UNL     1      -6.960 -11.813  67.224  1.00  0.00     0.000 C 
BRANCH   7   8
ATOM      8  C   UNL     1      -6.745 -11.171  68.603  1.00  0.00     0.000 C 
BRANCH   8   9
ATOM      9  C   UNL     1      -6.165  -9.749  68.509  1.00  0.00     0.000 C 
BRANCH   9  10
ATOM     10  C   UNL     1      -4.651  -9.747  68.235  1.00  0.00     0.000 C 
BRANCH  10  11
ATOM     11  C   UNL     1      -3.909 -10.854  68.999  1.00  0.00     0.000 C 
BRANCH  11  12
ATOM     12  C   UNL     1      -3.188 -11.840  68.067  1.00  0.00     0.000 C 
BRANCH  12  13
ATOM     13  C   UNL     1      -2.831 -13.134  68.813  1.00  0.00     0.006 C 
BRANCH  13  14
ATOM     14  C   UNL     1      -3.959 -13.603  69.741  1.00  0.00     0.053 C 
BRANCH  14  15
ATOM     15  C   UNL     1      -4.015 -15.096  69.845  1.00  0.00     0.041 C 
ATOM     16  O   UNL     1      -3.404 -15.690  70.772  1.00  0.00    -0.550 OA
ATOM     17  O   UNL     1      -4.728 -15.833  68.908  1.00  0.00    -0.550 OA
ENDBRANCH  14  15
ENDBRANCH  13  14
ENDBRANCH  12  13
ENDBRANCH  11  12
ENDBRANCH  10  11
ENDBRANCH   9  10
ENDBRANCH   8   9
ENDBRANCH   7   8
ENDBRANCH   6   7
ENDBRANCH   5   6
ENDBRANCH   4   5
ENDBRANCH   3   4
ENDBRANCH   2   3
ENDBRANCH   1   2
BRANCH   1  18
ATOM     18  C   UNL     1      -4.174  -9.661  64.715  1.00  0.00     0.000 C 
BRANCH  18  19
ATOM     19  C   UNL     1      -5.690  -9.657  64.454  1.00  0.00     0.000 C 
BRANCH  19  20
ATOM     20  C   UNL     1      -6.410  -8.483  65.137  1.00  0.00     0.000 C 
BRANCH  20  21
ATOM     21  C   UNL     1      -6.402  -7.165  64.340  1.00  0.00     0.000 C 
BRANCH  21  22
ATOM     22  C   UNL     1      -6.241  -5.904  65.217  1.00  0.00     0.000 C 
BRANCH  22  23
ATOM     23  C   UNL     1      -5.806  -6.244  66.654  1.00  0.00     0.000 C 
BRANCH  23  24
ATOM     24  C   UNL     1      -4.375  -5.761  66.956  1.00  0.00    -0.000 C 
BRANCH  24  25
ATOM     25  C   UNL     1      -3.290  -6.766  66.506  1.00  0.00    -0.000 C 
BRANCH  25  26
ATOM     26  C   UNL     1      -2.230  -6.155  65.573  1.00  0.00    -0.000 C 
BRANCH  26  27
ATOM     27  C   UNL     1      -2.724  -6.009  64.126  1.00  0.00    -0.000 C 
BRANCH  27  28
ATOM     28  C   UNL     1      -2.955  -4.543  63.716  1.00  0.00    -0.000 C 
BRANCH  28  29
ATOM     29  C   UNL     1      -3.232  -4.317  62.215  1.00  0.00    -0.000 C 
BRANCH  29  30
ATOM     30  C   UNL     1      -4.253  -3.207  61.895  1.00  0.00    -0.000 C 
BRANCH  30  31
ATOM     31  C   UNL     1      -5.727  -3.642  61.971  1.00  0.00    -0.003 C 
ATOM     32  C   UNL     1      -5.978  -5.001  61.321  1.00  0.00     0.004 C 
ENDBRANCH  30  31
ENDBRANCH  29  30
ENDBRANCH  28  29
ENDBRANCH  27  28
ENDBRANCH  26  27
ENDBRANCH  25  26
ENDBRANCH  24  25
ENDBRANCH  23  24
ENDBRANCH  22  23
ENDBRANCH  21  22
ENDBRANCH  20  21
ENDBRANCH  19  20
ENDBRANCH  18  19
ENDBRANCH   1  18
TORSDOF 28
ENDMDL
MODEL 8
REMARK VINA RESULT:    -3.367      6.189     11.666
REMARK INTER + INTRA:         -13.612
REMARK INTER:                  -7.669
REMARK INTRA:                  -5.943
REMARK UNBOUND:                -4.734
REMARK SMILES CCCCCCCCCCCCCCCCCCCCCCCCCCCCCC(=O)[O-]
REMARK SMILES IDX 16 1 17 2 18 3 19 4 20 5 21 6 22 7 23 8 24 9 25 10 26 11
REMARK SMILES IDX 27 12 28 13 29 14 30 15 31 16 32 17 15 18 14 19 13 20 12 21
REMARK SMILES IDX 11 22 10 23 9 24 8 25 7 26 6 27 5 28 4 29 3 30 2 31 1 32
REMARK H PARENT
REMARK Flexibility Score: inf
ROOT
ATOM      1  C   UNL     1      -3.041  -2.684  61.042  1.00  0.00     0.000 C 
ENDROOT
BRANCH   1   2
ATOM      2  C   UNL     1      -2.142  -2.335  59.843  1.00  0.00     0.000 C 
BRANCH   2   3
ATOM      3  C   UNL     1      -2.871  -1.514  58.765  1.00  0.00     0.000 C 
BRANCH   3   4
ATOM      4  C   UNL     1      -2.899  -2.150  57.363  1.00  0.00     0.000 C 
BRANCH   4   5
ATOM      5  C   UNL     1      -4.312  -2.203  56.758  1.00  0.00     0.000 C 
BRANCH   5   6
ATOM      6  C   UNL     1      -4.798  -3.644  56.519  1.00  0.00     0.000 C 
BRANCH   6   7
ATOM      7  C   UNL     1      -6.002  -4.018  57.396  1.00  0.00     0.000 C 
BRANCH   7   8
ATOM      8  C   UNL     1      -6.351  -2.878  58.365  1.00  0.00     0.000 C 
BRANCH   8   9
ATOM      9  C   UNL     1      -6.547  -3.370  59.809  1.00  0.00     0.000 C 
BRANCH   9  10
ATOM     10  C   UNL     1      -5.867  -4.725  60.068  1.00  0.00     0.000 C 
BRANCH  10  11
ATOM     11  C   UNL     1      -6.092  -5.238  61.499  1.00  0.00     0.000 C 
BRANCH  11  12
ATOM     12  C   UNL     1      -6.243  -4.102  62.522  1.00  0.00     0.000 C 
BRANCH  12  13
ATOM     13  C   UNL     1      -5.717  -4.533  63.899  1.00  0.00     0.006 C 
BRANCH  13  14
ATOM     14  C   UNL     1      -4.383  -3.862  64.249  1.00  0.00     0.053 C 
BRANCH  14  15
ATOM     15  C   UNL     1      -3.244  -4.835  64.231  1.00  0.00     0.041 C 
ATOM     16  O   UNL     1      -3.115  -5.640  63.270  1.00  0.00    -0.550 OA
ATOM     17  O   UNL     1      -2.335  -4.864  65.281  1.00  0.00    -0.550 OA
ENDBRANCH  14  15
ENDBRANCH  13  14
ENDBRANCH  12  13
ENDBRANCH  11  12
ENDBRANCH  10  11
ENDBRANCH   9  10
ENDBRANCH   8   9
ENDBRANCH   7   8
ENDBRANCH   6   7
ENDBRANCH   5   6
ENDBRANCH   4   5
ENDBRANCH   3   4
ENDBRANCH   2   3
ENDBRANCH   1   2
BRANCH   1  18
ATOM     18  C   UNL     1      -3.982  -1.529  61.425  1.00  0.00     0.000 C 
BRANCH  18  19
ATOM     19  C   UNL     1      -3.386  -0.635  62.526  1.00  0.00     0.000 C 
BRANCH  19  20
ATOM     20  C   UNL     1      -3.413   0.859  62.162  1.00  0.00     0.000 C 
BRANCH  20  21
ATOM     21  C   UNL     1      -2.262   1.325  61.250  1.00  0.00     0.000 C 
BRANCH  21  22
ATOM     22  C   UNL     1      -2.733   2.039  59.964  1.00  0.00     0.000 C 
BRANCH  22  23
ATOM     23  C   UNL     1      -4.216   1.766  59.654  1.00  0.00     0.000 C 
BRANCH  23  24
ATOM     24  C   UNL     1      -4.647   2.371  58.305  1.00  0.00    -0.000 C 
BRANCH  24  25
ATOM     25  C   UNL     1      -4.287   1.475  57.098  1.00  0.00    -0.000 C 
BRANCH  25  26
ATOM     26  C   UNL     1      -3.106   2.004  56.267  1.00  0.00    -0.000 C 
BRANCH  26  27
ATOM     27  C   UNL     1      -2.428   0.907  55.431  1.00  0.00    -0.000 C 
BRANCH  27  28
ATOM     28  C   UNL     1      -1.018   0.554  55.937  1.00  0.00    -0.000 C 
BRANCH  28  29
ATOM     29  C   UNL     1      -0.542   1.353  57.167  1.00  0.00    -0.000 C 
BRANCH  29  30
ATOM     30  C   UNL     1       0.199   0.531  58.240  1.00  0.00    -0.000 C 
BRANCH  30  31
ATOM     31  C   UNL     1       0.894  -0.738  57.717  1.00  0.00    -0.003 C 
ATOM     32  C   UNL     1       2.417  -0.642  57.761  1.00  0.00     0.004 C 
ENDBRANCH  30  31
ENDBRANCH  29  30
ENDBRANCH  28  29
ENDBRANCH  27  28
ENDBRANCH  26  27
ENDBRANCH  25  26
ENDBRANCH  24  25
ENDBRANCH  23  24
ENDBRANCH  22  23
ENDBRANCH  21  22
ENDBRANCH  20  21
ENDBRANCH  19  20
ENDBRANCH  18  19
ENDBRANCH   1  18
TORSDOF 28
ENDMDL
MODEL 9
REMARK VINA RESULT:    -3.349      5.209     10.271
REMARK INTER + INTRA:         -13.567
REMARK INTER:                  -8.371
REMARK INTRA:                  -5.196
REMARK UNBOUND:                -4.734
REMARK SMILES CCCCCCCCCCCCCCCCCCCCCCCCCCCCCC(=O)[O-]
REMARK SMILES IDX 16 1 17 2 18 3 19 4 20 5 21 6 22 7 23 8 24 9 25 10 26 11
REMARK SMILES IDX 27 12 28 13 29 14 30 15 31 16 32 17 15 18 14 19 13 20 12 21
REMARK SMILES IDX 11 22 10 23 9 24 8 25 7 26 6 27 5 28 4 29 3 30 2 31 1 32
REMARK H PARENT
REMARK Flexibility Score: inf
ROOT
ATOM      1  C   UNL     1      -2.988  -3.977  61.876  1.00  0.00     0.000 C 
ENDROOT
BRANCH   1   2
ATOM      2  C   UNL     1      -4.117  -5.006  62.061  1.00  0.00     0.000 C 
BRANCH   2   3
ATOM      3  C   UNL     1      -5.460  -4.533  61.476  1.00  0.00     0.000 C 
BRANCH   3   4
ATOM      4  C   UNL     1      -6.536  -4.169  62.516  1.00  0.00     0.000 C 
BRANCH   4   5
ATOM      5  C   UNL     1      -6.546  -2.671  62.867  1.00  0.00     0.000 C 
BRANCH   5   6
ATOM      6  C   UNL     1      -5.797  -2.367  64.177  1.00  0.00     0.000 C 
BRANCH   6   7
ATOM      7  C   UNL     1      -4.760  -1.244  64.021  1.00  0.00     0.000 C 
BRANCH   7   8
ATOM      8  C   UNL     1      -3.381  -1.697  64.524  1.00  0.00     0.000 C 
BRANCH   8   9
ATOM      9  C   UNL     1      -3.468  -2.874  65.512  1.00  0.00     0.000 C 
BRANCH   9  10
ATOM     10  C   UNL     1      -2.250  -3.810  65.422  1.00  0.00     0.000 C 
BRANCH  10  11
ATOM     11  C   UNL     1      -2.117  -4.727  66.648  1.00  0.00     0.000 C 
BRANCH  11  12
ATOM     12  C   UNL     1      -2.130  -6.218  66.279  1.00  0.00     0.000 C 
BRANCH  12  13
ATOM     13  C   UNL     1      -3.323  -6.545  65.368  1.00  0.00     0.006 C 
BRANCH  13  14
ATOM     14  C   UNL     1      -2.981  -7.615  64.322  1.00  0.00     0.053 C 
BRANCH  14  15
ATOM     15  C   UNL     1      -3.631  -8.928  64.632  1.00  0.00     0.041 C 
ATOM     16  O   UNL     1      -4.772  -8.960  65.164  1.00  0.00    -0.550 OA
ATOM     17  O   UNL     1      -2.970 -10.117  64.348  1.00  0.00    -0.550 OA
ENDBRANCH  14  15
ENDBRANCH  13  14
ENDBRANCH  12  13
ENDBRANCH  11  12
ENDBRANCH  10  11
ENDBRANCH   9  10
ENDBRANCH   8   9
ENDBRANCH   7   8
ENDBRANCH   6   7
ENDBRANCH   5   6
ENDBRANCH   4   5
ENDBRANCH   3   4
ENDBRANCH   2   3
ENDBRANCH   1   2
BRANCH   1  18
ATOM     18  C   UNL     1      -3.377  -2.845  60.911  1.00  0.00     0.000 C 
BRANCH  18  19
ATOM     19  C   UNL     1      -2.226  -2.468  59.963  1.00  0.00     0.000 C 
BRANCH  19  20
ATOM     20  C   UNL     1      -2.719  -1.898  58.623  1.00  0.00     0.000 C 
BRANCH  20  21
ATOM     21  C   UNL     1      -1.644  -1.801  57.524  1.00  0.00     0.000 C 
BRANCH  21  22
ATOM     22  C   UNL     1      -0.217  -2.132  58.014  1.00  0.00     0.000 C 
BRANCH  22  23
ATOM     23  C   UNL     1       0.822  -1.106  57.523  1.00  0.00     0.000 C 
BRANCH  23  24
ATOM     24  C   UNL     1       0.195   0.277  57.271  1.00  0.00    -0.000 C 
BRANCH  24  25
ATOM     25  C   UNL     1       0.579   1.320  58.345  1.00  0.00    -0.000 C 
BRANCH  25  26
ATOM     26  C   UNL     1      -0.338   1.301  59.580  1.00  0.00    -0.000 C 
BRANCH  26  27
ATOM     27  C   UNL     1      -1.821   1.485  59.224  1.00  0.00    -0.000 C 
BRANCH  27  28
ATOM     28  C   UNL     1      -2.757   1.275  60.428  1.00  0.00    -0.000 C 
BRANCH  28  29
ATOM     29  C   UNL     1      -4.264   1.386  60.115  1.00  0.00    -0.000 C 
BRANCH  29  30
ATOM     30  C   UNL     1      -5.148   0.288  60.740  1.00  0.00    -0.000 C 
BRANCH  30  31
ATOM     31  C   UNL     1      -6.412  -0.061  59.934  1.00  0.00    -0.003 C 
ATOM     32  C   UNL     1      -6.348  -1.451  59.304  1.00  0.00     0.004 C 
ENDBRANCH  30  31
ENDBRANCH  29  30
ENDBRANCH  28  29
ENDBRANCH  27  28
ENDBRANCH  26  27
ENDBRANCH  25  26
ENDBRANCH  24  25
ENDBRANCH  23  24
ENDBRANCH  22  23
ENDBRANCH  21  22
ENDBRANCH  20  21
ENDBRANCH  19  20
ENDBRANCH  18  19
ENDBRANCH   1  18
TORSDOF 28
ENDMDL
