MODEL 1
REMARK VINA RESULT:    -6.650      0.000      0.000
REMARK INTER + INTRA:          -6.718
REMARK INTER:                  -7.233
REMARK INTRA:                   0.515
REMARK UNBOUND:                 0.515
REMARK SMILES C[C@H]1[C@H](C)CC[C@]2(C(=O)[O-])CC[C@]3(C)C(=CC[C@@H]4[C@@]5(C)CC[C@@H](O)C(C)(C)[C@@H]5CC[C@]43C)[C@@H]12
REMARK SMILES IDX 7 1 6 2 11 3 33 4 5 5 12 6 15 7 2 8 3 9 13 10 16 11 1 12
REMARK SMILES IDX 4 13 14 14 31 15 17 16 18 17 30 18 32 19 19 20 29 21 28 22
REMARK SMILES IDX 21 23 20 24 25 25 22 26 23 27 26 28 27 29 8 30 9 31 10 32
REMARK SMILES IDX 24 33
REMARK H PARENT 24 34
REMARK Flexibility Score: inf
ROOT
ATOM      1  C   UNL     1      91.617  86.674  81.538  1.00  0.00     0.017 C 
ATOM      2  C   UNL     1      90.103  86.817  81.149  1.00  0.00     0.014 C 
ATOM      3  C   UNL     1      92.463  87.729  80.779  1.00  0.00     0.014 C 
ATOM      4  C   UNL     1      92.167  85.265  81.123  1.00  0.00     0.030 C 
ATOM      5  C   UNL     1      89.621  85.771  80.138  1.00  0.00     0.004 C 
ATOM      6  C   UNL     1      93.961  87.643  81.150  1.00  0.00     0.013 C 
ATOM      7  C   UNL     1      93.668  85.108  81.443  1.00  0.00    -0.063 C 
ATOM      8  C   UNL     1      91.161  84.105  81.434  1.00  0.00    -0.003 C 
ATOM      9  C   UNL     1      89.793  84.333  80.689  1.00  0.00    -0.011 C 
ATOM     10  C   UNL     1      94.623  86.228  80.943  1.00  0.00    -0.006 C 
ATOM     11  C   UNL     1      94.163  83.924  81.885  1.00  0.00    -0.027 C 
ATOM     12  C   UNL     1      90.916  83.868  82.936  1.00  0.00     0.008 C 
ATOM     13  C   UNL     1      89.603  83.321  79.549  1.00  0.00     0.008 C 
ATOM     14  C   UNL     1      94.758  86.039  79.391  1.00  0.00     0.017 C 
ATOM     15  C   UNL     1      96.053  86.142  81.704  1.00  0.00    -0.020 C 
ATOM     16  C   UNL     1      95.589  83.701  82.309  1.00  0.00     0.032 C 
ATOM     17  C   UNL     1      96.585  84.656  81.617  1.00  0.00     0.006 C 
ATOM     18  C   UNL     1      97.096  87.109  81.059  1.00  0.00     0.008 C 
ATOM     19  C   UNL     1      95.873  86.562  83.199  1.00  0.00     0.012 C 
ATOM     20  C   UNL     1      98.124  84.367  81.957  1.00  0.00    -0.025 C 
ATOM     21  C   UNL     1      98.527  86.886  81.556  1.00  0.00     0.005 C 
ATOM     22  C   UNL     1      98.997  85.449  81.219  1.00  0.00     0.003 C 
ATOM     23  C   UNL     1      98.494  82.936  81.394  1.00  0.00     0.010 C 
ATOM     24  C   UNL     1      98.418  84.352  83.494  1.00  0.00     0.012 C 
ATOM     25  C   UNL     1     100.573  85.240  81.276  1.00  0.00    -0.006 C 
ATOM     26  C   UNL     1      99.862  82.830  80.694  1.00  0.00     0.033 C 
ATOM     27  C   UNL     1     100.929  83.711  81.365  1.00  0.00     0.120 C 
ATOM     28  C   UNL     1     101.193  85.850  79.985  1.00  0.00     0.014 C 
ATOM     29  C   UNL     1     101.229  85.966  82.477  1.00  0.00     0.014 C 
ENDROOT
BRANCH   1  30
ATOM     30  C   UNL     1      91.737  86.972  83.032  1.00  0.00     0.048 C 
ATOM     31  O   UNL     1      92.506  86.313  83.779  1.00  0.00    -0.550 OA
ATOM     32  O   UNL     1      91.037  88.043  83.578  1.00  0.00    -0.550 OA
ENDBRANCH   1  30
BRANCH  27  33
ATOM     33  O   UNL     1     102.215  83.430  80.857  1.00  0.00    -0.393 OA
ATOM     34  H   UNL     1     102.494  84.181  80.272  1.00  0.00     0.210 HD
ENDBRANCH  27  33
TORSDOF 2
ENDMDL
MODEL 2
REMARK VINA RESULT:    -6.611      3.564      6.727
REMARK INTER + INTRA:          -6.676
REMARK INTER:                  -7.200
REMARK INTRA:                   0.524
REMARK UNBOUND:                 0.515
REMARK SMILES C[C@H]1[C@H](C)CC[C@]2(C(=O)[O-])CC[C@]3(C)C(=CC[C@@H]4[C@@]5(C)CC[C@@H](O)C(C)(C)[C@@H]5CC[C@]43C)[C@@H]12
REMARK SMILES IDX 7 1 6 2 11 3 33 4 5 5 12 6 15 7 2 8 3 9 13 10 16 11 1 12
REMARK SMILES IDX 4 13 14 14 31 15 17 16 18 17 30 18 32 19 19 20 29 21 28 22
REMARK SMILES IDX 21 23 20 24 25 25 22 26 23 27 26 28 27 29 8 30 9 31 10 32
REMARK SMILES IDX 24 33
REMARK H PARENT 24 34
REMARK Flexibility Score: inf
ROOT
ATOM      1  C   UNL     1      98.279  84.225  83.551  1.00  0.00     0.017 C 
ATOM      2  C   UNL     1      97.234  83.441  84.422  1.00  0.00     0.014 C 
ATOM      3  C   UNL     1      98.920  85.364  84.385  1.00  0.00     0.014 C 
ATOM      4  C   UNL     1      97.579  84.900  82.320  1.00  0.00     0.030 C 
ATOM      5  C   UNL     1      95.777  83.819  84.134  1.00  0.00     0.004 C 
ATOM      6  C   UNL     1      99.976  86.148  83.574  1.00  0.00     0.013 C 
ATOM      7  C   UNL     1      98.568  85.723  81.468  1.00  0.00    -0.063 C 
ATOM      8  C   UNL     1      96.524  83.968  81.635  1.00  0.00    -0.003 C 
ATOM      9  C   UNL     1      95.404  83.541  82.656  1.00  0.00    -0.011 C 
ATOM     10  C   UNL     1      99.462  86.754  82.213  1.00  0.00    -0.006 C 
ATOM     11  C   UNL     1      98.463  85.749  80.115  1.00  0.00    -0.027 C 
ATOM     12  C   UNL     1      97.127  82.724  80.955  1.00  0.00     0.008 C 
ATOM     13  C   UNL     1      94.064  84.216  82.329  1.00  0.00     0.008 C 
ATOM     14  C   UNL     1      98.529  87.955  82.601  1.00  0.00     0.017 C 
ATOM     15  C   UNL     1     100.705  87.214  81.278  1.00  0.00    -0.020 C 
ATOM     16  C   UNL     1      99.432  86.446  79.198  1.00  0.00     0.032 C 
ATOM     17  C   UNL     1     100.146  87.642  79.863  1.00  0.00     0.006 C 
ATOM     18  C   UNL     1     101.481  88.409  81.917  1.00  0.00     0.008 C 
ATOM     19  C   UNL     1     101.707  86.023  81.123  1.00  0.00     0.012 C 
ATOM     20  C   UNL     1     101.096  88.477  78.879  1.00  0.00    -0.025 C 
ATOM     21  C   UNL     1     102.496  89.056  80.971  1.00  0.00     0.005 C 
ATOM     22  C   UNL     1     101.780  89.620  79.717  1.00  0.00     0.003 C 
ATOM     23  C   UNL     1     100.192  89.131  77.759  1.00  0.00     0.010 C 
ATOM     24  C   UNL     1     102.161  87.587  78.156  1.00  0.00     0.012 C 
ATOM     25  C   UNL     1     102.630  90.683  78.894  1.00  0.00    -0.006 C 
ATOM     26  C   UNL     1     100.534  90.589  77.396  1.00  0.00     0.033 C 
ATOM     27  C   UNL     1     102.045  90.863  77.446  1.00  0.00     0.120 C 
ATOM     28  C   UNL     1     102.580  92.041  79.653  1.00  0.00     0.014 C 
ATOM     29  C   UNL     1     104.124  90.290  78.774  1.00  0.00     0.014 C 
ENDROOT
BRANCH   1  30
ATOM     30  C   UNL     1      99.389  83.245  83.174  1.00  0.00     0.048 C 
ATOM     31  O   UNL     1      99.860  83.193  82.008  1.00  0.00    -0.550 OA
ATOM     32  O   UNL     1      99.951  82.434  84.154  1.00  0.00    -0.550 OA
ENDBRANCH   1  30
BRANCH  27  33
ATOM     33  O   UNL     1     102.353  92.125  76.896  1.00  0.00    -0.393 OA
ATOM     34  H   UNL     1     101.527  92.674  76.886  1.00  0.00     0.210 HD
ENDBRANCH  27  33
TORSDOF 2
ENDMDL
MODEL 3
REMARK VINA RESULT:    -6.470      2.805      7.678
REMARK INTER + INTRA:          -6.522
REMARK INTER:                  -7.036
REMARK INTRA:                   0.514
REMARK UNBOUND:                 0.515
REMARK SMILES C[C@H]1[C@H](C)CC[C@]2(C(=O)[O-])CC[C@]3(C)C(=CC[C@@H]4[C@@]5(C)CC[C@@H](O)C(C)(C)[C@@H]5CC[C@]43C)[C@@H]12
REMARK SMILES IDX 7 1 6 2 11 3 33 4 5 5 12 6 15 7 2 8 3 9 13 10 16 11 1 12
REMARK SMILES IDX 4 13 14 14 31 15 17 16 18 17 30 18 32 19 19 20 29 21 28 22
REMARK SMILES IDX 21 23 20 24 25 25 22 26 23 27 26 28 27 29 8 30 9 31 10 32
REMARK SMILES IDX 24 33
REMARK H PARENT 24 34
REMARK Flexibility Score: inf
ROOT
ATOM      1  C   UNL     1      96.531  85.039  85.939  1.00  0.00     0.017 C 
ATOM      2  C   UNL     1      97.619  84.743  87.031  1.00  0.00     0.014 C 
ATOM      3  C   UNL     1      95.188  84.372  86.331  1.00  0.00     0.014 C 
ATOM      4  C   UNL     1      96.954  84.432  84.556  1.00  0.00     0.030 C 
ATOM      5  C   UNL     1      98.607  83.639  86.640  1.00  0.00     0.004 C 
ATOM      6  C   UNL     1      94.077  84.657  85.296  1.00  0.00     0.013 C 
ATOM      7  C   UNL     1      95.883  84.658  83.469  1.00  0.00    -0.063 C 
ATOM      8  C   UNL     1      98.471  84.650  84.235  1.00  0.00    -0.003 C 
ATOM      9  C   UNL     1      99.380  84.006  85.347  1.00  0.00    -0.011 C 
ATOM     10  C   UNL     1      94.423  84.250  83.813  1.00  0.00    -0.006 C 
ATOM     11  C   UNL     1      96.241  84.931  82.188  1.00  0.00    -0.027 C 
ATOM     12  C   UNL     1      98.864  86.124  84.016  1.00  0.00     0.008 C 
ATOM     13  C   UNL     1     100.112  82.763  84.819  1.00  0.00     0.008 C 
ATOM     14  C   UNL     1      94.377  82.681  83.774  1.00  0.00     0.017 C 
ATOM     15  C   UNL     1      93.379  84.925  82.770  1.00  0.00    -0.020 C 
ATOM     16  C   UNL     1      95.272  85.256  81.083  1.00  0.00     0.032 C 
ATOM     17  C   UNL     1      93.875  84.636  81.297  1.00  0.00     0.006 C 
ATOM     18  C   UNL     1      91.940  84.351  82.959  1.00  0.00     0.008 C 
ATOM     19  C   UNL     1      93.315  86.467  83.023  1.00  0.00     0.012 C 
ATOM     20  C   UNL     1      92.856  84.864  80.082  1.00  0.00    -0.025 C 
ATOM     21  C   UNL     1      90.970  84.748  81.843  1.00  0.00     0.005 C 
ATOM     22  C   UNL     1      91.476  84.219  80.477  1.00  0.00     0.003 C 
ATOM     23  C   UNL     1      93.428  84.117  78.811  1.00  0.00     0.010 C 
ATOM     24  C   UNL     1      92.690  86.372  79.698  1.00  0.00     0.012 C 
ATOM     25  C   UNL     1      90.368  84.174  79.336  1.00  0.00    -0.006 C 
ATOM     26  C   UNL     1      92.392  83.344  77.972  1.00  0.00     0.033 C 
ATOM     27  C   UNL     1      91.035  84.063  77.917  1.00  0.00     0.120 C 
ATOM     28  C   UNL     1      89.458  82.937  79.588  1.00  0.00     0.014 C 
ATOM     29  C   UNL     1      89.447  85.420  79.348  1.00  0.00     0.014 C 
ENDROOT
BRANCH   1  30
ATOM     30  C   UNL     1      96.307  86.550  85.911  1.00  0.00     0.048 C 
ATOM     31  O   UNL     1      96.164  87.179  84.831  1.00  0.00    -0.550 OA
ATOM     32  O   UNL     1      96.185  87.249  87.108  1.00  0.00    -0.550 OA
ENDBRANCH   1  30
BRANCH  27  33
ATOM     33  O   UNL     1      90.179  83.463  76.968  1.00  0.00    -0.393 OA
ATOM     34  H   UNL     1      90.275  82.478  77.036  1.00  0.00     0.210 HD
ENDBRANCH  27  33
TORSDOF 2
ENDMDL
MODEL 4
REMARK VINA RESULT:    -6.460      2.774      8.145
REMARK INTER + INTRA:          -6.512
REMARK INTER:                  -7.027
REMARK INTRA:                   0.515
REMARK UNBOUND:                 0.515
REMARK SMILES C[C@H]1[C@H](C)CC[C@]2(C(=O)[O-])CC[C@]3(C)C(=CC[C@@H]4[C@@]5(C)CC[C@@H](O)C(C)(C)[C@@H]5CC[C@]43C)[C@@H]12
REMARK SMILES IDX 7 1 6 2 11 3 33 4 5 5 12 6 15 7 2 8 3 9 13 10 16 11 1 12
REMARK SMILES IDX 4 13 14 14 31 15 17 16 18 17 30 18 32 19 19 20 29 21 28 22
REMARK SMILES IDX 21 23 20 24 25 25 22 26 23 27 26 28 27 29 8 30 9 31 10 32
REMARK SMILES IDX 24 33
REMARK H PARENT 24 34
REMARK Flexibility Score: inf
ROOT
ATOM      1  C   UNL     1     100.147  86.040  82.881  1.00  0.00     0.017 C 
ATOM      2  C   UNL     1     101.632  86.103  83.388  1.00  0.00     0.014 C 
ATOM      3  C   UNL     1      99.565  84.622  83.117  1.00  0.00     0.014 C 
ATOM      4  C   UNL     1     100.076  86.311  81.338  1.00  0.00     0.030 C 
ATOM      5  C   UNL     1     102.674  86.014  82.269  1.00  0.00     0.004 C 
ATOM      6  C   UNL     1      98.094  84.519  82.655  1.00  0.00     0.013 C 
ATOM      7  C   UNL     1      98.636  86.205  80.795  1.00  0.00    -0.063 C 
ATOM      8  C   UNL     1     101.014  87.479  80.882  1.00  0.00    -0.003 C 
ATOM      9  C   UNL     1     102.513  87.174  81.254  1.00  0.00    -0.011 C 
ATOM     10  C   UNL     1      97.832  84.924  81.155  1.00  0.00    -0.006 C 
ATOM     11  C   UNL     1      98.196  87.047  79.825  1.00  0.00    -0.027 C 
ATOM     12  C   UNL     1     100.604  88.864  81.420  1.00  0.00     0.008 C 
ATOM     13  C   UNL     1     103.349  86.878  79.999  1.00  0.00     0.008 C 
ATOM     14  C   UNL     1      98.429  83.763  80.284  1.00  0.00     0.017 C 
ATOM     15  C   UNL     1      96.248  85.148  80.885  1.00  0.00    -0.020 C 
ATOM     16  C   UNL     1      96.787  87.080  79.299  1.00  0.00     0.032 C 
ATOM     17  C   UNL     1      96.058  85.725  79.426  1.00  0.00     0.006 C 
ATOM     18  C   UNL     1      95.456  83.810  81.024  1.00  0.00     0.008 C 
ATOM     19  C   UNL     1      95.678  86.153  81.939  1.00  0.00     0.012 C 
ATOM     20  C   UNL     1      94.597  85.695  78.768  1.00  0.00    -0.025 C 
ATOM     21  C   UNL     1      94.010  83.900  80.529  1.00  0.00     0.005 C 
ATOM     22  C   UNL     1      93.978  84.271  79.025  1.00  0.00     0.003 C 
ATOM     23  C   UNL     1      94.753  85.915  77.210  1.00  0.00     0.010 C 
ATOM     24  C   UNL     1      93.661  86.828  79.306  1.00  0.00     0.012 C 
ATOM     25  C   UNL     1      92.597  83.963  78.298  1.00  0.00    -0.006 C 
ATOM     26  C   UNL     1      93.872  85.016  76.320  1.00  0.00     0.033 C 
ATOM     27  C   UNL     1      92.492  84.754  76.943  1.00  0.00     0.120 C 
ATOM     28  C   UNL     1      92.521  82.434  78.022  1.00  0.00     0.014 C 
ATOM     29  C   UNL     1      91.369  84.324  79.172  1.00  0.00     0.014 C 
ENDROOT
BRANCH   1  30
ATOM     30  C   UNL     1      99.333  87.021  83.723  1.00  0.00     0.048 C 
ATOM     31  O   UNL     1      98.433  87.740  83.216  1.00  0.00    -0.550 OA
ATOM     32  O   UNL     1      99.534  87.078  85.098  1.00  0.00    -0.550 OA
ENDBRANCH   1  30
BRANCH  27  33
ATOM     33  O   UNL     1      91.627  84.126  76.022  1.00  0.00    -0.393 OA
ATOM     34  H   UNL     1      91.951  83.201  75.867  1.00  0.00     0.210 HD
ENDBRANCH  27  33
TORSDOF 2
ENDMDL
MODEL 5
REMARK VINA RESULT:    -6.393      4.889      7.234
REMARK INTER + INTRA:          -6.439
REMARK INTER:                  -6.977
REMARK INTRA:                   0.537
REMARK UNBOUND:                 0.515
REMARK SMILES C[C@H]1[C@H](C)CC[C@]2(C(=O)[O-])CC[C@]3(C)C(=CC[C@@H]4[C@@]5(C)CC[C@@H](O)C(C)(C)[C@@H]5CC[C@]43C)[C@@H]12
REMARK SMILES IDX 7 1 6 2 11 3 33 4 5 5 12 6 15 7 2 8 3 9 13 10 16 11 1 12
REMARK SMILES IDX 4 13 14 14 31 15 17 16 18 17 30 18 32 19 19 20 29 21 28 22
REMARK SMILES IDX 21 23 20 24 25 25 22 26 23 27 26 28 27 29 8 30 9 31 10 32
REMARK SMILES IDX 24 33
REMARK H PARENT 24 34
REMARK Flexibility Score: inf
ROOT
ATOM      1  C   UNL     1      99.339  85.023  85.915  1.00  0.00     0.017 C 
ATOM      2  C   UNL     1      98.488  84.495  87.125  1.00  0.00     0.014 C 
ATOM      3  C   UNL     1      99.932  86.416  86.250  1.00  0.00     0.014 C 
ATOM      4  C   UNL     1      98.440  85.204  84.642  1.00  0.00     0.030 C 
ATOM      5  C   UNL     1      96.976  84.651  86.935  1.00  0.00     0.004 C 
ATOM      6  C   UNL     1     100.799  86.966  85.095  1.00  0.00     0.013 C 
ATOM      7  C   UNL     1      99.233  85.772  83.447  1.00  0.00    -0.063 C 
ATOM      8  C   UNL     1      97.430  84.026  84.439  1.00  0.00    -0.003 C 
ATOM      9  C   UNL     1      96.481  83.876  85.687  1.00  0.00    -0.011 C 
ATOM     10  C   UNL     1     100.078  87.053  83.697  1.00  0.00    -0.006 C 
ATOM     11  C   UNL     1      98.982  85.346  82.183  1.00  0.00    -0.027 C 
ATOM     12  C   UNL     1      98.094  82.674  84.111  1.00  0.00     0.008 C 
ATOM     13  C   UNL     1      95.046  84.308  85.351  1.00  0.00     0.008 C 
ATOM     14  C   UNL     1      99.062  88.243  83.809  1.00  0.00     0.017 C 
ATOM     15  C   UNL     1     101.155  87.269  82.503  1.00  0.00    -0.020 C 
ATOM     16  C   UNL     1      99.762  85.772  80.968  1.00  0.00     0.032 C 
ATOM     17  C   UNL     1     100.403  87.168  81.117  1.00  0.00     0.006 C 
ATOM     18  C   UNL     1     101.854  88.661  82.618  1.00  0.00     0.008 C 
ATOM     19  C   UNL     1     102.263  86.169  82.596  1.00  0.00     0.012 C 
ATOM     20  C   UNL     1     101.142  87.701  79.798  1.00  0.00    -0.025 C 
ATOM     21  C   UNL     1     102.682  89.034  81.386  1.00  0.00     0.005 C 
ATOM     22  C   UNL     1     101.777  89.102  80.129  1.00  0.00     0.003 C 
ATOM     23  C   UNL     1     100.055  87.884  78.664  1.00  0.00     0.010 C 
ATOM     24  C   UNL     1     102.217  86.703  79.254  1.00  0.00     0.012 C 
ATOM     25  C   UNL     1     102.409  89.895  78.904  1.00  0.00    -0.006 C 
ATOM     26  C   UNL     1     100.189  89.163  77.815  1.00  0.00     0.033 C 
ATOM     27  C   UNL     1     101.657  89.547  77.568  1.00  0.00     0.120 C 
ATOM     28  C   UNL     1     102.286  91.419  79.194  1.00  0.00     0.014 C 
ATOM     29  C   UNL     1     103.916  89.594  78.710  1.00  0.00     0.014 C 
ENDROOT
BRANCH   1  30
ATOM     30  C   UNL     1     100.506  84.057  85.719  1.00  0.00     0.048 C 
ATOM     31  O   UNL     1     100.823  83.623  84.581  1.00  0.00    -0.550 OA
ATOM     32  O   UNL     1     101.292  83.698  86.809  1.00  0.00    -0.550 OA
ENDBRANCH   1  30
BRANCH  27  33
ATOM     33  O   UNL     1     101.760  90.578  76.610  1.00  0.00    -0.393 OA
ATOM     34  H   UNL     1     101.642  90.182  75.708  1.00  0.00     0.210 HD
ENDBRANCH  27  33
TORSDOF 2
ENDMDL
MODEL 6
REMARK VINA RESULT:    -6.369      2.996      8.095
REMARK INTER + INTRA:          -6.413
REMARK INTER:                  -6.951
REMARK INTRA:                   0.538
REMARK UNBOUND:                 0.515
REMARK SMILES C[C@H]1[C@H](C)CC[C@]2(C(=O)[O-])CC[C@]3(C)C(=CC[C@@H]4[C@@]5(C)CC[C@@H](O)C(C)(C)[C@@H]5CC[C@]43C)[C@@H]12
REMARK SMILES IDX 7 1 6 2 11 3 33 4 5 5 12 6 15 7 2 8 3 9 13 10 16 11 1 12
REMARK SMILES IDX 4 13 14 14 31 15 17 16 18 17 30 18 32 19 19 20 29 21 28 22
REMARK SMILES IDX 21 23 20 24 25 25 22 26 23 27 26 28 27 29 8 30 9 31 10 32
REMARK SMILES IDX 24 33
REMARK H PARENT 24 34
REMARK Flexibility Score: inf
ROOT
ATOM      1  C   UNL     1      99.400  88.507  79.542  1.00  0.00     0.017 C 
ATOM      2  C   UNL     1     100.412  89.640  79.941  1.00  0.00     0.014 C 
ATOM      3  C   UNL     1      98.753  88.830  78.171  1.00  0.00     0.014 C 
ATOM      4  C   UNL     1      98.233  88.412  80.585  1.00  0.00     0.030 C 
ATOM      5  C   UNL     1      99.861  90.627  80.975  1.00  0.00     0.004 C 
ATOM      6  C   UNL     1      97.767  87.728  77.724  1.00  0.00     0.013 C 
ATOM      7  C   UNL     1      97.191  87.343  80.197  1.00  0.00    -0.063 C 
ATOM      8  C   UNL     1      98.730  88.539  82.065  1.00  0.00    -0.003 C 
ATOM      9  C   UNL     1      99.476  89.907  82.293  1.00  0.00    -0.011 C 
ATOM     10  C   UNL     1      96.620  87.397  78.752  1.00  0.00    -0.006 C 
ATOM     11  C   UNL     1      96.598  86.576  81.147  1.00  0.00    -0.027 C 
ATOM     12  C   UNL     1      99.611  87.368  82.538  1.00  0.00     0.008 C 
ATOM     13  C   UNL     1      98.647  90.855  83.172  1.00  0.00     0.008 C 
ATOM     14  C   UNL     1      95.636  88.619  78.708  1.00  0.00     0.017 C 
ATOM     15  C   UNL     1      95.888  86.000  78.374  1.00  0.00    -0.020 C 
ATOM     16  C   UNL     1      95.641  85.450  80.859  1.00  0.00     0.032 C 
ATOM     17  C   UNL     1      94.877  85.626  79.530  1.00  0.00     0.006 C 
ATOM     18  C   UNL     1      95.117  86.114  77.021  1.00  0.00     0.008 C 
ATOM     19  C   UNL     1      96.964  84.876  78.217  1.00  0.00     0.012 C 
ATOM     20  C   UNL     1      93.766  84.505  79.251  1.00  0.00    -0.025 C 
ATOM     21  C   UNL     1      94.196  84.923  76.739  1.00  0.00     0.005 C 
ATOM     22  C   UNL     1      93.119  84.800  77.847  1.00  0.00     0.003 C 
ATOM     23  C   UNL     1      92.652  84.627  80.367  1.00  0.00     0.010 C 
ATOM     24  C   UNL     1      94.336  83.050  79.320  1.00  0.00     0.012 C 
ATOM     25  C   UNL     1      91.863  83.909  77.450  1.00  0.00    -0.006 C 
ATOM     26  C   UNL     1      91.199  84.495  79.871  1.00  0.00     0.033 C 
ATOM     27  C   UNL     1      91.062  83.474  78.731  1.00  0.00     0.120 C 
ATOM     28  C   UNL     1      90.945  84.749  76.515  1.00  0.00     0.014 C 
ATOM     29  C   UNL     1      92.260  82.634  76.663  1.00  0.00     0.014 C 
ENDROOT
BRANCH   1  30
ATOM     30  C   UNL     1     100.199  87.214  79.384  1.00  0.00     0.048 C 
ATOM     31  O   UNL     1      99.696  86.089  79.639  1.00  0.00    -0.550 OA
ATOM     32  O   UNL     1     101.494  87.264  78.878  1.00  0.00    -0.550 OA
ENDBRANCH   1  30
BRANCH  27  33
ATOM     33  O   UNL     1      89.707  83.203  78.449  1.00  0.00    -0.393 OA
ATOM     34  H   UNL     1      89.527  82.249  78.654  1.00  0.00     0.210 HD
ENDBRANCH  27  33
TORSDOF 2
ENDMDL
MODEL 7
REMARK VINA RESULT:    -6.330      2.571      4.085
REMARK INTER + INTRA:          -6.370
REMARK INTER:                  -6.886
REMARK INTRA:                   0.515
REMARK UNBOUND:                 0.515
REMARK SMILES C[C@H]1[C@H](C)CC[C@]2(C(=O)[O-])CC[C@]3(C)C(=CC[C@@H]4[C@@]5(C)CC[C@@H](O)C(C)(C)[C@@H]5CC[C@]43C)[C@@H]12
REMARK SMILES IDX 7 1 6 2 11 3 33 4 5 5 12 6 15 7 2 8 3 9 13 10 16 11 1 12
REMARK SMILES IDX 4 13 14 14 31 15 17 16 18 17 30 18 32 19 19 20 29 21 28 22
REMARK SMILES IDX 21 23 20 24 25 25 22 26 23 27 26 28 27 29 8 30 9 31 10 32
REMARK SMILES IDX 24 33
REMARK H PARENT 24 34
REMARK Flexibility Score: inf
ROOT
ATOM      1  C   UNL     1      90.558  85.370  83.299  1.00  0.00     0.017 C 
ATOM      2  C   UNL     1      88.991  85.304  83.349  1.00  0.00     0.014 C 
ATOM      3  C   UNL     1      91.107  84.263  82.362  1.00  0.00     0.014 C 
ATOM      4  C   UNL     1      91.171  85.109  84.719  1.00  0.00     0.030 C 
ATOM      5  C   UNL     1      88.438  84.634  84.612  1.00  0.00     0.004 C 
ATOM      6  C   UNL     1      92.648  84.304  82.260  1.00  0.00     0.013 C 
ATOM      7  C   UNL     1      92.714  85.113  84.697  1.00  0.00    -0.063 C 
ATOM      8  C   UNL     1      90.389  85.840  85.862  1.00  0.00    -0.003 C 
ATOM      9  C   UNL     1      88.882  85.388  85.891  1.00  0.00    -0.011 C 
ATOM     10  C   UNL     1      93.413  84.219  83.635  1.00  0.00    -0.006 C 
ATOM     11  C   UNL     1      93.420  85.645  85.727  1.00  0.00    -0.027 C 
ATOM     12  C   UNL     1      90.482  87.377  85.805  1.00  0.00     0.008 C 
ATOM     13  C   UNL     1      88.584  84.522  87.125  1.00  0.00     0.008 C 
ATOM     14  C   UNL     1      93.253  82.736  84.126  1.00  0.00     0.017 C 
ATOM     15  C   UNL     1      94.967  84.648  83.460  1.00  0.00    -0.020 C 
ATOM     16  C   UNL     1      94.919  85.777  85.754  1.00  0.00     0.032 C 
ATOM     17  C   UNL     1      95.639  84.720  84.889  1.00  0.00     0.006 C 
ATOM     18  C   UNL     1      95.740  83.623  82.571  1.00  0.00     0.008 C 
ATOM     19  C   UNL     1      95.045  86.043  82.758  1.00  0.00     0.012 C 
ATOM     20  C   UNL     1      97.237  84.760  84.989  1.00  0.00    -0.025 C 
ATOM     21  C   UNL     1      97.258  83.826  82.582  1.00  0.00     0.005 C 
ATOM     22  C   UNL     1      97.813  83.662  84.020  1.00  0.00     0.003 C 
ATOM     23  C   UNL     1      97.648  84.401  86.474  1.00  0.00     0.010 C 
ATOM     24  C   UNL     1      97.835  86.170  84.670  1.00  0.00     0.012 C 
ATOM     25  C   UNL     1      99.381  83.407  84.096  1.00  0.00    -0.006 C 
ATOM     26  C   UNL     1      98.850  83.448  86.619  1.00  0.00     0.033 C 
ATOM     27  C   UNL     1      99.921  83.694  85.545  1.00  0.00     0.120 C 
ATOM     28  C   UNL     1      99.654  81.922  83.718  1.00  0.00     0.014 C 
ATOM     29  C   UNL     1     100.178  84.280  83.095  1.00  0.00     0.014 C 
ENDROOT
BRANCH   1  30
ATOM     30  C   UNL     1      90.942  86.720  82.695  1.00  0.00     0.048 C 
ATOM     31  O   UNL     1      91.925  87.381  83.121  1.00  0.00    -0.550 OA
ATOM     32  O   UNL     1      90.238  87.208  81.600  1.00  0.00    -0.550 OA
ENDBRANCH   1  30
BRANCH  27  33
ATOM     33  O   UNL     1     101.102  82.976  85.829  1.00  0.00    -0.393 OA
ATOM     34  H   UNL     1     100.863  82.175  86.363  1.00  0.00     0.210 HD
ENDBRANCH  27  33
TORSDOF 2
ENDMDL
MODEL 8
REMARK VINA RESULT:    -6.314      2.299      2.697
REMARK INTER + INTRA:          -6.352
REMARK INTER:                  -6.861
REMARK INTRA:                   0.508
REMARK UNBOUND:                 0.515
REMARK SMILES C[C@H]1[C@H](C)CC[C@]2(C(=O)[O-])CC[C@]3(C)C(=CC[C@@H]4[C@@]5(C)CC[C@@H](O)C(C)(C)[C@@H]5CC[C@]43C)[C@@H]12
REMARK SMILES IDX 7 1 6 2 11 3 33 4 5 5 12 6 15 7 2 8 3 9 13 10 16 11 1 12
REMARK SMILES IDX 4 13 14 14 31 15 17 16 18 17 30 18 32 19 19 20 29 21 28 22
REMARK SMILES IDX 21 23 20 24 25 25 22 26 23 27 26 28 27 29 8 30 9 31 10 32
REMARK SMILES IDX 24 33
REMARK H PARENT 24 34
REMARK Flexibility Score: inf
ROOT
ATOM      1  C   UNL     1      91.324  86.468  82.229  1.00  0.00     0.017 C 
ATOM      2  C   UNL     1      90.096  86.651  81.268  1.00  0.00     0.014 C 
ATOM      3  C   UNL     1      92.339  87.621  82.020  1.00  0.00     0.014 C 
ATOM      4  C   UNL     1      92.081  85.131  81.912  1.00  0.00     0.030 C 
ATOM      5  C   UNL     1      90.135  85.747  80.032  1.00  0.00     0.004 C 
ATOM      6  C   UNL     1      93.556  87.497  82.964  1.00  0.00     0.013 C 
ATOM      7  C   UNL     1      93.327  84.943  82.803  1.00  0.00    -0.063 C 
ATOM      8  C   UNL     1      91.111  83.933  81.638  1.00  0.00    -0.003 C 
ATOM      9  C   UNL     1      90.155  84.249  80.428  1.00  0.00    -0.011 C 
ATOM     10  C   UNL     1      94.331  86.127  82.881  1.00  0.00    -0.006 C 
ATOM     11  C   UNL     1      93.670  83.714  83.266  1.00  0.00    -0.027 C 
ATOM     12  C   UNL     1      90.288  83.494  82.865  1.00  0.00     0.008 C 
ATOM     13  C   UNL     1      90.512  83.399  79.199  1.00  0.00     0.008 C 
ATOM     14  C   UNL     1      95.101  86.149  81.514  1.00  0.00     0.017 C 
ATOM     15  C   UNL     1      95.327  85.949  84.149  1.00  0.00    -0.020 C 
ATOM     16  C   UNL     1      94.809  83.446  84.211  1.00  0.00     0.032 C 
ATOM     17  C   UNL     1      95.940  84.492  84.114  1.00  0.00     0.006 C 
ATOM     18  C   UNL     1      96.481  87.002  84.114  1.00  0.00     0.008 C 
ATOM     19  C   UNL     1      94.526  86.163  85.475  1.00  0.00     0.012 C 
ATOM     20  C   UNL     1      97.220  84.171  85.023  1.00  0.00    -0.025 C 
ATOM     21  C   UNL     1      97.594  86.724  85.129  1.00  0.00     0.005 C 
ATOM     22  C   UNL     1      98.249  85.348  84.847  1.00  0.00     0.003 C 
ATOM     23  C   UNL     1      97.875  82.832  84.496  1.00  0.00     0.010 C 
ATOM     24  C   UNL     1      96.860  83.951  86.529  1.00  0.00     0.012 C 
ATOM     25  C   UNL     1      99.674  85.145  85.525  1.00  0.00    -0.006 C 
ATOM     26  C   UNL     1      99.414  82.831  84.418  1.00  0.00     0.033 C 
ATOM     27  C   UNL     1     100.056  83.621  85.569  1.00  0.00     0.120 C 
ATOM     28  C   UNL     1     100.728  85.928  84.689  1.00  0.00     0.014 C 
ATOM     29  C   UNL     1      99.735  85.708  86.967  1.00  0.00     0.014 C 
ENDROOT
BRANCH   1  30
ATOM     30  C   UNL     1      90.803  86.562  83.663  1.00  0.00     0.048 C 
ATOM     31  O   UNL     1      91.223  85.799  84.571  1.00  0.00    -0.550 OA
ATOM     32  O   UNL     1      89.896  87.561  84.000  1.00  0.00    -0.550 OA
ENDBRANCH   1  30
BRANCH  27  33
ATOM     33  O   UNL     1     101.452  83.420  85.610  1.00  0.00    -0.393 OA
ATOM     34  H   UNL     1     101.875  84.224  86.009  1.00  0.00     0.210 HD
ENDBRANCH  27  33
TORSDOF 2
ENDMDL
MODEL 9
REMARK VINA RESULT:    -6.282      3.315      5.185
REMARK INTER + INTRA:          -6.318
REMARK INTER:                  -6.834
REMARK INTRA:                   0.516
REMARK UNBOUND:                 0.515
REMARK SMILES C[C@H]1[C@H](C)CC[C@]2(C(=O)[O-])CC[C@]3(C)C(=CC[C@@H]4[C@@]5(C)CC[C@@H](O)C(C)(C)[C@@H]5CC[C@]43C)[C@@H]12
REMARK SMILES IDX 7 1 6 2 11 3 33 4 5 5 12 6 15 7 2 8 3 9 13 10 16 11 1 12
REMARK SMILES IDX 4 13 14 14 31 15 17 16 18 17 30 18 32 19 19 20 29 21 28 22
REMARK SMILES IDX 21 23 20 24 25 25 22 26 23 27 26 28 27 29 8 30 9 31 10 32
REMARK SMILES IDX 24 33
REMARK H PARENT 24 34
REMARK Flexibility Score: inf
ROOT
ATOM      1  C   UNL     1      94.995  85.247  80.573  1.00  0.00     0.017 C 
ATOM      2  C   UNL     1      93.601  84.655  80.159  1.00  0.00     0.014 C 
ATOM      3  C   UNL     1      94.797  86.541  81.403  1.00  0.00     0.014 C 
ATOM      4  C   UNL     1      95.829  85.643  79.304  1.00  0.00     0.030 C 
ATOM      5  C   UNL     1      93.207  84.950  78.708  1.00  0.00     0.004 C 
ATOM      6  C   UNL     1      96.144  87.149  81.855  1.00  0.00     0.013 C 
ATOM      7  C   UNL     1      97.185  86.278  79.674  1.00  0.00    -0.063 C 
ATOM      8  C   UNL     1      95.735  84.579  78.159  1.00  0.00    -0.003 C 
ATOM      9  C   UNL     1      94.241  84.365  77.712  1.00  0.00    -0.011 C 
ATOM     10  C   UNL     1      97.167  87.451  80.695  1.00  0.00    -0.006 C 
ATOM     11  C   UNL     1      98.296  86.019  78.939  1.00  0.00    -0.027 C 
ATOM     12  C   UNL     1      96.387  83.225  78.501  1.00  0.00     0.008 C 
ATOM     13  C   UNL     1      93.989  84.944  76.312  1.00  0.00     0.008 C 
ATOM     14  C   UNL     1      96.596  88.698  79.931  1.00  0.00     0.017 C 
ATOM     15  C   UNL     1      98.653  87.715  81.288  1.00  0.00    -0.020 C 
ATOM     16  C   UNL     1      99.676  86.518  79.274  1.00  0.00     0.032 C 
ATOM     17  C   UNL     1      99.668  87.833  80.082  1.00  0.00     0.006 C 
ATOM     18  C   UNL     1      98.698  89.025  82.138  1.00  0.00     0.008 C 
ATOM     19  C   UNL     1      99.060  86.528  82.220  1.00  0.00     0.012 C 
ATOM     20  C   UNL     1     101.121  88.451  80.354  1.00  0.00    -0.025 C 
ATOM     21  C   UNL     1     100.117  89.469  82.505  1.00  0.00     0.005 C 
ATOM     22  C   UNL     1     100.942  89.751  81.223  1.00  0.00     0.003 C 
ATOM     23  C   UNL     1     101.757  88.848  78.961  1.00  0.00     0.010 C 
ATOM     24  C   UNL     1     102.098  87.439  81.039  1.00  0.00     0.012 C 
ATOM     25  C   UNL     1     102.249  90.626  81.459  1.00  0.00    -0.006 C 
ATOM     26  C   UNL     1     102.494  90.201  78.928  1.00  0.00     0.033 C 
ATOM     27  C   UNL     1     103.235  90.492  80.242  1.00  0.00     0.120 C 
ATOM     28  C   UNL     1     101.818  92.112  81.626  1.00  0.00     0.014 C 
ATOM     29  C   UNL     1     103.008  90.230  82.751  1.00  0.00     0.014 C 
ENDROOT
BRANCH   1  30
ATOM     30  C   UNL     1      95.682  84.220  81.472  1.00  0.00     0.048 C 
ATOM     31  O   UNL     1      96.906  83.951  81.356  1.00  0.00    -0.550 OA
ATOM     32  O   UNL     1      94.962  83.613  82.496  1.00  0.00    -0.550 OA
ENDBRANCH   1  30
BRANCH  27  33
ATOM     33  O   UNL     1     104.081  91.614  80.113  1.00  0.00    -0.393 OA
ATOM     34  H   UNL     1     105.023  91.300  80.112  1.00  0.00     0.210 HD
ENDBRANCH  27  33
TORSDOF 2
ENDMDL
