MODEL 1
REMARK VINA RESULT:    -4.619      0.000      0.000
REMARK INTER + INTRA:          -8.787
REMARK INTER:                  -7.319
REMARK INTRA:                  -1.468
REMARK UNBOUND:                -1.468
REMARK SMILES CCCCCCCCCCCC(=O)[O-]
REMARK SMILES IDX 7 1 8 2 9 3 10 4 11 5 12 6 13 7 14 8 6 9 5 10 4 11 3 12 2 13
REMARK SMILES IDX 1 14
REMARK H PARENT
REMARK Flexibility Score: inf
ROOT
ATOM      1  C   UNL     1      -8.354  -3.117  14.298  1.00  0.00     0.000 C 
ENDROOT
BRANCH   1   2
ATOM      2  C   UNL     1      -8.910  -3.669  12.975  1.00  0.00     0.000 C 
BRANCH   2   3
ATOM      3  C   UNL     1      -8.184  -4.947  12.520  1.00  0.00     0.000 C 
BRANCH   3   4
ATOM      4  C   UNL     1      -9.143  -5.990  11.924  1.00  0.00     0.006 C 
BRANCH   4   5
ATOM      5  C   UNL     1     -10.592  -5.492  11.858  1.00  0.00     0.053 C 
BRANCH   5   6
ATOM      6  C   UNL     1     -11.063  -5.443  10.438  1.00  0.00     0.041 C 
ATOM      7  O   UNL     1     -10.251  -5.625   9.494  1.00  0.00    -0.550 OA
ATOM      8  O   UNL     1     -12.410  -5.247  10.160  1.00  0.00    -0.550 OA
ENDBRANCH   5   6
ENDBRANCH   4   5
ENDBRANCH   3   4
ENDBRANCH   2   3
ENDBRANCH   1   2
BRANCH   1   9
ATOM      9  C   UNL     1      -7.882  -4.230  15.251  1.00  0.00     0.000 C 
BRANCH   9  10
ATOM     10  C   UNL     1      -8.983  -4.656  16.247  1.00  0.00    -0.000 C 
BRANCH  10  11
ATOM     11  C   UNL     1      -9.709  -5.955  15.850  1.00  0.00    -0.000 C 
BRANCH  11  12
ATOM     12  C   UNL     1     -11.228  -5.813  15.634  1.00  0.00    -0.000 C 
BRANCH  12  13
ATOM     13  C   UNL     1     -11.701  -4.387  15.298  1.00  0.00    -0.003 C 
ATOM     14  C   UNL     1     -12.551  -3.764  16.406  1.00  0.00     0.004 C 
ENDBRANCH  12  13
ENDBRANCH  11  12
ENDBRANCH  10  11
ENDBRANCH   9  10
ENDBRANCH   1   9
TORSDOF 10
ENDMDL
MODEL 2
REMARK VINA RESULT:    -4.608      3.543      5.916
REMARK INTER + INTRA:          -8.769
REMARK INTER:                  -7.931
REMARK INTRA:                  -0.838
REMARK UNBOUND:                -1.468
REMARK SMILES CCCCCCCCCCCC(=O)[O-]
REMARK SMILES IDX 7 1 8 2 9 3 10 4 11 5 12 6 13 7 14 8 6 9 5 10 4 11 3 12 2 13
REMARK SMILES IDX 1 14
REMARK H PARENT
REMARK Flexibility Score: inf
ROOT
ATOM      1  C   UNL     1     -11.238  -7.228  15.140  1.00  0.00     0.000 C 
ENDROOT
BRANCH   1   2
ATOM      2  C   UNL     1     -10.796  -5.839  15.630  1.00  0.00     0.000 C 
BRANCH   2   3
ATOM      3  C   UNL     1     -11.984  -4.881  15.828  1.00  0.00     0.000 C 
BRANCH   3   4
ATOM      4  C   UNL     1     -11.554  -3.406  15.857  1.00  0.00     0.006 C 
BRANCH   4   5
ATOM      5  C   UNL     1     -11.252  -2.906  17.276  1.00  0.00     0.053 C 
BRANCH   5   6
ATOM      6  C   UNL     1      -9.776  -2.749  17.470  1.00  0.00     0.041 C 
ATOM      7  O   UNL     1      -9.294  -2.662  18.630  1.00  0.00    -0.550 OA
ATOM      8  O   UNL     1      -8.927  -2.750  16.371  1.00  0.00    -0.550 OA
ENDBRANCH   5   6
ENDBRANCH   4   5
ENDBRANCH   3   4
ENDBRANCH   2   3
ENDBRANCH   1   2
BRANCH   1   9
ATOM      9  C   UNL     1     -10.880  -7.477  13.663  1.00  0.00     0.000 C 
BRANCH   9  10
ATOM     10  C   UNL     1     -10.027  -6.337  13.065  1.00  0.00    -0.000 C 
BRANCH  10  11
ATOM     11  C   UNL     1     -10.631  -5.714  11.792  1.00  0.00    -0.000 C 
BRANCH  11  12
ATOM     12  C   UNL     1     -12.167  -5.598  11.789  1.00  0.00    -0.000 C 
BRANCH  12  13
ATOM     13  C   UNL     1     -12.779  -5.178  10.440  1.00  0.00    -0.003 C 
ATOM     14  C   UNL     1     -12.155  -5.906   9.250  1.00  0.00     0.004 C 
ENDBRANCH  12  13
ENDBRANCH  11  12
ENDBRANCH  10  11
ENDBRANCH   9  10
ENDBRANCH   1   9
TORSDOF 10
ENDMDL
MODEL 3
REMARK VINA RESULT:    -4.600      3.495      5.821
REMARK INTER + INTRA:          -8.757
REMARK INTER:                  -7.509
REMARK INTRA:                  -1.248
REMARK UNBOUND:                -1.468
REMARK SMILES CCCCCCCCCCCC(=O)[O-]
REMARK SMILES IDX 7 1 8 2 9 3 10 4 11 5 12 6 13 7 14 8 6 9 5 10 4 11 3 12 2 13
REMARK SMILES IDX 1 14
REMARK H PARENT
REMARK Flexibility Score: inf
ROOT
ATOM      1  C   UNL     1     -11.267  -6.704  14.064  1.00  0.00     0.000 C 
ENDROOT
BRANCH   1   2
ATOM      2  C   UNL     1     -11.403  -6.078  15.462  1.00  0.00     0.000 C 
BRANCH   2   3
ATOM      3  C   UNL     1     -11.836  -4.602  15.405  1.00  0.00     0.000 C 
BRANCH   3   4
ATOM      4  C   UNL     1     -10.641  -3.639  15.330  1.00  0.00     0.006 C 
BRANCH   4   5
ATOM      5  C   UNL     1      -9.439  -4.123  16.151  1.00  0.00     0.053 C 
BRANCH   5   6
ATOM      6  C   UNL     1      -9.134  -3.153  17.249  1.00  0.00     0.041 C 
ATOM      7  O   UNL     1      -7.967  -3.067  17.713  1.00  0.00    -0.550 OA
ATOM      8  O   UNL     1     -10.128  -2.308  17.726  1.00  0.00    -0.550 OA
ENDBRANCH   5   6
ENDBRANCH   4   5
ENDBRANCH   3   4
ENDBRANCH   2   3
ENDBRANCH   1   2
BRANCH   1   9
ATOM      9  C   UNL     1     -12.532  -6.518  13.207  1.00  0.00     0.000 C 
BRANCH   9  10
ATOM     10  C   UNL     1     -12.231  -5.838  11.854  1.00  0.00    -0.000 C 
BRANCH  10  11
ATOM     11  C   UNL     1     -10.888  -5.083  11.826  1.00  0.00    -0.000 C 
BRANCH  11  12
ATOM     12  C   UNL     1      -9.799  -5.725  10.946  1.00  0.00    -0.000 C 
BRANCH  12  13
ATOM     13  C   UNL     1      -8.478  -6.033  11.675  1.00  0.00    -0.003 C 
ATOM     14  C   UNL     1      -8.079  -4.945  12.671  1.00  0.00     0.004 C 
ENDBRANCH  12  13
ENDBRANCH  11  12
ENDBRANCH  10  11
ENDBRANCH   9  10
ENDBRANCH   1   9
TORSDOF 10
ENDMDL
MODEL 4
REMARK VINA RESULT:    -4.585      2.530      5.072
REMARK INTER + INTRA:          -8.733
REMARK INTER:                  -7.548
REMARK INTRA:                  -1.185
REMARK UNBOUND:                -1.468
REMARK SMILES CCCCCCCCCCCC(=O)[O-]
REMARK SMILES IDX 7 1 8 2 9 3 10 4 11 5 12 6 13 7 14 8 6 9 5 10 4 11 3 12 2 13
REMARK SMILES IDX 1 14
REMARK H PARENT
REMARK Flexibility Score: inf
ROOT
ATOM      1  C   UNL     1     -10.260  -6.709  14.908  1.00  0.00     0.000 C 
ENDROOT
BRANCH   1   2
ATOM      2  C   UNL     1      -9.555  -5.343  14.946  1.00  0.00     0.000 C 
BRANCH   2   3
ATOM      3  C   UNL     1     -10.220  -4.367  15.934  1.00  0.00     0.000 C 
BRANCH   3   4
ATOM      4  C   UNL     1     -11.169  -3.378  15.238  1.00  0.00     0.006 C 
BRANCH   4   5
ATOM      5  C   UNL     1     -12.614  -3.492  15.740  1.00  0.00     0.053 C 
BRANCH   5   6
ATOM      6  C   UNL     1     -13.572  -3.080  14.667  1.00  0.00     0.041 C 
ATOM      7  O   UNL     1     -14.813  -3.107  14.880  1.00  0.00    -0.550 OA
ATOM      8  O   UNL     1     -13.093  -2.616  13.448  1.00  0.00    -0.550 OA
ENDBRANCH   5   6
ENDBRANCH   4   5
ENDBRANCH   3   4
ENDBRANCH   2   3
ENDBRANCH   1   2
BRANCH   1   9
ATOM      9  C   UNL     1     -10.784  -7.066  13.505  1.00  0.00     0.000 C 
BRANCH   9  10
ATOM     10  C   UNL     1     -12.233  -6.582  13.279  1.00  0.00    -0.000 C 
BRANCH  10  11
ATOM     11  C   UNL     1     -12.413  -5.742  12.000  1.00  0.00    -0.000 C 
BRANCH  11  12
ATOM     12  C   UNL     1     -11.108  -5.202  11.386  1.00  0.00    -0.000 C 
BRANCH  12  13
ATOM     13  C   UNL     1     -10.936  -5.483   9.883  1.00  0.00    -0.003 C 
ATOM     14  C   UNL     1     -12.246  -5.866   9.194  1.00  0.00     0.004 C 
ENDBRANCH  12  13
ENDBRANCH  11  12
ENDBRANCH  10  11
ENDBRANCH   9  10
ENDBRANCH   1   9
TORSDOF 10
ENDMDL
MODEL 5
REMARK VINA RESULT:    -4.580      1.674      2.839
REMARK INTER + INTRA:          -8.726
REMARK INTER:                  -7.421
REMARK INTRA:                  -1.305
REMARK UNBOUND:                -1.468
REMARK SMILES CCCCCCCCCCCC(=O)[O-]
REMARK SMILES IDX 7 1 8 2 9 3 10 4 11 5 12 6 13 7 14 8 6 9 5 10 4 11 3 12 2 13
REMARK SMILES IDX 1 14
REMARK H PARENT
REMARK Flexibility Score: inf
ROOT
ATOM      1  C   UNL     1     -11.066  -6.943  15.227  1.00  0.00     0.000 C 
ENDROOT
BRANCH   1   2
ATOM      2  C   UNL     1     -10.986  -7.078  13.697  1.00  0.00     0.000 C 
BRANCH   2   3
ATOM      3  C   UNL     1     -12.249  -6.549  12.994  1.00  0.00     0.000 C 
BRANCH   3   4
ATOM      4  C   UNL     1     -12.157  -5.050  12.665  1.00  0.00     0.006 C 
BRANCH   4   5
ATOM      5  C   UNL     1     -12.863  -4.689  11.352  1.00  0.00     0.053 C 
BRANCH   5   6
ATOM      6  C   UNL     1     -12.219  -5.398  10.202  1.00  0.00     0.041 C 
ATOM      7  O   UNL     1     -12.922  -6.042   9.380  1.00  0.00    -0.550 OA
ATOM      8  O   UNL     1     -10.846  -5.303  10.009  1.00  0.00    -0.550 OA
ENDBRANCH   5   6
ENDBRANCH   4   5
ENDBRANCH   3   4
ENDBRANCH   2   3
ENDBRANCH   1   2
BRANCH   1   9
ATOM      9  C   UNL     1      -9.768  -6.390  15.842  1.00  0.00     0.000 C 
BRANCH   9  10
ATOM     10  C   UNL     1      -9.165  -5.240  15.005  1.00  0.00    -0.000 C 
BRANCH  10  11
ATOM     11  C   UNL     1      -9.189  -3.876  15.720  1.00  0.00    -0.000 C 
BRANCH  11  12
ATOM     12  C   UNL     1     -10.501  -3.083  15.567  1.00  0.00    -0.000 C 
BRANCH  12  13
ATOM     13  C   UNL     1     -11.517  -3.290  16.704  1.00  0.00    -0.003 C 
ATOM     14  C   UNL     1     -12.881  -3.767  16.205  1.00  0.00     0.004 C 
ENDBRANCH  12  13
ENDBRANCH  11  12
ENDBRANCH  10  11
ENDBRANCH   9  10
ENDBRANCH   1   9
TORSDOF 10
ENDMDL
MODEL 6
REMARK VINA RESULT:    -4.572      3.011      4.794
REMARK INTER + INTRA:          -8.713
REMARK INTER:                  -6.986
REMARK INTRA:                  -1.727
REMARK UNBOUND:                -1.468
REMARK SMILES CCCCCCCCCCCC(=O)[O-]
REMARK SMILES IDX 7 1 8 2 9 3 10 4 11 5 12 6 13 7 14 8 6 9 5 10 4 11 3 12 2 13
REMARK SMILES IDX 1 14
REMARK H PARENT
REMARK Flexibility Score: inf
ROOT
ATOM      1  C   UNL     1     -12.528  -3.347  15.994  1.00  0.00     0.000 C 
ENDROOT
BRANCH   1   2
ATOM      2  C   UNL     1     -11.807  -4.698  15.864  1.00  0.00     0.000 C 
BRANCH   2   3
ATOM      3  C   UNL     1     -10.424  -4.564  15.201  1.00  0.00     0.000 C 
BRANCH   3   4
ATOM      4  C   UNL     1     -10.081  -3.110  14.840  1.00  0.00     0.006 C 
BRANCH   4   5
ATOM      5  C   UNL     1      -9.813  -2.920  13.342  1.00  0.00     0.053 C 
BRANCH   5   6
ATOM      6  C   UNL     1      -9.671  -1.466  13.018  1.00  0.00     0.041 C 
ATOM      7  O   UNL     1      -8.561  -0.890  13.158  1.00  0.00    -0.550 OA
ATOM      8  O   UNL     1     -10.754  -0.759  12.511  1.00  0.00    -0.550 OA
ENDBRANCH   5   6
ENDBRANCH   4   5
ENDBRANCH   3   4
ENDBRANCH   2   3
ENDBRANCH   1   2
BRANCH   1   9
ATOM      9  C   UNL     1     -13.821  -3.283  15.161  1.00  0.00     0.000 C 
BRANCH   9  10
ATOM     10  C   UNL     1     -13.716  -2.285  13.988  1.00  0.00    -0.000 C 
BRANCH  10  11
ATOM     11  C   UNL     1     -13.494  -2.957  12.620  1.00  0.00    -0.000 C 
BRANCH  11  12
ATOM     12  C   UNL     1     -13.766  -4.473  12.587  1.00  0.00    -0.000 C 
BRANCH  12  13
ATOM     13  C   UNL     1     -12.554  -5.338  12.195  1.00  0.00    -0.003 C 
ATOM     14  C   UNL     1     -12.526  -6.687  12.915  1.00  0.00     0.004 C 
ENDBRANCH  12  13
ENDBRANCH  11  12
ENDBRANCH  10  11
ENDBRANCH   9  10
ENDBRANCH   1   9
TORSDOF 10
ENDMDL
MODEL 7
REMARK VINA RESULT:    -4.517      2.402      4.232
REMARK INTER + INTRA:          -8.625
REMARK INTER:                  -7.509
REMARK INTRA:                  -1.116
REMARK UNBOUND:                -1.468
REMARK SMILES CCCCCCCCCCCC(=O)[O-]
REMARK SMILES IDX 7 1 8 2 9 3 10 4 11 5 12 6 13 7 14 8 6 9 5 10 4 11 3 12 2 13
REMARK SMILES IDX 1 14
REMARK H PARENT
REMARK Flexibility Score: inf
ROOT
ATOM      1  C   UNL     1     -10.168  -3.202  16.095  1.00  0.00     0.000 C 
ENDROOT
BRANCH   1   2
ATOM      2  C   UNL     1     -11.403  -3.179  17.009  1.00  0.00     0.000 C 
BRANCH   2   3
ATOM      3  C   UNL     1     -12.689  -3.589  16.269  1.00  0.00     0.000 C 
BRANCH   3   4
ATOM      4  C   UNL     1     -12.557  -3.463  14.743  1.00  0.00     0.006 C 
BRANCH   4   5
ATOM      5  C   UNL     1     -13.633  -2.558  14.129  1.00  0.00     0.053 C 
BRANCH   5   6
ATOM      6  C   UNL     1     -13.057  -1.745  13.013  1.00  0.00     0.041 C 
ATOM      7  O   UNL     1     -11.830  -1.462  13.002  1.00  0.00    -0.550 OA
ATOM      8  O   UNL     1     -13.866  -1.343  11.957  1.00  0.00    -0.550 OA
ENDBRANCH   5   6
ENDBRANCH   4   5
ENDBRANCH   3   4
ENDBRANCH   2   3
ENDBRANCH   1   2
BRANCH   1   9
ATOM      9  C   UNL     1      -9.083  -4.177  16.589  1.00  0.00     0.000 C 
BRANCH   9  10
ATOM     10  C   UNL     1      -8.819  -5.319  15.584  1.00  0.00    -0.000 C 
BRANCH  10  11
ATOM     11  C   UNL     1     -10.063  -6.174  15.276  1.00  0.00    -0.000 C 
BRANCH  11  12
ATOM     12  C   UNL     1     -10.242  -6.554  13.794  1.00  0.00    -0.000 C 
BRANCH  12  13
ATOM     13  C   UNL     1      -9.947  -5.419  12.797  1.00  0.00    -0.003 C 
ATOM     14  C   UNL     1      -9.175  -5.893  11.565  1.00  0.00     0.004 C 
ENDBRANCH  12  13
ENDBRANCH  11  12
ENDBRANCH  10  11
ENDBRANCH   9  10
ENDBRANCH   1   9
TORSDOF 10
ENDMDL
MODEL 8
REMARK VINA RESULT:    -4.491      1.507      2.404
REMARK INTER + INTRA:          -8.585
REMARK INTER:                  -7.476
REMARK INTRA:                  -1.108
REMARK UNBOUND:                -1.468
REMARK SMILES CCCCCCCCCCCC(=O)[O-]
REMARK SMILES IDX 7 1 8 2 9 3 10 4 11 5 12 6 13 7 14 8 6 9 5 10 4 11 3 12 2 13
REMARK SMILES IDX 1 14
REMARK H PARENT
REMARK Flexibility Score: inf
ROOT
ATOM      1  C   UNL     1     -10.565  -6.555  15.592  1.00  0.00     0.000 C 
ENDROOT
BRANCH   1   2
ATOM      2  C   UNL     1     -10.589  -7.330  14.265  1.00  0.00     0.000 C 
BRANCH   2   3
ATOM      3  C   UNL     1     -11.340  -6.572  13.156  1.00  0.00     0.000 C 
BRANCH   3   4
ATOM      4  C   UNL     1     -10.500  -5.440  12.542  1.00  0.00     0.006 C 
BRANCH   4   5
ATOM      5  C   UNL     1     -10.242  -5.642  11.043  1.00  0.00     0.053 C 
BRANCH   5   6
ATOM      6  C   UNL     1     -11.438  -5.225  10.247  1.00  0.00     0.041 C 
ATOM      7  O   UNL     1     -11.651  -5.726   9.112  1.00  0.00    -0.550 OA
ATOM      8  O   UNL     1     -12.346  -4.319  10.781  1.00  0.00    -0.550 OA
ENDBRANCH   5   6
ENDBRANCH   4   5
ENDBRANCH   3   4
ENDBRANCH   2   3
ENDBRANCH   1   2
BRANCH   1   9
ATOM      9  C   UNL     1      -9.175  -5.976  15.915  1.00  0.00     0.000 C 
BRANCH   9  10
ATOM     10  C   UNL     1      -9.248  -4.519  16.420  1.00  0.00    -0.000 C 
BRANCH  10  11
ATOM     11  C   UNL     1     -10.386  -3.699  15.782  1.00  0.00    -0.000 C 
BRANCH  11  12
ATOM     12  C   UNL     1     -11.551  -3.355  16.729  1.00  0.00    -0.000 C 
BRANCH  12  13
ATOM     13  C   UNL     1     -12.952  -3.513  16.113  1.00  0.00    -0.003 C 
ATOM     14  C   UNL     1     -12.934  -3.520  14.584  1.00  0.00     0.004 C 
ENDBRANCH  12  13
ENDBRANCH  11  12
ENDBRANCH  10  11
ENDBRANCH   9  10
ENDBRANCH   1   9
TORSDOF 10
ENDMDL
MODEL 9
REMARK VINA RESULT:    -4.467      2.630      3.717
REMARK INTER + INTRA:          -8.546
REMARK INTER:                  -7.146
REMARK INTRA:                  -1.400
REMARK UNBOUND:                -1.468
REMARK SMILES CCCCCCCCCCCC(=O)[O-]
REMARK SMILES IDX 7 1 8 2 9 3 10 4 11 5 12 6 13 7 14 8 6 9 5 10 4 11 3 12 2 13
REMARK SMILES IDX 1 14
REMARK H PARENT
REMARK Flexibility Score: inf
ROOT
ATOM      1  C   UNL     1     -10.154  -6.322  13.036  1.00  0.00     0.000 C 
ENDROOT
BRANCH   1   2
ATOM      2  C   UNL     1     -11.133  -5.626  12.077  1.00  0.00     0.000 C 
BRANCH   2   3
ATOM      3  C   UNL     1     -12.586  -5.674  12.585  1.00  0.00     0.000 C 
BRANCH   3   4
ATOM      4  C   UNL     1     -13.304  -4.322  12.446  1.00  0.00     0.006 C 
BRANCH   4   5
ATOM      5  C   UNL     1     -12.334  -3.159  12.201  1.00  0.00     0.053 C 
BRANCH   5   6
ATOM      6  C   UNL     1     -12.971  -1.860  12.581  1.00  0.00     0.041 C 
ATOM      7  O   UNL     1     -13.639  -1.768  13.644  1.00  0.00    -0.550 OA
ATOM      8  O   UNL     1     -12.783  -0.736  11.787  1.00  0.00    -0.550 OA
ENDBRANCH   5   6
ENDBRANCH   4   5
ENDBRANCH   3   4
ENDBRANCH   2   3
ENDBRANCH   1   2
BRANCH   1   9
ATOM      9  C   UNL     1     -10.869  -7.211  14.070  1.00  0.00     0.000 C 
BRANCH   9  10
ATOM     10  C   UNL     1     -10.642  -6.725  15.518  1.00  0.00    -0.000 C 
BRANCH  10  11
ATOM     11  C   UNL     1      -9.499  -5.702  15.657  1.00  0.00    -0.000 C 
BRANCH  11  12
ATOM     12  C   UNL     1      -9.915  -4.335  16.234  1.00  0.00    -0.000 C 
BRANCH  12  13
ATOM     13  C   UNL     1     -11.127  -3.685  15.543  1.00  0.00    -0.003 C 
ATOM     14  C   UNL     1     -12.371  -3.648  16.431  1.00  0.00     0.004 C 
ENDBRANCH  12  13
ENDBRANCH  11  12
ENDBRANCH  10  11
ENDBRANCH   9  10
ENDBRANCH   1   9
TORSDOF 10
ENDMDL
