MODEL 1
REMARK VINA RESULT:    -4.610      0.000      0.000
REMARK INTER + INTRA:          -9.465
REMARK INTER:                  -7.844
REMARK INTRA:                  -1.621
REMARK UNBOUND:                -1.621
REMARK SMILES CCCCCCCCCCCCCC(=O)[O-]
REMARK SMILES IDX 8 1 9 2 10 3 11 4 12 5 13 6 14 7 15 8 16 9 7 10 6 11 5 12
REMARK SMILES IDX 4 13 3 14 2 15 1 16
REMARK H PARENT
REMARK Flexibility Score: inf
ROOT
ATOM      1  C   UNL     1      15.155 -17.066  39.612  1.00  0.00     0.000 C 
ENDROOT
BRANCH   1   2
ATOM      2  C   UNL     1      14.505 -15.675  39.710  1.00  0.00     0.000 C 
BRANCH   2   3
ATOM      3  C   UNL     1      15.537 -14.553  39.906  1.00  0.00     0.000 C 
BRANCH   3   4
ATOM      4  C   UNL     1      15.392 -13.430  38.868  1.00  0.00     0.000 C 
BRANCH   4   5
ATOM      5  C   UNL     1      14.176 -13.673  37.962  1.00  0.00     0.006 C 
BRANCH   5   6
ATOM      6  C   UNL     1      13.045 -12.668  38.225  1.00  0.00     0.053 C 
BRANCH   6   7
ATOM      7  C   UNL     1      11.744 -13.355  38.504  1.00  0.00     0.041 C 
ATOM      8  O   UNL     1      10.944 -12.876  39.351  1.00  0.00    -0.550 OA
ATOM      9  O   UNL     1      11.430 -14.541  37.854  1.00  0.00    -0.550 OA
ENDBRANCH   6   7
ENDBRANCH   5   6
ENDBRANCH   4   5
ENDBRANCH   3   4
ENDBRANCH   2   3
ENDBRANCH   1   2
BRANCH   1  10
ATOM     10  C   UNL     1      15.302 -17.552  38.161  1.00  0.00     0.000 C 
BRANCH  10  11
ATOM     11  C   UNL     1      16.761 -17.520  37.674  1.00  0.00    -0.000 C 
BRANCH  11  12
ATOM     12  C   UNL     1      17.145 -16.181  37.017  1.00  0.00    -0.000 C 
BRANCH  12  13
ATOM     13  C   UNL     1      16.277 -15.771  35.812  1.00  0.00    -0.000 C 
BRANCH  13  14
ATOM     14  C   UNL     1      16.584 -14.379  35.228  1.00  0.00    -0.000 C 
BRANCH  14  15
ATOM     15  C   UNL     1      17.946 -13.804  35.670  1.00  0.00    -0.003 C 
ATOM     16  C   UNL     1      18.809 -13.355  34.492  1.00  0.00     0.004 C 
ENDBRANCH  14  15
ENDBRANCH  13  14
ENDBRANCH  12  13
ENDBRANCH  11  12
ENDBRANCH  10  11
ENDBRANCH   1  10
TORSDOF 12
ENDMDL
MODEL 2
REMARK VINA RESULT:    -4.575     10.791     12.853
REMARK INTER + INTRA:          -9.405
REMARK INTER:                  -7.826
REMARK INTRA:                  -1.579
REMARK UNBOUND:                -1.621
REMARK SMILES CCCCCCCCCCCCCC(=O)[O-]
REMARK SMILES IDX 8 1 9 2 10 3 11 4 12 5 13 6 14 7 15 8 16 9 7 10 6 11 5 12
REMARK SMILES IDX 4 13 3 14 2 15 1 16
REMARK H PARENT
REMARK Flexibility Score: inf
ROOT
ATOM      1  C   UNL     1      22.289 -25.886  34.006  1.00  0.00     0.000 C 
ENDROOT
BRANCH   1   2
ATOM      2  C   UNL     1      21.785 -24.974  32.873  1.00  0.00     0.000 C 
BRANCH   2   3
ATOM      3  C   UNL     1      20.252 -24.914  32.800  1.00  0.00     0.000 C 
BRANCH   3   4
ATOM      4  C   UNL     1      19.697 -23.531  33.169  1.00  0.00     0.000 C 
BRANCH   4   5
ATOM      5  C   UNL     1      20.821 -22.486  33.230  1.00  0.00     0.006 C 
BRANCH   5   6
ATOM      6  C   UNL     1      20.289 -21.051  33.109  1.00  0.00     0.053 C 
BRANCH   6   7
ATOM      7  C   UNL     1      20.702 -20.411  31.820  1.00  0.00     0.041 C 
ATOM      8  O   UNL     1      21.920 -20.210  31.574  1.00  0.00    -0.550 OA
ATOM      9  O   UNL     1      19.739 -20.004  30.905  1.00  0.00    -0.550 OA
ENDBRANCH   6   7
ENDBRANCH   5   6
ENDBRANCH   4   5
ENDBRANCH   3   4
ENDBRANCH   2   3
ENDBRANCH   1   2
BRANCH   1  10
ATOM     10  C   UNL     1      23.750 -26.322  33.813  1.00  0.00     0.000 C 
BRANCH  10  11
ATOM     11  C   UNL     1      24.185 -26.286  32.338  1.00  0.00    -0.000 C 
BRANCH  11  12
ATOM     12  C   UNL     1      25.665 -25.896  32.159  1.00  0.00    -0.000 C 
BRANCH  12  13
ATOM     13  C   UNL     1      25.997 -24.425  32.473  1.00  0.00    -0.000 C 
BRANCH  13  14
ATOM     14  C   UNL     1      25.321 -23.390  31.555  1.00  0.00    -0.000 C 
BRANCH  14  15
ATOM     15  C   UNL     1      24.405 -22.398  32.303  1.00  0.00    -0.003 C 
ATOM     16  C   UNL     1      24.432 -22.596  33.818  1.00  0.00     0.004 C 
ENDBRANCH  14  15
ENDBRANCH  13  14
ENDBRANCH  12  13
ENDBRANCH  11  12
ENDBRANCH  10  11
ENDBRANCH   1  10
TORSDOF 12
ENDMDL
MODEL 3
REMARK VINA RESULT:    -4.545      2.895      4.848
REMARK INTER + INTRA:          -9.355
REMARK INTER:                  -7.485
REMARK INTRA:                  -1.870
REMARK UNBOUND:                -1.621
REMARK SMILES CCCCCCCCCCCCCC(=O)[O-]
REMARK SMILES IDX 8 1 9 2 10 3 11 4 12 5 13 6 14 7 15 8 16 9 7 10 6 11 5 12
REMARK SMILES IDX 4 13 3 14 2 15 1 16
REMARK H PARENT
REMARK Flexibility Score: inf
ROOT
ATOM      1  C   UNL     1      15.944 -14.008  39.181  1.00  0.00     0.000 C 
ENDROOT
BRANCH   1   2
ATOM      2  C   UNL     1      15.138 -15.065  39.957  1.00  0.00     0.000 C 
BRANCH   2   3
ATOM      3  C   UNL     1      13.847 -15.472  39.232  1.00  0.00     0.000 C 
BRANCH   3   4
ATOM      4  C   UNL     1      13.605 -16.988  39.263  1.00  0.00     0.000 C 
BRANCH   4   5
ATOM      5  C   UNL     1      14.770 -17.716  39.950  1.00  0.00     0.006 C 
BRANCH   5   6
ATOM      6  C   UNL     1      14.981 -19.131  39.392  1.00  0.00     0.053 C 
BRANCH   6   7
ATOM      7  C   UNL     1      14.319 -20.170  40.243  1.00  0.00     0.041 C 
ATOM      8  O   UNL     1      14.656 -21.379  40.143  1.00  0.00    -0.550 OA
ATOM      9  O   UNL     1      13.308 -19.808  41.123  1.00  0.00    -0.550 OA
ENDBRANCH   6   7
ENDBRANCH   5   6
ENDBRANCH   4   5
ENDBRANCH   3   4
ENDBRANCH   2   3
ENDBRANCH   1   2
BRANCH   1  10
ATOM     10  C   UNL     1      15.058 -13.119  38.293  1.00  0.00     0.000 C 
BRANCH  10  11
ATOM     11  C   UNL     1      15.599 -12.994  36.859  1.00  0.00    -0.000 C 
BRANCH  11  12
ATOM     12  C   UNL     1      17.019 -13.570  36.702  1.00  0.00    -0.000 C 
BRANCH  12  13
ATOM     13  C   UNL     1      17.125 -14.812  35.795  1.00  0.00    -0.000 C 
BRANCH  13  14
ATOM     14  C   UNL     1      15.831 -15.637  35.661  1.00  0.00    -0.000 C 
BRANCH  14  15
ATOM     15  C   UNL     1      15.870 -16.983  36.415  1.00  0.00    -0.003 C 
ATOM     16  C   UNL     1      17.191 -17.211  37.150  1.00  0.00     0.004 C 
ENDBRANCH  14  15
ENDBRANCH  13  14
ENDBRANCH  12  13
ENDBRANCH  11  12
ENDBRANCH  10  11
ENDBRANCH   1  10
TORSDOF 12
ENDMDL
MODEL 4
REMARK VINA RESULT:    -4.545     11.685     14.142
REMARK INTER + INTRA:          -9.354
REMARK INTER:                  -8.011
REMARK INTRA:                  -1.343
REMARK UNBOUND:                -1.621
REMARK SMILES CCCCCCCCCCCCCC(=O)[O-]
REMARK SMILES IDX 8 1 9 2 10 3 11 4 12 5 13 6 14 7 15 8 16 9 7 10 6 11 5 12
REMARK SMILES IDX 4 13 3 14 2 15 1 16
REMARK H PARENT
REMARK Flexibility Score: inf
ROOT
ATOM      1  C   UNL     1      20.922 -21.422  33.242  1.00  0.00     0.000 C 
ENDROOT
BRANCH   1   2
ATOM      2  C   UNL     1      21.655 -20.788  32.046  1.00  0.00     0.000 C 
BRANCH   2   3
ATOM      3  C   UNL     1      23.180 -20.947  32.136  1.00  0.00     0.000 C 
BRANCH   3   4
ATOM      4  C   UNL     1      23.605 -21.994  33.176  1.00  0.00     0.000 C 
BRANCH   4   5
ATOM      5  C   UNL     1      24.757 -22.859  32.645  1.00  0.00     0.006 C 
BRANCH   5   6
ATOM      6  C   UNL     1      24.676 -23.067  31.126  1.00  0.00     0.053 C 
BRANCH   6   7
ATOM      7  C   UNL     1      25.979 -23.541  30.559  1.00  0.00     0.041 C 
ATOM      8  O   UNL     1      26.522 -24.585  31.006  1.00  0.00    -0.550 OA
ATOM      9  O   UNL     1      26.609 -22.810  29.560  1.00  0.00    -0.550 OA
ENDBRANCH   6   7
ENDBRANCH   5   6
ENDBRANCH   4   5
ENDBRANCH   3   4
ENDBRANCH   2   3
ENDBRANCH   1   2
BRANCH   1  10
ATOM     10  C   UNL     1      19.747 -22.316  32.813  1.00  0.00     0.000 C 
BRANCH  10  11
ATOM     11  C   UNL     1      19.722 -23.657  33.565  1.00  0.00    -0.000 C 
BRANCH  11  12
ATOM     12  C   UNL     1      20.358 -24.807  32.761  1.00  0.00    -0.000 C 
BRANCH  12  13
ATOM     13  C   UNL     1      21.880 -24.968  32.939  1.00  0.00    -0.000 C 
BRANCH  13  14
ATOM     14  C   UNL     1      22.310 -25.916  34.074  1.00  0.00    -0.000 C 
BRANCH  14  15
ATOM     15  C   UNL     1      23.547 -26.773  33.734  1.00  0.00    -0.003 C 
ATOM     16  C   UNL     1      24.840 -26.199  34.314  1.00  0.00     0.004 C 
ENDBRANCH  14  15
ENDBRANCH  13  14
ENDBRANCH  12  13
ENDBRANCH  11  12
ENDBRANCH  10  11
ENDBRANCH   1  10
TORSDOF 12
ENDMDL
MODEL 5
REMARK VINA RESULT:    -4.520      2.496      5.095
REMARK INTER + INTRA:          -9.311
REMARK INTER:                  -7.348
REMARK INTRA:                  -1.963
REMARK UNBOUND:                -1.621
REMARK SMILES CCCCCCCCCCCCCC(=O)[O-]
REMARK SMILES IDX 8 1 9 2 10 3 11 4 12 5 13 6 14 7 15 8 16 9 7 10 6 11 5 12
REMARK SMILES IDX 4 13 3 14 2 15 1 16
REMARK H PARENT
REMARK Flexibility Score: inf
ROOT
ATOM      1  C   UNL     1      15.122 -16.394  39.680  1.00  0.00     0.000 C 
ENDROOT
BRANCH   1   2
ATOM      2  C   UNL     1      13.852 -17.060  39.121  1.00  0.00     0.000 C 
BRANCH   2   3
ATOM      3  C   UNL     1      14.084 -17.720  37.753  1.00  0.00     0.000 C 
BRANCH   3   4
ATOM      4  C   UNL     1      14.131 -16.700  36.606  1.00  0.00     0.000 C 
BRANCH   4   5
ATOM      5  C   UNL     1      15.416 -16.861  35.780  1.00  0.00     0.006 C 
BRANCH   5   6
ATOM      6  C   UNL     1      16.656 -16.358  36.531  1.00  0.00     0.053 C 
BRANCH   6   7
ATOM      7  C   UNL     1      17.008 -14.953  36.149  1.00  0.00     0.041 C 
ATOM      8  O   UNL     1      17.940 -14.350  36.742  1.00  0.00    -0.550 OA
ATOM      9  O   UNL     1      16.283 -14.299  35.161  1.00  0.00    -0.550 OA
ENDBRANCH   6   7
ENDBRANCH   5   6
ENDBRANCH   4   5
ENDBRANCH   3   4
ENDBRANCH   2   3
ENDBRANCH   1   2
BRANCH   1  10
ATOM     10  C   UNL     1      14.872 -14.960  40.175  1.00  0.00     0.000 C 
BRANCH  10  11
ATOM     11  C   UNL     1      15.900 -13.958  39.621  1.00  0.00    -0.000 C 
BRANCH  11  12
ATOM     12  C   UNL     1      15.269 -12.905  38.691  1.00  0.00    -0.000 C 
BRANCH  12  13
ATOM     13  C   UNL     1      14.040 -13.385  37.897  1.00  0.00    -0.000 C 
BRANCH  13  14
ATOM     14  C   UNL     1      12.719 -12.669  38.238  1.00  0.00    -0.000 C 
BRANCH  14  15
ATOM     15  C   UNL     1      11.627 -13.608  38.792  1.00  0.00    -0.003 C 
ATOM     16  C   UNL     1      11.202 -14.679  37.787  1.00  0.00     0.004 C 
ENDBRANCH  14  15
ENDBRANCH  13  14
ENDBRANCH  12  13
ENDBRANCH  11  12
ENDBRANCH  10  11
ENDBRANCH   1  10
TORSDOF 12
ENDMDL
MODEL 6
REMARK VINA RESULT:    -4.452      3.065      4.464
REMARK INTER + INTRA:          -9.196
REMARK INTER:                  -7.206
REMARK INTRA:                  -1.991
REMARK UNBOUND:                -1.621
REMARK SMILES CCCCCCCCCCCCCC(=O)[O-]
REMARK SMILES IDX 8 1 9 2 10 3 11 4 12 5 13 6 14 7 15 8 16 9 7 10 6 11 5 12
REMARK SMILES IDX 4 13 3 14 2 15 1 16
REMARK H PARENT
REMARK Flexibility Score: inf
ROOT
ATOM      1  C   UNL     1      13.504 -15.486  39.263  1.00  0.00     0.000 C 
ENDROOT
BRANCH   1   2
ATOM      2  C   UNL     1      14.797 -15.075  39.990  1.00  0.00     0.000 C 
BRANCH   2   3
ATOM      3  C   UNL     1      15.691 -14.164  39.134  1.00  0.00     0.000 C 
BRANCH   3   4
ATOM      4  C   UNL     1      14.990 -13.678  37.858  1.00  0.00     0.000 C 
BRANCH   4   5
ATOM      5  C   UNL     1      15.917 -12.773  37.033  1.00  0.00     0.006 C 
BRANCH   5   6
ATOM      6  C   UNL     1      16.366 -13.439  35.725  1.00  0.00     0.053 C 
BRANCH   6   7
ATOM      7  C   UNL     1      17.836 -13.727  35.723  1.00  0.00     0.041 C 
ATOM      8  O   UNL     1      18.523 -13.507  34.690  1.00  0.00    -0.550 OA
ATOM      9  O   UNL     1      18.440 -14.270  36.849  1.00  0.00    -0.550 OA
ENDBRANCH   6   7
ENDBRANCH   5   6
ENDBRANCH   4   5
ENDBRANCH   3   4
ENDBRANCH   2   3
ENDBRANCH   1   2
BRANCH   1  10
ATOM     10  C   UNL     1      13.142 -16.963  39.485  1.00  0.00     0.000 C 
BRANCH  10  11
ATOM     11  C   UNL     1      12.309 -17.546  38.330  1.00  0.00    -0.000 C 
BRANCH  11  12
ATOM     12  C   UNL     1      12.721 -16.989  36.955  1.00  0.00    -0.000 C 
BRANCH  12  13
ATOM     13  C   UNL     1      13.955 -17.658  36.320  1.00  0.00    -0.000 C 
BRANCH  13  14
ATOM     14  C   UNL     1      15.083 -16.695  35.906  1.00  0.00    -0.000 C 
BRANCH  14  15
ATOM     15  C   UNL     1      16.475 -17.100  36.437  1.00  0.00    -0.003 C 
ATOM     16  C   UNL     1      16.428 -17.636  37.868  1.00  0.00     0.004 C 
ENDBRANCH  14  15
ENDBRANCH  13  14
ENDBRANCH  12  13
ENDBRANCH  11  12
ENDBRANCH  10  11
ENDBRANCH   1  10
TORSDOF 12
ENDMDL
MODEL 7
REMARK VINA RESULT:    -4.416      2.959      5.155
REMARK INTER + INTRA:          -9.135
REMARK INTER:                  -7.224
REMARK INTRA:                  -1.912
REMARK UNBOUND:                -1.621
REMARK SMILES CCCCCCCCCCCCCC(=O)[O-]
REMARK SMILES IDX 8 1 9 2 10 3 11 4 12 5 13 6 14 7 15 8 16 9 7 10 6 11 5 12
REMARK SMILES IDX 4 13 3 14 2 15 1 16
REMARK H PARENT
REMARK Flexibility Score: inf
ROOT
ATOM      1  C   UNL     1      15.055 -16.639  35.874  1.00  0.00     0.000 C 
ENDROOT
BRANCH   1   2
ATOM      2  C   UNL     1      14.621 -17.274  37.207  1.00  0.00     0.000 C 
BRANCH   2   3
ATOM      3  C   UNL     1      15.808 -17.562  38.139  1.00  0.00     0.000 C 
BRANCH   3   4
ATOM      4  C   UNL     1      15.398 -17.618  39.618  1.00  0.00     0.000 C 
BRANCH   4   5
ATOM      5  C   UNL     1      13.971 -18.165  39.771  1.00  0.00     0.006 C 
BRANCH   5   6
ATOM      6  C   UNL     1      13.952 -19.589  40.346  1.00  0.00     0.053 C 
BRANCH   6   7
ATOM      7  C   UNL     1      13.946 -20.626  39.265  1.00  0.00     0.041 C 
ATOM      8  O   UNL     1      13.233 -20.468  38.240  1.00  0.00    -0.550 OA
ATOM      9  O   UNL     1      14.702 -21.782  39.406  1.00  0.00    -0.550 OA
ENDBRANCH   6   7
ENDBRANCH   5   6
ENDBRANCH   4   5
ENDBRANCH   3   4
ENDBRANCH   2   3
ENDBRANCH   1   2
BRANCH   1  10
ATOM     10  C   UNL     1      16.514 -16.153  35.896  1.00  0.00     0.000 C 
BRANCH  10  11
ATOM     11  C   UNL     1      16.672 -14.739  35.310  1.00  0.00    -0.000 C 
BRANCH  11  12
ATOM     12  C   UNL     1      16.928 -13.670  36.388  1.00  0.00    -0.000 C 
BRANCH  12  13
ATOM     13  C   UNL     1      17.247 -14.218  37.792  1.00  0.00    -0.000 C 
BRANCH  13  14
ATOM     14  C   UNL     1      16.198 -13.900  38.874  1.00  0.00    -0.000 C 
BRANCH  14  15
ATOM     15  C   UNL     1      14.987 -13.100  38.350  1.00  0.00    -0.003 C 
ATOM     16  C   UNL     1      13.700 -13.924  38.324  1.00  0.00     0.004 C 
ENDBRANCH  14  15
ENDBRANCH  13  14
ENDBRANCH  12  13
ENDBRANCH  11  12
ENDBRANCH  10  11
ENDBRANCH   1  10
TORSDOF 12
ENDMDL
MODEL 8
REMARK VINA RESULT:    -4.380      2.534      5.119
REMARK INTER + INTRA:          -9.073
REMARK INTER:                  -7.281
REMARK INTRA:                  -1.792
REMARK UNBOUND:                -1.621
REMARK SMILES CCCCCCCCCCCCCC(=O)[O-]
REMARK SMILES IDX 8 1 9 2 10 3 11 4 12 5 13 6 14 7 15 8 16 9 7 10 6 11 5 12
REMARK SMILES IDX 4 13 3 14 2 15 1 16
REMARK H PARENT
REMARK Flexibility Score: inf
ROOT
ATOM      1  C   UNL     1      15.850 -14.061  39.586  1.00  0.00     0.000 C 
ENDROOT
BRANCH   1   2
ATOM      2  C   UNL     1      15.309 -12.876  38.766  1.00  0.00     0.000 C 
BRANCH   2   3
ATOM      3  C   UNL     1      15.026 -13.251  37.302  1.00  0.00     0.000 C 
BRANCH   3   4
ATOM      4  C   UNL     1      16.228 -12.989  36.383  1.00  0.00     0.000 C 
BRANCH   4   5
ATOM      5  C   UNL     1      16.653 -14.273  35.655  1.00  0.00     0.006 C 
BRANCH   5   6
ATOM      6  C   UNL     1      17.383 -15.253  36.583  1.00  0.00     0.053 C 
BRANCH   6   7
ATOM      7  C   UNL     1      16.794 -16.628  36.516  1.00  0.00     0.041 C 
ATOM      8  O   UNL     1      15.799 -16.856  35.778  1.00  0.00    -0.550 OA
ATOM      9  O   UNL     1      17.322 -17.650  37.293  1.00  0.00    -0.550 OA
ENDBRANCH   6   7
ENDBRANCH   5   6
ENDBRANCH   4   5
ENDBRANCH   3   4
ENDBRANCH   2   3
ENDBRANCH   1   2
BRANCH   1  10
ATOM     10  C   UNL     1      14.737 -15.001  40.077  1.00  0.00     0.000 C 
BRANCH  10  11
ATOM     11  C   UNL     1      14.999 -16.470  39.703  1.00  0.00    -0.000 C 
BRANCH  11  12
ATOM     12  C   UNL     1      13.871 -17.082  38.852  1.00  0.00    -0.000 C 
BRANCH  12  13
ATOM     13  C   UNL     1      13.097 -16.081  37.973  1.00  0.00    -0.000 C 
BRANCH  13  14
ATOM     14  C   UNL     1      11.658 -15.780  38.434  1.00  0.00    -0.000 C 
BRANCH  14  15
ATOM     15  C   UNL     1      11.116 -14.423  37.936  1.00  0.00    -0.003 C 
ATOM     16  C   UNL     1      11.610 -13.245  38.776  1.00  0.00     0.004 C 
ENDBRANCH  14  15
ENDBRANCH  13  14
ENDBRANCH  12  13
ENDBRANCH  11  12
ENDBRANCH  10  11
ENDBRANCH   1  10
TORSDOF 12
ENDMDL
MODEL 9
REMARK VINA RESULT:    -4.368      2.356      4.010
REMARK INTER + INTRA:          -9.052
REMARK INTER:                  -7.152
REMARK INTRA:                  -1.900
REMARK UNBOUND:                -1.621
REMARK SMILES CCCCCCCCCCCCCC(=O)[O-]
REMARK SMILES IDX 8 1 9 2 10 3 11 4 12 5 13 6 14 7 15 8 16 9 7 10 6 11 5 12
REMARK SMILES IDX 4 13 3 14 2 15 1 16
REMARK H PARENT
REMARK Flexibility Score: inf
ROOT
ATOM      1  C   UNL     1      15.979 -13.666  39.280  1.00  0.00     0.000 C 
ENDROOT
BRANCH   1   2
ATOM      2  C   UNL     1      15.476 -14.664  40.339  1.00  0.00     0.000 C 
BRANCH   2   3
ATOM      3  C   UNL     1      14.813 -15.902  39.716  1.00  0.00     0.000 C 
BRANCH   3   4
ATOM      4  C   UNL     1      13.279 -15.825  39.739  1.00  0.00     0.000 C 
BRANCH   4   5
ATOM      5  C   UNL     1      12.692 -16.171  38.362  1.00  0.00     0.006 C 
BRANCH   5   6
ATOM      6  C   UNL     1      13.456 -17.310  37.674  1.00  0.00     0.053 C 
BRANCH   6   7
ATOM      7  C   UNL     1      12.999 -18.655  38.150  1.00  0.00     0.041 C 
ATOM      8  O   UNL     1      11.785 -18.979  38.065  1.00  0.00    -0.550 OA
ATOM      9  O   UNL     1      13.908 -19.536  38.720  1.00  0.00    -0.550 OA
ENDBRANCH   6   7
ENDBRANCH   5   6
ENDBRANCH   4   5
ENDBRANCH   3   4
ENDBRANCH   2   3
ENDBRANCH   1   2
BRANCH   1  10
ATOM     10  C   UNL     1      14.836 -12.893  38.602  1.00  0.00     0.000 C 
BRANCH  10  11
ATOM     11  C   UNL     1      14.809 -13.098  37.077  1.00  0.00    -0.000 C 
BRANCH  11  12
ATOM     12  C   UNL     1      16.210 -13.041  36.441  1.00  0.00    -0.000 C 
BRANCH  12  13
ATOM     13  C   UNL     1      16.526 -14.176  35.448  1.00  0.00    -0.000 C 
BRANCH  13  14
ATOM     14  C   UNL     1      16.285 -15.600  35.984  1.00  0.00    -0.000 C 
BRANCH  14  15
ATOM     15  C   UNL     1      17.355 -16.077  36.989  1.00  0.00    -0.003 C 
ATOM     16  C   UNL     1      17.225 -17.561  37.331  1.00  0.00     0.004 C 
ENDBRANCH  14  15
ENDBRANCH  13  14
ENDBRANCH  12  13
ENDBRANCH  11  12
ENDBRANCH  10  11
ENDBRANCH   1  10
TORSDOF 12
ENDMDL
