MODEL 1
REMARK VINA RESULT:    -7.353      0.000      0.000
REMARK INTER + INTRA:         -11.900
REMARK INTER:                  -9.718
REMARK INTRA:                  -2.182
REMARK UNBOUND:                -2.182
REMARK SMILES CC[C@H](C=C[C@@H](C)[C@H]1CC[C@@H]2[C@H]3CC=C4C[C@@H](O)CC[C@]4(C)[C@H]3CC[C@]21C)C(C)C
REMARK SMILES IDX 6 1 7 2 5 3 4 4 3 5 2 6 1 7 28 8 29 9 30 10 8 11 9 12 26 13
REMARK SMILES IDX 10 14 11 15 25 16 27 17 12 18 24 19 23 20 13 21 21 22 14 23
REMARK SMILES IDX 15 24 20 25 22 26 16 27 19 28 17 29 18 30
REMARK H PARENT 18 31
REMARK Flexibility Score: inf
ROOT
ATOM      1  C   UNL     1      28.094  27.990  13.494  1.00  0.00     0.012 C 
ATOM      2  C   UNL     1      26.935  27.361  14.284  1.00  0.00     0.012 C 
ENDROOT
BRANCH   1   3
ATOM      3  C   UNL     1      27.924  29.512  13.489  1.00  0.00    -0.028 C 
ATOM      4  C   UNL     1      28.659  30.454  14.126  1.00  0.00    -0.027 C 
BRANCH   4   5
ATOM      5  C   UNL     1      29.868  30.243  15.027  1.00  0.00     0.014 C 
BRANCH   5   6
ATOM      6  C   UNL     1      31.136  30.087  14.143  1.00  0.00     0.004 C 
ATOM      7  C   UNL     1      32.215  29.194  14.754  1.00  0.00     0.004 C 
ENDBRANCH   5   6
BRANCH   5   8
ATOM      8  C   UNL     1      30.042  31.466  15.992  1.00  0.00    -0.011 C 
ATOM      9  C   UNL     1      30.991  32.533  15.412  1.00  0.00     0.008 C 
ATOM     10  C   UNL     1      30.554  31.071  17.389  1.00  0.00     0.008 C 
ENDBRANCH   5   8
ENDBRANCH   4   5
ENDBRANCH   1   3
BRANCH   1  11
ATOM     11  C   UNL     1      28.389  27.403  12.053  1.00  0.00     0.002 C 
ATOM     12  C   UNL     1      28.562  28.592  11.053  1.00  0.00     0.005 C 
ATOM     13  C   UNL     1      29.712  26.585  11.791  1.00  0.00    -0.026 C 
ATOM     14  C   UNL     1      30.071  28.795  10.833  1.00  0.00     0.005 C 
ATOM     15  C   UNL     1      30.745  27.722  11.681  1.00  0.00    -0.001 C 
ATOM     16  C   UNL     1      30.191  25.498  12.818  1.00  0.00     0.007 C 
ATOM     17  C   UNL     1      29.543  25.836  10.422  1.00  0.00     0.012 C 
ATOM     18  C   UNL     1      32.141  27.233  11.222  1.00  0.00     0.000 C 
ATOM     19  C   UNL     1      31.661  25.669  13.255  1.00  0.00     0.005 C 
ATOM     20  C   UNL     1      32.606  25.963  12.044  1.00  0.00     0.003 C 
ATOM     21  C   UNL     1      33.158  28.385  11.266  1.00  0.00     0.031 C 
ATOM     22  C   UNL     1      34.146  25.931  12.432  1.00  0.00    -0.008 C 
ATOM     23  C   UNL     1      34.513  27.870  10.894  1.00  0.00    -0.027 C 
ATOM     24  C   UNL     1      34.967  26.691  11.363  1.00  0.00    -0.065 C 
ATOM     25  C   UNL     1      34.604  24.435  12.595  1.00  0.00     0.014 C 
ATOM     26  C   UNL     1      34.407  26.633  13.795  1.00  0.00     0.016 C 
ATOM     27  C   UNL     1      36.230  26.150  10.711  1.00  0.00     0.063 C 
ATOM     28  C   UNL     1      35.360  23.876  11.392  1.00  0.00     0.033 C 
ATOM     29  C   UNL     1      36.607  24.713  11.108  1.00  0.00     0.118 C 
BRANCH  29  30
ATOM     30  O   UNL     1      37.507  24.678  12.191  1.00  0.00    -0.393 OA
ATOM     31  H   UNL     1      37.443  23.787  12.625  1.00  0.00     0.210 HD
ENDBRANCH  29  30
ENDBRANCH   1  11
TORSDOF 6
ENDMDL
MODEL 2
REMARK VINA RESULT:    -7.340      3.406      6.907
REMARK INTER + INTRA:         -11.882
REMARK INTER:                  -9.611
REMARK INTRA:                  -2.271
REMARK UNBOUND:                -2.182
REMARK SMILES CC[C@H](C=C[C@@H](C)[C@H]1CC[C@@H]2[C@H]3CC=C4C[C@@H](O)CC[C@]4(C)[C@H]3CC[C@]21C)C(C)C
REMARK SMILES IDX 6 1 7 2 5 3 4 4 3 5 2 6 1 7 28 8 29 9 30 10 8 11 9 12 26 13
REMARK SMILES IDX 10 14 11 15 25 16 27 17 12 18 24 19 23 20 13 21 21 22 14 23
REMARK SMILES IDX 15 24 20 25 22 26 16 27 19 28 17 29 18 30
REMARK H PARENT 18 31
REMARK Flexibility Score: inf
ROOT
ATOM      1  C   UNL     1      32.479  27.937  12.955  1.00  0.00     0.012 C 
ATOM      2  C   UNL     1      33.650  28.336  12.045  1.00  0.00     0.012 C 
ENDROOT
BRANCH   1   3
ATOM      3  C   UNL     1      32.846  28.258  14.407  1.00  0.00    -0.028 C 
ATOM      4  C   UNL     1      32.365  29.234  15.213  1.00  0.00    -0.027 C 
BRANCH   4   5
ATOM      5  C   UNL     1      31.313  30.284  14.881  1.00  0.00     0.014 C 
BRANCH   5   6
ATOM      6  C   UNL     1      29.904  29.636  14.976  1.00  0.00     0.004 C 
ATOM      7  C   UNL     1      28.920  30.126  13.915  1.00  0.00     0.004 C 
ENDBRANCH   5   6
BRANCH   5   8
ATOM      8  C   UNL     1      31.413  31.484  15.884  1.00  0.00    -0.011 C 
ATOM      9  C   UNL     1      30.532  31.275  17.131  1.00  0.00     0.008 C 
ATOM     10  C   UNL     1      31.044  32.839  15.252  1.00  0.00     0.008 C 
ENDBRANCH   5   8
ENDBRANCH   4   5
ENDBRANCH   1   3
BRANCH   1  11
ATOM     11  C   UNL     1      31.893  26.476  12.782  1.00  0.00     0.002 C 
ATOM     12  C   UNL     1      31.600  25.881  14.198  1.00  0.00     0.005 C 
ATOM     13  C   UNL     1      30.504  26.264  12.066  1.00  0.00    -0.026 C 
ATOM     14  C   UNL     1      30.090  26.018  14.453  1.00  0.00     0.005 C 
ATOM     15  C   UNL     1      29.528  26.662  13.189  1.00  0.00    -0.001 C 
ATOM     16  C   UNL     1      30.167  27.036  10.741  1.00  0.00     0.007 C 
ATOM     17  C   UNL     1      30.378  24.739  11.718  1.00  0.00     0.012 C 
ATOM     18  C   UNL     1      28.049  26.366  12.844  1.00  0.00     0.000 C 
ATOM     19  C   UNL     1      28.813  27.776  10.786  1.00  0.00     0.005 C 
ATOM     20  C   UNL     1      27.677  26.892  11.398  1.00  0.00     0.003 C 
ATOM     21  C   UNL     1      27.118  26.909  13.940  1.00  0.00     0.031 C 
ATOM     22  C   UNL     1      26.236  27.546  11.261  1.00  0.00    -0.008 C 
ATOM     23  C   UNL     1      25.693  26.680  13.545  1.00  0.00    -0.027 C 
ATOM     24  C   UNL     1      25.273  26.896  12.283  1.00  0.00    -0.065 C 
ATOM     25  C   UNL     1      25.739  27.388   9.777  1.00  0.00     0.014 C 
ATOM     26  C   UNL     1      26.268  29.071  11.567  1.00  0.00     0.016 C 
ATOM     27  C   UNL     1      23.884  26.378  11.939  1.00  0.00     0.063 C 
ATOM     28  C   UNL     1      24.746  26.248   9.566  1.00  0.00     0.033 C 
ATOM     29  C   UNL     1      23.513  26.442  10.448  1.00  0.00     0.118 C 
BRANCH  29  30
ATOM     30  O   UNL     1      22.828  27.628  10.120  1.00  0.00    -0.393 OA
ATOM     31  H   UNL     1      22.732  27.674   9.133  1.00  0.00     0.210 HD
ENDBRANCH  29  30
ENDBRANCH   1  11
TORSDOF 6
ENDMDL
MODEL 3
REMARK VINA RESULT:    -6.490      1.620      1.965
REMARK INTER + INTRA:         -10.759
REMARK INTER:                  -8.606
REMARK INTRA:                  -2.152
REMARK UNBOUND:                -2.182
REMARK SMILES CC[C@H](C=C[C@@H](C)[C@H]1CC[C@@H]2[C@H]3CC=C4C[C@@H](O)CC[C@]4(C)[C@H]3CC[C@]21C)C(C)C
REMARK SMILES IDX 6 1 7 2 5 3 4 4 3 5 2 6 1 7 28 8 29 9 30 10 8 11 9 12 26 13
REMARK SMILES IDX 10 14 11 15 25 16 27 17 12 18 24 19 23 20 13 21 21 22 14 23
REMARK SMILES IDX 15 24 20 25 22 26 16 27 19 28 17 29 18 30
REMARK H PARENT 18 31
REMARK Flexibility Score: inf
ROOT
ATOM      1  C   UNL     1      28.485  27.629  14.003  1.00  0.00     0.012 C 
ATOM      2  C   UNL     1      27.761  26.833  15.100  1.00  0.00     0.012 C 
ENDROOT
BRANCH   1   3
ATOM      3  C   UNL     1      28.287  29.125  14.261  1.00  0.00    -0.028 C 
ATOM      4  C   UNL     1      29.171  30.033  14.739  1.00  0.00    -0.027 C 
BRANCH   4   5
ATOM      5  C   UNL     1      30.619  29.799  15.151  1.00  0.00     0.014 C 
BRANCH   5   6
ATOM      6  C   UNL     1      31.497  29.696  13.873  1.00  0.00     0.004 C 
ATOM      7  C   UNL     1      32.701  28.768  14.019  1.00  0.00     0.004 C 
ENDBRANCH   5   6
BRANCH   5   8
ATOM      8  C   UNL     1      31.123  30.982  16.047  1.00  0.00    -0.011 C 
ATOM      9  C   UNL     1      30.406  31.025  17.410  1.00  0.00     0.008 C 
ATOM     10  C   UNL     1      30.973  32.360  15.377  1.00  0.00     0.008 C 
ENDBRANCH   5   8
ENDBRANCH   4   5
ENDBRANCH   1   3
BRANCH   1  11
ATOM     11  C   UNL     1      28.191  27.223  12.501  1.00  0.00     0.002 C 
ATOM     12  C   UNL     1      27.807  28.510  11.699  1.00  0.00     0.005 C 
ATOM     13  C   UNL     1      29.345  26.634  11.602  1.00  0.00    -0.026 C 
ATOM     14  C   UNL     1      29.050  28.950  10.909  1.00  0.00     0.005 C 
ATOM     15  C   UNL     1      30.120  27.915  11.240  1.00  0.00    -0.001 C 
ATOM     16  C   UNL     1      30.317  25.541  12.173  1.00  0.00     0.007 C 
ATOM     17  C   UNL     1      28.678  25.995  10.333  1.00  0.00     0.012 C 
ATOM     18  C   UNL     1      31.225  27.678  10.181  1.00  0.00     0.000 C 
ATOM     19  C   UNL     1      31.809  25.884  11.984  1.00  0.00     0.005 C 
ATOM     20  C   UNL     1      32.114  26.421  10.547  1.00  0.00     0.003 C 
ATOM     21  C   UNL     1      32.050  28.957   9.966  1.00  0.00     0.031 C 
ATOM     22  C   UNL     1      33.668  26.579  10.256  1.00  0.00    -0.008 C 
ATOM     23  C   UNL     1      33.158  28.681   8.998  1.00  0.00    -0.027 C 
ATOM     24  C   UNL     1      33.877  27.543   9.064  1.00  0.00    -0.065 C 
ATOM     25  C   UNL     1      34.290  25.157   9.999  1.00  0.00     0.014 C 
ATOM     26  C   UNL     1      34.419  27.186  11.475  1.00  0.00     0.016 C 
ATOM     27  C   UNL     1      34.785  27.253   7.879  1.00  0.00     0.063 C 
ATOM     28  C   UNL     1      34.508  24.825   8.525  1.00  0.00     0.033 C 
ATOM     29  C   UNL     1      35.429  25.857   7.875  1.00  0.00     0.118 C 
BRANCH  29  30
ATOM     30  O   UNL     1      36.705  25.856   8.473  1.00  0.00    -0.393 OA
ATOM     31  H   UNL     1      36.596  25.699   9.447  1.00  0.00     0.210 HD
ENDBRANCH  29  30
ENDBRANCH   1  11
TORSDOF 6
ENDMDL
MODEL 4
REMARK VINA RESULT:    -5.994      3.247      6.221
REMARK INTER + INTRA:         -10.103
REMARK INTER:                  -7.668
REMARK INTRA:                  -2.435
REMARK UNBOUND:                -2.182
REMARK SMILES CC[C@H](C=C[C@@H](C)[C@H]1CC[C@@H]2[C@H]3CC=C4C[C@@H](O)CC[C@]4(C)[C@H]3CC[C@]21C)C(C)C
REMARK SMILES IDX 6 1 7 2 5 3 4 4 3 5 2 6 1 7 28 8 29 9 30 10 8 11 9 12 26 13
REMARK SMILES IDX 10 14 11 15 25 16 27 17 12 18 24 19 23 20 13 21 21 22 14 23
REMARK SMILES IDX 15 24 20 25 22 26 16 27 19 28 17 29 18 30
REMARK H PARENT 18 31
REMARK Flexibility Score: inf
ROOT
ATOM      1  C   UNL     1      25.738  26.712   9.831  1.00  0.00     0.012 C 
ATOM      2  C   UNL     1      25.518  25.686   8.710  1.00  0.00     0.012 C 
ENDROOT
BRANCH   1   3
ATOM      3  C   UNL     1      24.388  27.047  10.472  1.00  0.00    -0.028 C 
ATOM      4  C   UNL     1      23.837  26.554  11.607  1.00  0.00    -0.027 C 
BRANCH   4   5
ATOM      5  C   UNL     1      24.428  25.524  12.561  1.00  0.00     0.014 C 
BRANCH   5   6
ATOM      6  C   UNL     1      24.362  24.122  11.895  1.00  0.00     0.004 C 
ATOM      7  C   UNL     1      23.088  23.875  11.089  1.00  0.00     0.004 C 
ENDBRANCH   5   6
BRANCH   5   8
ATOM      8  C   UNL     1      25.917  25.885  12.890  1.00  0.00    -0.011 C 
ATOM      9  C   UNL     1      26.840  24.652  12.833  1.00  0.00     0.008 C 
ATOM     10  C   UNL     1      26.092  26.558  14.264  1.00  0.00     0.008 C 
ENDBRANCH   5   8
ENDBRANCH   4   5
ENDBRANCH   1   3
BRANCH   1  11
ATOM     11  C   UNL     1      26.582  28.005   9.475  1.00  0.00     0.002 C 
ATOM     12  C   UNL     1      25.721  29.270   9.796  1.00  0.00     0.005 C 
ATOM     13  C   UNL     1      27.907  28.325  10.267  1.00  0.00    -0.026 C 
ATOM     14  C   UNL     1      26.203  29.826  11.146  1.00  0.00     0.005 C 
ATOM     15  C   UNL     1      27.337  28.901  11.576  1.00  0.00    -0.001 C 
ATOM     16  C   UNL     1      28.947  27.188  10.568  1.00  0.00     0.007 C 
ATOM     17  C   UNL     1      28.690  29.419   9.458  1.00  0.00     0.012 C 
ATOM     18  C   UNL     1      28.424  29.500  12.502  1.00  0.00     0.000 C 
ATOM     19  C   UNL     1      29.354  27.103  12.054  1.00  0.00     0.005 C 
ATOM     20  C   UNL     1      29.650  28.512  12.666  1.00  0.00     0.003 C 
ATOM     21  C   UNL     1      27.813  29.930  13.845  1.00  0.00     0.031 C 
ATOM     22  C   UNL     1      30.276  28.440  14.124  1.00  0.00    -0.008 C 
ATOM     23  C   UNL     1      28.896  30.432  14.749  1.00  0.00    -0.027 C 
ATOM     24  C   UNL     1      30.082  29.799  14.839  1.00  0.00    -0.065 C 
ATOM     25  C   UNL     1      31.789  28.026  14.015  1.00  0.00     0.014 C 
ATOM     26  C   UNL     1      29.573  27.360  14.995  1.00  0.00     0.016 C 
ATOM     27  C   UNL     1      31.186  30.544  15.574  1.00  0.00     0.063 C 
ATOM     28  C   UNL     1      32.769  29.189  14.142  1.00  0.00     0.033 C 
ATOM     29  C   UNL     1      32.581  29.903  15.480  1.00  0.00     0.118 C 
BRANCH  29  30
ATOM     30  O   UNL     1      32.847  29.043  16.563  1.00  0.00    -0.393 OA
ATOM     31  H   UNL     1      32.739  28.105  16.255  1.00  0.00     0.210 HD
ENDBRANCH  29  30
ENDBRANCH   1  11
TORSDOF 6
ENDMDL
MODEL 5
REMARK VINA RESULT:    -5.988      3.650      6.742
REMARK INTER + INTRA:         -10.096
REMARK INTER:                  -7.571
REMARK INTRA:                  -2.524
REMARK UNBOUND:                -2.182
REMARK SMILES CC[C@H](C=C[C@@H](C)[C@H]1CC[C@@H]2[C@H]3CC=C4C[C@@H](O)CC[C@]4(C)[C@H]3CC[C@]21C)C(C)C
REMARK SMILES IDX 6 1 7 2 5 3 4 4 3 5 2 6 1 7 28 8 29 9 30 10 8 11 9 12 26 13
REMARK SMILES IDX 10 14 11 15 25 16 27 17 12 18 24 19 23 20 13 21 21 22 14 23
REMARK SMILES IDX 15 24 20 25 22 26 16 27 19 28 17 29 18 30
REMARK H PARENT 18 31
REMARK Flexibility Score: inf
ROOT
ATOM      1  C   UNL     1      26.004  24.754  12.100  1.00  0.00     0.012 C 
ATOM      2  C   UNL     1      24.608  24.162  12.347  1.00  0.00     0.012 C 
ENDROOT
BRANCH   1   3
ATOM      3  C   UNL     1      26.446  24.408  10.675  1.00  0.00    -0.028 C 
ATOM      4  C   UNL     1      26.422  25.182   9.563  1.00  0.00    -0.027 C 
BRANCH   4   5
ATOM      5  C   UNL     1      25.943  26.622   9.438  1.00  0.00     0.014 C 
BRANCH   5   6
ATOM      6  C   UNL     1      24.390  26.643   9.476  1.00  0.00     0.004 C 
ATOM      7  C   UNL     1      23.731  25.640   8.531  1.00  0.00     0.004 C 
ENDBRANCH   5   6
BRANCH   5   8
ATOM      8  C   UNL     1      26.513  27.485  10.616  1.00  0.00    -0.011 C 
ATOM      9  C   UNL     1      25.423  28.338  11.293  1.00  0.00     0.008 C 
ATOM     10  C   UNL     1      27.661  28.418  10.187  1.00  0.00     0.008 C 
ENDBRANCH   5   8
ENDBRANCH   4   5
ENDBRANCH   1   3
BRANCH   1  11
ATOM     11  C   UNL     1      27.122  24.445  13.178  1.00  0.00     0.002 C 
ATOM     12  C   UNL     1      28.382  23.875  12.447  1.00  0.00     0.005 C 
ATOM     13  C   UNL     1      27.758  25.621  14.015  1.00  0.00    -0.026 C 
ATOM     14  C   UNL     1      29.399  25.021  12.317  1.00  0.00     0.005 C 
ATOM     15  C   UNL     1      28.734  26.221  12.986  1.00  0.00    -0.001 C 
ATOM     16  C   UNL     1      26.846  26.740  14.632  1.00  0.00     0.007 C 
ATOM     17  C   UNL     1      28.529  24.980  15.223  1.00  0.00     0.012 C 
ATOM     18  C   UNL     1      29.668  27.299  13.589  1.00  0.00     0.000 C 
ATOM     19  C   UNL     1      27.310  28.171  14.288  1.00  0.00     0.005 C 
ATOM     20  C   UNL     1      28.855  28.347  14.453  1.00  0.00     0.003 C 
ATOM     21  C   UNL     1      30.518  27.955  12.489  1.00  0.00     0.031 C 
ATOM     22  C   UNL     1      29.330  29.857  14.315  1.00  0.00    -0.008 C 
ATOM     23  C   UNL     1      31.353  29.045  13.086  1.00  0.00    -0.027 C 
ATOM     24  C   UNL     1      30.844  29.897  13.997  1.00  0.00    -0.065 C 
ATOM     25  C   UNL     1      28.969  30.633  15.635  1.00  0.00     0.014 C 
ATOM     26  C   UNL     1      28.597  30.582  13.150  1.00  0.00     0.016 C 
ATOM     27  C   UNL     1      31.847  30.781  14.723  1.00  0.00     0.063 C 
ATOM     28  C   UNL     1      30.143  30.825  16.590  1.00  0.00     0.033 C 
ATOM     29  C   UNL     1      31.275  31.586  15.902  1.00  0.00     0.118 C 
BRANCH  29  30
ATOM     30  O   UNL     1      30.865  32.877  15.516  1.00  0.00    -0.393 OA
ATOM     31  H   UNL     1      31.424  33.542  15.997  1.00  0.00     0.210 HD
ENDBRANCH  29  30
ENDBRANCH   1  11
TORSDOF 6
ENDMDL
MODEL 6
REMARK VINA RESULT:    -5.974      2.630      6.695
REMARK INTER + INTRA:         -10.076
REMARK INTER:                  -7.964
REMARK INTRA:                  -2.112
REMARK UNBOUND:                -2.182
REMARK SMILES CC[C@H](C=C[C@@H](C)[C@H]1CC[C@@H]2[C@H]3CC=C4C[C@@H](O)CC[C@]4(C)[C@H]3CC[C@]21C)C(C)C
REMARK SMILES IDX 6 1 7 2 5 3 4 4 3 5 2 6 1 7 28 8 29 9 30 10 8 11 9 12 26 13
REMARK SMILES IDX 10 14 11 15 25 16 27 17 12 18 24 19 23 20 13 21 21 22 14 23
REMARK SMILES IDX 15 24 20 25 22 26 16 27 19 28 17 29 18 30
REMARK H PARENT 18 31
REMARK Flexibility Score: inf
ROOT
ATOM      1  C   UNL     1      33.309  26.068   9.036  1.00  0.00     0.012 C 
ATOM      2  C   UNL     1      34.549  25.511   8.321  1.00  0.00     0.012 C 
ENDROOT
BRANCH   1   3
ATOM      3  C   UNL     1      32.118  25.147   8.756  1.00  0.00    -0.028 C 
ATOM      4  C   UNL     1      31.385  24.412   9.627  1.00  0.00    -0.027 C 
BRANCH   4   5
ATOM      5  C   UNL     1      31.555  24.311  11.137  1.00  0.00     0.014 C 
BRANCH   5   6
ATOM      6  C   UNL     1      32.946  24.882  11.528  1.00  0.00     0.004 C 
ATOM      7  C   UNL     1      33.816  23.913  12.326  1.00  0.00     0.004 C 
ENDBRANCH   5   6
BRANCH   5   8
ATOM      8  C   UNL     1      30.426  25.119  11.863  1.00  0.00    -0.011 C 
ATOM      9  C   UNL     1      30.226  24.658  13.319  1.00  0.00     0.008 C 
ATOM     10  C   UNL     1      29.068  25.050  11.142  1.00  0.00     0.008 C 
ENDBRANCH   5   8
ENDBRANCH   4   5
ENDBRANCH   1   3
BRANCH   1  11
ATOM     11  C   UNL     1      32.966  27.597   8.804  1.00  0.00     0.002 C 
ATOM     12  C   UNL     1      31.568  27.699   8.110  1.00  0.00     0.005 C 
ATOM     13  C   UNL     1      32.766  28.556  10.040  1.00  0.00    -0.026 C 
ATOM     14  C   UNL     1      30.538  28.052   9.196  1.00  0.00     0.005 C 
ATOM     15  C   UNL     1      31.343  28.171  10.486  1.00  0.00    -0.001 C 
ATOM     16  C   UNL     1      33.760  28.505  11.254  1.00  0.00     0.007 C 
ATOM     17  C   UNL     1      32.815  30.032   9.507  1.00  0.00     0.012 C 
ATOM     18  C   UNL     1      30.778  29.101  11.587  1.00  0.00     0.000 C 
ATOM     19  C   UNL     1      33.057  28.361  12.620  1.00  0.00     0.005 C 
ATOM     20  C   UNL     1      31.826  29.316  12.754  1.00  0.00     0.003 C 
ATOM     21  C   UNL     1      29.419  28.585  12.086  1.00  0.00     0.031 C 
ATOM     22  C   UNL     1      31.215  29.345  14.220  1.00  0.00    -0.008 C 
ATOM     23  C   UNL     1      28.932  29.455  13.202  1.00  0.00    -0.027 C 
ATOM     24  C   UNL     1      29.766  29.887  14.168  1.00  0.00    -0.065 C 
ATOM     25  C   UNL     1      32.149  30.205  15.150  1.00  0.00     0.014 C 
ATOM     26  C   UNL     1      31.150  27.920  14.841  1.00  0.00     0.016 C 
ATOM     27  C   UNL     1      29.226  30.972  15.087  1.00  0.00     0.063 C 
ATOM     28  C   UNL     1      31.648  31.625  15.400  1.00  0.00     0.033 C 
ATOM     29  C   UNL     1      30.259  31.598  16.038  1.00  0.00     0.118 C 
BRANCH  29  30
ATOM     30  O   UNL     1      30.283  30.960  17.294  1.00  0.00    -0.393 OA
ATOM     31  H   UNL     1      31.204  31.021  17.661  1.00  0.00     0.210 HD
ENDBRANCH  29  30
ENDBRANCH   1  11
TORSDOF 6
ENDMDL
MODEL 7
REMARK VINA RESULT:    -5.875      3.286      6.107
REMARK INTER + INTRA:          -9.945
REMARK INTER:                  -7.815
REMARK INTRA:                  -2.130
REMARK UNBOUND:                -2.182
REMARK SMILES CC[C@H](C=C[C@@H](C)[C@H]1CC[C@@H]2[C@H]3CC=C4C[C@@H](O)CC[C@]4(C)[C@H]3CC[C@]21C)C(C)C
REMARK SMILES IDX 6 1 7 2 5 3 4 4 3 5 2 6 1 7 28 8 29 9 30 10 8 11 9 12 26 13
REMARK SMILES IDX 10 14 11 15 25 16 27 17 12 18 24 19 23 20 13 21 21 22 14 23
REMARK SMILES IDX 15 24 20 25 22 26 16 27 19 28 17 29 18 30
REMARK H PARENT 18 31
REMARK Flexibility Score: inf
ROOT
ATOM      1  C   UNL     1      25.480  26.781   9.935  1.00  0.00     0.012 C 
ATOM      2  C   UNL     1      24.702  26.072   8.815  1.00  0.00     0.012 C 
ENDROOT
BRANCH   1   3
ATOM      3  C   UNL     1      24.534  27.038  11.112  1.00  0.00    -0.028 C 
ATOM      4  C   UNL     1      24.700  26.734  12.421  1.00  0.00    -0.027 C 
BRANCH   4   5
ATOM      5  C   UNL     1      25.891  26.048  13.077  1.00  0.00     0.014 C 
BRANCH   5   6
ATOM      6  C   UNL     1      25.979  26.498  14.562  1.00  0.00     0.004 C 
ATOM      7  C   UNL     1      26.744  25.530  15.462  1.00  0.00     0.004 C 
ENDBRANCH   5   6
BRANCH   5   8
ATOM      8  C   UNL     1      25.725  24.492  13.004  1.00  0.00    -0.011 C 
ATOM      9  C   UNL     1      26.531  23.875  11.844  1.00  0.00     0.008 C 
ATOM     10  C   UNL     1      24.259  24.041  12.868  1.00  0.00     0.008 C 
ENDBRANCH   5   8
ENDBRANCH   4   5
ENDBRANCH   1   3
BRANCH   1  11
ATOM     11  C   UNL     1      26.318  28.063   9.535  1.00  0.00     0.002 C 
ATOM     12  C   UNL     1      25.474  29.338   9.862  1.00  0.00     0.005 C 
ATOM     13  C   UNL     1      27.669  28.387  10.282  1.00  0.00    -0.026 C 
ATOM     14  C   UNL     1      25.999  29.910  11.190  1.00  0.00     0.005 C 
ATOM     15  C   UNL     1      27.141  28.985  11.600  1.00  0.00    -0.001 C 
ATOM     16  C   UNL     1      28.711  27.249  10.569  1.00  0.00     0.007 C 
ATOM     17  C   UNL     1      28.433  29.465   9.434  1.00  0.00     0.012 C 
ATOM     18  C   UNL     1      28.258  29.592  12.483  1.00  0.00     0.000 C 
ATOM     19  C   UNL     1      29.162  27.184  12.044  1.00  0.00     0.005 C 
ATOM     20  C   UNL     1      29.483  28.600  12.626  1.00  0.00     0.003 C 
ATOM     21  C   UNL     1      27.689  30.045  13.838  1.00  0.00     0.031 C 
ATOM     22  C   UNL     1      30.151  28.546  14.066  1.00  0.00    -0.008 C 
ATOM     23  C   UNL     1      28.801  30.554  14.701  1.00  0.00    -0.027 C 
ATOM     24  C   UNL     1      29.986  29.916  14.766  1.00  0.00    -0.065 C 
ATOM     25  C   UNL     1      31.659  28.121  13.917  1.00  0.00     0.014 C 
ATOM     26  C   UNL     1      29.470  27.482  14.972  1.00  0.00     0.016 C 
ATOM     27  C   UNL     1      31.115  30.665  15.457  1.00  0.00     0.063 C 
ATOM     28  C   UNL     1      32.648  29.281  13.998  1.00  0.00     0.033 C 
ATOM     29  C   UNL     1      32.504  30.015  15.331  1.00  0.00     0.118 C 
BRANCH  29  30
ATOM     30  O   UNL     1      32.797  29.169  16.418  1.00  0.00    -0.393 OA
ATOM     31  H   UNL     1      33.562  28.587  16.167  1.00  0.00     0.210 HD
ENDBRANCH  29  30
ENDBRANCH   1  11
TORSDOF 6
ENDMDL
MODEL 8
REMARK VINA RESULT:    -5.771      3.710      7.254
REMARK INTER + INTRA:          -9.809
REMARK INTER:                  -7.871
REMARK INTRA:                  -1.938
REMARK UNBOUND:                -2.182
REMARK SMILES CC[C@H](C=C[C@@H](C)[C@H]1CC[C@@H]2[C@H]3CC=C4C[C@@H](O)CC[C@]4(C)[C@H]3CC[C@]21C)C(C)C
REMARK SMILES IDX 6 1 7 2 5 3 4 4 3 5 2 6 1 7 28 8 29 9 30 10 8 11 9 12 26 13
REMARK SMILES IDX 10 14 11 15 25 16 27 17 12 18 24 19 23 20 13 21 21 22 14 23
REMARK SMILES IDX 15 24 20 25 22 26 16 27 19 28 17 29 18 30
REMARK H PARENT 18 31
REMARK Flexibility Score: inf
ROOT
ATOM      1  C   UNL     1      32.327  28.980  10.672  1.00  0.00     0.012 C 
ATOM      2  C   UNL     1      33.523  29.715  10.049  1.00  0.00     0.012 C 
ENDROOT
BRANCH   1   3
ATOM      3  C   UNL     1      32.733  28.444  12.048  1.00  0.00    -0.028 C 
ATOM      4  C   UNL     1      32.268  28.795  13.271  1.00  0.00    -0.027 C 
BRANCH   4   5
ATOM      5  C   UNL     1      31.200  29.828  13.603  1.00  0.00     0.014 C 
BRANCH   5   6
ATOM      6  C   UNL     1      29.807  29.142  13.576  1.00  0.00     0.004 C 
ATOM      7  C   UNL     1      28.830  29.674  14.623  1.00  0.00     0.004 C 
ENDBRANCH   5   6
BRANCH   5   8
ATOM      8  C   UNL     1      31.463  30.439  15.022  1.00  0.00    -0.011 C 
ATOM      9  C   UNL     1      31.627  31.971  14.974  1.00  0.00     0.008 C 
ATOM     10  C   UNL     1      32.697  29.842  15.723  1.00  0.00     0.008 C 
ENDBRANCH   5   8
ENDBRANCH   4   5
ENDBRANCH   1   3
BRANCH   1  11
ATOM     11  C   UNL     1      31.603  27.889   9.781  1.00  0.00     0.002 C 
ATOM     12  C   UNL     1      31.797  26.488  10.448  1.00  0.00     0.005 C 
ATOM     13  C   UNL     1      30.037  27.930   9.600  1.00  0.00    -0.026 C 
ATOM     14  C   UNL     1      30.497  26.149  11.196  1.00  0.00     0.005 C 
ATOM     15  C   UNL     1      29.569  27.332  10.940  1.00  0.00    -0.001 C 
ATOM     16  C   UNL     1      29.306  29.290   9.314  1.00  0.00     0.007 C 
ATOM     17  C   UNL     1      29.674  26.986   8.399  1.00  0.00     0.012 C 
ATOM     18  C   UNL     1      28.046  27.058  10.985  1.00  0.00     0.000 C 
ATOM     19  C   UNL     1      28.124  29.565  10.267  1.00  0.00     0.005 C 
ATOM     20  C   UNL     1      27.220  28.305  10.467  1.00  0.00     0.003 C 
ATOM     21  C   UNL     1      27.622  26.595  12.388  1.00  0.00     0.031 C 
ATOM     22  C   UNL     1      25.883  28.615  11.267  1.00  0.00    -0.008 C 
ATOM     23  C   UNL     1      26.137  26.413  12.426  1.00  0.00    -0.027 C 
ATOM     24  C   UNL     1      25.307  27.301  11.844  1.00  0.00    -0.065 C 
ATOM     25  C   UNL     1      24.872  29.351  10.312  1.00  0.00     0.014 C 
ATOM     26  C   UNL     1      26.144  29.568  12.468  1.00  0.00     0.016 C 
ATOM     27  C   UNL     1      23.852  26.875  11.715  1.00  0.00     0.063 C 
ATOM     28  C   UNL     1      23.783  28.449   9.737  1.00  0.00     0.033 C 
ATOM     29  C   UNL     1      22.973  27.805  10.861  1.00  0.00     0.118 C 
BRANCH  29  30
ATOM     30  O   UNL     1      22.311  28.775  11.638  1.00  0.00    -0.393 OA
ATOM     31  H   UNL     1      21.428  28.962  11.224  1.00  0.00     0.210 HD
ENDBRANCH  29  30
ENDBRANCH   1  11
TORSDOF 6
ENDMDL
MODEL 9
REMARK VINA RESULT:    -5.675      3.598      6.734
REMARK INTER + INTRA:          -9.681
REMARK INTER:                  -7.425
REMARK INTRA:                  -2.256
REMARK UNBOUND:                -2.182
REMARK SMILES CC[C@H](C=C[C@@H](C)[C@H]1CC[C@@H]2[C@H]3CC=C4C[C@@H](O)CC[C@]4(C)[C@H]3CC[C@]21C)C(C)C
REMARK SMILES IDX 6 1 7 2 5 3 4 4 3 5 2 6 1 7 28 8 29 9 30 10 8 11 9 12 26 13
REMARK SMILES IDX 10 14 11 15 25 16 27 17 12 18 24 19 23 20 13 21 21 22 14 23
REMARK SMILES IDX 15 24 20 25 22 26 16 27 19 28 17 29 18 30
REMARK H PARENT 18 31
REMARK Flexibility Score: inf
ROOT
ATOM      1  C   UNL     1      27.874  25.808   9.060  1.00  0.00     0.012 C 
ATOM      2  C   UNL     1      28.233  24.654   8.112  1.00  0.00     0.012 C 
ENDROOT
BRANCH   1   3
ATOM      3  C   UNL     1      26.351  25.875   9.206  1.00  0.00    -0.028 C 
ATOM      4  C   UNL     1      25.595  25.763  10.326  1.00  0.00    -0.027 C 
BRANCH   4   5
ATOM      5  C   UNL     1      26.071  25.540  11.755  1.00  0.00     0.014 C 
BRANCH   5   6
ATOM      6  C   UNL     1      25.598  26.728  12.637  1.00  0.00     0.004 C 
ATOM      7  C   UNL     1      24.533  27.605  11.980  1.00  0.00     0.004 C 
ENDBRANCH   5   6
BRANCH   5   8
ATOM      8  C   UNL     1      25.486  24.198  12.315  1.00  0.00    -0.011 C 
ATOM      9  C   UNL     1      24.099  23.878  11.725  1.00  0.00     0.008 C 
ATOM     10  C   UNL     1      25.377  24.176  13.850  1.00  0.00     0.008 C 
ENDBRANCH   5   8
ENDBRANCH   4   5
ENDBRANCH   1   3
BRANCH   1  11
ATOM     11  C   UNL     1      28.522  27.221   8.759  1.00  0.00     0.002 C 
ATOM     12  C   UNL     1      27.379  28.241   8.445  1.00  0.00     0.005 C 
ATOM     13  C   UNL     1      29.311  27.983   9.892  1.00  0.00    -0.026 C 
ATOM     14  C   UNL     1      27.141  29.075   9.715  1.00  0.00     0.005 C 
ATOM     15  C   UNL     1      28.151  28.550  10.731  1.00  0.00    -0.001 C 
ATOM     16  C   UNL     1      30.332  27.215  10.804  1.00  0.00     0.007 C 
ATOM     17  C   UNL     1      30.131  29.133   9.205  1.00  0.00     0.012 C 
ATOM     18  C   UNL     1      28.620  29.533  11.831  1.00  0.00     0.000 C 
ATOM     19  C   UNL     1      30.096  27.436  12.313  1.00  0.00     0.005 C 
ATOM     20  C   UNL     1      29.833  28.939  12.656  1.00  0.00     0.003 C 
ATOM     21  C   UNL     1      27.437  29.954  12.719  1.00  0.00     0.031 C 
ATOM     22  C   UNL     1      29.800  29.226  14.218  1.00  0.00    -0.008 C 
ATOM     23  C   UNL     1      27.930  30.840  13.821  1.00  0.00    -0.027 C 
ATOM     24  C   UNL     1      29.070  30.564  14.484  1.00  0.00    -0.065 C 
ATOM     25  C   UNL     1      31.273  29.221  14.773  1.00  0.00     0.014 C 
ATOM     26  C   UNL     1      29.025  28.119  14.987  1.00  0.00     0.016 C 
ATOM     27  C   UNL     1      29.604  31.666  15.387  1.00  0.00     0.063 C 
ATOM     28  C   UNL     1      31.867  30.610  14.987  1.00  0.00     0.033 C 
ATOM     29  C   UNL     1      31.008  31.415  15.963  1.00  0.00     0.118 C 
BRANCH  29  30
ATOM     30  O   UNL     1      30.963  30.805  17.231  1.00  0.00    -0.393 OA
ATOM     31  H   UNL     1      31.589  31.285  17.834  1.00  0.00     0.210 HD
ENDBRANCH  29  30
ENDBRANCH   1  11
TORSDOF 6
ENDMDL
