MODEL 1
REMARK VINA RESULT:    -3.686      0.000      0.000
REMARK INTER + INTRA:          -7.095
REMARK INTER:                  -5.841
REMARK INTRA:                  -1.254
REMARK UNBOUND:                -1.254
REMARK SMILES CCCCCCCCCCCC(=O)[O-]
REMARK SMILES IDX 7 1 8 2 9 3 10 4 11 5 12 6 13 7 14 8 6 9 5 10 4 11 3 12 2 13
REMARK SMILES IDX 1 14
REMARK H PARENT
REMARK Flexibility Score: inf
ROOT
ATOM      1  C   UNL     1     -47.516 -54.306  39.549  1.00  0.00     0.000 C 
ENDROOT
BRANCH   1   2
ATOM      2  C   UNL     1     -48.078 -53.277  38.550  1.00  0.00     0.000 C 
BRANCH   2   3
ATOM      3  C   UNL     1     -47.112 -52.870  37.423  1.00  0.00     0.000 C 
BRANCH   3   4
ATOM      4  C   UNL     1     -47.041 -51.351  37.213  1.00  0.00     0.006 C 
BRANCH   4   5
ATOM      5  C   UNL     1     -45.586 -50.877  37.131  1.00  0.00     0.053 C 
BRANCH   5   6
ATOM      6  C   UNL     1     -45.523 -49.383  37.090  1.00  0.00     0.041 C 
ATOM      7  O   UNL     1     -46.436 -48.695  37.620  1.00  0.00    -0.550 OA
ATOM      8  O   UNL     1     -44.432 -48.749  36.510  1.00  0.00    -0.550 OA
ENDBRANCH   5   6
ENDBRANCH   4   5
ENDBRANCH   3   4
ENDBRANCH   2   3
ENDBRANCH   1   2
BRANCH   1   9
ATOM      9  C   UNL     1     -48.092 -54.143  40.963  1.00  0.00     0.000 C 
BRANCH   9  10
ATOM     10  C   UNL     1     -49.191 -53.073  40.989  1.00  0.00    -0.000 C 
BRANCH  10  11
ATOM     11  C   UNL     1     -48.815 -51.920  41.928  1.00  0.00    -0.000 C 
BRANCH  11  12
ATOM     12  C   UNL     1     -47.292 -51.720  41.970  1.00  0.00    -0.000 C 
BRANCH  12  13
ATOM     13  C   UNL     1     -46.806 -50.681  40.947  1.00  0.00    -0.003 C 
ATOM     14  C   UNL     1     -45.284 -50.648  40.816  1.00  0.00     0.004 C 
ENDBRANCH  12  13
ENDBRANCH  11  12
ENDBRANCH  10  11
ENDBRANCH   9  10
ENDBRANCH   1   9
TORSDOF 10
ENDMDL
MODEL 2
REMARK VINA RESULT:    -3.674      3.029      5.475
REMARK INTER + INTRA:          -7.076
REMARK INTER:                  -6.046
REMARK INTRA:                  -1.030
REMARK UNBOUND:                -1.254
REMARK SMILES CCCCCCCCCCCC(=O)[O-]
REMARK SMILES IDX 7 1 8 2 9 3 10 4 11 5 12 6 13 7 14 8 6 9 5 10 4 11 3 12 2 13
REMARK SMILES IDX 1 14
REMARK H PARENT
REMARK Flexibility Score: inf
ROOT
ATOM      1  C   UNL     1     -46.697 -52.088  38.728  1.00  0.00     0.000 C 
ENDROOT
BRANCH   1   2
ATOM      2  C   UNL     1     -46.830 -50.846  39.628  1.00  0.00     0.000 C 
BRANCH   2   3
ATOM      3  C   UNL     1     -46.618 -51.104  41.130  1.00  0.00     0.000 C 
BRANCH   3   4
ATOM      4  C   UNL     1     -47.918 -51.014  41.943  1.00  0.00     0.006 C 
BRANCH   4   5
ATOM      5  C   UNL     1     -48.254 -52.361  42.590  1.00  0.00     0.053 C 
BRANCH   5   6
ATOM      6  C   UNL     1     -48.710 -53.340  41.555  1.00  0.00     0.041 C 
ATOM      7  O   UNL     1     -49.772 -53.132  40.909  1.00  0.00    -0.550 OA
ATOM      8  O   UNL     1     -47.938 -54.458  41.267  1.00  0.00    -0.550 OA
ENDBRANCH   5   6
ENDBRANCH   4   5
ENDBRANCH   3   4
ENDBRANCH   2   3
ENDBRANCH   1   2
BRANCH   1   9
ATOM      9  C   UNL     1     -46.921 -51.777  37.241  1.00  0.00     0.000 C 
BRANCH   9  10
ATOM     10  C   UNL     1     -46.543 -50.326  36.921  1.00  0.00    -0.000 C 
BRANCH  10  11
ATOM     11  C   UNL     1     -45.097 -50.230  36.419  1.00  0.00    -0.000 C 
BRANCH  11  12
ATOM     12  C   UNL     1     -44.463 -48.890  36.824  1.00  0.00    -0.000 C 
BRANCH  12  13
ATOM     13  C   UNL     1     -45.307 -48.125  37.855  1.00  0.00    -0.003 C 
ATOM     14  C   UNL     1     -44.574 -47.912  39.179  1.00  0.00     0.004 C 
ENDBRANCH  12  13
ENDBRANCH  11  12
ENDBRANCH  10  11
ENDBRANCH   9  10
ENDBRANCH   1   9
TORSDOF 10
ENDMDL
MODEL 3
REMARK VINA RESULT:    -3.644      3.121      5.516
REMARK INTER + INTRA:          -7.028
REMARK INTER:                  -5.699
REMARK INTRA:                  -1.329
REMARK UNBOUND:                -1.254
REMARK SMILES CCCCCCCCCCCC(=O)[O-]
REMARK SMILES IDX 7 1 8 2 9 3 10 4 11 5 12 6 13 7 14 8 6 9 5 10 4 11 3 12 2 13
REMARK SMILES IDX 1 14
REMARK H PARENT
REMARK Flexibility Score: inf
ROOT
ATOM      1  C   UNL     1     -45.565 -52.014  37.462  1.00  0.00     0.000 C 
ENDROOT
BRANCH   1   2
ATOM      2  C   UNL     1     -45.751 -52.062  38.990  1.00  0.00     0.000 C 
BRANCH   2   3
ATOM      3  C   UNL     1     -46.827 -51.112  39.546  1.00  0.00     0.000 C 
BRANCH   3   4
ATOM      4  C   UNL     1     -46.745 -50.940  41.069  1.00  0.00     0.006 C 
BRANCH   4   5
ATOM      5  C   UNL     1     -48.143 -50.928  41.695  1.00  0.00     0.053 C 
BRANCH   5   6
ATOM      6  C   UNL     1     -48.625 -52.325  41.927  1.00  0.00     0.041 C 
ATOM      7  O   UNL     1     -48.222 -52.977  42.927  1.00  0.00    -0.550 OA
ATOM      8  O   UNL     1     -49.558 -52.890  41.067  1.00  0.00    -0.550 OA
ENDBRANCH   5   6
ENDBRANCH   4   5
ENDBRANCH   3   4
ENDBRANCH   2   3
ENDBRANCH   1   2
BRANCH   1   9
ATOM      9  C   UNL     1     -45.898 -50.640  36.862  1.00  0.00     0.000 C 
BRANCH   9  10
ATOM     10  C   UNL     1     -44.683 -50.048  36.137  1.00  0.00    -0.000 C 
BRANCH  10  11
ATOM     11  C   UNL     1     -44.223 -48.746  36.804  1.00  0.00    -0.000 C 
BRANCH  11  12
ATOM     12  C   UNL     1     -45.273 -48.242  37.806  1.00  0.00    -0.000 C 
BRANCH  12  13
ATOM     13  C   UNL     1     -44.673 -47.945  39.189  1.00  0.00    -0.003 C 
ATOM     14  C   UNL     1     -43.655 -48.997  39.630  1.00  0.00     0.004 C 
ENDBRANCH  12  13
ENDBRANCH  11  12
ENDBRANCH  10  11
ENDBRANCH   9  10
ENDBRANCH   1   9
TORSDOF 10
ENDMDL
MODEL 4
REMARK VINA RESULT:    -3.587      1.003      1.897
REMARK INTER + INTRA:          -6.938
REMARK INTER:                  -6.014
REMARK INTRA:                  -0.924
REMARK UNBOUND:                -1.254
REMARK SMILES CCCCCCCCCCCC(=O)[O-]
REMARK SMILES IDX 7 1 8 2 9 3 10 4 11 5 12 6 13 7 14 8 6 9 5 10 4 11 3 12 2 13
REMARK SMILES IDX 1 14
REMARK H PARENT
REMARK Flexibility Score: inf
ROOT
ATOM      1  C   UNL     1     -47.936 -53.278  38.002  1.00  0.00     0.000 C 
ENDROOT
BRANCH   1   2
ATOM      2  C   UNL     1     -46.659 -52.672  37.389  1.00  0.00     0.000 C 
BRANCH   2   3
ATOM      3  C   UNL     1     -46.359 -51.222  37.811  1.00  0.00     0.000 C 
BRANCH   3   4
ATOM      4  C   UNL     1     -47.053 -50.183  36.919  1.00  0.00     0.006 C 
BRANCH   4   5
ATOM      5  C   UNL     1     -46.840 -48.766  37.461  1.00  0.00     0.053 C 
BRANCH   5   6
ATOM      6  C   UNL     1     -45.381 -48.488  37.641  1.00  0.00     0.041 C 
ATOM      7  O   UNL     1     -44.582 -48.646  36.679  1.00  0.00    -0.550 OA
ATOM      8  O   UNL     1     -44.909 -48.007  38.855  1.00  0.00    -0.550 OA
ENDBRANCH   5   6
ENDBRANCH   4   5
ENDBRANCH   3   4
ENDBRANCH   2   3
ENDBRANCH   1   2
BRANCH   1   9
ATOM      9  C   UNL     1     -47.664 -54.555  38.810  1.00  0.00     0.000 C 
BRANCH   9  10
ATOM     10  C   UNL     1     -47.936 -54.330  40.302  1.00  0.00    -0.000 C 
BRANCH  10  11
ATOM     11  C   UNL     1     -48.945 -53.195  40.513  1.00  0.00    -0.000 C 
BRANCH  11  12
ATOM     12  C   UNL     1     -48.696 -52.480  41.851  1.00  0.00    -0.000 C 
BRANCH  12  13
ATOM     13  C   UNL     1     -48.289 -51.010  41.667  1.00  0.00    -0.003 C 
ATOM     14  C   UNL     1     -46.824 -50.848  41.267  1.00  0.00     0.004 C 
ENDBRANCH  12  13
ENDBRANCH  11  12
ENDBRANCH  10  11
ENDBRANCH   9  10
ENDBRANCH   1   9
TORSDOF 10
ENDMDL
MODEL 5
REMARK VINA RESULT:    -3.522      5.450      7.823
REMARK INTER + INTRA:          -6.835
REMARK INTER:                  -6.241
REMARK INTRA:                  -0.594
REMARK UNBOUND:                -1.254
REMARK SMILES CCCCCCCCCCCC(=O)[O-]
REMARK SMILES IDX 7 1 8 2 9 3 10 4 11 5 12 6 13 7 14 8 6 9 5 10 4 11 3 12 2 13
REMARK SMILES IDX 1 14
REMARK H PARENT
REMARK Flexibility Score: inf
ROOT
ATOM      1  C   UNL     1     -43.163 -48.527  39.038  1.00  0.00     0.000 C 
ENDROOT
BRANCH   1   2
ATOM      2  C   UNL     1     -42.532 -47.334  39.781  1.00  0.00     0.000 C 
BRANCH   2   3
ATOM      3  C   UNL     1     -43.536 -46.305  40.330  1.00  0.00     0.000 C 
BRANCH   3   4
ATOM      4  C   UNL     1     -42.909 -44.923  40.566  1.00  0.00     0.006 C 
BRANCH   4   5
ATOM      5  C   UNL     1     -41.875 -44.976  41.695  1.00  0.00     0.053 C 
BRANCH   5   6
ATOM      6  C   UNL     1     -40.691 -44.124  41.363  1.00  0.00     0.041 C 
ATOM      7  O   UNL     1     -39.568 -44.370  41.876  1.00  0.00    -0.550 OA
ATOM      8  O   UNL     1     -40.817 -43.087  40.447  1.00  0.00    -0.550 OA
ENDBRANCH   5   6
ENDBRANCH   4   5
ENDBRANCH   3   4
ENDBRANCH   2   3
ENDBRANCH   1   2
BRANCH   1   9
ATOM      9  C   UNL     1     -44.697 -48.481  39.026  1.00  0.00     0.000 C 
BRANCH   9  10
ATOM     10  C   UNL     1     -45.242 -48.701  37.609  1.00  0.00    -0.000 C 
BRANCH  10  11
ATOM     11  C   UNL     1     -44.115 -48.648  36.571  1.00  0.00    -0.000 C 
BRANCH  11  12
ATOM     12  C   UNL     1     -44.161 -49.875  35.647  1.00  0.00    -0.000 C 
BRANCH  12  13
ATOM     13  C   UNL     1     -43.443 -49.635  34.310  1.00  0.00    -0.003 C 
ATOM     14  C   UNL     1     -42.597 -48.362  34.314  1.00  0.00     0.004 C 
ENDBRANCH  12  13
ENDBRANCH  11  12
ENDBRANCH  10  11
ENDBRANCH   9  10
ENDBRANCH   1   9
TORSDOF 10
ENDMDL
MODEL 6
REMARK VINA RESULT:    -3.500      2.969      4.890
REMARK INTER + INTRA:          -6.800
REMARK INTER:                  -5.108
REMARK INTRA:                  -1.693
REMARK UNBOUND:                -1.254
REMARK SMILES CCCCCCCCCCCC(=O)[O-]
REMARK SMILES IDX 7 1 8 2 9 3 10 4 11 5 12 6 13 7 14 8 6 9 5 10 4 11 3 12 2 13
REMARK SMILES IDX 1 14
REMARK H PARENT
REMARK Flexibility Score: inf
ROOT
ATOM      1  C   UNL     1     -46.349 -51.533  37.582  1.00  0.00     0.000 C 
ENDROOT
BRANCH   1   2
ATOM      2  C   UNL     1     -46.793 -50.812  38.868  1.00  0.00     0.000 C 
BRANCH   2   3
ATOM      3  C   UNL     1     -45.754 -50.804  40.002  1.00  0.00     0.000 C 
BRANCH   3   4
ATOM      4  C   UNL     1     -46.345 -51.210  41.360  1.00  0.00     0.006 C 
BRANCH   4   5
ATOM      5  C   UNL     1     -47.862 -50.998  41.383  1.00  0.00     0.053 C 
BRANCH   5   6
ATOM      6  C   UNL     1     -48.548 -52.183  41.985  1.00  0.00     0.041 C 
ATOM      7  O   UNL     1     -48.254 -52.562  43.150  1.00  0.00    -0.550 OA
ATOM      8  O   UNL     1     -49.548 -52.840  41.280  1.00  0.00    -0.550 OA
ENDBRANCH   5   6
ENDBRANCH   4   5
ENDBRANCH   3   4
ENDBRANCH   2   3
ENDBRANCH   1   2
BRANCH   1   9
ATOM      9  C   UNL     1     -47.349 -52.602  37.118  1.00  0.00     0.000 C 
BRANCH   9  10
ATOM     10  C   UNL     1     -48.018 -53.285  38.317  1.00  0.00    -0.000 C 
BRANCH  10  11
ATOM     11  C   UNL     1     -47.377 -54.648  38.604  1.00  0.00    -0.000 C 
BRANCH  11  12
ATOM     12  C   UNL     1     -46.569 -54.610  39.911  1.00  0.00    -0.000 C 
BRANCH  12  13
ATOM     13  C   UNL     1     -45.055 -54.521  39.665  1.00  0.00    -0.003 C 
ATOM     14  C   UNL     1     -44.660 -54.940  38.250  1.00  0.00     0.004 C 
ENDBRANCH  12  13
ENDBRANCH  11  12
ENDBRANCH  10  11
ENDBRANCH   9  10
ENDBRANCH   1   9
TORSDOF 10
ENDMDL
MODEL 7
REMARK VINA RESULT:    -3.488      2.676      5.096
REMARK INTER + INTRA:          -6.782
REMARK INTER:                  -5.936
REMARK INTRA:                  -0.846
REMARK UNBOUND:                -1.254
REMARK SMILES CCCCCCCCCCCC(=O)[O-]
REMARK SMILES IDX 7 1 8 2 9 3 10 4 11 5 12 6 13 7 14 8 6 9 5 10 4 11 3 12 2 13
REMARK SMILES IDX 1 14
REMARK H PARENT
REMARK Flexibility Score: inf
ROOT
ATOM      1  C   UNL     1     -46.457 -52.069  38.544  1.00  0.00     0.000 C 
ENDROOT
BRANCH   1   2
ATOM      2  C   UNL     1     -47.749 -52.896  38.411  1.00  0.00     0.000 C 
BRANCH   2   3
ATOM      3  C   UNL     1     -47.729 -54.257  39.129  1.00  0.00     0.000 C 
BRANCH   3   4
ATOM      4  C   UNL     1     -47.982 -54.141  40.639  1.00  0.00     0.006 C 
BRANCH   4   5
ATOM      5  C   UNL     1     -49.112 -53.148  40.930  1.00  0.00     0.053 C 
BRANCH   5   6
ATOM      6  C   UNL     1     -48.680 -52.148  41.955  1.00  0.00     0.041 C 
ATOM      7  O   UNL     1     -48.250 -52.533  43.075  1.00  0.00    -0.550 OA
ATOM      8  O   UNL     1     -48.703 -50.792  41.656  1.00  0.00    -0.550 OA
ENDBRANCH   5   6
ENDBRANCH   4   5
ENDBRANCH   3   4
ENDBRANCH   2   3
ENDBRANCH   1   2
BRANCH   1   9
ATOM      9  C   UNL     1     -46.724 -50.572  38.759  1.00  0.00     0.000 C 
BRANCH   9  10
ATOM     10  C   UNL     1     -46.802 -49.831  37.419  1.00  0.00    -0.000 C 
BRANCH  10  11
ATOM     11  C   UNL     1     -46.049 -48.497  37.482  1.00  0.00    -0.000 C 
BRANCH  11  12
ATOM     12  C   UNL     1     -44.562 -48.689  37.143  1.00  0.00    -0.000 C 
BRANCH  12  13
ATOM     13  C   UNL     1     -43.644 -48.416  38.345  1.00  0.00    -0.003 C 
ATOM     14  C   UNL     1     -44.370 -47.727  39.500  1.00  0.00     0.004 C 
ENDBRANCH  12  13
ENDBRANCH  11  12
ENDBRANCH  10  11
ENDBRANCH   9  10
ENDBRANCH   1   9
TORSDOF 10
ENDMDL
MODEL 8
REMARK VINA RESULT:    -3.471      1.943      3.286
REMARK INTER + INTRA:          -6.755
REMARK INTER:                  -5.920
REMARK INTRA:                  -0.834
REMARK UNBOUND:                -1.254
REMARK SMILES CCCCCCCCCCCC(=O)[O-]
REMARK SMILES IDX 7 1 8 2 9 3 10 4 11 5 12 6 13 7 14 8 6 9 5 10 4 11 3 12 2 13
REMARK SMILES IDX 1 14
REMARK H PARENT
REMARK Flexibility Score: inf
ROOT
ATOM      1  C   UNL     1     -46.512 -51.917  37.575  1.00  0.00     0.000 C 
ENDROOT
BRANCH   1   2
ATOM      2  C   UNL     1     -46.779 -50.462  37.145  1.00  0.00     0.000 C 
BRANCH   2   3
ATOM      3  C   UNL     1     -46.370 -49.394  38.174  1.00  0.00     0.000 C 
BRANCH   3   4
ATOM      4  C   UNL     1     -45.434 -48.326  37.589  1.00  0.00     0.006 C 
BRANCH   4   5
ATOM      5  C   UNL     1     -44.039 -48.417  38.216  1.00  0.00     0.053 C 
BRANCH   5   6
ATOM      6  C   UNL     1     -44.056 -47.881  39.613  1.00  0.00     0.041 C 
ATOM      7  O   UNL     1     -43.479 -48.508  40.540  1.00  0.00    -0.550 OA
ATOM      8  O   UNL     1     -44.667 -46.662  39.882  1.00  0.00    -0.550 OA
ENDBRANCH   5   6
ENDBRANCH   4   5
ENDBRANCH   3   4
ENDBRANCH   2   3
ENDBRANCH   1   2
BRANCH   1   9
ATOM      9  C   UNL     1     -47.625 -52.883  37.143  1.00  0.00     0.000 C 
BRANCH   9  10
ATOM     10  C   UNL     1     -48.192 -53.643  38.348  1.00  0.00    -0.000 C 
BRANCH  10  11
ATOM     11  C   UNL     1     -47.655 -53.069  39.665  1.00  0.00    -0.000 C 
BRANCH  11  12
ATOM     12  C   UNL     1     -48.694 -53.207  40.788  1.00  0.00    -0.000 C 
BRANCH  12  13
ATOM     13  C   UNL     1     -48.862 -51.913  41.599  1.00  0.00    -0.003 C 
ATOM     14  C   UNL     1     -47.674 -50.963  41.448  1.00  0.00     0.004 C 
ENDBRANCH  12  13
ENDBRANCH  11  12
ENDBRANCH  10  11
ENDBRANCH   9  10
ENDBRANCH   1   9
TORSDOF 10
ENDMDL
MODEL 9
REMARK VINA RESULT:    -3.406      1.307      3.398
REMARK INTER + INTRA:          -6.651
REMARK INTER:                  -5.099
REMARK INTRA:                  -1.552
REMARK UNBOUND:                -1.254
REMARK SMILES CCCCCCCCCCCC(=O)[O-]
REMARK SMILES IDX 7 1 8 2 9 3 10 4 11 5 12 6 13 7 14 8 6 9 5 10 4 11 3 12 2 13
REMARK SMILES IDX 1 14
REMARK H PARENT
REMARK Flexibility Score: inf
ROOT
ATOM      1  C   UNL     1     -48.386 -52.622  42.043  1.00  0.00     0.000 C 
ENDROOT
BRANCH   1   2
ATOM      2  C   UNL     1     -48.304 -51.135  41.647  1.00  0.00     0.000 C 
BRANCH   2   3
ATOM      3  C   UNL     1     -47.224 -50.798  40.604  1.00  0.00     0.000 C 
BRANCH   3   4
ATOM      4  C   UNL     1     -45.797 -51.029  41.123  1.00  0.00     0.006 C 
BRANCH   4   5
ATOM      5  C   UNL     1     -44.798 -51.096  39.964  1.00  0.00     0.053 C 
BRANCH   5   6
ATOM      6  C   UNL     1     -44.795 -49.810  39.200  1.00  0.00     0.041 C 
ATOM      7  O   UNL     1     -45.071 -49.802  37.971  1.00  0.00    -0.550 OA
ATOM      8  O   UNL     1     -44.535 -48.613  39.854  1.00  0.00    -0.550 OA
ENDBRANCH   5   6
ENDBRANCH   4   5
ENDBRANCH   3   4
ENDBRANCH   2   3
ENDBRANCH   1   2
BRANCH   1   9
ATOM      9  C   UNL     1     -48.748 -53.536  40.864  1.00  0.00     0.000 C 
BRANCH   9  10
ATOM     10  C   UNL     1     -47.633 -54.555  40.597  1.00  0.00    -0.000 C 
BRANCH  10  11
ATOM     11  C   UNL     1     -47.247 -54.575  39.113  1.00  0.00    -0.000 C 
BRANCH  11  12
ATOM     12  C   UNL     1     -48.113 -53.594  38.307  1.00  0.00    -0.000 C 
BRANCH  12  13
ATOM     13  C   UNL     1     -47.275 -52.659  37.421  1.00  0.00    -0.003 C 
ATOM     14  C   UNL     1     -45.890 -53.224  37.109  1.00  0.00     0.004 C 
ENDBRANCH  12  13
ENDBRANCH  11  12
ENDBRANCH  10  11
ENDBRANCH   9  10
ENDBRANCH   1   9
TORSDOF 10
ENDMDL
