MODEL 1
REMARK VINA RESULT:    -8.626      0.000      0.000
REMARK INTER + INTRA:         -10.792
REMARK INTER:                 -10.391
REMARK INTRA:                  -0.400
REMARK UNBOUND:                -0.400
REMARK SMILES O=c1c(O)c(-c2ccc(O)cc2O)oc2cc(O)cc(O)c12
REMARK SMILES IDX 5 1 3 2 2 3 1 4 22 5 20 6 19 7 17 8 16 9 15 10 14 11 6 12
REMARK SMILES IDX 8 13 7 14 9 15 11 16 12 17 10 18 13 20 4 22 21 24 18 26
REMARK H PARENT 10 19 13 21 4 23 21 25 18 27
REMARK Flexibility Score: inf
ROOT
ATOM      1  C   UNL     1     141.143 -20.488  78.858  1.00  0.00     0.184 A 
ATOM      2  C   UNL     1     139.886 -20.889  78.382  1.00  0.00     0.208 A 
ATOM      3  C   UNL     1     138.732 -20.388  79.003  1.00  0.00     0.238 A 
ATOM      4  O   UNL     1     137.607 -20.704  78.533  1.00  0.00    -0.285 OA
ATOM      5  C   UNL     1     138.851 -19.513  80.110  1.00  0.00     0.111 A 
ATOM      6  C   UNL     1     137.749 -18.975  80.841  1.00  0.00     0.134 A 
ATOM      7  C   UNL     1     137.983 -18.023  81.842  1.00  0.00     0.093 A 
ATOM      8  C   UNL     1     139.282 -17.638  82.180  1.00  0.00     0.123 A 
ATOM      9  C   UNL     1     140.367 -18.201  81.513  1.00  0.00     0.094 A 
ATOM     10  C   UNL     1     140.165 -19.126  80.485  1.00  0.00     0.146 A 
ATOM     11  O   UNL     1     141.226 -19.626  79.865  1.00  0.00    -0.451 OA
ENDROOT
BRANCH   1  12
ATOM     12  C   UNL     1     142.394 -21.001  78.259  1.00  0.00     0.063 A 
ATOM     13  C   UNL     1     144.133 -22.703  78.204  1.00  0.00     0.047 A 
ATOM     14  C   UNL     1     142.925 -22.221  78.713  1.00  0.00     0.020 A 
ATOM     15  C   UNL     1     144.831 -21.969  77.240  1.00  0.00     0.119 A 
ATOM     16  C   UNL     1     144.313 -20.754  76.782  1.00  0.00     0.093 A 
ATOM     17  C   UNL     1     143.098 -20.266  77.276  1.00  0.00     0.130 A 
BRANCH  15  18
ATOM     18  O   UNL     1     146.040 -22.436  76.729  1.00  0.00    -0.508 OA
ATOM     19  H   UNL     1     146.881 -21.871  76.756  1.00  0.00     0.293 HD
ENDBRANCH  15  18
BRANCH  17  20
ATOM     20  O   UNL     1     142.609 -19.065  76.757  1.00  0.00    -0.507 OA
ATOM     21  H   UNL     1     142.725 -18.794  75.789  1.00  0.00     0.293 HD
ENDBRANCH  17  20
ENDBRANCH   1  12
BRANCH   2  22
ATOM     22  O   UNL     1     139.798 -21.757  77.290  1.00  0.00    -0.502 OA
ATOM     23  H   UNL     1     138.940 -21.889  76.769  1.00  0.00     0.293 HD
ENDBRANCH   2  22
BRANCH   6  24
ATOM     24  O   UNL     1     136.419 -19.359  80.645  1.00  0.00    -0.507 OA
ATOM     25  H   UNL     1     135.654 -19.119  81.256  1.00  0.00     0.293 HD
ENDBRANCH   6  24
BRANCH   8  26
ATOM     26  O   UNL     1     139.506 -16.703  83.188  1.00  0.00    -0.508 OA
ATOM     27  H   UNL     1     139.970 -16.956  84.053  1.00  0.00     0.293 HD
ENDBRANCH   8  26
TORSDOF 6
ENDMDL
MODEL 2
REMARK VINA RESULT:    -8.529      2.967      5.864
REMARK INTER + INTRA:         -10.674
REMARK INTER:                 -10.273
REMARK INTRA:                  -0.402
REMARK UNBOUND:                -0.400
REMARK SMILES O=c1c(O)c(-c2ccc(O)cc2O)oc2cc(O)cc(O)c12
REMARK SMILES IDX 5 1 3 2 2 3 1 4 22 5 20 6 19 7 17 8 16 9 15 10 14 11 6 12
REMARK SMILES IDX 8 13 7 14 9 15 11 16 12 17 10 18 13 20 4 22 21 24 18 26
REMARK H PARENT 10 19 13 21 4 23 21 25 18 27
REMARK Flexibility Score: inf
ROOT
ATOM      1  C   UNL     1     139.191 -18.698  79.810  1.00  0.00     0.184 A 
ATOM      2  C   UNL     1     140.335 -19.220  79.188  1.00  0.00     0.208 A 
ATOM      3  C   UNL     1     141.553 -18.536  79.319  1.00  0.00     0.238 A 
ATOM      4  O   UNL     1     142.588 -19.041  78.811  1.00  0.00    -0.285 OA
ATOM      5  C   UNL     1     141.604 -17.322  80.047  1.00  0.00     0.111 A 
ATOM      6  C   UNL     1     142.776 -16.523  80.212  1.00  0.00     0.134 A 
ATOM      7  C   UNL     1     142.736 -15.405  81.055  1.00  0.00     0.093 A 
ATOM      8  C   UNL     1     141.552 -15.021  81.688  1.00  0.00     0.123 A 
ATOM      9  C   UNL     1     140.389 -15.761  81.487  1.00  0.00     0.094 A 
ATOM     10  C   UNL     1     140.405 -16.902  80.681  1.00  0.00     0.146 A 
ATOM     11  O   UNL     1     139.277 -17.585  80.529  1.00  0.00    -0.451 OA
ENDROOT
BRANCH   1  12
ATOM     12  C   UNL     1     137.876 -19.363  79.686  1.00  0.00     0.063 A 
ATOM     13  C   UNL     1     136.271 -20.982  80.539  1.00  0.00     0.047 A 
ATOM     14  C   UNL     1     137.483 -20.299  80.659  1.00  0.00     0.020 A 
ATOM     15  C   UNL     1     135.438 -20.745  79.440  1.00  0.00     0.119 A 
ATOM     16  C   UNL     1     135.819 -19.819  78.467  1.00  0.00     0.093 A 
ATOM     17  C   UNL     1     137.026 -19.119  78.581  1.00  0.00     0.130 A 
BRANCH  15  18
ATOM     18  O   UNL     1     134.229 -21.425  79.307  1.00  0.00    -0.508 OA
ATOM     19  H   UNL     1     133.339 -20.947  79.395  1.00  0.00     0.293 HD
ENDBRANCH  15  18
BRANCH  17  20
ATOM     20  O   UNL     1     137.340 -18.178  77.598  1.00  0.00    -0.507 OA
ATOM     21  H   UNL     1     137.931 -17.376  77.770  1.00  0.00     0.293 HD
ENDBRANCH  17  20
ENDBRANCH   1  12
BRANCH   2  22
ATOM     22  O   UNL     1     140.255 -20.418  78.473  1.00  0.00    -0.502 OA
ATOM     23  H   UNL     1     140.207 -21.321  78.928  1.00  0.00     0.293 HD
ENDBRANCH   2  22
BRANCH   6  24
ATOM     24  O   UNL     1     143.985 -16.766  79.555  1.00  0.00    -0.507 OA
ATOM     25  H   UNL     1     144.355 -16.206  78.802  1.00  0.00     0.293 HD
ENDBRANCH   6  24
BRANCH   8  26
ATOM     26  O   UNL     1     141.518 -13.898  82.512  1.00  0.00    -0.508 OA
ATOM     27  H   UNL     1     141.835 -13.937  83.474  1.00  0.00     0.293 HD
ENDBRANCH   8  26
TORSDOF 6
ENDMDL
MODEL 3
REMARK VINA RESULT:    -8.466      0.757      1.471
REMARK INTER + INTRA:         -10.599
REMARK INTER:                 -10.205
REMARK INTRA:                  -0.394
REMARK UNBOUND:                -0.400
REMARK SMILES O=c1c(O)c(-c2ccc(O)cc2O)oc2cc(O)cc(O)c12
REMARK SMILES IDX 5 1 3 2 2 3 1 4 22 5 20 6 19 7 17 8 16 9 15 10 14 11 6 12
REMARK SMILES IDX 8 13 7 14 9 15 11 16 12 17 10 18 13 20 4 22 21 24 18 26
REMARK H PARENT 10 19 13 21 4 23 21 25 18 27
REMARK Flexibility Score: inf
ROOT
ATOM      1  C   UNL     1     141.193 -20.396  78.897  1.00  0.00     0.184 A 
ATOM      2  C   UNL     1     139.955 -20.814  78.387  1.00  0.00     0.208 A 
ATOM      3  C   UNL     1     138.777 -20.323  78.971  1.00  0.00     0.238 A 
ATOM      4  O   UNL     1     137.670 -20.653  78.471  1.00  0.00    -0.285 OA
ATOM      5  C   UNL     1     138.854 -19.441  80.077  1.00  0.00     0.111 A 
ATOM      6  C   UNL     1     137.725 -18.911  80.773  1.00  0.00     0.134 A 
ATOM      7  C   UNL     1     137.920 -17.951  81.775  1.00  0.00     0.093 A 
ATOM      8  C   UNL     1     139.205 -17.551  82.149  1.00  0.00     0.123 A 
ATOM      9  C   UNL     1     140.314 -18.104  81.515  1.00  0.00     0.094 A 
ATOM     10  C   UNL     1     140.152 -19.037  80.488  1.00  0.00     0.146 A 
ATOM     11  O   UNL     1     141.237 -19.528  79.901  1.00  0.00    -0.451 OA
ENDROOT
BRANCH   1  12
ATOM     12  C   UNL     1     142.465 -20.898  78.337  1.00  0.00     0.063 A 
ATOM     13  C   UNL     1     144.301 -20.627  76.761  1.00  0.00     0.047 A 
ATOM     14  C   UNL     1     143.126 -20.150  77.346  1.00  0.00     0.020 A 
ATOM     15  C   UNL     1     144.828 -21.862  77.152  1.00  0.00     0.119 A 
ATOM     16  C   UNL     1     144.179 -22.616  78.134  1.00  0.00     0.093 A 
ATOM     17  C   UNL     1     143.007 -22.144  78.736  1.00  0.00     0.130 A 
BRANCH  15  18
ATOM     18  O   UNL     1     145.996 -22.352  76.571  1.00  0.00    -0.508 OA
ATOM     19  H   UNL     1     146.230 -22.155  75.604  1.00  0.00     0.293 HD
ENDBRANCH  15  18
BRANCH  17  20
ATOM     20  O   UNL     1     142.420 -22.920  79.738  1.00  0.00    -0.507 OA
ATOM     21  H   UNL     1     142.910 -23.665  80.217  1.00  0.00     0.293 HD
ENDBRANCH  17  20
ENDBRANCH   1  12
BRANCH   2  22
ATOM     22  O   UNL     1     139.908 -21.688  77.298  1.00  0.00    -0.502 OA
ATOM     23  H   UNL     1     140.503 -21.577  76.487  1.00  0.00     0.293 HD
ENDBRANCH   2  22
BRANCH   6  24
ATOM     24  O   UNL     1     136.407 -19.311  80.540  1.00  0.00    -0.507 OA
ATOM     25  H   UNL     1     135.872 -19.914  81.146  1.00  0.00     0.293 HD
ENDBRANCH   6  24
BRANCH   8  26
ATOM     26  O   UNL     1     139.389 -16.607  83.157  1.00  0.00    -0.508 OA
ATOM     27  H   UNL     1     140.240 -16.060  83.222  1.00  0.00     0.293 HD
ENDBRANCH   8  26
TORSDOF 6
ENDMDL
MODEL 4
REMARK VINA RESULT:    -8.466      1.151      1.182
REMARK INTER + INTRA:         -10.599
REMARK INTER:                 -10.195
REMARK INTRA:                  -0.404
REMARK UNBOUND:                -0.400
REMARK SMILES O=c1c(O)c(-c2ccc(O)cc2O)oc2cc(O)cc(O)c12
REMARK SMILES IDX 5 1 3 2 2 3 1 4 22 5 20 6 19 7 17 8 16 9 15 10 14 11 6 12
REMARK SMILES IDX 8 13 7 14 9 15 11 16 12 17 10 18 13 20 4 22 21 24 18 26
REMARK H PARENT 10 19 13 21 4 23 21 25 18 27
REMARK Flexibility Score: inf
ROOT
ATOM      1  C   UNL     1     141.200 -19.986  78.877  1.00  0.00     0.184 A 
ATOM      2  C   UNL     1     139.855 -20.279  78.606  1.00  0.00     0.208 A 
ATOM      3  C   UNL     1     138.858 -19.444  79.132  1.00  0.00     0.238 A 
ATOM      4  O   UNL     1     137.656 -19.676  78.835  1.00  0.00    -0.285 OA
ATOM      5  C   UNL     1     139.218 -18.342  79.947  1.00  0.00     0.111 A 
ATOM      6  C   UNL     1     138.289 -17.452  80.566  1.00  0.00     0.134 A 
ATOM      7  C   UNL     1     138.763 -16.325  81.250  1.00  0.00     0.093 A 
ATOM      8  C   UNL     1     140.133 -16.092  81.391  1.00  0.00     0.123 A 
ATOM      9  C   UNL     1     141.047 -16.986  80.841  1.00  0.00     0.094 A 
ATOM     10  C   UNL     1     140.606 -18.099  80.122  1.00  0.00     0.146 A 
ATOM     11  O   UNL     1     141.512 -18.917  79.601  1.00  0.00    -0.451 OA
ENDROOT
BRANCH   1  12
ATOM     12  C   UNL     1     142.292 -20.843  78.369  1.00  0.00     0.063 A 
ATOM     13  C   UNL     1     143.628 -22.866  78.590  1.00  0.00     0.047 A 
ATOM     14  C   UNL     1     142.568 -22.062  79.014  1.00  0.00     0.020 A 
ATOM     15  C   UNL     1     144.434 -22.458  77.521  1.00  0.00     0.119 A 
ATOM     16  C   UNL     1     144.171 -21.248  76.874  1.00  0.00     0.093 A 
ATOM     17  C   UNL     1     143.103 -20.438  77.282  1.00  0.00     0.130 A 
BRANCH  15  18
ATOM     18  O   UNL     1     145.499 -23.248  77.092  1.00  0.00    -0.508 OA
ATOM     19  H   UNL     1     146.000 -23.855  77.732  1.00  0.00     0.293 HD
ENDBRANCH  15  18
BRANCH  17  20
ATOM     20  O   UNL     1     142.863 -19.257  76.577  1.00  0.00    -0.507 OA
ATOM     21  H   UNL     1     142.243 -18.531  76.911  1.00  0.00     0.293 HD
ENDBRANCH  17  20
ENDBRANCH   1  12
BRANCH   2  22
ATOM     22  O   UNL     1     139.528 -21.374  77.803  1.00  0.00    -0.502 OA
ATOM     23  H   UNL     1     139.686 -21.380  76.803  1.00  0.00     0.293 HD
ENDBRANCH   2  22
BRANCH   6  24
ATOM     24  O   UNL     1     136.904 -17.643  80.562  1.00  0.00    -0.507 OA
ATOM     25  H   UNL     1     136.241 -17.061  81.050  1.00  0.00     0.293 HD
ENDBRANCH   6  24
BRANCH   8  26
ATOM     26  O   UNL     1     140.595 -14.977  82.087  1.00  0.00    -0.508 OA
ATOM     27  H   UNL     1     140.507 -14.906  83.094  1.00  0.00     0.293 HD
ENDBRANCH   8  26
TORSDOF 6
ENDMDL
MODEL 5
REMARK VINA RESULT:    -8.273      4.166      5.845
REMARK INTER + INTRA:         -10.366
REMARK INTER:                  -9.997
REMARK INTRA:                  -0.369
REMARK UNBOUND:                -0.400
REMARK SMILES O=c1c(O)c(-c2ccc(O)cc2O)oc2cc(O)cc(O)c12
REMARK SMILES IDX 5 1 3 2 2 3 1 4 22 5 20 6 19 7 17 8 16 9 15 10 14 11 6 12
REMARK SMILES IDX 8 13 7 14 9 15 11 16 12 17 10 18 13 20 4 22 21 24 18 26
REMARK H PARENT 10 19 13 21 4 23 21 25 18 27
REMARK Flexibility Score: inf
ROOT
ATOM      1  C   UNL     1     138.497 -18.265  79.991  1.00  0.00     0.184 A 
ATOM      2  C   UNL     1     138.105 -19.258  80.901  1.00  0.00     0.208 A 
ATOM      3  C   UNL     1     137.055 -20.122  80.556  1.00  0.00     0.238 A 
ATOM      4  O   UNL     1     136.748 -21.049  81.350  1.00  0.00    -0.285 OA
ATOM      5  C   UNL     1     136.391 -19.962  79.314  1.00  0.00     0.111 A 
ATOM      6  C   UNL     1     135.288 -20.756  78.876  1.00  0.00     0.134 A 
ATOM      7  C   UNL     1     134.790 -20.588  77.577  1.00  0.00     0.093 A 
ATOM      8  C   UNL     1     135.313 -19.613  76.725  1.00  0.00     0.123 A 
ATOM      9  C   UNL     1     136.351 -18.796  77.164  1.00  0.00     0.094 A 
ATOM     10  C   UNL     1     136.894 -18.962  78.440  1.00  0.00     0.146 A 
ATOM     11  O   UNL     1     137.893 -18.171  78.813  1.00  0.00    -0.451 OA
ENDROOT
BRANCH   1  12
ATOM     12  C   UNL     1     139.581 -17.312  80.311  1.00  0.00     0.063 A 
ATOM     13  C   UNL     1     141.953 -16.895  80.663  1.00  0.00     0.047 A 
ATOM     14  C   UNL     1     140.914 -17.759  80.312  1.00  0.00     0.020 A 
ATOM     15  C   UNL     1     141.674 -15.573  81.026  1.00  0.00     0.119 A 
ATOM     16  C   UNL     1     140.353 -15.118  81.031  1.00  0.00     0.093 A 
ATOM     17  C   UNL     1     139.303 -15.971  80.670  1.00  0.00     0.130 A 
BRANCH  15  18
ATOM     18  O   UNL     1     142.702 -14.703  81.384  1.00  0.00    -0.508 OA
ATOM     19  H   UNL     1     143.132 -14.740  82.301  1.00  0.00     0.293 HD
ENDBRANCH  15  18
BRANCH  17  20
ATOM     20  O   UNL     1     138.006 -15.454  80.657  1.00  0.00    -0.507 OA
ATOM     21  H   UNL     1     137.358 -15.609  79.896  1.00  0.00     0.293 HD
ENDBRANCH  17  20
ENDBRANCH   1  12
BRANCH   2  22
ATOM     22  O   UNL     1     138.774 -19.390  82.121  1.00  0.00    -0.502 OA
ATOM     23  H   UNL     1     139.706 -19.779  82.190  1.00  0.00     0.293 HD
ENDBRANCH   2  22
BRANCH   6  24
ATOM     24  O   UNL     1     134.633 -21.693  79.679  1.00  0.00    -0.507 OA
ATOM     25  H   UNL     1     133.653 -21.924  79.614  1.00  0.00     0.293 HD
ENDBRANCH   6  24
BRANCH   8  26
ATOM     26  O   UNL     1     134.801 -19.443  75.441  1.00  0.00    -0.508 OA
ATOM     27  H   UNL     1     133.839 -19.673  75.219  1.00  0.00     0.293 HD
ENDBRANCH   8  26
TORSDOF 6
ENDMDL
MODEL 6
REMARK VINA RESULT:    -8.268      1.529      2.034
REMARK INTER + INTRA:         -10.360
REMARK INTER:                 -10.105
REMARK INTRA:                  -0.255
REMARK UNBOUND:                -0.400
REMARK SMILES O=c1c(O)c(-c2ccc(O)cc2O)oc2cc(O)cc(O)c12
REMARK SMILES IDX 5 1 3 2 2 3 1 4 22 5 20 6 19 7 17 8 16 9 15 10 14 11 6 12
REMARK SMILES IDX 8 13 7 14 9 15 11 16 12 17 10 18 13 20 4 22 21 24 18 26
REMARK H PARENT 10 19 13 21 4 23 21 25 18 27
REMARK Flexibility Score: inf
ROOT
ATOM      1  C   UNL     1     141.243 -19.535  78.862  1.00  0.00     0.184 A 
ATOM      2  C   UNL     1     139.906 -19.930  78.708  1.00  0.00     0.208 A 
ATOM      3  C   UNL     1     138.892 -19.128  79.255  1.00  0.00     0.238 A 
ATOM      4  O   UNL     1     137.692 -19.455  79.062  1.00  0.00    -0.285 OA
ATOM      5  C   UNL     1     139.232 -17.956  79.974  1.00  0.00     0.111 A 
ATOM      6  C   UNL     1     138.290 -17.089  80.605  1.00  0.00     0.134 A 
ATOM      7  C   UNL     1     138.733 -15.892  81.183  1.00  0.00     0.093 A 
ATOM      8  C   UNL     1     140.090 -15.563  81.209  1.00  0.00     0.123 A 
ATOM      9  C   UNL     1     141.023 -16.431  80.648  1.00  0.00     0.094 A 
ATOM     10  C   UNL     1     140.610 -17.614  80.031  1.00  0.00     0.146 A 
ATOM     11  O   UNL     1     141.531 -18.405  79.495  1.00  0.00    -0.451 OA
ENDROOT
BRANCH   1  12
ATOM     12  C   UNL     1     142.353 -20.352  78.327  1.00  0.00     0.063 A 
ATOM     13  C   UNL     1     144.182 -20.600  76.741  1.00  0.00     0.047 A 
ATOM     14  C   UNL     1     143.161 -19.831  77.302  1.00  0.00     0.020 A 
ATOM     15  C   UNL     1     144.405 -21.906  77.191  1.00  0.00     0.119 A 
ATOM     16  C   UNL     1     143.607 -22.436  78.208  1.00  0.00     0.093 A 
ATOM     17  C   UNL     1     142.587 -21.671  78.787  1.00  0.00     0.130 A 
BRANCH  15  18
ATOM     18  O   UNL     1     145.417 -22.686  76.635  1.00  0.00    -0.508 OA
ATOM     19  H   UNL     1     145.590 -22.697  75.636  1.00  0.00     0.293 HD
ENDBRANCH  15  18
BRANCH  17  20
ATOM     20  O   UNL     1     141.844 -22.237  79.824  1.00  0.00    -0.507 OA
ATOM     21  H   UNL     1     142.166 -23.029  80.366  1.00  0.00     0.293 HD
ENDBRANCH  17  20
ENDBRANCH   1  12
BRANCH   2  22
ATOM     22  O   UNL     1     139.599 -21.094  77.998  1.00  0.00    -0.502 OA
ATOM     23  H   UNL     1     139.861 -21.224  77.029  1.00  0.00     0.293 HD
ENDBRANCH   2  22
BRANCH   6  24
ATOM     24  O   UNL     1     136.925 -17.367  80.714  1.00  0.00    -0.507 OA
ATOM     25  H   UNL     1     136.493 -18.244  80.464  1.00  0.00     0.293 HD
ENDBRANCH   6  24
BRANCH   8  26
ATOM     26  O   UNL     1     140.522 -14.378  81.801  1.00  0.00    -0.508 OA
ATOM     27  H   UNL     1     140.615 -13.522  81.267  1.00  0.00     0.293 HD
ENDBRANCH   8  26
TORSDOF 6
ENDMDL
MODEL 7
REMARK VINA RESULT:    -7.977      1.444      2.791
REMARK INTER + INTRA:         -10.010
REMARK INTER:                  -9.919
REMARK INTRA:                  -0.091
REMARK UNBOUND:                -0.400
REMARK SMILES O=c1c(O)c(-c2ccc(O)cc2O)oc2cc(O)cc(O)c12
REMARK SMILES IDX 5 1 3 2 2 3 1 4 22 5 20 6 19 7 17 8 16 9 15 10 14 11 6 12
REMARK SMILES IDX 8 13 7 14 9 15 11 16 12 17 10 18 13 20 4 22 21 24 18 26
REMARK H PARENT 10 19 13 21 4 23 21 25 18 27
REMARK Flexibility Score: inf
ROOT
ATOM      1  C   UNL     1     141.149 -20.179  78.878  1.00  0.00     0.184 A 
ATOM      2  C   UNL     1     141.276 -18.856  79.327  1.00  0.00     0.208 A 
ATOM      3  C   UNL     1     140.142 -18.193  79.820  1.00  0.00     0.238 A 
ATOM      4  O   UNL     1     140.274 -17.028  80.278  1.00  0.00    -0.285 OA
ATOM      5  C   UNL     1     138.889 -18.854  79.830  1.00  0.00     0.111 A 
ATOM      6  C   UNL     1     137.665 -18.265  80.271  1.00  0.00     0.134 A 
ATOM      7  C   UNL     1     136.510 -19.053  80.351  1.00  0.00     0.093 A 
ATOM      8  C   UNL     1     136.520 -20.390  79.946  1.00  0.00     0.123 A 
ATOM      9  C   UNL     1     137.695 -20.957  79.461  1.00  0.00     0.094 A 
ATOM     10  C   UNL     1     138.873 -20.207  79.402  1.00  0.00     0.146 A 
ATOM     11  O   UNL     1     139.974 -20.792  78.947  1.00  0.00    -0.451 OA
ENDROOT
BRANCH   1  12
ATOM     12  C   UNL     1     142.304 -20.919  78.327  1.00  0.00     0.063 A 
ATOM     13  C   UNL     1     143.804 -22.833  78.448  1.00  0.00     0.047 A 
ATOM     14  C   UNL     1     142.685 -22.139  78.913  1.00  0.00     0.020 A 
ATOM     15  C   UNL     1     144.564 -22.313  77.395  1.00  0.00     0.119 A 
ATOM     16  C   UNL     1     144.197 -21.100  76.806  1.00  0.00     0.093 A 
ATOM     17  C   UNL     1     143.070 -20.401  77.255  1.00  0.00     0.130 A 
BRANCH  15  18
ATOM     18  O   UNL     1     145.687 -22.992  76.927  1.00  0.00    -0.508 OA
ATOM     19  H   UNL     1     145.616 -23.692  76.196  1.00  0.00     0.293 HD
ENDBRANCH  15  18
BRANCH  17  20
ATOM     20  O   UNL     1     142.729 -19.213  76.606  1.00  0.00    -0.507 OA
ATOM     21  H   UNL     1     141.851 -19.082  76.120  1.00  0.00     0.293 HD
ENDBRANCH  17  20
ENDBRANCH   1  12
BRANCH   2  22
ATOM     22  O   UNL     1     142.524 -18.227  79.302  1.00  0.00    -0.502 OA
ATOM     23  H   UNL     1     142.823 -17.584  80.024  1.00  0.00     0.293 HD
ENDBRANCH   2  22
BRANCH   6  24
ATOM     24  O   UNL     1     137.526 -16.916  80.611  1.00  0.00    -0.507 OA
ATOM     25  H   UNL     1     137.315 -16.575  81.537  1.00  0.00     0.293 HD
ENDBRANCH   6  24
BRANCH   8  26
ATOM     26  O   UNL     1     135.362 -21.161  80.015  1.00  0.00    -0.508 OA
ATOM     27  H   UNL     1     135.401 -22.170  80.105  1.00  0.00     0.293 HD
ENDBRANCH   8  26
TORSDOF 6
ENDMDL
MODEL 8
REMARK VINA RESULT:    -7.760      3.875      6.237
REMARK INTER + INTRA:          -9.748
REMARK INTER:                  -9.350
REMARK INTRA:                  -0.398
REMARK UNBOUND:                -0.400
REMARK SMILES O=c1c(O)c(-c2ccc(O)cc2O)oc2cc(O)cc(O)c12
REMARK SMILES IDX 5 1 3 2 2 3 1 4 22 5 20 6 19 7 17 8 16 9 15 10 14 11 6 12
REMARK SMILES IDX 8 13 7 14 9 15 11 16 12 17 10 18 13 20 4 22 21 24 18 26
REMARK H PARENT 10 19 13 21 4 23 21 25 18 27
REMARK Flexibility Score: inf
ROOT
ATOM      1  C   UNL     1     138.902 -17.604  80.410  1.00  0.00     0.184 A 
ATOM      2  C   UNL     1     138.420 -16.421  80.988  1.00  0.00     0.208 A 
ATOM      3  C   UNL     1     139.332 -15.414  81.340  1.00  0.00     0.238 A 
ATOM      4  O   UNL     1     138.888 -14.331  81.802  1.00  0.00    -0.285 OA
ATOM      5  C   UNL     1     140.719 -15.617  81.136  1.00  0.00     0.111 A 
ATOM      6  C   UNL     1     141.737 -14.682  81.492  1.00  0.00     0.134 A 
ATOM      7  C   UNL     1     143.066 -14.938  81.131  1.00  0.00     0.093 A 
ATOM      8  C   UNL     1     143.422 -16.124  80.484  1.00  0.00     0.123 A 
ATOM      9  C   UNL     1     142.444 -17.068  80.184  1.00  0.00     0.094 A 
ATOM     10  C   UNL     1     141.104 -16.826  80.499  1.00  0.00     0.146 A 
ATOM     11  O   UNL     1     140.203 -17.747  80.181  1.00  0.00    -0.451 OA
ENDROOT
BRANCH   1  12
ATOM     12  C   UNL     1     137.991 -18.708  80.039  1.00  0.00     0.063 A 
ATOM     13  C   UNL     1     136.709 -20.666  80.709  1.00  0.00     0.047 A 
ATOM     14  C   UNL     1     137.527 -19.583  81.037  1.00  0.00     0.020 A 
ATOM     15  C   UNL     1     136.351 -20.895  79.376  1.00  0.00     0.119 A 
ATOM     16  C   UNL     1     136.808 -20.034  78.375  1.00  0.00     0.093 A 
ATOM     17  C   UNL     1     137.619 -18.937  78.693  1.00  0.00     0.130 A 
BRANCH  15  18
ATOM     18  O   UNL     1     135.540 -21.976  79.035  1.00  0.00    -0.508 OA
ATOM     19  H   UNL     1     134.529 -21.909  79.058  1.00  0.00     0.293 HD
ENDBRANCH  15  18
BRANCH  17  20
ATOM     20  O   UNL     1     138.017 -18.088  77.658  1.00  0.00    -0.507 OA
ATOM     21  H   UNL     1     138.170 -17.097  77.786  1.00  0.00     0.293 HD
ENDBRANCH  17  20
ENDBRANCH   1  12
BRANCH   2  22
ATOM     22  O   UNL     1     137.047 -16.248  81.182  1.00  0.00    -0.502 OA
ATOM     23  H   UNL     1     136.526 -15.499  80.743  1.00  0.00     0.293 HD
ENDBRANCH   2  22
BRANCH   6  24
ATOM     24  O   UNL     1     141.502 -13.511  82.218  1.00  0.00    -0.507 OA
ATOM     25  H   UNL     1     140.676 -13.330  82.768  1.00  0.00     0.293 HD
ENDBRANCH   6  24
BRANCH   8  26
ATOM     26  O   UNL     1     144.749 -16.376  80.143  1.00  0.00    -0.508 OA
ATOM     27  H   UNL     1     145.054 -16.394  79.176  1.00  0.00     0.293 HD
ENDBRANCH   8  26
TORSDOF 6
ENDMDL
MODEL 9
REMARK VINA RESULT:    -7.583      4.310      7.589
REMARK INTER + INTRA:          -9.535
REMARK INTER:                  -9.227
REMARK INTRA:                  -0.308
REMARK UNBOUND:                -0.400
REMARK SMILES O=c1c(O)c(-c2ccc(O)cc2O)oc2cc(O)cc(O)c12
REMARK SMILES IDX 5 1 3 2 2 3 1 4 22 5 20 6 19 7 17 8 16 9 15 10 14 11 6 12
REMARK SMILES IDX 8 13 7 14 9 15 11 16 12 17 10 18 13 20 4 22 21 24 18 26
REMARK H PARENT 10 19 13 21 4 23 21 25 18 27
REMARK Flexibility Score: inf
ROOT
ATOM      1  C   UNL     1     135.515 -19.560  77.810  1.00  0.00     0.184 A 
ATOM      2  C   UNL     1     135.449 -20.587  78.763  1.00  0.00     0.208 A 
ATOM      3  C   UNL     1     136.606 -20.922  79.482  1.00  0.00     0.238 A 
ATOM      4  O   UNL     1     136.527 -21.802  80.379  1.00  0.00    -0.285 OA
ATOM      5  C   UNL     1     137.822 -20.244  79.218  1.00  0.00     0.111 A 
ATOM      6  C   UNL     1     139.066 -20.528  79.858  1.00  0.00     0.134 A 
ATOM      7  C   UNL     1     140.175 -19.711  79.605  1.00  0.00     0.093 A 
ATOM      8  C   UNL     1     140.102 -18.661  78.687  1.00  0.00     0.123 A 
ATOM      9  C   UNL     1     138.909 -18.412  78.014  1.00  0.00     0.094 A 
ATOM     10  C   UNL     1     137.775 -19.186  78.271  1.00  0.00     0.146 A 
ATOM     11  O   UNL     1     136.654 -18.905  77.618  1.00  0.00    -0.451 OA
ENDROOT
BRANCH   1  12
ATOM     12  C   UNL     1     134.334 -19.179  77.005  1.00  0.00     0.063 A 
ATOM     13  C   UNL     1     132.041 -18.365  76.925  1.00  0.00     0.047 A 
ATOM     14  C   UNL     1     133.189 -18.682  77.654  1.00  0.00     0.020 A 
ATOM     15  C   UNL     1     132.017 -18.550  75.538  1.00  0.00     0.119 A 
ATOM     16  C   UNL     1     133.147 -19.046  74.884  1.00  0.00     0.093 A 
ATOM     17  C   UNL     1     134.309 -19.355  75.601  1.00  0.00     0.130 A 
BRANCH  15  18
ATOM     18  O   UNL     1     130.875 -18.244  74.801  1.00  0.00    -0.508 OA
ATOM     19  H   UNL     1     130.643 -17.288  74.555  1.00  0.00     0.293 HD
ENDBRANCH  15  18
BRANCH  17  20
ATOM     20  O   UNL     1     135.421 -19.813  74.892  1.00  0.00    -0.507 OA
ATOM     21  H   UNL     1     135.941 -20.640  75.153  1.00  0.00     0.293 HD
ENDBRANCH  17  20
ENDBRANCH   1  12
BRANCH   2  22
ATOM     22  O   UNL     1     134.238 -21.242  79.001  1.00  0.00    -0.502 OA
ATOM     23  H   UNL     1     134.019 -22.143  78.596  1.00  0.00     0.293 HD
ENDBRANCH   2  22
BRANCH   6  24
ATOM     24  O   UNL     1     139.270 -21.607  80.722  1.00  0.00    -0.507 OA
ATOM     25  H   UNL     1     140.146 -21.829  81.170  1.00  0.00     0.293 HD
ENDBRANCH   6  24
BRANCH   8  26
ATOM     26  O   UNL     1     141.215 -17.864  78.430  1.00  0.00    -0.508 OA
ATOM     27  H   UNL     1     141.142 -17.011  77.886  1.00  0.00     0.293 HD
ENDBRANCH   8  26
TORSDOF 6
ENDMDL
