MODEL 1
REMARK VINA RESULT:    -3.553      0.000      0.000
REMARK INTER + INTRA:          -4.307
REMARK INTER:                  -4.176
REMARK INTRA:                  -0.130
REMARK UNBOUND:                -0.130
REMARK SMILES O=C([O-])C=Cc1ccc(O)c(O)c1
REMARK SMILES IDX 6 1 13 2 7 3 11 4 8 5 9 6 5 7 4 8 2 9 1 10 3 11 12 12 10 14
REMARK H PARENT 12 13 10 15
REMARK Flexibility Score: inf
ROOT
ATOM      1  C   UNL     1      32.871  63.240  21.183  1.00  0.00    -0.022 A 
ATOM      2  C   UNL     1      32.957  61.838  21.144  1.00  0.00     0.058 A 
ATOM      3  C   UNL     1      32.893  63.956  19.970  1.00  0.00     0.012 A 
ATOM      4  C   UNL     1      33.037  61.158  19.919  1.00  0.00     0.157 A 
ATOM      5  C   UNL     1      32.975  63.280  18.750  1.00  0.00     0.051 A 
ATOM      6  C   UNL     1      33.045  61.885  18.718  1.00  0.00     0.157 A 
ENDROOT
BRANCH   1   7
ATOM      7  C   UNL     1      32.796  63.911  22.506  1.00  0.00     0.010 C 
ATOM      8  C   UNL     1      31.822  64.764  22.854  1.00  0.00     0.025 C 
BRANCH   8   9
ATOM      9  C   UNL     1      31.775  65.402  24.180  1.00  0.00     0.064 C 
ATOM     10  O   UNL     1      30.696  65.853  24.650  1.00  0.00    -0.545 OA
ATOM     11  O   UNL     1      32.941  65.509  24.927  1.00  0.00    -0.545 OA
ENDBRANCH   8   9
ENDBRANCH   1   7
BRANCH   4  12
ATOM     12  O   UNL     1      33.112  59.767  19.896  1.00  0.00    -0.504 OA
ATOM     13  H   UNL     1      33.897  59.284  19.474  1.00  0.00     0.293 HD
ENDBRANCH   4  12
BRANCH   6  14
ATOM     14  O   UNL     1      33.124  61.238  17.484  1.00  0.00    -0.504 OA
ATOM     15  H   UNL     1      32.360  60.683  17.118  1.00  0.00     0.293 HD
ENDBRANCH   6  14
TORSDOF 4
ENDMDL
MODEL 2
REMARK VINA RESULT:    -3.496     16.413     17.203
REMARK INTER + INTRA:          -4.239
REMARK INTER:                  -4.111
REMARK INTRA:                  -0.129
REMARK UNBOUND:                -0.130
REMARK SMILES O=C([O-])C=Cc1ccc(O)c(O)c1
REMARK SMILES IDX 6 1 13 2 7 3 11 4 8 5 9 6 5 7 4 8 2 9 1 10 3 11 12 12 10 14
REMARK H PARENT 12 13 10 15
REMARK Flexibility Score: inf
ROOT
ATOM      1  C   UNL     1      16.962  65.582  16.373  1.00  0.00    -0.022 A 
ATOM      2  C   UNL     1      16.020  66.003  15.420  1.00  0.00     0.058 A 
ATOM      3  C   UNL     1      16.513  64.873  17.505  1.00  0.00     0.012 A 
ATOM      4  C   UNL     1      14.658  65.703  15.576  1.00  0.00     0.157 A 
ATOM      5  C   UNL     1      15.157  64.574  17.661  1.00  0.00     0.051 A 
ATOM      6  C   UNL     1      14.227  64.983  16.702  1.00  0.00     0.157 A 
ENDROOT
BRANCH   1   7
ATOM      7  C   UNL     1      18.389  65.933  16.165  1.00  0.00     0.010 C 
ATOM      8  C   UNL     1      19.375  65.029  16.082  1.00  0.00     0.025 C 
BRANCH   8   9
ATOM      9  C   UNL     1      20.779  65.415  15.864  1.00  0.00     0.064 C 
ATOM     10  O   UNL     1      21.115  66.125  14.878  1.00  0.00    -0.545 OA
ATOM     11  O   UNL     1      21.750  64.990  16.761  1.00  0.00    -0.545 OA
ENDBRANCH   8   9
ENDBRANCH   1   7
BRANCH   4  12
ATOM     12  O   UNL     1      13.736  66.119  14.617  1.00  0.00    -0.504 OA
ATOM     13  H   UNL     1      13.445  65.511  13.860  1.00  0.00     0.293 HD
ENDBRANCH   4  12
BRANCH   6  14
ATOM     14  O   UNL     1      12.880  64.669  16.885  1.00  0.00    -0.504 OA
ATOM     15  H   UNL     1      12.266  64.457  16.108  1.00  0.00     0.293 HD
ENDBRANCH   6  14
TORSDOF 4
ENDMDL
MODEL 3
REMARK VINA RESULT:    -3.215      2.519      6.021
REMARK INTER + INTRA:          -3.909
REMARK INTER:                  -3.778
REMARK INTRA:                  -0.131
REMARK UNBOUND:                -0.130
REMARK SMILES O=C([O-])C=Cc1ccc(O)c(O)c1
REMARK SMILES IDX 6 1 13 2 7 3 11 4 8 5 9 6 5 7 4 8 2 9 1 10 3 11 12 12 10 14
REMARK H PARENT 12 13 10 15
REMARK Flexibility Score: inf
ROOT
ATOM      1  C   UNL     1      32.623  63.510  18.604  1.00  0.00    -0.022 A 
ATOM      2  C   UNL     1      32.780  62.168  18.988  1.00  0.00     0.058 A 
ATOM      3  C   UNL     1      32.501  64.494  19.604  1.00  0.00     0.012 A 
ATOM      4  C   UNL     1      32.840  61.812  20.344  1.00  0.00     0.157 A 
ATOM      5  C   UNL     1      32.560  64.141  20.955  1.00  0.00     0.051 A 
ATOM      6  C   UNL     1      32.731  62.806  21.331  1.00  0.00     0.157 A 
ENDROOT
BRANCH   1   7
ATOM      7  C   UNL     1      32.557  63.831  17.156  1.00  0.00     0.010 C 
ATOM      8  C   UNL     1      32.137  62.968  16.219  1.00  0.00     0.025 C 
BRANCH   8   9
ATOM      9  C   UNL     1      32.075  63.326  14.793  1.00  0.00     0.064 C 
ATOM     10  O   UNL     1      33.125  63.489  14.115  1.00  0.00    -0.545 OA
ATOM     11  O   UNL     1      30.838  63.486  14.183  1.00  0.00    -0.545 OA
ENDBRANCH   8   9
ENDBRANCH   1   7
BRANCH   4  12
ATOM     12  O   UNL     1      33.005  60.478  20.711  1.00  0.00    -0.504 OA
ATOM     13  H   UNL     1      33.865  59.977  20.521  1.00  0.00     0.293 HD
ENDBRANCH   4  12
BRANCH   6  14
ATOM     14  O   UNL     1      32.787  62.484  22.687  1.00  0.00    -0.504 OA
ATOM     15  H   UNL     1      33.171  63.121  23.376  1.00  0.00     0.293 HD
ENDBRANCH   6  14
TORSDOF 4
ENDMDL
MODEL 4
REMARK VINA RESULT:    -3.104     19.756     20.365
REMARK INTER + INTRA:          -3.778
REMARK INTER:                  -3.641
REMARK INTRA:                  -0.137
REMARK UNBOUND:                -0.130
REMARK SMILES O=C([O-])C=Cc1ccc(O)c(O)c1
REMARK SMILES IDX 6 1 13 2 7 3 11 4 8 5 9 6 5 7 4 8 2 9 1 10 3 11 12 12 10 14
REMARK H PARENT 12 13 10 15
REMARK Flexibility Score: inf
ROOT
ATOM      1  C   UNL     1      14.144  65.012  13.236  1.00  0.00    -0.022 A 
ATOM      2  C   UNL     1      14.883  65.684  12.248  1.00  0.00     0.058 A 
ATOM      3  C   UNL     1      13.126  64.124  12.836  1.00  0.00     0.012 A 
ATOM      4  C   UNL     1      14.633  65.458  10.886  1.00  0.00     0.157 A 
ATOM      5  C   UNL     1      12.875  63.899  11.480  1.00  0.00     0.051 A 
ATOM      6  C   UNL     1      13.624  64.559  10.502  1.00  0.00     0.157 A 
ENDROOT
BRANCH   1   7
ATOM      7  C   UNL     1      14.444  65.294  14.662  1.00  0.00     0.010 C 
ATOM      8  C   UNL     1      13.886  64.631  15.686  1.00  0.00     0.025 C 
BRANCH   8   9
ATOM      9  C   UNL     1      14.216  64.932  17.089  1.00  0.00     0.064 C 
ATOM     10  O   UNL     1      13.631  65.857  17.713  1.00  0.00    -0.545 OA
ATOM     11  O   UNL     1      15.190  64.182  17.736  1.00  0.00    -0.545 OA
ENDBRANCH   8   9
ENDBRANCH   1   7
BRANCH   4  12
ATOM     12  O   UNL     1      15.380  66.125   9.917  1.00  0.00    -0.504 OA
ATOM     13  H   UNL     1      15.057  66.207   8.960  1.00  0.00     0.293 HD
ENDBRANCH   4  12
BRANCH   6  14
ATOM     14  O   UNL     1      13.351  64.313   9.157  1.00  0.00    -0.504 OA
ATOM     15  H   UNL     1      12.790  64.944   8.598  1.00  0.00     0.293 HD
ENDBRANCH   6  14
TORSDOF 4
ENDMDL
MODEL 5
REMARK VINA RESULT:    -2.903      2.070      5.733
REMARK INTER + INTRA:          -3.543
REMARK INTER:                  -3.403
REMARK INTRA:                  -0.139
REMARK UNBOUND:                -0.130
REMARK SMILES O=C([O-])C=Cc1ccc(O)c(O)c1
REMARK SMILES IDX 6 1 13 2 7 3 11 4 8 5 9 6 5 7 4 8 2 9 1 10 3 11 12 12 10 14
REMARK H PARENT 12 13 10 15
REMARK Flexibility Score: inf
ROOT
ATOM      1  C   UNL     1      32.364  63.008  20.136  1.00  0.00    -0.022 A 
ATOM      2  C   UNL     1      32.358  63.941  21.187  1.00  0.00     0.058 A 
ATOM      3  C   UNL     1      32.650  61.660  20.427  1.00  0.00     0.012 A 
ATOM      4  C   UNL     1      32.606  63.536  22.507  1.00  0.00     0.157 A 
ATOM      5  C   UNL     1      32.898  61.255  21.741  1.00  0.00     0.051 A 
ATOM      6  C   UNL     1      32.875  62.186  22.784  1.00  0.00     0.157 A 
ENDROOT
BRANCH   1   7
ATOM      7  C   UNL     1      32.105  63.490  18.757  1.00  0.00     0.010 C 
ATOM      8  C   UNL     1      32.680  62.968  17.664  1.00  0.00     0.025 C 
BRANCH   8   9
ATOM      9  C   UNL     1      32.390  63.467  16.309  1.00  0.00     0.064 C 
ATOM     10  O   UNL     1      33.125  63.166  15.331  1.00  0.00    -0.545 OA
ATOM     11  O   UNL     1      31.285  64.283  16.105  1.00  0.00    -0.545 OA
ENDBRANCH   8   9
ENDBRANCH   1   7
BRANCH   4  12
ATOM     12  O   UNL     1      32.587  64.471  23.541  1.00  0.00    -0.504 OA
ATOM     13  H   UNL     1      33.190  65.284  23.533  1.00  0.00     0.293 HD
ENDBRANCH   4  12
BRANCH   6  14
ATOM     14  O   UNL     1      33.125  61.752  24.086  1.00  0.00    -0.504 OA
ATOM     15  H   UNL     1      32.738  60.889  24.449  1.00  0.00     0.293 HD
ENDBRANCH   6  14
TORSDOF 4
ENDMDL
MODEL 6
REMARK VINA RESULT:    -2.826      4.354      5.082
REMARK INTER + INTRA:          -3.452
REMARK INTER:                  -3.313
REMARK INTRA:                  -0.139
REMARK UNBOUND:                -0.130
REMARK SMILES O=C([O-])C=Cc1ccc(O)c(O)c1
REMARK SMILES IDX 6 1 13 2 7 3 11 4 8 5 9 6 5 7 4 8 2 9 1 10 3 11 12 12 10 14
REMARK H PARENT 12 13 10 15
REMARK Flexibility Score: inf
ROOT
ATOM      1  C   UNL     1      29.634  65.647  19.379  1.00  0.00    -0.022 A 
ATOM      2  C   UNL     1      30.124  65.214  18.135  1.00  0.00     0.058 A 
ATOM      3  C   UNL     1      28.308  66.115  19.462  1.00  0.00     0.012 A 
ATOM      4  C   UNL     1      29.301  65.222  16.999  1.00  0.00     0.157 A 
ATOM      5  C   UNL     1      27.489  66.125  18.331  1.00  0.00     0.051 A 
ATOM      6  C   UNL     1      27.977  65.679  17.099  1.00  0.00     0.157 A 
ENDROOT
BRANCH   1   7
ATOM      7  C   UNL     1      30.549  65.626  20.549  1.00  0.00     0.010 C 
ATOM      8  C   UNL     1      30.137  65.744  21.819  1.00  0.00     0.025 C 
BRANCH   8   9
ATOM      9  C   UNL     1      31.073  65.708  22.955  1.00  0.00     0.064 C 
ATOM     10  O   UNL     1      32.279  66.051  22.818  1.00  0.00    -0.545 OA
ATOM     11  O   UNL     1      30.620  65.290  24.199  1.00  0.00    -0.545 OA
ENDBRANCH   8   9
ENDBRANCH   1   7
BRANCH   4  12
ATOM     12  O   UNL     1      29.797  64.781  15.773  1.00  0.00    -0.504 OA
ATOM     13  H   UNL     1      30.721  64.373  15.689  1.00  0.00     0.293 HD
ENDBRANCH   4  12
BRANCH   6  14
ATOM     14  O   UNL     1      27.134  65.699  15.988  1.00  0.00    -0.504 OA
ATOM     15  H   UNL     1      26.953  64.870  15.435  1.00  0.00     0.293 HD
ENDBRANCH   6  14
TORSDOF 4
ENDMDL
MODEL 7
REMARK VINA RESULT:    -2.760     17.237     18.183
REMARK INTER + INTRA:          -3.374
REMARK INTER:                  -3.244
REMARK INTRA:                  -0.130
REMARK UNBOUND:                -0.130
REMARK SMILES O=C([O-])C=Cc1ccc(O)c(O)c1
REMARK SMILES IDX 6 1 13 2 7 3 11 4 8 5 9 6 5 7 4 8 2 9 1 10 3 11 12 12 10 14
REMARK H PARENT 12 13 10 15
REMARK Flexibility Score: inf
ROOT
ATOM      1  C   UNL     1      16.743  66.067  14.369  1.00  0.00    -0.022 A 
ATOM      2  C   UNL     1      17.937  66.085  13.628  1.00  0.00     0.058 A 
ATOM      3  C   UNL     1      16.817  66.032  15.775  1.00  0.00     0.012 A 
ATOM      4  C   UNL     1      19.182  66.096  14.274  1.00  0.00     0.157 A 
ATOM      5  C   UNL     1      18.057  66.041  16.420  1.00  0.00     0.051 A 
ATOM      6  C   UNL     1      19.240  66.075  15.677  1.00  0.00     0.157 A 
ENDROOT
BRANCH   1   7
ATOM      7  C   UNL     1      15.452  66.048  13.636  1.00  0.00     0.010 C 
ATOM      8  C   UNL     1      15.147  65.152  12.687  1.00  0.00     0.025 C 
BRANCH   8   9
ATOM      9  C   UNL     1      13.851  65.159  11.989  1.00  0.00     0.064 C 
ATOM     10  O   UNL     1      12.943  65.973  12.305  1.00  0.00    -0.545 OA
ATOM     11  O   UNL     1      13.625  64.252  10.962  1.00  0.00    -0.545 OA
ENDBRANCH   8   9
ENDBRANCH   1   7
BRANCH   4  12
ATOM     12  O   UNL     1      20.358  66.124  13.526  1.00  0.00    -0.504 OA
ATOM     13  H   UNL     1      21.224  66.485  13.910  1.00  0.00     0.293 HD
ENDBRANCH   4  12
BRANCH   6  14
ATOM     14  O   UNL     1      20.463  66.085  16.349  1.00  0.00    -0.504 OA
ATOM     15  H   UNL     1      20.547  66.397  17.309  1.00  0.00     0.293 HD
ENDBRANCH   6  14
TORSDOF 4
ENDMDL
MODEL 8
REMARK VINA RESULT:    -2.711      3.101      4.360
REMARK INTER + INTRA:          -3.317
REMARK INTER:                  -3.188
REMARK INTRA:                  -0.129
REMARK UNBOUND:                -0.130
REMARK SMILES O=C([O-])C=Cc1ccc(O)c(O)c1
REMARK SMILES IDX 6 1 13 2 7 3 11 4 8 5 9 6 5 7 4 8 2 9 1 10 3 11 12 12 10 14
REMARK H PARENT 12 13 10 15
REMARK Flexibility Score: inf
ROOT
ATOM      1  C   UNL     1      32.109  63.869  18.108  1.00  0.00    -0.022 A 
ATOM      2  C   UNL     1      30.965  64.594  17.737  1.00  0.00     0.058 A 
ATOM      3  C   UNL     1      32.769  63.094  17.134  1.00  0.00     0.012 A 
ATOM      4  C   UNL     1      30.500  64.571  16.413  1.00  0.00     0.157 A 
ATOM      5  C   UNL     1      32.306  63.070  15.816  1.00  0.00     0.051 A 
ATOM      6  C   UNL     1      31.176  63.806  15.449  1.00  0.00     0.157 A 
ENDROOT
BRANCH   1   7
ATOM      7  C   UNL     1      32.555  63.920  19.524  1.00  0.00     0.010 C 
ATOM      8  C   UNL     1      32.393  62.913  20.393  1.00  0.00     0.025 C 
BRANCH   8   9
ATOM      9  C   UNL     1      32.858  62.997  21.788  1.00  0.00     0.064 C 
ATOM     10  O   UNL     1      33.017  64.110  22.357  1.00  0.00    -0.545 OA
ATOM     11  O   UNL     1      33.125  61.828  22.489  1.00  0.00    -0.545 OA
ENDBRANCH   8   9
ENDBRANCH   1   7
BRANCH   4  12
ATOM     12  O   UNL     1      29.369  65.304  16.057  1.00  0.00    -0.504 OA
ATOM     13  H   UNL     1      28.492  65.206  16.556  1.00  0.00     0.293 HD
ENDBRANCH   4  12
BRANCH   6  14
ATOM     14  O   UNL     1      30.738  63.763  14.126  1.00  0.00    -0.504 OA
ATOM     15  H   UNL     1      30.479  64.600  13.617  1.00  0.00     0.293 HD
ENDBRANCH   6  14
TORSDOF 4
ENDMDL
MODEL 9
REMARK VINA RESULT:    -1.930     19.143     20.267
REMARK INTER + INTRA:          -2.399
REMARK INTER:                  -2.273
REMARK INTRA:                  -0.126
REMARK UNBOUND:                -0.130
REMARK SMILES O=C([O-])C=Cc1ccc(O)c(O)c1
REMARK SMILES IDX 6 1 13 2 7 3 11 4 8 5 9 6 5 7 4 8 2 9 1 10 3 11 12 12 10 14
REMARK H PARENT 12 13 10 15
REMARK Flexibility Score: inf
ROOT
ATOM      1  C   UNL     1      14.199  65.370  14.335  1.00  0.00    -0.022 A 
ATOM      2  C   UNL     1      15.508  65.750  14.675  1.00  0.00     0.058 A 
ATOM      3  C   UNL     1      13.384  64.782  15.321  1.00  0.00     0.012 A 
ATOM      4  C   UNL     1      15.990  65.573  15.980  1.00  0.00     0.157 A 
ATOM      5  C   UNL     1      13.864  64.603  16.621  1.00  0.00     0.051 A 
ATOM      6  C   UNL     1      15.162  64.997  16.957  1.00  0.00     0.157 A 
ENDROOT
BRANCH   1   7
ATOM      7  C   UNL     1      13.741  65.573  12.937  1.00  0.00     0.010 C 
ATOM      8  C   UNL     1      14.223  64.890  11.888  1.00  0.00     0.025 C 
BRANCH   8   9
ATOM      9  C   UNL     1      13.736  65.111  10.517  1.00  0.00     0.064 C 
ATOM     10  O   UNL     1      14.086  66.125   9.855  1.00  0.00    -0.545 OA
ATOM     11  O   UNL     1      12.875  64.186   9.941  1.00  0.00    -0.545 OA
ENDBRANCH   8   9
ENDBRANCH   1   7
BRANCH   4  12
ATOM     12  O   UNL     1      17.288  65.963  16.306  1.00  0.00    -0.504 OA
ATOM     13  H   UNL     1      17.955  65.313  16.704  1.00  0.00     0.293 HD
ENDBRANCH   4  12
BRANCH   6  14
ATOM     14  O   UNL     1      15.612  64.807  18.264  1.00  0.00    -0.504 OA
ATOM     15  H   UNL     1      16.079  65.540  18.784  1.00  0.00     0.293 HD
ENDBRANCH   6  14
TORSDOF 4
ENDMDL
