MODEL 1
REMARK VINA RESULT:    -4.027      0.000      0.000
REMARK INTER + INTRA:         -16.375
REMARK INTER:                 -10.619
REMARK INTRA:                  -5.756
REMARK UNBOUND:                -5.756
REMARK SMILES CCCCCCCCCCCCCCCCCCCCCCCCCCCCCC(=O)[O-]
REMARK SMILES IDX 16 1 17 2 18 3 19 4 20 5 21 6 22 7 23 8 24 9 25 10 26 11
REMARK SMILES IDX 27 12 28 13 29 14 30 15 31 16 32 17 15 18 14 19 13 20 12 21
REMARK SMILES IDX 11 22 10 23 9 24 8 25 7 26 6 27 5 28 4 29 3 30 2 31 1 32
REMARK H PARENT
REMARK Flexibility Score: inf
ROOT
ATOM      1  C   UNL     1     194.055 190.424 198.977  1.00  0.00     0.000 C 
ENDROOT
BRANCH   1   2
ATOM      2  C   UNL     1     193.962 191.227 200.287  1.00  0.00     0.000 C 
BRANCH   2   3
ATOM      3  C   UNL     1     195.326 191.764 200.754  1.00  0.00     0.000 C 
BRANCH   3   4
ATOM      4  C   UNL     1     196.199 192.256 199.588  1.00  0.00     0.000 C 
BRANCH   4   5
ATOM      5  C   UNL     1     197.681 191.895 199.769  1.00  0.00     0.000 C 
BRANCH   5   6
ATOM      6  C   UNL     1     198.577 192.802 198.913  1.00  0.00     0.000 C 
BRANCH   6   7
ATOM      7  C   UNL     1     197.994 194.216 198.732  1.00  0.00     0.000 C 
BRANCH   7   8
ATOM      8  C   UNL     1     198.785 195.342 199.427  1.00  0.00     0.000 C 
BRANCH   8   9
ATOM      9  C   UNL     1     198.642 195.393 200.962  1.00  0.00     0.000 C 
BRANCH   9  10
ATOM     10  C   UNL     1     197.375 196.105 201.470  1.00  0.00     0.000 C 
BRANCH  10  11
ATOM     11  C   UNL     1     196.338 195.128 202.049  1.00  0.00     0.000 C 
BRANCH  11  12
ATOM     12  C   UNL     1     194.943 195.316 201.432  1.00  0.00     0.000 C 
BRANCH  12  13
ATOM     13  C   UNL     1     195.001 195.914 200.014  1.00  0.00     0.006 C 
BRANCH  13  14
ATOM     14  C   UNL     1     193.920 195.331 199.094  1.00  0.00     0.053 C 
BRANCH  14  15
ATOM     15  C   UNL     1     192.805 196.303 198.857  1.00  0.00     0.041 C 
ATOM     16  O   UNL     1     192.235 196.352 197.735  1.00  0.00    -0.550 OA
ATOM     17  O   UNL     1     192.419 197.178 199.864  1.00  0.00    -0.550 OA
ENDBRANCH  14  15
ENDBRANCH  13  14
ENDBRANCH  12  13
ENDBRANCH  11  12
ENDBRANCH  10  11
ENDBRANCH   9  10
ENDBRANCH   8   9
ENDBRANCH   7   8
ENDBRANCH   6   7
ENDBRANCH   5   6
ENDBRANCH   4   5
ENDBRANCH   3   4
ENDBRANCH   2   3
ENDBRANCH   1   2
BRANCH   1  18
ATOM     18  C   UNL     1     194.376 188.930 199.160  1.00  0.00     0.000 C 
BRANCH  18  19
ATOM     19  C   UNL     1     195.778 188.554 198.646  1.00  0.00     0.000 C 
BRANCH  19  20
ATOM     20  C   UNL     1     196.791 188.367 199.786  1.00  0.00     0.000 C 
BRANCH  20  21
ATOM     21  C   UNL     1     198.240 188.294 199.277  1.00  0.00     0.000 C 
BRANCH  21  22
ATOM     22  C   UNL     1     198.330 188.291 197.743  1.00  0.00     0.000 C 
BRANCH  22  23
ATOM     23  C   UNL     1     198.962 189.578 197.188  1.00  0.00     0.000 C 
BRANCH  23  24
ATOM     24  C   UNL     1     198.275 190.078 195.905  1.00  0.00    -0.000 C 
BRANCH  24  25
ATOM     25  C   UNL     1     196.851 190.642 196.091  1.00  0.00    -0.000 C 
BRANCH  25  26
ATOM     26  C   UNL     1     196.687 192.137 195.759  1.00  0.00    -0.000 C 
BRANCH  26  27
ATOM     27  C   UNL     1     195.251 192.643 195.971  1.00  0.00    -0.000 C 
BRANCH  27  28
ATOM     28  C   UNL     1     194.195 191.676 195.411  1.00  0.00    -0.000 C 
BRANCH  28  29
ATOM     29  C   UNL     1     193.510 192.206 194.140  1.00  0.00    -0.000 C 
BRANCH  29  30
ATOM     30  C   UNL     1     193.804 193.703 193.903  1.00  0.00    -0.000 C 
BRANCH  30  31
ATOM     31  C   UNL     1     192.759 194.402 193.018  1.00  0.00    -0.003 C 
ATOM     32  C   UNL     1     192.712 193.848 191.596  1.00  0.00     0.004 C 
ENDBRANCH  30  31
ENDBRANCH  29  30
ENDBRANCH  28  29
ENDBRANCH  27  28
ENDBRANCH  26  27
ENDBRANCH  25  26
ENDBRANCH  24  25
ENDBRANCH  23  24
ENDBRANCH  22  23
ENDBRANCH  21  22
ENDBRANCH  20  21
ENDBRANCH  19  20
ENDBRANCH  18  19
ENDBRANCH   1  18
TORSDOF 28
ENDMDL
MODEL 2
REMARK VINA RESULT:    -3.875     11.612     14.907
REMARK INTER + INTRA:         -15.975
REMARK INTER:                 -11.345
REMARK INTRA:                  -4.630
REMARK UNBOUND:                -5.756
REMARK SMILES CCCCCCCCCCCCCCCCCCCCCCCCCCCCCC(=O)[O-]
REMARK SMILES IDX 16 1 17 2 18 3 19 4 20 5 21 6 22 7 23 8 24 9 25 10 26 11
REMARK SMILES IDX 27 12 28 13 29 14 30 15 31 16 32 17 15 18 14 19 13 20 12 21
REMARK SMILES IDX 11 22 10 23 9 24 8 25 7 26 6 27 5 28 4 29 3 30 2 31 1 32
REMARK H PARENT
REMARK Flexibility Score: inf
ROOT
ATOM      1  C   UNL     1     182.236 185.150 199.147  1.00  0.00     0.000 C 
ENDROOT
BRANCH   1   2
ATOM      2  C   UNL     1     181.910 186.381 200.012  1.00  0.00     0.000 C 
BRANCH   2   3
ATOM      3  C   UNL     1     183.166 187.040 200.607  1.00  0.00     0.000 C 
BRANCH   3   4
ATOM      4  C   UNL     1     183.198 188.561 200.383  1.00  0.00     0.000 C 
BRANCH   4   5
ATOM      5  C   UNL     1     184.030 188.957 199.154  1.00  0.00     0.000 C 
BRANCH   5   6
ATOM      6  C   UNL     1     183.357 190.100 198.379  1.00  0.00     0.000 C 
BRANCH   6   7
ATOM      7  C   UNL     1     182.168 189.622 197.527  1.00  0.00     0.000 C 
BRANCH   7   8
ATOM      8  C   UNL     1     182.532 189.146 196.106  1.00  0.00     0.000 C 
BRANCH   8   9
ATOM      9  C   UNL     1     181.940 187.781 195.700  1.00  0.00     0.000 C 
BRANCH   9  10
ATOM     10  C   UNL     1     182.861 186.575 195.958  1.00  0.00     0.000 C 
BRANCH  10  11
ATOM     11  C   UNL     1     184.317 186.989 196.228  1.00  0.00     0.000 C 
BRANCH  11  12
ATOM     12  C   UNL     1     185.295 186.420 195.188  1.00  0.00     0.000 C 
BRANCH  12  13
ATOM     13  C   UNL     1     184.733 186.484 193.756  1.00  0.00     0.006 C 
BRANCH  13  14
ATOM     14  C   UNL     1     185.800 186.168 192.699  1.00  0.00     0.053 C 
BRANCH  14  15
ATOM     15  C   UNL     1     185.805 184.717 192.326  1.00  0.00     0.041 C 
ATOM     16  O   UNL     1     184.801 183.996 192.571  1.00  0.00    -0.550 OA
ATOM     17  O   UNL     1     186.930 184.153 191.738  1.00  0.00    -0.550 OA
ENDBRANCH  14  15
ENDBRANCH  13  14
ENDBRANCH  12  13
ENDBRANCH  11  12
ENDBRANCH  10  11
ENDBRANCH   9  10
ENDBRANCH   8   9
ENDBRANCH   7   8
ENDBRANCH   6   7
ENDBRANCH   5   6
ENDBRANCH   4   5
ENDBRANCH   3   4
ENDBRANCH   2   3
ENDBRANCH   1   2
BRANCH   1  18
ATOM     18  C   UNL     1     181.901 183.798 199.800  1.00  0.00     0.000 C 
BRANCH  18  19
ATOM     19  C   UNL     1     181.696 183.904 201.322  1.00  0.00     0.000 C 
BRANCH  19  20
ATOM     20  C   UNL     1     182.737 183.098 202.114  1.00  0.00     0.000 C 
BRANCH  20  21
ATOM     21  C   UNL     1     182.760 181.614 201.713  1.00  0.00     0.000 C 
BRANCH  21  22
ATOM     22  C   UNL     1     184.141 180.968 201.910  1.00  0.00     0.000 C 
BRANCH  22  23
ATOM     23  C   UNL     1     184.336 179.719 201.033  1.00  0.00     0.000 C 
BRANCH  23  24
ATOM     24  C   UNL     1     185.573 179.816 200.122  1.00  0.00    -0.000 C 
BRANCH  24  25
ATOM     25  C   UNL     1     185.781 181.177 199.427  1.00  0.00    -0.000 C 
BRANCH  25  26
ATOM     26  C   UNL     1     187.074 181.921 199.810  1.00  0.00    -0.000 C 
BRANCH  26  27
ATOM     27  C   UNL     1     186.807 183.254 200.528  1.00  0.00    -0.000 C 
BRANCH  27  28
ATOM     28  C   UNL     1     185.596 184.005 199.950  1.00  0.00    -0.000 C 
BRANCH  28  29
ATOM     29  C   UNL     1     185.992 185.260 199.154  1.00  0.00    -0.000 C 
BRANCH  29  30
ATOM     30  C   UNL     1     187.164 186.019 199.813  1.00  0.00    -0.000 C 
BRANCH  30  31
ATOM     31  C   UNL     1     187.428 187.401 199.192  1.00  0.00    -0.003 C 
ATOM     32  C   UNL     1     187.485 188.521 200.228  1.00  0.00     0.004 C 
ENDBRANCH  30  31
ENDBRANCH  29  30
ENDBRANCH  28  29
ENDBRANCH  27  28
ENDBRANCH  26  27
ENDBRANCH  25  26
ENDBRANCH  24  25
ENDBRANCH  23  24
ENDBRANCH  22  23
ENDBRANCH  21  22
ENDBRANCH  20  21
ENDBRANCH  19  20
ENDBRANCH  18  19
ENDBRANCH   1  18
TORSDOF 28
ENDMDL
MODEL 3
REMARK VINA RESULT:    -3.866      1.819      6.455
REMARK INTER + INTRA:         -15.949
REMARK INTER:                 -10.864
REMARK INTRA:                  -5.086
REMARK UNBOUND:                -5.756
REMARK SMILES CCCCCCCCCCCCCCCCCCCCCCCCCCCCCC(=O)[O-]
REMARK SMILES IDX 16 1 17 2 18 3 19 4 20 5 21 6 22 7 23 8 24 9 25 10 26 11
REMARK SMILES IDX 27 12 28 13 29 14 30 15 31 16 32 17 15 18 14 19 13 20 12 21
REMARK SMILES IDX 11 22 10 23 9 24 8 25 7 26 6 27 5 28 4 29 3 30 2 31 1 32
REMARK H PARENT
REMARK Flexibility Score: inf
ROOT
ATOM      1  C   UNL     1     197.655 192.735 196.505  1.00  0.00     0.000 C 
ENDROOT
BRANCH   1   2
ATOM      2  C   UNL     1     198.424 191.430 196.232  1.00  0.00     0.000 C 
BRANCH   2   3
ATOM      3  C   UNL     1     197.517 190.300 195.714  1.00  0.00     0.000 C 
BRANCH   3   4
ATOM      4  C   UNL     1     198.291 189.001 195.437  1.00  0.00     0.000 C 
BRANCH   4   5
ATOM      5  C   UNL     1     197.701 187.794 196.182  1.00  0.00     0.000 C 
BRANCH   5   6
ATOM      6  C   UNL     1     196.621 188.238 197.181  1.00  0.00     0.000 C 
BRANCH   6   7
ATOM      7  C   UNL     1     197.082 188.123 198.645  1.00  0.00     0.000 C 
BRANCH   7   8
ATOM      8  C   UNL     1     196.605 189.261 199.571  1.00  0.00     0.000 C 
BRANCH   8   9
ATOM      9  C   UNL     1     195.138 189.693 199.375  1.00  0.00     0.000 C 
BRANCH   9  10
ATOM     10  C   UNL     1     194.950 191.007 198.594  1.00  0.00     0.000 C 
BRANCH  10  11
ATOM     11  C   UNL     1     193.844 190.910 197.530  1.00  0.00     0.000 C 
BRANCH  11  12
ATOM     12  C   UNL     1     194.347 191.273 196.123  1.00  0.00     0.000 C 
BRANCH  12  13
ATOM     13  C   UNL     1     193.917 192.687 195.691  1.00  0.00     0.006 C 
BRANCH  13  14
ATOM     14  C   UNL     1     193.686 192.786 194.177  1.00  0.00     0.053 C 
BRANCH  14  15
ATOM     15  C   UNL     1     193.185 194.139 193.776  1.00  0.00     0.041 C 
ATOM     16  O   UNL     1     192.254 194.688 194.423  1.00  0.00    -0.550 OA
ATOM     17  O   UNL     1     193.722 194.779 192.666  1.00  0.00    -0.550 OA
ENDBRANCH  14  15
ENDBRANCH  13  14
ENDBRANCH  12  13
ENDBRANCH  11  12
ENDBRANCH  10  11
ENDBRANCH   9  10
ENDBRANCH   8   9
ENDBRANCH   7   8
ENDBRANCH   6   7
ENDBRANCH   5   6
ENDBRANCH   4   5
ENDBRANCH   3   4
ENDBRANCH   2   3
ENDBRANCH   1   2
BRANCH   1  18
ATOM     18  C   UNL     1     197.862 193.321 197.912  1.00  0.00     0.000 C 
BRANCH  18  19
ATOM     19  C   UNL     1     198.538 192.331 198.878  1.00  0.00     0.000 C 
BRANCH  19  20
ATOM     20  C   UNL     1     198.422 192.770 200.346  1.00  0.00     0.000 C 
BRANCH  20  21
ATOM     21  C   UNL     1     196.988 193.172 200.728  1.00  0.00     0.000 C 
BRANCH  21  22
ATOM     22  C   UNL     1     196.946 194.344 201.722  1.00  0.00     0.000 C 
BRANCH  22  23
ATOM     23  C   UNL     1     198.011 195.411 201.416  1.00  0.00     0.000 C 
BRANCH  23  24
ATOM     24  C   UNL     1     197.410 196.813 201.207  1.00  0.00    -0.000 C 
BRANCH  24  25
ATOM     25  C   UNL     1     196.200 197.156 202.100  1.00  0.00    -0.000 C 
BRANCH  25  26
ATOM     26  C   UNL     1     195.116 198.025 201.435  1.00  0.00    -0.000 C 
BRANCH  26  27
ATOM     27  C   UNL     1     193.693 197.492 201.671  1.00  0.00    -0.000 C 
BRANCH  27  28
ATOM     28  C   UNL     1     192.974 197.129 200.362  1.00  0.00    -0.000 C 
BRANCH  28  29
ATOM     29  C   UNL     1     193.921 196.547 199.299  1.00  0.00    -0.000 C 
BRANCH  29  30
ATOM     30  C   UNL     1     194.021 195.008 199.390  1.00  0.00    -0.000 C 
BRANCH  30  31
ATOM     31  C   UNL     1     192.768 194.279 198.878  1.00  0.00    -0.003 C 
ATOM     32  C   UNL     1     192.219 193.261 199.874  1.00  0.00     0.004 C 
ENDBRANCH  30  31
ENDBRANCH  29  30
ENDBRANCH  28  29
ENDBRANCH  27  28
ENDBRANCH  26  27
ENDBRANCH  25  26
ENDBRANCH  24  25
ENDBRANCH  23  24
ENDBRANCH  22  23
ENDBRANCH  21  22
ENDBRANCH  20  21
ENDBRANCH  19  20
ENDBRANCH  18  19
ENDBRANCH   1  18
TORSDOF 28
ENDMDL
MODEL 4
REMARK VINA RESULT:    -3.856      2.977      5.816
REMARK INTER + INTRA:         -15.924
REMARK INTER:                 -10.777
REMARK INTRA:                  -5.148
REMARK UNBOUND:                -5.756
REMARK SMILES CCCCCCCCCCCCCCCCCCCCCCCCCCCCCC(=O)[O-]
REMARK SMILES IDX 16 1 17 2 18 3 19 4 20 5 21 6 22 7 23 8 24 9 25 10 26 11
REMARK SMILES IDX 27 12 28 13 29 14 30 15 31 16 32 17 15 18 14 19 13 20 12 21
REMARK SMILES IDX 11 22 10 23 9 24 8 25 7 26 6 27 5 28 4 29 3 30 2 31 1 32
REMARK H PARENT
REMARK Flexibility Score: inf
ROOT
ATOM      1  C   UNL     1     197.271 194.400 201.866  1.00  0.00     0.000 C 
ENDROOT
BRANCH   1   2
ATOM      2  C   UNL     1     197.426 195.905 201.586  1.00  0.00     0.000 C 
BRANCH   2   3
ATOM      3  C   UNL     1     196.079 196.648 201.558  1.00  0.00     0.000 C 
BRANCH   3   4
ATOM      4  C   UNL     1     194.894 195.712 201.273  1.00  0.00     0.000 C 
BRANCH   4   5
ATOM      5  C   UNL     1     194.548 195.639 199.777  1.00  0.00     0.000 C 
BRANCH   5   6
ATOM      6  C   UNL     1     194.029 194.243 199.400  1.00  0.00     0.000 C 
BRANCH   6   7
ATOM      7  C   UNL     1     193.041 194.274 198.220  1.00  0.00     0.000 C 
BRANCH   7   8
ATOM      8  C   UNL     1     192.636 192.892 197.671  1.00  0.00     0.000 C 
BRANCH   8   9
ATOM      9  C   UNL     1     192.519 191.775 198.728  1.00  0.00     0.000 C 
BRANCH   9  10
ATOM     10  C   UNL     1     192.565 190.344 198.164  1.00  0.00     0.000 C 
BRANCH  10  11
ATOM     11  C   UNL     1     193.523 189.430 198.946  1.00  0.00     0.000 C 
BRANCH  11  12
ATOM     12  C   UNL     1     194.158 190.137 200.154  1.00  0.00     0.000 C 
BRANCH  12  13
ATOM     13  C   UNL     1     195.579 189.626 200.455  1.00  0.00     0.006 C 
BRANCH  13  14
ATOM     14  C   UNL     1     196.144 188.772 199.311  1.00  0.00     0.053 C 
BRANCH  14  15
ATOM     15  C   UNL     1     197.489 188.204 199.649  1.00  0.00     0.041 C 
ATOM     16  O   UNL     1     197.577 187.139 200.314  1.00  0.00    -0.550 OA
ATOM     17  O   UNL     1     198.643 188.871 199.258  1.00  0.00    -0.550 OA
ENDBRANCH  14  15
ENDBRANCH  13  14
ENDBRANCH  12  13
ENDBRANCH  11  12
ENDBRANCH  10  11
ENDBRANCH   9  10
ENDBRANCH   8   9
ENDBRANCH   7   8
ENDBRANCH   6   7
ENDBRANCH   5   6
ENDBRANCH   4   5
ENDBRANCH   3   4
ENDBRANCH   2   3
ENDBRANCH   1   2
BRANCH   1  18
ATOM     18  C   UNL     1     198.201 193.493 201.040  1.00  0.00     0.000 C 
BRANCH  18  19
ATOM     19  C   UNL     1     197.518 192.924 199.784  1.00  0.00     0.000 C 
BRANCH  19  20
ATOM     20  C   UNL     1     197.667 193.846 198.564  1.00  0.00     0.000 C 
BRANCH  20  21
ATOM     21  C   UNL     1     196.904 193.324 197.335  1.00  0.00     0.000 C 
BRANCH  21  22
ATOM     22  C   UNL     1     196.246 191.957 197.584  1.00  0.00     0.000 C 
BRANCH  22  23
ATOM     23  C   UNL     1     195.736 191.306 196.287  1.00  0.00     0.000 C 
BRANCH  23  24
ATOM     24  C   UNL     1     196.462 191.823 195.032  1.00  0.00    -0.000 C 
BRANCH  24  25
ATOM     25  C   UNL     1     195.548 192.358 193.910  1.00  0.00    -0.000 C 
BRANCH  25  26
ATOM     26  C   UNL     1     194.044 192.380 194.240  1.00  0.00    -0.000 C 
BRANCH  26  27
ATOM     27  C   UNL     1     193.451 193.799 194.233  1.00  0.00    -0.000 C 
BRANCH  27  28
ATOM     28  C   UNL     1     192.389 193.989 193.138  1.00  0.00    -0.000 C 
BRANCH  28  29
ATOM     29  C   UNL     1     192.929 194.724 191.899  1.00  0.00    -0.000 C 
BRANCH  29  30
ATOM     30  C   UNL     1     192.796 193.874 190.616  1.00  0.00    -0.000 C 
BRANCH  30  31
ATOM     31  C   UNL     1     193.705 192.634 190.603  1.00  0.00    -0.003 C 
ATOM     32  C   UNL     1     192.928 191.323 190.504  1.00  0.00     0.004 C 
ENDBRANCH  30  31
ENDBRANCH  29  30
ENDBRANCH  28  29
ENDBRANCH  27  28
ENDBRANCH  26  27
ENDBRANCH  25  26
ENDBRANCH  24  25
ENDBRANCH  23  24
ENDBRANCH  22  23
ENDBRANCH  21  22
ENDBRANCH  20  21
ENDBRANCH  19  20
ENDBRANCH  18  19
ENDBRANCH   1  18
TORSDOF 28
ENDMDL
MODEL 5
REMARK VINA RESULT:    -3.856     12.070     14.490
REMARK INTER + INTRA:         -15.923
REMARK INTER:                 -11.019
REMARK INTRA:                  -4.905
REMARK UNBOUND:                -5.756
REMARK SMILES CCCCCCCCCCCCCCCCCCCCCCCCCCCCCC(=O)[O-]
REMARK SMILES IDX 16 1 17 2 18 3 19 4 20 5 21 6 22 7 23 8 24 9 25 10 26 11
REMARK SMILES IDX 27 12 28 13 29 14 30 15 31 16 32 17 15 18 14 19 13 20 12 21
REMARK SMILES IDX 11 22 10 23 9 24 8 25 7 26 6 27 5 28 4 29 3 30 2 31 1 32
REMARK H PARENT
REMARK Flexibility Score: inf
ROOT
ATOM      1  C   UNL     1     183.252 181.006 200.988  1.00  0.00     0.000 C 
ENDROOT
BRANCH   1   2
ATOM      2  C   UNL     1     184.267 179.873 201.214  1.00  0.00     0.000 C 
BRANCH   2   3
ATOM      3  C   UNL     1     185.533 180.025 200.353  1.00  0.00     0.000 C 
BRANCH   3   4
ATOM      4  C   UNL     1     186.596 180.914 201.018  1.00  0.00     0.000 C 
BRANCH   4   5
ATOM      5  C   UNL     1     186.701 182.299 200.361  1.00  0.00     0.000 C 
BRANCH   5   6
ATOM      6  C   UNL     1     186.161 182.268 198.923  1.00  0.00     0.000 C 
BRANCH   6   7
ATOM      7  C   UNL     1     185.323 183.511 198.574  1.00  0.00     0.000 C 
BRANCH   7   8
ATOM      8  C   UNL     1     186.018 184.527 197.646  1.00  0.00     0.000 C 
BRANCH   8   9
ATOM      9  C   UNL     1     186.469 185.836 198.327  1.00  0.00     0.000 C 
BRANCH   9  10
ATOM     10  C   UNL     1     185.466 186.414 199.342  1.00  0.00     0.000 C 
BRANCH  10  11
ATOM     11  C   UNL     1     185.057 187.860 199.012  1.00  0.00     0.000 C 
BRANCH  11  12
ATOM     12  C   UNL     1     183.691 188.236 199.605  1.00  0.00     0.000 C 
BRANCH  12  13
ATOM     13  C   UNL     1     183.006 189.377 198.830  1.00  0.00     0.006 C 
BRANCH  13  14
ATOM     14  C   UNL     1     181.752 189.895 199.548  1.00  0.00     0.053 C 
BRANCH  14  15
ATOM     15  C   UNL     1     181.137 191.057 198.829  1.00  0.00     0.041 C 
ATOM     16  O   UNL     1     181.218 191.141 197.575  1.00  0.00    -0.550 OA
ATOM     17  O   UNL     1     180.503 192.062 199.547  1.00  0.00    -0.550 OA
ENDBRANCH  14  15
ENDBRANCH  13  14
ENDBRANCH  12  13
ENDBRANCH  11  12
ENDBRANCH  10  11
ENDBRANCH   9  10
ENDBRANCH   8   9
ENDBRANCH   7   8
ENDBRANCH   6   7
ENDBRANCH   5   6
ENDBRANCH   4   5
ENDBRANCH   3   4
ENDBRANCH   2   3
ENDBRANCH   1   2
BRANCH   1  18
ATOM     18  C   UNL     1     183.231 182.081 202.089  1.00  0.00     0.000 C 
BRANCH  18  19
ATOM     19  C   UNL     1     183.300 183.513 201.527  1.00  0.00     0.000 C 
BRANCH  19  20
ATOM     20  C   UNL     1     181.910 184.139 201.340  1.00  0.00     0.000 C 
BRANCH  20  21
ATOM     21  C   UNL     1     181.364 183.941 199.916  1.00  0.00     0.000 C 
BRANCH  21  22
ATOM     22  C   UNL     1     181.983 184.916 198.902  1.00  0.00     0.000 C 
BRANCH  22  23
ATOM     23  C   UNL     1     180.931 185.819 198.237  1.00  0.00     0.000 C 
BRANCH  23  24
ATOM     24  C   UNL     1     181.369 186.326 196.851  1.00  0.00    -0.000 C 
BRANCH  24  25
ATOM     25  C   UNL     1     182.881 186.233 196.558  1.00  0.00    -0.000 C 
BRANCH  25  26
ATOM     26  C   UNL     1     183.355 186.985 195.300  1.00  0.00    -0.000 C 
BRANCH  26  27
ATOM     27  C   UNL     1     184.882 187.150 195.241  1.00  0.00    -0.000 C 
BRANCH  27  28
ATOM     28  C   UNL     1     185.479 186.653 193.914  1.00  0.00    -0.000 C 
BRANCH  28  29
ATOM     29  C   UNL     1     185.307 185.138 193.709  1.00  0.00    -0.000 C 
BRANCH  29  30
ATOM     30  C   UNL     1     184.770 184.799 192.301  1.00  0.00    -0.000 C 
BRANCH  30  31
ATOM     31  C   UNL     1     183.409 185.444 191.991  1.00  0.00    -0.003 C 
ATOM     32  C   UNL     1     183.440 186.341 190.755  1.00  0.00     0.004 C 
ENDBRANCH  30  31
ENDBRANCH  29  30
ENDBRANCH  28  29
ENDBRANCH  27  28
ENDBRANCH  26  27
ENDBRANCH  25  26
ENDBRANCH  24  25
ENDBRANCH  23  24
ENDBRANCH  22  23
ENDBRANCH  21  22
ENDBRANCH  20  21
ENDBRANCH  19  20
ENDBRANCH  18  19
ENDBRANCH   1  18
TORSDOF 28
ENDMDL
MODEL 6
REMARK VINA RESULT:    -3.814     11.794     15.200
REMARK INTER + INTRA:         -15.814
REMARK INTER:                  -9.724
REMARK INTRA:                  -6.090
REMARK UNBOUND:                -5.756
REMARK SMILES CCCCCCCCCCCCCCCCCCCCCCCCCCCCCC(=O)[O-]
REMARK SMILES IDX 16 1 17 2 18 3 19 4 20 5 21 6 22 7 23 8 24 9 25 10 26 11
REMARK SMILES IDX 27 12 28 13 29 14 30 15 31 16 32 17 15 18 14 19 13 20 12 21
REMARK SMILES IDX 11 22 10 23 9 24 8 25 7 26 6 27 5 28 4 29 3 30 2 31 1 32
REMARK H PARENT
REMARK Flexibility Score: inf
ROOT
ATOM      1  C   UNL     1     181.429 191.124 199.337  1.00  0.00     0.000 C 
ENDROOT
BRANCH   1   2
ATOM      2  C   UNL     1     180.131 191.625 198.680  1.00  0.00     0.000 C 
BRANCH   2   3
ATOM      3  C   UNL     1     179.438 190.545 197.831  1.00  0.00     0.000 C 
BRANCH   3   4
ATOM      4  C   UNL     1     179.075 189.294 198.648  1.00  0.00     0.000 C 
BRANCH   4   5
ATOM      5  C   UNL     1     179.450 187.991 197.926  1.00  0.00     0.000 C 
BRANCH   5   6
ATOM      6  C   UNL     1     180.199 188.282 196.618  1.00  0.00     0.000 C 
BRANCH   6   7
ATOM      7  C   UNL     1     180.349 187.036 195.727  1.00  0.00     0.000 C 
BRANCH   7   8
ATOM      8  C   UNL     1     181.782 186.755 195.232  1.00  0.00     0.000 C 
BRANCH   8   9
ATOM      9  C   UNL     1     182.767 187.934 195.374  1.00  0.00     0.000 C 
BRANCH   9  10
ATOM     10  C   UNL     1     184.238 187.526 195.577  1.00  0.00     0.000 C 
BRANCH  10  11
ATOM     11  C   UNL     1     184.489 186.042 195.261  1.00  0.00     0.000 C 
BRANCH  11  12
ATOM     12  C   UNL     1     185.777 185.821 194.452  1.00  0.00     0.000 C 
BRANCH  12  13
ATOM     13  C   UNL     1     185.782 186.604 193.126  1.00  0.00     0.006 C 
BRANCH  13  14
ATOM     14  C   UNL     1     184.719 186.089 192.145  1.00  0.00     0.053 C 
BRANCH  14  15
ATOM     15  C   UNL     1     185.182 184.868 191.411  1.00  0.00     0.041 C 
ATOM     16  O   UNL     1     184.342 184.064 190.928  1.00  0.00    -0.550 OA
ATOM     17  O   UNL     1     186.539 184.601 191.290  1.00  0.00    -0.550 OA
ENDBRANCH  14  15
ENDBRANCH  13  14
ENDBRANCH  12  13
ENDBRANCH  11  12
ENDBRANCH  10  11
ENDBRANCH   9  10
ENDBRANCH   8   9
ENDBRANCH   7   8
ENDBRANCH   6   7
ENDBRANCH   5   6
ENDBRANCH   4   5
ENDBRANCH   3   4
ENDBRANCH   2   3
ENDBRANCH   1   2
BRANCH   1  18
ATOM     18  C   UNL     1     182.538 190.724 198.348  1.00  0.00     0.000 C 
BRANCH  18  19
ATOM     19  C   UNL     1     183.163 189.355 198.674  1.00  0.00     0.000 C 
BRANCH  19  20
ATOM     20  C   UNL     1     182.758 188.839 200.063  1.00  0.00     0.000 C 
BRANCH  20  21
ATOM     21  C   UNL     1     182.303 187.371 200.036  1.00  0.00     0.000 C 
BRANCH  21  22
ATOM     22  C   UNL     1     182.864 186.600 198.830  1.00  0.00     0.000 C 
BRANCH  22  23
ATOM     23  C   UNL     1     182.181 185.236 198.636  1.00  0.00     0.000 C 
BRANCH  23  24
ATOM     24  C   UNL     1     182.911 184.091 199.361  1.00  0.00    -0.000 C 
BRANCH  24  25
ATOM     25  C   UNL     1     184.080 184.522 200.271  1.00  0.00    -0.000 C 
BRANCH  25  26
ATOM     26  C   UNL     1     185.473 184.040 199.827  1.00  0.00    -0.000 C 
BRANCH  26  27
ATOM     27  C   UNL     1     186.506 185.177 199.757  1.00  0.00    -0.000 C 
BRANCH  27  28
ATOM     28  C   UNL     1     186.486 185.910 198.406  1.00  0.00    -0.000 C 
BRANCH  28  29
ATOM     29  C   UNL     1     186.355 187.436 198.553  1.00  0.00    -0.000 C 
BRANCH  29  30
ATOM     30  C   UNL     1     186.710 187.914 199.978  1.00  0.00    -0.000 C 
BRANCH  30  31
ATOM     31  C   UNL     1     186.673 189.442 200.141  1.00  0.00    -0.003 C 
ATOM     32  C   UNL     1     186.771 190.188 198.812  1.00  0.00     0.004 C 
ENDBRANCH  30  31
ENDBRANCH  29  30
ENDBRANCH  28  29
ENDBRANCH  27  28
ENDBRANCH  26  27
ENDBRANCH  25  26
ENDBRANCH  24  25
ENDBRANCH  23  24
ENDBRANCH  22  23
ENDBRANCH  21  22
ENDBRANCH  20  21
ENDBRANCH  19  20
ENDBRANCH  18  19
ENDBRANCH   1  18
TORSDOF 28
ENDMDL
MODEL 7
REMARK VINA RESULT:    -3.803     12.491     14.981
REMARK INTER + INTRA:         -15.784
REMARK INTER:                 -10.436
REMARK INTRA:                  -5.348
REMARK UNBOUND:                -5.756
REMARK SMILES CCCCCCCCCCCCCCCCCCCCCCCCCCCCCC(=O)[O-]
REMARK SMILES IDX 16 1 17 2 18 3 19 4 20 5 21 6 22 7 23 8 24 9 25 10 26 11
REMARK SMILES IDX 27 12 28 13 29 14 30 15 31 16 32 17 15 18 14 19 13 20 12 21
REMARK SMILES IDX 11 22 10 23 9 24 8 25 7 26 6 27 5 28 4 29 3 30 2 31 1 32
REMARK H PARENT
REMARK Flexibility Score: inf
ROOT
ATOM      1  C   UNL     1     185.992 182.040 198.882  1.00  0.00     0.000 C 
ENDROOT
BRANCH   1   2
ATOM      2  C   UNL     1     185.709 183.493 198.460  1.00  0.00     0.000 C 
BRANCH   2   3
ATOM      3  C   UNL     1     184.398 184.041 199.049  1.00  0.00     0.000 C 
BRANCH   3   4
ATOM      4  C   UNL     1     184.578 184.605 200.468  1.00  0.00     0.000 C 
BRANCH   4   5
ATOM      5  C   UNL     1     183.764 185.888 200.699  1.00  0.00     0.000 C 
BRANCH   5   6
ATOM      6  C   UNL     1     184.688 187.087 200.955  1.00  0.00     0.000 C 
BRANCH   6   7
ATOM      7  C   UNL     1     183.927 188.424 201.014  1.00  0.00     0.000 C 
BRANCH   7   8
ATOM      8  C   UNL     1     182.616 188.465 200.203  1.00  0.00     0.000 C 
BRANCH   8   9
ATOM      9  C   UNL     1     182.704 189.203 198.851  1.00  0.00     0.000 C 
BRANCH   9  10
ATOM     10  C   UNL     1     184.132 189.558 198.401  1.00  0.00     0.000 C 
BRANCH  10  11
ATOM     11  C   UNL     1     184.473 188.992 197.012  1.00  0.00     0.000 C 
BRANCH  11  12
ATOM     12  C   UNL     1     185.093 187.588 197.084  1.00  0.00     0.000 C 
BRANCH  12  13
ATOM     13  C   UNL     1     184.119 186.489 196.621  1.00  0.00     0.006 C 
BRANCH  13  14
ATOM     14  C   UNL     1     184.003 186.423 195.092  1.00  0.00     0.053 C 
BRANCH  14  15
ATOM     15  C   UNL     1     185.295 186.018 194.450  1.00  0.00     0.041 C 
ATOM     16  O   UNL     1     185.656 186.544 193.365  1.00  0.00    -0.550 OA
ATOM     17  O   UNL     1     186.084 185.035 195.035  1.00  0.00    -0.550 OA
ENDBRANCH  14  15
ENDBRANCH  13  14
ENDBRANCH  12  13
ENDBRANCH  11  12
ENDBRANCH  10  11
ENDBRANCH   9  10
ENDBRANCH   8   9
ENDBRANCH   7   8
ENDBRANCH   6   7
ENDBRANCH   5   6
ENDBRANCH   4   5
ENDBRANCH   3   4
ENDBRANCH   2   3
ENDBRANCH   1   2
BRANCH   1  18
ATOM     18  C   UNL     1     187.128 181.877 199.907  1.00  0.00     0.000 C 
BRANCH  18  19
ATOM     19  C   UNL     1     186.625 181.419 201.288  1.00  0.00     0.000 C 
BRANCH  19  20
ATOM     20  C   UNL     1     185.567 180.310 201.190  1.00  0.00     0.000 C 
BRANCH  20  21
ATOM     21  C   UNL     1     184.327 180.602 202.051  1.00  0.00     0.000 C 
BRANCH  21  22
ATOM     22  C   UNL     1     183.143 181.128 201.225  1.00  0.00     0.000 C 
BRANCH  22  23
ATOM     23  C   UNL     1     182.427 182.306 201.906  1.00  0.00     0.000 C 
BRANCH  23  24
ATOM     24  C   UNL     1     181.014 182.551 201.348  1.00  0.00    -0.000 C 
BRANCH  24  25
ATOM     25  C   UNL     1     180.954 183.040 199.885  1.00  0.00    -0.000 C 
BRANCH  25  26
ATOM     26  C   UNL     1     180.671 184.543 199.705  1.00  0.00    -0.000 C 
BRANCH  26  27
ATOM     27  C   UNL     1     180.250 184.904 198.271  1.00  0.00    -0.000 C 
BRANCH  27  28
ATOM     28  C   UNL     1     180.502 186.384 197.936  1.00  0.00    -0.000 C 
BRANCH  28  29
ATOM     29  C   UNL     1     180.072 186.757 196.507  1.00  0.00    -0.000 C 
BRANCH  29  30
ATOM     30  C   UNL     1     180.907 187.925 195.937  1.00  0.00    -0.000 C 
BRANCH  30  31
ATOM     31  C   UNL     1     180.266 189.305 196.161  1.00  0.00    -0.003 C 
ATOM     32  C   UNL     1     181.152 190.458 195.695  1.00  0.00     0.004 C 
ENDBRANCH  30  31
ENDBRANCH  29  30
ENDBRANCH  28  29
ENDBRANCH  27  28
ENDBRANCH  26  27
ENDBRANCH  25  26
ENDBRANCH  24  25
ENDBRANCH  23  24
ENDBRANCH  22  23
ENDBRANCH  21  22
ENDBRANCH  20  21
ENDBRANCH  19  20
ENDBRANCH  18  19
ENDBRANCH   1  18
TORSDOF 28
ENDMDL
MODEL 8
REMARK VINA RESULT:    -3.797     12.751     15.855
REMARK INTER + INTRA:         -15.768
REMARK INTER:                 -10.473
REMARK INTRA:                  -5.295
REMARK UNBOUND:                -5.756
REMARK SMILES CCCCCCCCCCCCCCCCCCCCCCCCCCCCCC(=O)[O-]
REMARK SMILES IDX 16 1 17 2 18 3 19 4 20 5 21 6 22 7 23 8 24 9 25 10 26 11
REMARK SMILES IDX 27 12 28 13 29 14 30 15 31 16 32 17 15 18 14 19 13 20 12 21
REMARK SMILES IDX 11 22 10 23 9 24 8 25 7 26 6 27 5 28 4 29 3 30 2 31 1 32
REMARK H PARENT
REMARK Flexibility Score: inf
ROOT
ATOM      1  C   UNL     1     181.965 187.908 195.625  1.00  0.00     0.000 C 
ENDROOT
BRANCH   1   2
ATOM      2  C   UNL     1     182.091 189.388 196.026  1.00  0.00     0.000 C 
BRANCH   2   3
ATOM      3  C   UNL     1     180.789 189.960 196.612  1.00  0.00     0.000 C 
BRANCH   3   4
ATOM      4  C   UNL     1     181.044 191.070 197.645  1.00  0.00     0.000 C 
BRANCH   4   5
ATOM      5  C   UNL     1     181.997 190.623 198.765  1.00  0.00     0.000 C 
BRANCH   5   6
ATOM      6  C   UNL     1     181.438 189.402 199.509  1.00  0.00     0.000 C 
BRANCH   6   7
ATOM      7  C   UNL     1     182.490 188.296 199.715  1.00  0.00     0.000 C 
BRANCH   7   8
ATOM      8  C   UNL     1     183.850 188.556 199.036  1.00  0.00     0.000 C 
BRANCH   8   9
ATOM      9  C   UNL     1     184.689 187.294 198.745  1.00  0.00     0.000 C 
BRANCH   9  10
ATOM     10  C   UNL     1     185.274 187.221 197.323  1.00  0.00     0.000 C 
BRANCH  10  11
ATOM     11  C   UNL     1     184.808 185.974 196.555  1.00  0.00     0.000 C 
BRANCH  11  12
ATOM     12  C   UNL     1     185.740 185.620 195.385  1.00  0.00     0.000 C 
BRANCH  12  13
ATOM     13  C   UNL     1     185.309 186.290 194.066  1.00  0.00     0.006 C 
BRANCH  13  14
ATOM     14  C   UNL     1     184.063 185.630 193.460  1.00  0.00     0.053 C 
BRANCH  14  15
ATOM     15  C   UNL     1     184.407 184.740 192.305  1.00  0.00     0.041 C 
ATOM     16  O   UNL     1     183.494 184.184 191.640  1.00  0.00    -0.550 OA
ATOM     17  O   UNL     1     185.737 184.500 191.984  1.00  0.00    -0.550 OA
ENDBRANCH  14  15
ENDBRANCH  13  14
ENDBRANCH  12  13
ENDBRANCH  11  12
ENDBRANCH  10  11
ENDBRANCH   9  10
ENDBRANCH   8   9
ENDBRANCH   7   8
ENDBRANCH   6   7
ENDBRANCH   5   6
ENDBRANCH   4   5
ENDBRANCH   3   4
ENDBRANCH   2   3
ENDBRANCH   1   2
BRANCH   1  18
ATOM     18  C   UNL     1     180.839 187.141 196.341  1.00  0.00     0.000 C 
BRANCH  18  19
ATOM     19  C   UNL     1     181.346 185.892 197.085  1.00  0.00     0.000 C 
BRANCH  19  20
ATOM     20  C   UNL     1     180.279 185.285 198.009  1.00  0.00     0.000 C 
BRANCH  20  21
ATOM     21  C   UNL     1     180.890 184.624 199.256  1.00  0.00     0.000 C 
BRANCH  21  22
ATOM     22  C   UNL     1     182.411 184.436 199.142  1.00  0.00     0.000 C 
BRANCH  22  23
ATOM     23  C   UNL     1     183.098 184.364 200.516  1.00  0.00     0.000 C 
BRANCH  23  24
ATOM     24  C   UNL     1     182.208 183.727 201.598  1.00  0.00    -0.000 C 
BRANCH  24  25
ATOM     25  C   UNL     1     182.351 182.200 201.760  1.00  0.00    -0.000 C 
BRANCH  25  26
ATOM     26  C   UNL     1     183.764 181.641 201.511  1.00  0.00    -0.000 C 
BRANCH  26  27
ATOM     27  C   UNL     1     183.751 180.268 200.819  1.00  0.00    -0.000 C 
BRANCH  27  28
ATOM     28  C   UNL     1     185.164 179.763 200.481  1.00  0.00    -0.000 C 
BRANCH  28  29
ATOM     29  C   UNL     1     186.236 180.859 200.601  1.00  0.00    -0.000 C 
BRANCH  29  30
ATOM     30  C   UNL     1     186.777 181.295 199.221  1.00  0.00    -0.000 C 
BRANCH  30  31
ATOM     31  C   UNL     1     185.960 182.422 198.569  1.00  0.00    -0.003 C 
ATOM     32  C   UNL     1     186.261 183.798 199.159  1.00  0.00     0.004 C 
ENDBRANCH  30  31
ENDBRANCH  29  30
ENDBRANCH  28  29
ENDBRANCH  27  28
ENDBRANCH  26  27
ENDBRANCH  25  26
ENDBRANCH  24  25
ENDBRANCH  23  24
ENDBRANCH  22  23
ENDBRANCH  21  22
ENDBRANCH  20  21
ENDBRANCH  19  20
ENDBRANCH  18  19
ENDBRANCH   1  18
TORSDOF 28
ENDMDL
MODEL 9
REMARK VINA RESULT:    -3.766     11.423     15.063
REMARK INTER + INTRA:         -15.686
REMARK INTER:                 -10.451
REMARK INTRA:                  -5.234
REMARK UNBOUND:                -5.756
REMARK SMILES CCCCCCCCCCCCCCCCCCCCCCCCCCCCCC(=O)[O-]
REMARK SMILES IDX 16 1 17 2 18 3 19 4 20 5 21 6 22 7 23 8 24 9 25 10 26 11
REMARK SMILES IDX 27 12 28 13 29 14 30 15 31 16 32 17 15 18 14 19 13 20 12 21
REMARK SMILES IDX 11 22 10 23 9 24 8 25 7 26 6 27 5 28 4 29 3 30 2 31 1 32
REMARK H PARENT
REMARK Flexibility Score: inf
ROOT
ATOM      1  C   UNL     1     181.597 188.389 197.775  1.00  0.00     0.000 C 
ENDROOT
BRANCH   1   2
ATOM      2  C   UNL     1     182.428 187.948 198.993  1.00  0.00     0.000 C 
BRANCH   2   3
ATOM      3  C   UNL     1     181.981 186.590 199.560  1.00  0.00     0.000 C 
BRANCH   3   4
ATOM      4  C   UNL     1     181.470 185.634 198.470  1.00  0.00     0.000 C 
BRANCH   4   5
ATOM      5  C   UNL     1     180.957 184.305 199.046  1.00  0.00     0.000 C 
BRANCH   5   6
ATOM      6  C   UNL     1     180.180 184.534 200.351  1.00  0.00     0.000 C 
BRANCH   6   7
ATOM      7  C   UNL     1     180.391 183.404 201.375  1.00  0.00     0.000 C 
BRANCH   7   8
ATOM      8  C   UNL     1     181.143 182.169 200.839  1.00  0.00     0.000 C 
BRANCH   8   9
ATOM      9  C   UNL     1     182.528 181.920 201.469  1.00  0.00     0.000 C 
BRANCH   9  10
ATOM     10  C   UNL     1     183.197 183.168 202.073  1.00  0.00     0.000 C 
BRANCH  10  11
ATOM     11  C   UNL     1     184.101 183.901 201.067  1.00  0.00     0.000 C 
BRANCH  11  12
ATOM     12  C   UNL     1     184.518 183.006 199.889  1.00  0.00     0.000 C 
BRANCH  12  13
ATOM     13  C   UNL     1     186.046 182.853 199.778  1.00  0.00     0.006 C 
BRANCH  13  14
ATOM     14  C   UNL     1     186.470 181.389 199.594  1.00  0.00     0.053 C 
BRANCH  14  15
ATOM     15  C   UNL     1     185.971 180.518 200.706  1.00  0.00     0.041 C 
ATOM     16  O   UNL     1     185.112 179.627 200.476  1.00  0.00    -0.550 OA
ATOM     17  O   UNL     1     186.431 180.714 202.002  1.00  0.00    -0.550 OA
ENDBRANCH  14  15
ENDBRANCH  13  14
ENDBRANCH  12  13
ENDBRANCH  11  12
ENDBRANCH  10  11
ENDBRANCH   9  10
ENDBRANCH   8   9
ENDBRANCH   7   8
ENDBRANCH   6   7
ENDBRANCH   5   6
ENDBRANCH   4   5
ENDBRANCH   3   4
ENDBRANCH   2   3
ENDBRANCH   1   2
BRANCH   1  18
ATOM     18  C   UNL     1     182.396 188.528 196.467  1.00  0.00     0.000 C 
BRANCH  18  19
ATOM     19  C   UNL     1     183.918 188.537 196.695  1.00  0.00     0.000 C 
BRANCH  19  20
ATOM     20  C   UNL     1     184.654 187.536 195.792  1.00  0.00     0.000 C 
BRANCH  20  21
ATOM     21  C   UNL     1     184.303 186.076 196.124  1.00  0.00     0.000 C 
BRANCH  21  22
ATOM     22  C   UNL     1     184.869 185.625 197.480  1.00  0.00     0.000 C 
BRANCH  22  23
ATOM     23  C   UNL     1     186.385 185.857 197.591  1.00  0.00     0.000 C 
BRANCH  23  24
ATOM     24  C   UNL     1     186.746 187.002 198.554  1.00  0.00    -0.000 C 
BRANCH  24  25
ATOM     25  C   UNL     1     186.020 186.979 199.915  1.00  0.00    -0.000 C 
BRANCH  25  26
ATOM     26  C   UNL     1     186.254 188.211 200.807  1.00  0.00    -0.000 C 
BRANCH  26  27
ATOM     27  C   UNL     1     186.766 189.430 200.022  1.00  0.00    -0.000 C 
BRANCH  27  28
ATOM     28  C   UNL     1     188.089 189.980 200.581  1.00  0.00    -0.000 C 
BRANCH  28  29
ATOM     29  C   UNL     1     189.065 188.871 201.009  1.00  0.00    -0.000 C 
BRANCH  29  30
ATOM     30  C   UNL     1     190.046 188.492 199.878  1.00  0.00    -0.000 C 
BRANCH  30  31
ATOM     31  C   UNL     1     191.165 187.538 200.329  1.00  0.00    -0.003 C 
ATOM     32  C   UNL     1     192.271 188.242 201.112  1.00  0.00     0.004 C 
ENDBRANCH  30  31
ENDBRANCH  29  30
ENDBRANCH  28  29
ENDBRANCH  27  28
ENDBRANCH  26  27
ENDBRANCH  25  26
ENDBRANCH  24  25
ENDBRANCH  23  24
ENDBRANCH  22  23
ENDBRANCH  21  22
ENDBRANCH  20  21
ENDBRANCH  19  20
ENDBRANCH  18  19
ENDBRANCH   1  18
TORSDOF 28
ENDMDL
