MODEL 1
REMARK VINA RESULT:    -4.574      0.000      0.000
REMARK INTER + INTRA:          -9.488
REMARK INTER:                  -7.782
REMARK INTRA:                  -1.706
REMARK UNBOUND:                -1.706
REMARK SMILES CCCCCCCCCCCCCC(=O)[O-]
REMARK SMILES IDX 8 1 9 2 10 3 11 4 12 5 13 6 14 7 15 8 16 9 7 10 6 11 5 12
REMARK SMILES IDX 4 13 3 14 2 15 1 16
REMARK H PARENT
REMARK Flexibility Score: inf
ROOT
ATOM      1  C   UNL     1       5.533  -1.965  45.920  1.00  0.00     0.000 C 
ENDROOT
BRANCH   1   2
ATOM      2  C   UNL     1       5.890  -0.888  46.960  1.00  0.00     0.000 C 
BRANCH   2   3
ATOM      3  C   UNL     1       7.397  -0.620  47.131  1.00  0.00     0.000 C 
BRANCH   3   4
ATOM      4  C   UNL     1       8.054  -1.541  48.174  1.00  0.00     0.000 C 
BRANCH   4   5
ATOM      5  C   UNL     1       8.854  -2.689  47.532  1.00  0.00     0.006 C 
BRANCH   5   6
ATOM      6  C   UNL     1       9.502  -3.648  48.544  1.00  0.00     0.053 C 
BRANCH   6   7
ATOM      7  C   UNL     1       8.816  -4.978  48.577  1.00  0.00     0.041 C 
ATOM      8  O   UNL     1       8.300  -5.451  47.530  1.00  0.00    -0.550 OA
ATOM      9  O   UNL     1       8.714  -5.680  49.772  1.00  0.00    -0.550 OA
ENDBRANCH   6   7
ENDBRANCH   5   6
ENDBRANCH   4   5
ENDBRANCH   3   4
ENDBRANCH   2   3
ENDBRANCH   1   2
BRANCH   1  10
ATOM     10  C   UNL     1       5.400  -3.370  46.532  1.00  0.00     0.000 C 
BRANCH  10  11
ATOM     11  C   UNL     1       4.720  -3.358  47.913  1.00  0.00    -0.000 C 
BRANCH  11  12
ATOM     12  C   UNL     1       5.015  -4.583  48.802  1.00  0.00    -0.000 C 
BRANCH  12  13
ATOM     13  C   UNL     1       5.005  -4.311  50.320  1.00  0.00    -0.000 C 
BRANCH  13  14
ATOM     14  C   UNL     1       6.193  -3.482  50.838  1.00  0.00    -0.000 C 
BRANCH  14  15
ATOM     15  C   UNL     1       5.860  -1.991  50.981  1.00  0.00    -0.003 C 
ATOM     16  C   UNL     1       6.774  -1.317  52.000  1.00  0.00     0.004 C 
ENDBRANCH  14  15
ENDBRANCH  13  14
ENDBRANCH  12  13
ENDBRANCH  11  12
ENDBRANCH  10  11
ENDBRANCH   1  10
TORSDOF 12
ENDMDL
MODEL 2
REMARK VINA RESULT:    -4.573      2.578      4.058
REMARK INTER + INTRA:          -9.487
REMARK INTER:                  -7.673
REMARK INTRA:                  -1.814
REMARK UNBOUND:                -1.706
REMARK SMILES CCCCCCCCCCCCCC(=O)[O-]
REMARK SMILES IDX 8 1 9 2 10 3 11 4 12 5 13 6 14 7 15 8 16 9 7 10 6 11 5 12
REMARK SMILES IDX 4 13 3 14 2 15 1 16
REMARK H PARENT
REMARK Flexibility Score: inf
ROOT
ATOM      1  C   UNL     1       8.859  -2.358  48.609  1.00  0.00     0.000 C 
ENDROOT
BRANCH   1   2
ATOM      2  C   UNL     1       8.505  -2.178  47.121  1.00  0.00     0.000 C 
BRANCH   2   3
ATOM      3  C   UNL     1       7.477  -1.070  46.824  1.00  0.00     0.000 C 
BRANCH   3   4
ATOM      4  C   UNL     1       6.251  -1.127  47.753  1.00  0.00     0.000 C 
BRANCH   4   5
ATOM      5  C   UNL     1       5.018  -1.749  47.073  1.00  0.00     0.006 C 
BRANCH   5   6
ATOM      6  C   UNL     1       5.354  -2.796  45.998  1.00  0.00     0.053 C 
BRANCH   6   7
ATOM      7  C   UNL     1       4.769  -2.443  44.666  1.00  0.00     0.041 C 
ATOM      8  O   UNL     1       4.597  -1.235  44.350  1.00  0.00    -0.550 OA
ATOM      9  O   UNL     1       4.380  -3.445  43.787  1.00  0.00    -0.550 OA
ENDBRANCH   6   7
ENDBRANCH   5   6
ENDBRANCH   4   5
ENDBRANCH   3   4
ENDBRANCH   2   3
ENDBRANCH   1   2
BRANCH   1  10
ATOM     10  C   UNL     1       9.077  -3.830  48.999  1.00  0.00     0.000 C 
BRANCH  10  11
ATOM     11  C   UNL     1       8.587  -4.813  47.921  1.00  0.00    -0.000 C 
BRANCH  11  12
ATOM     12  C   UNL     1       7.213  -5.458  48.195  1.00  0.00    -0.000 C 
BRANCH  12  13
ATOM     13  C   UNL     1       6.675  -5.272  49.628  1.00  0.00    -0.000 C 
BRANCH  13  14
ATOM     14  C   UNL     1       5.616  -4.167  49.784  1.00  0.00    -0.000 C 
BRANCH  14  15
ATOM     15  C   UNL     1       5.625  -3.528  51.180  1.00  0.00    -0.003 C 
ATOM     16  C   UNL     1       6.236  -2.129  51.141  1.00  0.00     0.004 C 
ENDBRANCH  14  15
ENDBRANCH  13  14
ENDBRANCH  12  13
ENDBRANCH  11  12
ENDBRANCH  10  11
ENDBRANCH   1  10
TORSDOF 12
ENDMDL
MODEL 3
REMARK VINA RESULT:    -4.482      2.443      4.944
REMARK INTER + INTRA:          -9.332
REMARK INTER:                  -7.613
REMARK INTRA:                  -1.719
REMARK UNBOUND:                -1.706
REMARK SMILES CCCCCCCCCCCCCC(=O)[O-]
REMARK SMILES IDX 8 1 9 2 10 3 11 4 12 5 13 6 14 7 15 8 16 9 7 10 6 11 5 12
REMARK SMILES IDX 4 13 3 14 2 15 1 16
REMARK H PARENT
REMARK Flexibility Score: inf
ROOT
ATOM      1  C   UNL     1       5.491  -2.846  50.833  1.00  0.00     0.000 C 
ENDROOT
BRANCH   1   2
ATOM      2  C   UNL     1       5.161  -4.172  50.123  1.00  0.00     0.000 C 
BRANCH   2   3
ATOM      3  C   UNL     1       4.207  -4.049  48.921  1.00  0.00     0.000 C 
BRANCH   3   4
ATOM      4  C   UNL     1       4.340  -5.218  47.929  1.00  0.00     0.000 C 
BRANCH   4   5
ATOM      5  C   UNL     1       5.031  -4.808  46.616  1.00  0.00     0.006 C 
BRANCH   5   6
ATOM      6  C   UNL     1       5.716  -3.433  46.668  1.00  0.00     0.053 C 
BRANCH   6   7
ATOM      7  C   UNL     1       5.257  -2.534  45.562  1.00  0.00     0.041 C 
ATOM      8  O   UNL     1       4.688  -3.018  44.547  1.00  0.00    -0.550 OA
ATOM      9  O   UNL     1       5.489  -1.167  45.633  1.00  0.00    -0.550 OA
ENDBRANCH   6   7
ENDBRANCH   5   6
ENDBRANCH   4   5
ENDBRANCH   3   4
ENDBRANCH   2   3
ENDBRANCH   1   2
BRANCH   1  10
ATOM     10  C   UNL     1       6.162  -1.819  49.906  1.00  0.00     0.000 C 
BRANCH  10  11
ATOM     11  C   UNL     1       7.670  -2.072  49.726  1.00  0.00    -0.000 C 
BRANCH  11  12
ATOM     12  C   UNL     1       8.229  -1.742  48.328  1.00  0.00    -0.000 C 
BRANCH  12  13
ATOM     13  C   UNL     1       9.417  -2.614  47.873  1.00  0.00    -0.000 C 
BRANCH  13  14
ATOM     14  C   UNL     1       9.565  -3.949  48.623  1.00  0.00    -0.000 C 
BRANCH  14  15
ATOM     15  C   UNL     1       8.783  -5.092  47.961  1.00  0.00    -0.003 C 
ATOM     16  C   UNL     1       8.078  -5.954  49.006  1.00  0.00     0.004 C 
ENDBRANCH  14  15
ENDBRANCH  13  14
ENDBRANCH  12  13
ENDBRANCH  11  12
ENDBRANCH  10  11
ENDBRANCH   1  10
TORSDOF 12
ENDMDL
MODEL 4
REMARK VINA RESULT:    -4.355      2.638      4.390
REMARK INTER + INTRA:          -9.115
REMARK INTER:                  -7.226
REMARK INTRA:                  -1.889
REMARK UNBOUND:                -1.706
REMARK SMILES CCCCCCCCCCCCCC(=O)[O-]
REMARK SMILES IDX 8 1 9 2 10 3 11 4 12 5 13 6 14 7 15 8 16 9 7 10 6 11 5 12
REMARK SMILES IDX 4 13 3 14 2 15 1 16
REMARK H PARENT
REMARK Flexibility Score: inf
ROOT
ATOM      1  C   UNL     1       6.560  -2.806  50.323  1.00  0.00     0.000 C 
ENDROOT
BRANCH   1   2
ATOM      2  C   UNL     1       5.729  -1.563  49.954  1.00  0.00     0.000 C 
BRANCH   2   3
ATOM      3  C   UNL     1       5.387  -1.426  48.459  1.00  0.00     0.000 C 
BRANCH   3   4
ATOM      4  C   UNL     1       6.593  -0.991  47.607  1.00  0.00     0.000 C 
BRANCH   4   5
ATOM      5  C   UNL     1       6.813  -1.898  46.382  1.00  0.00     0.006 C 
BRANCH   5   6
ATOM      6  C   UNL     1       5.646  -2.854  46.090  1.00  0.00     0.053 C 
BRANCH   6   7
ATOM      7  C   UNL     1       4.890  -2.460  44.859  1.00  0.00     0.041 C 
ATOM      8  O   UNL     1       4.437  -3.342  44.083  1.00  0.00    -0.550 OA
ATOM      9  O   UNL     1       4.716  -1.117  44.548  1.00  0.00    -0.550 OA
ENDBRANCH   6   7
ENDBRANCH   5   6
ENDBRANCH   4   5
ENDBRANCH   3   4
ENDBRANCH   2   3
ENDBRANCH   1   2
BRANCH   1  10
ATOM     10  C   UNL     1       5.707  -3.951  50.893  1.00  0.00     0.000 C 
BRANCH  10  11
ATOM     11  C   UNL     1       6.013  -5.309  50.236  1.00  0.00    -0.000 C 
BRANCH  11  12
ATOM     12  C   UNL     1       6.551  -5.235  48.793  1.00  0.00    -0.000 C 
BRANCH  12  13
ATOM     13  C   UNL     1       8.025  -5.655  48.619  1.00  0.00    -0.000 C 
BRANCH  13  14
ATOM     14  C   UNL     1       8.908  -4.633  47.881  1.00  0.00    -0.000 C 
BRANCH  14  15
ATOM     15  C   UNL     1       9.863  -3.884  48.821  1.00  0.00    -0.003 C 
ATOM     16  C   UNL     1       9.754  -2.373  48.626  1.00  0.00     0.004 C 
ENDBRANCH  14  15
ENDBRANCH  13  14
ENDBRANCH  12  13
ENDBRANCH  11  12
ENDBRANCH  10  11
ENDBRANCH   1  10
TORSDOF 12
ENDMDL
MODEL 5
REMARK VINA RESULT:    -4.286      2.086      4.728
REMARK INTER + INTRA:          -8.998
REMARK INTER:                  -7.375
REMARK INTRA:                  -1.623
REMARK UNBOUND:                -1.706
REMARK SMILES CCCCCCCCCCCCCC(=O)[O-]
REMARK SMILES IDX 8 1 9 2 10 3 11 4 12 5 13 6 14 7 15 8 16 9 7 10 6 11 5 12
REMARK SMILES IDX 4 13 3 14 2 15 1 16
REMARK H PARENT
REMARK Flexibility Score: inf
ROOT
ATOM      1  C   UNL     1       8.643  -2.356  49.020  1.00  0.00     0.000 C 
ENDROOT
BRANCH   1   2
ATOM      2  C   UNL     1       9.409  -3.405  48.193  1.00  0.00     0.000 C 
BRANCH   2   3
ATOM      3  C   UNL     1       9.033  -4.869  48.486  1.00  0.00     0.000 C 
BRANCH   3   4
ATOM      4  C   UNL     1       7.794  -5.337  47.703  1.00  0.00     0.000 C 
BRANCH   4   5
ATOM      5  C   UNL     1       6.662  -5.832  48.621  1.00  0.00     0.006 C 
BRANCH   5   6
ATOM      6  C   UNL     1       6.817  -5.415  50.093  1.00  0.00     0.053 C 
BRANCH   6   7
ATOM      7  C   UNL     1       5.570  -4.789  50.635  1.00  0.00     0.041 C 
ATOM      8  O   UNL     1       5.642  -3.883  51.506  1.00  0.00    -0.550 OA
ATOM      9  O   UNL     1       4.325  -5.232  50.206  1.00  0.00    -0.550 OA
ENDBRANCH   6   7
ENDBRANCH   5   6
ENDBRANCH   4   5
ENDBRANCH   3   4
ENDBRANCH   2   3
ENDBRANCH   1   2
BRANCH   1  10
ATOM     10  C   UNL     1       7.612  -1.574  48.190  1.00  0.00     0.000 C 
BRANCH  10  11
ATOM     11  C   UNL     1       6.194  -1.636  48.786  1.00  0.00    -0.000 C 
BRANCH  11  12
ATOM     12  C   UNL     1       5.155  -2.393  47.934  1.00  0.00    -0.000 C 
BRANCH  12  13
ATOM     13  C   UNL     1       5.581  -2.680  46.480  1.00  0.00    -0.000 C 
BRANCH  13  14
ATOM     14  C   UNL     1       5.372  -1.512  45.501  1.00  0.00    -0.000 C 
BRANCH  14  15
ATOM     15  C   UNL     1       4.371  -1.844  44.385  1.00  0.00    -0.003 C 
ATOM     16  C   UNL     1       4.449  -3.318  43.997  1.00  0.00     0.004 C 
ENDBRANCH  14  15
ENDBRANCH  13  14
ENDBRANCH  12  13
ENDBRANCH  11  12
ENDBRANCH  10  11
ENDBRANCH   1  10
TORSDOF 12
ENDMDL
MODEL 6
REMARK VINA RESULT:    -4.217      2.300      4.267
REMARK INTER + INTRA:          -8.881
REMARK INTER:                  -7.285
REMARK INTRA:                  -1.595
REMARK UNBOUND:                -1.706
REMARK SMILES CCCCCCCCCCCCCC(=O)[O-]
REMARK SMILES IDX 8 1 9 2 10 3 11 4 12 5 13 6 14 7 15 8 16 9 7 10 6 11 5 12
REMARK SMILES IDX 4 13 3 14 2 15 1 16
REMARK H PARENT
REMARK Flexibility Score: inf
ROOT
ATOM      1  C   UNL     1       5.150  -3.503  46.035  1.00  0.00     0.000 C 
ENDROOT
BRANCH   1   2
ATOM      2  C   UNL     1       5.404  -4.822  46.788  1.00  0.00     0.000 C 
BRANCH   2   3
ATOM      3  C   UNL     1       6.798  -4.949  47.430  1.00  0.00     0.000 C 
BRANCH   3   4
ATOM      4  C   UNL     1       6.830  -5.954  48.595  1.00  0.00     0.000 C 
BRANCH   4   5
ATOM      5  C   UNL     1       7.016  -5.273  49.963  1.00  0.00     0.006 C 
BRANCH   5   6
ATOM      6  C   UNL     1       5.779  -5.342  50.873  1.00  0.00     0.053 C 
BRANCH   6   7
ATOM      7  C   UNL     1       4.680  -4.444  50.397  1.00  0.00     0.041 C 
ATOM      8  O   UNL     1       4.845  -3.196  50.375  1.00  0.00    -0.550 OA
ATOM      9  O   UNL     1       3.458  -4.982  50.011  1.00  0.00    -0.550 OA
ENDBRANCH   6   7
ENDBRANCH   5   6
ENDBRANCH   4   5
ENDBRANCH   3   4
ENDBRANCH   2   3
ENDBRANCH   1   2
BRANCH   1  10
ATOM     10  C   UNL     1       5.198  -2.270  46.952  1.00  0.00     0.000 C 
BRANCH  10  11
ATOM     11  C   UNL     1       5.811  -1.036  46.265  1.00  0.00    -0.000 C 
BRANCH  11  12
ATOM     12  C   UNL     1       7.047  -0.439  46.966  1.00  0.00    -0.000 C 
BRANCH  12  13
ATOM     13  C   UNL     1       7.600  -1.270  48.142  1.00  0.00    -0.000 C 
BRANCH  13  14
ATOM     14  C   UNL     1       8.903  -2.033  47.842  1.00  0.00    -0.000 C 
BRANCH  14  15
ATOM     15  C   UNL     1       9.540  -2.639  49.100  1.00  0.00    -0.003 C 
ATOM     16  C   UNL     1      10.112  -4.025  48.814  1.00  0.00     0.004 C 
ENDBRANCH  14  15
ENDBRANCH  13  14
ENDBRANCH  12  13
ENDBRANCH  11  12
ENDBRANCH  10  11
ENDBRANCH   1  10
TORSDOF 12
ENDMDL
MODEL 7
REMARK VINA RESULT:    -4.140      1.653      3.170
REMARK INTER + INTRA:          -8.750
REMARK INTER:                  -7.036
REMARK INTRA:                  -1.714
REMARK UNBOUND:                -1.706
REMARK SMILES CCCCCCCCCCCCCC(=O)[O-]
REMARK SMILES IDX 8 1 9 2 10 3 11 4 12 5 13 6 14 7 15 8 16 9 7 10 6 11 5 12
REMARK SMILES IDX 4 13 3 14 2 15 1 16
REMARK H PARENT
REMARK Flexibility Score: inf
ROOT
ATOM      1  C   UNL     1       5.135  -3.468  45.696  1.00  0.00     0.000 C 
ENDROOT
BRANCH   1   2
ATOM      2  C   UNL     1       4.964  -4.425  46.891  1.00  0.00     0.000 C 
BRANCH   2   3
ATOM      3  C   UNL     1       5.761  -5.739  46.794  1.00  0.00     0.000 C 
BRANCH   3   4
ATOM      4  C   UNL     1       6.791  -5.897  47.927  1.00  0.00     0.000 C 
BRANCH   4   5
ATOM      5  C   UNL     1       8.118  -5.176  47.630  1.00  0.00     0.006 C 
BRANCH   5   6
ATOM      6  C   UNL     1       8.820  -4.611  48.875  1.00  0.00     0.053 C 
BRANCH   6   7
ATOM      7  C   UNL     1       9.618  -3.383  48.563  1.00  0.00     0.041 C 
ATOM      8  O   UNL     1      10.246  -2.786  49.478  1.00  0.00    -0.550 OA
ATOM      9  O   UNL     1       9.640  -2.877  47.270  1.00  0.00    -0.550 OA
ENDBRANCH   6   7
ENDBRANCH   5   6
ENDBRANCH   4   5
ENDBRANCH   3   4
ENDBRANCH   2   3
ENDBRANCH   1   2
BRANCH   1  10
ATOM     10  C   UNL     1       5.183  -1.989  46.115  1.00  0.00     0.000 C 
BRANCH  10  11
ATOM     11  C   UNL     1       6.614  -1.489  46.380  1.00  0.00    -0.000 C 
BRANCH  11  12
ATOM     12  C   UNL     1       6.895  -1.036  47.827  1.00  0.00    -0.000 C 
BRANCH  12  13
ATOM     13  C   UNL     1       5.888  -1.540  48.880  1.00  0.00    -0.000 C 
BRANCH  13  14
ATOM     14  C   UNL     1       6.521  -2.119  50.158  1.00  0.00    -0.000 C 
BRANCH  14  15
ATOM     15  C   UNL     1       5.511  -2.879  51.029  1.00  0.00    -0.003 C 
ATOM     16  C   UNL     1       5.715  -4.387  50.920  1.00  0.00     0.004 C 
ENDBRANCH  14  15
ENDBRANCH  13  14
ENDBRANCH  12  13
ENDBRANCH  11  12
ENDBRANCH  10  11
ENDBRANCH   1  10
TORSDOF 12
ENDMDL
MODEL 8
REMARK VINA RESULT:    -4.099      1.785      4.273
REMARK INTER + INTRA:          -8.680
REMARK INTER:                  -6.915
REMARK INTRA:                  -1.765
REMARK UNBOUND:                -1.706
REMARK SMILES CCCCCCCCCCCCCC(=O)[O-]
REMARK SMILES IDX 8 1 9 2 10 3 11 4 12 5 13 6 14 7 15 8 16 9 7 10 6 11 5 12
REMARK SMILES IDX 4 13 3 14 2 15 1 16
REMARK H PARENT
REMARK Flexibility Score: inf
ROOT
ATOM      1  C   UNL     1       6.132  -2.380  45.842  1.00  0.00     0.000 C 
ENDROOT
BRANCH   1   2
ATOM      2  C   UNL     1       4.812  -3.162  45.712  1.00  0.00     0.000 C 
BRANCH   2   3
ATOM      3  C   UNL     1       4.865  -4.619  46.207  1.00  0.00     0.000 C 
BRANCH   3   4
ATOM      4  C   UNL     1       5.487  -4.753  47.609  1.00  0.00     0.000 C 
BRANCH   4   5
ATOM      5  C   UNL     1       4.487  -4.434  48.735  1.00  0.00     0.006 C 
BRANCH   5   6
ATOM      6  C   UNL     1       4.784  -3.128  49.489  1.00  0.00     0.053 C 
BRANCH   6   7
ATOM      7  C   UNL     1       5.760  -3.333  50.606  1.00  0.00     0.041 C 
ATOM      8  O   UNL     1       5.775  -4.419  51.243  1.00  0.00    -0.550 OA
ATOM      9  O   UNL     1       6.629  -2.311  50.968  1.00  0.00    -0.550 OA
ENDBRANCH   6   7
ENDBRANCH   5   6
ENDBRANCH   4   5
ENDBRANCH   3   4
ENDBRANCH   2   3
ENDBRANCH   1   2
BRANCH   1  10
ATOM     10  C   UNL     1       6.020  -1.165  46.777  1.00  0.00     0.000 C 
BRANCH  10  11
ATOM     11  C   UNL     1       7.246  -1.001  47.694  1.00  0.00    -0.000 C 
BRANCH  11  12
ATOM     12  C   UNL     1       8.372  -2.032  47.476  1.00  0.00    -0.000 C 
BRANCH  12  13
ATOM     13  C   UNL     1       9.374  -2.167  48.640  1.00  0.00    -0.000 C 
BRANCH  13  14
ATOM     14  C   UNL     1       9.935  -3.584  48.853  1.00  0.00    -0.000 C 
BRANCH  14  15
ATOM     15  C   UNL     1       8.833  -4.642  49.007  1.00  0.00    -0.003 C 
ATOM     16  C   UNL     1       8.957  -5.725  47.939  1.00  0.00     0.004 C 
ENDBRANCH  14  15
ENDBRANCH  13  14
ENDBRANCH  12  13
ENDBRANCH  11  12
ENDBRANCH  10  11
ENDBRANCH   1  10
TORSDOF 12
ENDMDL
MODEL 9
REMARK VINA RESULT:    -4.055      2.650      4.888
REMARK INTER + INTRA:          -8.605
REMARK INTER:                  -7.031
REMARK INTRA:                  -1.574
REMARK UNBOUND:                -1.706
REMARK SMILES CCCCCCCCCCCCCC(=O)[O-]
REMARK SMILES IDX 8 1 9 2 10 3 11 4 12 5 13 6 14 7 15 8 16 9 7 10 6 11 5 12
REMARK SMILES IDX 4 13 3 14 2 15 1 16
REMARK H PARENT
REMARK Flexibility Score: inf
ROOT
ATOM      1  C   UNL     1       6.263  -5.271  49.693  1.00  0.00     0.000 C 
ENDROOT
BRANCH   1   2
ATOM      2  C   UNL     1       5.277  -6.124  48.874  1.00  0.00     0.000 C 
BRANCH   2   3
ATOM      3  C   UNL     1       4.402  -5.337  47.881  1.00  0.00     0.000 C 
BRANCH   3   4
ATOM      4  C   UNL     1       4.813  -3.859  47.763  1.00  0.00     0.000 C 
BRANCH   4   5
ATOM      5  C   UNL     1       5.682  -3.581  46.523  1.00  0.00     0.006 C 
BRANCH   5   6
ATOM      6  C   UNL     1       5.515  -2.167  45.942  1.00  0.00     0.053 C 
BRANCH   6   7
ATOM      7  C   UNL     1       4.771  -2.176  44.643  1.00  0.00     0.041 C 
ATOM      8  O   UNL     1       4.471  -3.269  44.092  1.00  0.00    -0.550 OA
ATOM      9  O   UNL     1       4.440  -0.979  44.021  1.00  0.00    -0.550 OA
ENDBRANCH   6   7
ENDBRANCH   5   6
ENDBRANCH   4   5
ENDBRANCH   3   4
ENDBRANCH   2   3
ENDBRANCH   1   2
BRANCH   1  10
ATOM     10  C   UNL     1       7.511  -6.055  50.134  1.00  0.00     0.000 C 
BRANCH  10  11
ATOM     11  C   UNL     1       8.785  -5.616  49.389  1.00  0.00    -0.000 C 
BRANCH  11  12
ATOM     12  C   UNL     1       8.599  -4.450  48.398  1.00  0.00    -0.000 C 
BRANCH  12  13
ATOM     13  C   UNL     1       9.130  -3.085  48.881  1.00  0.00    -0.000 C 
BRANCH  13  14
ATOM     14  C   UNL     1       8.046  -2.027  49.149  1.00  0.00    -0.000 C 
BRANCH  14  15
ATOM     15  C   UNL     1       7.257  -2.297  50.438  1.00  0.00    -0.003 C 
ATOM     16  C   UNL     1       5.889  -1.621  50.398  1.00  0.00     0.004 C 
ENDBRANCH  14  15
ENDBRANCH  13  14
ENDBRANCH  12  13
ENDBRANCH  11  12
ENDBRANCH  10  11
ENDBRANCH   1  10
TORSDOF 12
ENDMDL
