MODEL 1
REMARK VINA RESULT:    -6.513      0.000      0.000
REMARK INTER + INTRA:         -12.144
REMARK INTER:                 -10.702
REMARK INTRA:                  -1.442
REMARK UNBOUND:                -1.442
REMARK SMILES C[C@@H]1O[C@H](OC[C@H]2O[C@@H](Oc3c(-c4ccc(O)c(O)c4)oc4cc(O)cc(O)c4c3=O)[C@H](O)[C@H](O)[C@H]2O)[C@H](O)[C@@H](O)[C@@H]1O
REMARK SMILES IDX 7 1 36 2 34 3 32 4 9 5 8 6 6 7 5 8 4 9 1 10 2 11 42 12 3 13
REMARK SMILES IDX 40 14 38 15 43 16 41 18 39 20 37 22 35 24 10 26 11 27 12 28
REMARK SMILES IDX 30 29 21 30 29 31 31 32 22 33 27 34 23 35 26 36 24 37 13 38
REMARK SMILES IDX 20 39 14 40 18 41 15 42 16 43 19 44 17 46 28 48 25 50 33 52
REMARK H PARENT 43 17 41 19 39 21 37 23 35 25 19 45 17 47 28 49 25 51 33 53
REMARK Flexibility Score: inf
ROOT
ATOM      1  C   UNL     1      35.707 181.882 172.153  1.00  0.00     0.180 C 
ATOM      2  C   UNL     1      35.332 182.419 170.729  1.00  0.00     0.177 C 
ATOM      3  C   UNL     1      33.814 182.298 170.468  1.00  0.00     0.180 C 
ATOM      4  C   UNL     1      33.257 180.919 170.900  1.00  0.00     0.214 C 
ATOM      5  C   UNL     1      33.875 180.454 172.240  1.00  0.00     0.339 C 
ATOM      6  O   UNL     1      34.549 181.532 172.897  1.00  0.00    -0.332 OA
ENDROOT
BRANCH   1   7
ATOM      7  C   UNL     1      36.656 182.794 172.992  1.00  0.00     0.198 C 
BRANCH   7   8
ATOM      8  O   UNL     1      37.742 183.288 172.219  1.00  0.00    -0.347 OA
BRANCH   8   9
ATOM      9  C   UNL     1      39.029 183.072 172.809  1.00  0.00     0.281 C 
ATOM     10  C   UNL     1      41.329 180.568 172.351  1.00  0.00     0.041 C 
ATOM     11  C   UNL     1      40.659 181.412 173.440  1.00  0.00     0.150 C 
ATOM     12  C   UNL     1      41.511 182.654 173.856  1.00  0.00     0.174 C 
ATOM     13  O   UNL     1      39.317 181.698 173.041  1.00  0.00    -0.344 OA
ATOM     14  C   UNL     1      41.491 183.737 172.754  1.00  0.00     0.179 C 
ATOM     15  C   UNL     1      40.126 183.799 172.003  1.00  0.00     0.202 C 
BRANCH  12  16
ATOM     16  O   UNL     1      42.829 182.267 174.124  1.00  0.00    -0.388 OA
ATOM     17  H   UNL     1      42.917 182.176 175.109  1.00  0.00     0.211 HD
ENDBRANCH  12  16
BRANCH  14  18
ATOM     18  O   UNL     1      41.770 184.992 173.335  1.00  0.00    -0.387 OA
ATOM     19  H   UNL     1      42.624 184.899 173.842  1.00  0.00     0.211 HD
ENDBRANCH  14  18
BRANCH  15  20
ATOM     20  O   UNL     1      40.220 183.241 170.715  1.00  0.00    -0.385 OA
ATOM     21  H   UNL     1      39.968 182.284 170.815  1.00  0.00     0.211 HD
ENDBRANCH  15  20
ENDBRANCH   8   9
ENDBRANCH   7   8
ENDBRANCH   1   7
BRANCH   2  22
ATOM     22  O   UNL     1      35.705 183.759 170.544  1.00  0.00    -0.387 OA
ATOM     23  H   UNL     1      35.858 183.869 169.563  1.00  0.00     0.211 HD
ENDBRANCH   2  22
BRANCH   3  24
ATOM     24  O   UNL     1      33.503 182.595 169.135  1.00  0.00    -0.387 OA
ATOM     25  H   UNL     1      32.561 182.336 168.975  1.00  0.00     0.211 HD
ENDBRANCH   3  24
BRANCH   5  26
ATOM     26  O   UNL     1      32.854 179.891 173.074  1.00  0.00    -0.454 OA
BRANCH  26  27
ATOM     27  C   UNL     1      31.476 179.994 172.825  1.00  0.00     0.214 A 
ATOM     28  C   UNL     1      30.736 178.956 172.203  1.00  0.00     0.180 A 
ATOM     29  C   UNL     1      30.816 181.172 173.179  1.00  0.00     0.239 A 
ATOM     30  O   UNL     1      29.423 179.110 172.020  1.00  0.00    -0.452 OA
ATOM     31  C   UNL     1      29.424 181.297 172.955  1.00  0.00     0.111 A 
ATOM     32  O   UNL     1      31.462 182.108 173.707  1.00  0.00    -0.285 OA
ATOM     33  C   UNL     1      28.750 180.201 172.365  1.00  0.00     0.146 A 
ATOM     34  C   UNL     1      28.686 182.451 173.307  1.00  0.00     0.134 A 
ATOM     35  C   UNL     1      27.371 180.268 172.127  1.00  0.00     0.094 A 
ATOM     36  C   UNL     1      27.302 182.485 173.087  1.00  0.00     0.093 A 
ATOM     37  C   UNL     1      26.640 181.409 172.487  1.00  0.00     0.123 A 
BRANCH  28  38
ATOM     38  C   UNL     1      31.352 177.681 171.759  1.00  0.00     0.025 A 
ATOM     39  C   UNL     1      31.970 176.798 172.665  1.00  0.00     0.062 A 
ATOM     40  C   UNL     1      31.350 177.345 170.400  1.00  0.00     0.016 A 
ATOM     41  C   UNL     1      32.481 175.557 172.234  1.00  0.00     0.158 A 
ATOM     42  C   UNL     1      31.838 176.111 169.967  1.00  0.00     0.051 A 
ATOM     43  C   UNL     1      32.402 175.208 170.878  1.00  0.00     0.157 A 
BRANCH  41  44
ATOM     44  O   UNL     1      33.051 174.690 173.165  1.00  0.00    -0.504 OA
ATOM     45  H   UNL     1      33.827 174.101 172.933  1.00  0.00     0.293 HD
ENDBRANCH  41  44
BRANCH  43  46
ATOM     46  O   UNL     1      32.879 173.967 170.441  1.00  0.00    -0.504 OA
ATOM     47  H   UNL     1      33.013 173.769 169.456  1.00  0.00     0.293 HD
ENDBRANCH  43  46
ENDBRANCH  28  38
BRANCH  34  48
ATOM     48  O   UNL     1      29.327 183.563 173.875  1.00  0.00    -0.507 OA
ATOM     49  H   UNL     1      29.916 184.182 173.326  1.00  0.00     0.293 HD
ENDBRANCH  34  48
BRANCH  37  50
ATOM     50  O   UNL     1      25.273 181.474 172.258  1.00  0.00    -0.508 OA
ATOM     51  H   UNL     1      24.616 180.985 172.856  1.00  0.00     0.293 HD
ENDBRANCH  37  50
ENDBRANCH  26  27
ENDBRANCH   5  26
BRANCH   4  52
ATOM     52  O   UNL     1      33.472 179.955 169.905  1.00  0.00    -0.384 OA
ATOM     53  H   UNL     1      34.200 180.272 169.300  1.00  0.00     0.211 HD
ENDBRANCH   4  52
TORSDOF 16
ENDMDL
MODEL 2
REMARK VINA RESULT:    -6.408      1.446      5.102
REMARK INTER + INTRA:         -11.970
REMARK INTER:                 -10.487
REMARK INTRA:                  -1.483
REMARK UNBOUND:                -1.442
REMARK SMILES C[C@@H]1O[C@H](OC[C@H]2O[C@@H](Oc3c(-c4ccc(O)c(O)c4)oc4cc(O)cc(O)c4c3=O)[C@H](O)[C@H](O)[C@H]2O)[C@H](O)[C@@H](O)[C@@H]1O
REMARK SMILES IDX 7 1 36 2 34 3 32 4 9 5 8 6 6 7 5 8 4 9 1 10 2 11 42 12 3 13
REMARK SMILES IDX 40 14 38 15 43 16 41 18 39 20 37 22 35 24 10 26 11 27 12 28
REMARK SMILES IDX 30 29 21 30 29 31 31 32 22 33 27 34 23 35 26 36 24 37 13 38
REMARK SMILES IDX 20 39 14 40 18 41 15 42 16 43 19 44 17 46 28 48 25 50 33 52
REMARK H PARENT 43 17 41 19 39 21 37 23 35 25 19 45 17 47 28 49 25 51 33 53
REMARK Flexibility Score: inf
ROOT
ATOM      1  C   UNL     1      35.454 181.505 171.634  1.00  0.00     0.180 C 
ATOM      2  C   UNL     1      34.968 182.267 170.353  1.00  0.00     0.177 C 
ATOM      3  C   UNL     1      33.446 182.102 170.147  1.00  0.00     0.180 C 
ATOM      4  C   UNL     1      32.988 180.636 170.343  1.00  0.00     0.214 C 
ATOM      5  C   UNL     1      33.706 179.974 171.544  1.00  0.00     0.339 C 
ATOM      6  O   UNL     1      34.361 180.955 172.355  1.00  0.00    -0.332 OA
ENDROOT
BRANCH   1   7
ATOM      7  C   UNL     1      36.401 182.306 172.581  1.00  0.00     0.198 C 
BRANCH   7   8
ATOM      8  O   UNL     1      37.430 182.976 171.863  1.00  0.00    -0.347 OA
BRANCH   8   9
ATOM      9  C   UNL     1      38.708 182.949 172.508  1.00  0.00     0.281 C 
ATOM     10  C   UNL     1      41.198 180.589 172.482  1.00  0.00     0.041 C 
ATOM     11  C   UNL     1      40.432 181.531 173.417  1.00  0.00     0.150 C 
ATOM     12  C   UNL     1      41.178 182.882 173.661  1.00  0.00     0.174 C 
ATOM     13  O   UNL     1      39.087 181.650 172.949  1.00  0.00    -0.344 OA
ATOM     14  C   UNL     1      41.116 183.785 172.409  1.00  0.00     0.179 C 
ATOM     15  C   UNL     1      39.776 183.631 171.626  1.00  0.00     0.202 C 
BRANCH  12  16
ATOM     16  O   UNL     1      42.510 182.642 174.013  1.00  0.00    -0.388 OA
ATOM     17  H   UNL     1      42.528 182.441 174.986  1.00  0.00     0.211 HD
ENDBRANCH  12  16
BRANCH  14  18
ATOM     18  O   UNL     1      41.283 185.130 172.801  1.00  0.00    -0.387 OA
ATOM     19  H   UNL     1      41.694 185.614 172.031  1.00  0.00     0.211 HD
ENDBRANCH  14  18
BRANCH  15  20
ATOM     20  O   UNL     1      39.953 182.898 170.439  1.00  0.00    -0.385 OA
ATOM     21  H   UNL     1      39.495 183.419 169.727  1.00  0.00     0.211 HD
ENDBRANCH  15  20
ENDBRANCH   8   9
ENDBRANCH   7   8
ENDBRANCH   1   7
BRANCH   2  22
ATOM     22  O   UNL     1      35.259 183.639 170.401  1.00  0.00    -0.387 OA
ATOM     23  H   UNL     1      34.390 184.100 170.568  1.00  0.00     0.211 HD
ENDBRANCH   2  22
BRANCH   3  24
ATOM     24  O   UNL     1      33.043 182.616 168.908  1.00  0.00    -0.387 OA
ATOM     25  H   UNL     1      32.738 181.859 168.347  1.00  0.00     0.211 HD
ENDBRANCH   3  24
BRANCH   5  26
ATOM     26  O   UNL     1      32.767 179.207 172.308  1.00  0.00    -0.454 OA
BRANCH  26  27
ATOM     27  C   UNL     1      32.280 177.943 171.935  1.00  0.00     0.214 A 
ATOM     28  C   UNL     1      30.912 177.711 171.643  1.00  0.00     0.180 A 
ATOM     29  C   UNL     1      33.172 176.871 171.879  1.00  0.00     0.239 A 
ATOM     30  O   UNL     1      30.523 176.490 171.270  1.00  0.00    -0.452 OA
ATOM     31  C   UNL     1      32.713 175.590 171.491  1.00  0.00     0.111 A 
ATOM     32  O   UNL     1      34.380 177.056 172.160  1.00  0.00    -0.285 OA
ATOM     33  C   UNL     1      31.341 175.448 171.177  1.00  0.00     0.146 A 
ATOM     34  C   UNL     1      33.562 174.463 171.390  1.00  0.00     0.134 A 
ATOM     35  C   UNL     1      30.833 174.204 170.780  1.00  0.00     0.094 A 
ATOM     36  C   UNL     1      33.040 173.234 170.963  1.00  0.00     0.093 A 
ATOM     37  C   UNL     1      31.680 173.092 170.670  1.00  0.00     0.123 A 
BRANCH  28  38
ATOM     38  C   UNL     1      29.882 178.776 171.708  1.00  0.00     0.025 A 
ATOM     39  C   UNL     1      29.308 179.330 170.548  1.00  0.00     0.062 A 
ATOM     40  C   UNL     1      29.477 179.274 172.953  1.00  0.00     0.016 A 
ATOM     41  C   UNL     1      28.275 180.286 170.635  1.00  0.00     0.158 A 
ATOM     42  C   UNL     1      28.443 180.208 173.048  1.00  0.00     0.051 A 
ATOM     43  C   UNL     1      27.833 180.718 171.894  1.00  0.00     0.157 A 
BRANCH  41  44
ATOM     44  O   UNL     1      27.703 180.785 169.465  1.00  0.00    -0.504 OA
ATOM     45  H   UNL     1      26.899 180.359 169.046  1.00  0.00     0.293 HD
ENDBRANCH  41  44
BRANCH  43  46
ATOM     46  O   UNL     1      26.790 181.644 171.994  1.00  0.00    -0.504 OA
ATOM     47  H   UNL     1      25.859 181.431 171.657  1.00  0.00     0.293 HD
ENDBRANCH  43  46
ENDBRANCH  28  38
BRANCH  34  48
ATOM     48  O   UNL     1      34.924 174.564 171.714  1.00  0.00    -0.507 OA
ATOM     49  H   UNL     1      35.387 175.463 171.813  1.00  0.00     0.293 HD
ENDBRANCH  34  48
BRANCH  37  50
ATOM     50  O   UNL     1      31.181 171.860 170.271  1.00  0.00    -0.508 OA
ATOM     51  H   UNL     1      30.240 171.768 169.904  1.00  0.00     0.293 HD
ENDBRANCH  37  50
ENDBRANCH  26  27
ENDBRANCH   5  26
BRANCH   4  52
ATOM     52  O   UNL     1      33.195 179.883 169.179  1.00  0.00    -0.384 OA
ATOM     53  H   UNL     1      33.575 178.995 169.432  1.00  0.00     0.211 HD
ENDBRANCH   4  52
TORSDOF 16
ENDMDL
MODEL 3
REMARK VINA RESULT:    -6.031      5.142     10.473
REMARK INTER + INTRA:         -11.351
REMARK INTER:                  -8.085
REMARK INTRA:                  -3.267
REMARK UNBOUND:                -1.442
REMARK SMILES C[C@@H]1O[C@H](OC[C@H]2O[C@@H](Oc3c(-c4ccc(O)c(O)c4)oc4cc(O)cc(O)c4c3=O)[C@H](O)[C@H](O)[C@H]2O)[C@H](O)[C@@H](O)[C@@H]1O
REMARK SMILES IDX 7 1 36 2 34 3 32 4 9 5 8 6 6 7 5 8 4 9 1 10 2 11 42 12 3 13
REMARK SMILES IDX 40 14 38 15 43 16 41 18 39 20 37 22 35 24 10 26 11 27 12 28
REMARK SMILES IDX 30 29 21 30 29 31 31 32 22 33 27 34 23 35 26 36 24 37 13 38
REMARK SMILES IDX 20 39 14 40 18 41 15 42 16 43 19 44 17 46 28 48 25 50 33 52
REMARK H PARENT 43 17 41 19 39 21 37 23 35 25 19 45 17 47 28 49 25 51 33 53
REMARK Flexibility Score: inf
ROOT
ATOM      1  C   UNL     1      30.728 171.519 170.223  1.00  0.00     0.180 C 
ATOM      2  C   UNL     1      30.073 170.190 170.734  1.00  0.00     0.177 C 
ATOM      3  C   UNL     1      30.133 170.092 172.275  1.00  0.00     0.180 C 
ATOM      4  C   UNL     1      31.526 170.481 172.828  1.00  0.00     0.214 C 
ATOM      5  C   UNL     1      32.110 171.706 172.083  1.00  0.00     0.339 C 
ATOM      6  O   UNL     1      31.104 172.360 171.304  1.00  0.00    -0.332 OA
ENDROOT
BRANCH   1   7
ATOM      7  C   UNL     1      29.908 172.312 169.157  1.00  0.00     0.198 C 
BRANCH   7   8
ATOM      8  O   UNL     1      28.849 173.057 169.746  1.00  0.00    -0.347 OA
BRANCH   8   9
ATOM      9  C   UNL     1      28.803 174.430 169.343  1.00  0.00     0.281 C 
ATOM     10  C   UNL     1      26.498 176.890 169.979  1.00  0.00     0.041 C 
ATOM     11  C   UNL     1      27.359 176.298 168.858  1.00  0.00     0.150 C 
ATOM     12  C   UNL     1      28.705 177.067 168.657  1.00  0.00     0.174 C 
ATOM     13  O   UNL     1      27.485 174.891 169.069  1.00  0.00    -0.344 OA
ATOM     14  C   UNL     1      29.690 176.776 169.811  1.00  0.00     0.179 C 
ATOM     15  C   UNL     1      29.563 175.318 170.351  1.00  0.00     0.202 C 
BRANCH  12  16
ATOM     16  O   UNL     1      28.466 178.443 168.566  1.00  0.00    -0.388 OA
ATOM     17  H   UNL     1      29.349 178.893 168.497  1.00  0.00     0.211 HD
ENDBRANCH  12  16
BRANCH  14  18
ATOM     18  O   UNL     1      31.007 177.002 169.361  1.00  0.00    -0.387 OA
ATOM     19  H   UNL     1      31.565 176.241 169.685  1.00  0.00     0.211 HD
ENDBRANCH  14  18
BRANCH  15  20
ATOM     20  O   UNL     1      28.916 175.285 171.599  1.00  0.00    -0.385 OA
ATOM     21  H   UNL     1      29.238 176.085 172.093  1.00  0.00     0.211 HD
ENDBRANCH  15  20
ENDBRANCH   8   9
ENDBRANCH   7   8
ENDBRANCH   1   7
BRANCH   2  22
ATOM     22  O   UNL     1      28.732 170.063 170.338  1.00  0.00    -0.387 OA
ATOM     23  H   UNL     1      28.469 170.953 169.969  1.00  0.00     0.211 HD
ENDBRANCH   2  22
BRANCH   3  24
ATOM     24  O   UNL     1      29.726 168.828 172.720  1.00  0.00    -0.387 OA
ATOM     25  H   UNL     1      29.754 168.209 171.948  1.00  0.00     0.211 HD
ENDBRANCH   3  24
BRANCH   5  26
ATOM     26  O   UNL     1      32.709 172.605 173.024  1.00  0.00    -0.454 OA
BRANCH  26  27
ATOM     27  C   UNL     1      32.987 173.958 172.767  1.00  0.00     0.214 A 
ATOM     28  C   UNL     1      34.213 174.387 172.197  1.00  0.00     0.180 A 
ATOM     29  C   UNL     1      32.033 174.917 173.111  1.00  0.00     0.239 A 
ATOM     30  O   UNL     1      34.401 175.686 171.956  1.00  0.00    -0.452 OA
ATOM     31  C   UNL     1      32.279 176.285 172.848  1.00  0.00     0.111 A 
ATOM     32  O   UNL     1      30.954 174.554 173.639  1.00  0.00    -0.285 OA
ATOM     33  C   UNL     1      33.510 176.629 172.242  1.00  0.00     0.146 A 
ATOM     34  C   UNL     1      31.350 177.309 173.149  1.00  0.00     0.134 A 
ATOM     35  C   UNL     1      33.804 177.968 171.953  1.00  0.00     0.094 A 
ATOM     36  C   UNL     1      31.651 178.639 172.825  1.00  0.00     0.093 A 
ATOM     37  C   UNL     1      32.876 178.979 172.242  1.00  0.00     0.123 A 
BRANCH  28  38
ATOM     38  C   UNL     1      35.303 173.450 171.830  1.00  0.00     0.025 A 
ATOM     39  C   UNL     1      35.330 172.791 170.586  1.00  0.00     0.062 A 
ATOM     40  C   UNL     1      36.327 173.184 172.747  1.00  0.00     0.016 A 
ATOM     41  C   UNL     1      36.415 171.965 170.227  1.00  0.00     0.158 A 
ATOM     42  C   UNL     1      37.413 172.381 172.393  1.00  0.00     0.051 A 
ATOM     43  C   UNL     1      37.468 171.770 171.133  1.00  0.00     0.157 A 
BRANCH  41  44
ATOM     44  O   UNL     1      36.429 171.359 168.972  1.00  0.00    -0.504 OA
ATOM     45  H   UNL     1      35.809 170.607 168.741  1.00  0.00     0.293 HD
ENDBRANCH  41  44
BRANCH  43  46
ATOM     46  O   UNL     1      38.563 170.975 170.779  1.00  0.00    -0.504 OA
ATOM     47  H   UNL     1      39.373 170.891 171.383  1.00  0.00     0.293 HD
ENDBRANCH  43  46
ENDBRANCH  28  38
BRANCH  34  48
ATOM     48  O   UNL     1      30.128 177.005 173.769  1.00  0.00    -0.507 OA
ATOM     49  H   UNL     1      29.546 176.232 173.458  1.00  0.00     0.293 HD
ENDBRANCH  34  48
BRANCH  37  50
ATOM     50  O   UNL     1      33.162 180.306 171.951  1.00  0.00    -0.508 OA
ATOM     51  H   UNL     1      33.190 180.640 170.994  1.00  0.00     0.293 HD
ENDBRANCH  37  50
ENDBRANCH  26  27
ENDBRANCH   5  26
BRANCH   4  52
ATOM     52  O   UNL     1      32.417 169.400 172.757  1.00  0.00    -0.384 OA
ATOM     53  H   UNL     1      33.349 169.753 172.700  1.00  0.00     0.211 HD
ENDBRANCH   4  52
TORSDOF 16
ENDMDL
MODEL 4
REMARK VINA RESULT:    -5.990      3.274      7.510
REMARK INTER + INTRA:         -11.284
REMARK INTER:                  -9.672
REMARK INTRA:                  -1.612
REMARK UNBOUND:                -1.442
REMARK SMILES C[C@@H]1O[C@H](OC[C@H]2O[C@@H](Oc3c(-c4ccc(O)c(O)c4)oc4cc(O)cc(O)c4c3=O)[C@H](O)[C@H](O)[C@H]2O)[C@H](O)[C@@H](O)[C@@H]1O
REMARK SMILES IDX 7 1 36 2 34 3 32 4 9 5 8 6 6 7 5 8 4 9 1 10 2 11 42 12 3 13
REMARK SMILES IDX 40 14 38 15 43 16 41 18 39 20 37 22 35 24 10 26 11 27 12 28
REMARK SMILES IDX 30 29 21 30 29 31 31 32 22 33 27 34 23 35 26 36 24 37 13 38
REMARK SMILES IDX 20 39 14 40 18 41 15 42 16 43 19 44 17 46 28 48 25 50 33 52
REMARK H PARENT 43 17 41 19 39 21 37 23 35 25 19 45 17 47 28 49 25 51 33 53
REMARK Flexibility Score: inf
ROOT
ATOM      1  C   UNL     1      33.139 178.926 171.375  1.00  0.00     0.180 C 
ATOM      2  C   UNL     1      31.961 179.666 170.652  1.00  0.00     0.177 C 
ATOM      3  C   UNL     1      30.630 178.903 170.827  1.00  0.00     0.180 C 
ATOM      4  C   UNL     1      30.795 177.381 170.587  1.00  0.00     0.214 C 
ATOM      5  C   UNL     1      32.107 176.849 171.212  1.00  0.00     0.339 C 
ATOM      6  O   UNL     1      32.672 177.807 172.114  1.00  0.00    -0.332 OA
ENDROOT
BRANCH   1   7
ATOM      7  C   UNL     1      34.067 179.825 172.251  1.00  0.00     0.198 C 
BRANCH   7   8
ATOM      8  O   UNL     1      35.009 180.544 171.465  1.00  0.00    -0.347 OA
BRANCH   8   9
ATOM      9  C   UNL     1      35.321 181.848 171.967  1.00  0.00     0.281 C 
ATOM     10  C   UNL     1      36.831 184.540 170.470  1.00  0.00     0.041 C 
ATOM     11  C   UNL     1      36.808 183.735 171.774  1.00  0.00     0.150 C 
ATOM     12  C   UNL     1      35.876 184.364 172.859  1.00  0.00     0.174 C 
ATOM     13  O   UNL     1      36.548 182.365 171.464  1.00  0.00    -0.344 OA
ATOM     14  C   UNL     1      34.387 184.161 172.498  1.00  0.00     0.179 C 
ATOM     15  C   UNL     1      34.128 182.806 171.771  1.00  0.00     0.202 C 
BRANCH  12  16
ATOM     16  O   UNL     1      36.153 185.728 173.002  1.00  0.00    -0.388 OA
ATOM     17  H   UNL     1      36.046 186.147 172.109  1.00  0.00     0.211 HD
ENDBRANCH  12  16
BRANCH  14  18
ATOM     18  O   UNL     1      33.614 184.222 173.677  1.00  0.00    -0.387 OA
ATOM     19  H   UNL     1      32.708 184.550 173.419  1.00  0.00     0.211 HD
ENDBRANCH  14  18
BRANCH  15  20
ATOM     20  O   UNL     1      33.889 182.995 170.398  1.00  0.00    -0.385 OA
ATOM     21  H   UNL     1      33.782 182.084 170.013  1.00  0.00     0.211 HD
ENDBRANCH  15  20
ENDBRANCH   8   9
ENDBRANCH   7   8
ENDBRANCH   1   7
BRANCH   2  22
ATOM     22  O   UNL     1      31.781 180.977 171.119  1.00  0.00    -0.387 OA
ATOM     23  H   UNL     1      31.948 181.573 170.336  1.00  0.00     0.211 HD
ENDBRANCH   2  22
BRANCH   3  24
ATOM     24  O   UNL     1      29.620 179.453 170.026  1.00  0.00    -0.387 OA
ATOM     25  H   UNL     1      29.161 180.154 170.553  1.00  0.00     0.211 HD
ENDBRANCH   3  24
BRANCH   5  26
ATOM     26  O   UNL     1      31.860 175.599 171.867  1.00  0.00    -0.454 OA
BRANCH  26  27
ATOM     27  C   UNL     1      32.374 174.362 171.443  1.00  0.00     0.214 A 
ATOM     28  C   UNL     1      31.548 173.333 170.924  1.00  0.00     0.180 A 
ATOM     29  C   UNL     1      33.745 174.128 171.564  1.00  0.00     0.239 A 
ATOM     30  O   UNL     1      32.107 172.192 170.516  1.00  0.00    -0.452 OA
ATOM     31  C   UNL     1      34.293 172.898 171.131  1.00  0.00     0.111 A 
ATOM     32  O   UNL     1      34.484 175.021 172.046  1.00  0.00    -0.285 OA
ATOM     33  C   UNL     1      33.408 171.937 170.587  1.00  0.00     0.146 A 
ATOM     34  C   UNL     1      35.674 172.600 171.202  1.00  0.00     0.134 A 
ATOM     35  C   UNL     1      33.898 170.704 170.135  1.00  0.00     0.094 A 
ATOM     36  C   UNL     1      36.147 171.372 170.718  1.00  0.00     0.093 A 
ATOM     37  C   UNL     1      35.269 170.417 170.197  1.00  0.00     0.123 A 
BRANCH  28  38
ATOM     38  C   UNL     1      30.078 173.471 170.788  1.00  0.00     0.025 A 
ATOM     39  C   UNL     1      29.479 173.910 169.591  1.00  0.00     0.062 A 
ATOM     40  C   UNL     1      29.250 173.185 171.880  1.00  0.00     0.016 A 
ATOM     41  C   UNL     1      28.075 173.959 169.459  1.00  0.00     0.158 A 
ATOM     42  C   UNL     1      27.860 173.215 171.752  1.00  0.00     0.051 A 
ATOM     43  C   UNL     1      27.263 173.598 170.543  1.00  0.00     0.157 A 
BRANCH  41  44
ATOM     44  O   UNL     1      27.516 174.362 168.247  1.00  0.00    -0.504 OA
ATOM     45  H   UNL     1      27.984 174.999 167.634  1.00  0.00     0.293 HD
ENDBRANCH  41  44
BRANCH  43  46
ATOM     46  O   UNL     1      25.870 173.616 170.416  1.00  0.00    -0.504 OA
ATOM     47  H   UNL     1      25.386 172.966 169.808  1.00  0.00     0.293 HD
ENDBRANCH  43  46
ENDBRANCH  28  38
BRANCH  34  48
ATOM     48  O   UNL     1      36.576 173.523 171.754  1.00  0.00    -0.507 OA
ATOM     49  H   UNL     1      37.582 173.395 171.690  1.00  0.00     0.293 HD
ENDBRANCH  34  48
BRANCH  37  50
ATOM     50  O   UNL     1      35.757 169.199 169.745  1.00  0.00    -0.508 OA
ATOM     51  H   UNL     1      36.750 169.052 169.599  1.00  0.00     0.293 HD
ENDBRANCH  37  50
ENDBRANCH  26  27
ENDBRANCH   5  26
BRANCH   4  52
ATOM     52  O   UNL     1      30.752 177.079 169.219  1.00  0.00    -0.384 OA
ATOM     53  H   UNL     1      30.164 176.283 169.083  1.00  0.00     0.211 HD
ENDBRANCH   4  52
TORSDOF 16
ENDMDL
MODEL 5
REMARK VINA RESULT:    -5.979      6.105     11.958
REMARK INTER + INTRA:         -11.266
REMARK INTER:                  -8.062
REMARK INTRA:                  -3.205
REMARK UNBOUND:                -1.442
REMARK SMILES C[C@@H]1O[C@H](OC[C@H]2O[C@@H](Oc3c(-c4ccc(O)c(O)c4)oc4cc(O)cc(O)c4c3=O)[C@H](O)[C@H](O)[C@H]2O)[C@H](O)[C@@H](O)[C@@H]1O
REMARK SMILES IDX 7 1 36 2 34 3 32 4 9 5 8 6 6 7 5 8 4 9 1 10 2 11 42 12 3 13
REMARK SMILES IDX 40 14 38 15 43 16 41 18 39 20 37 22 35 24 10 26 11 27 12 28
REMARK SMILES IDX 30 29 21 30 29 31 31 32 22 33 27 34 23 35 26 36 24 37 13 38
REMARK SMILES IDX 20 39 14 40 18 41 15 42 16 43 19 44 17 46 28 48 25 50 33 52
REMARK H PARENT 43 17 41 19 39 21 37 23 35 25 19 45 17 47 28 49 25 51 33 53
REMARK Flexibility Score: inf
ROOT
ATOM      1  C   UNL     1      29.045 172.033 172.113  1.00  0.00     0.180 C 
ATOM      2  C   UNL     1      28.017 173.182 171.833  1.00  0.00     0.177 C 
ATOM      3  C   UNL     1      28.714 174.559 171.788  1.00  0.00     0.180 C 
ATOM      4  C   UNL     1      29.715 174.742 172.956  1.00  0.00     0.214 C 
ATOM      5  C   UNL     1      30.522 173.448 173.218  1.00  0.00     0.339 C 
ATOM      6  O   UNL     1      30.378 172.524 172.135  1.00  0.00    -0.332 OA
ENDROOT
BRANCH   1   7
ATOM      7  C   UNL     1      28.928 170.778 171.191  1.00  0.00     0.198 C 
BRANCH   7   8
ATOM      8  O   UNL     1      30.076 169.943 171.280  1.00  0.00    -0.347 OA
BRANCH   8   9
ATOM      9  C   UNL     1      30.674 169.631 170.017  1.00  0.00     0.281 C 
ATOM     10  C   UNL     1      30.104 170.893 166.878  1.00  0.00     0.041 C 
ATOM     11  C   UNL     1      30.335 169.578 167.631  1.00  0.00     0.150 C 
ATOM     12  C   UNL     1      31.828 169.117 167.601  1.00  0.00     0.174 C 
ATOM     13  O   UNL     1      29.755 169.685 168.932  1.00  0.00    -0.344 OA
ATOM     14  C   UNL     1      32.703 170.002 168.517  1.00  0.00     0.179 C 
ATOM     15  C   UNL     1      31.939 170.483 169.789  1.00  0.00     0.202 C 
BRANCH  12  16
ATOM     16  O   UNL     1      32.318 169.150 166.291  1.00  0.00    -0.388 OA
ATOM     17  H   UNL     1      33.051 168.483 166.231  1.00  0.00     0.211 HD
ENDBRANCH  12  16
BRANCH  14  18
ATOM     18  O   UNL     1      33.851 169.277 168.898  1.00  0.00    -0.387 OA
ATOM     19  H   UNL     1      33.752 169.055 169.866  1.00  0.00     0.211 HD
ENDBRANCH  14  18
BRANCH  15  20
ATOM     20  O   UNL     1      31.589 171.842 169.697  1.00  0.00    -0.385 OA
ATOM     21  H   UNL     1      32.053 172.293 170.452  1.00  0.00     0.211 HD
ENDBRANCH  15  20
ENDBRANCH   8   9
ENDBRANCH   7   8
ENDBRANCH   1   7
BRANCH   2  22
ATOM     22  O   UNL     1      27.323 173.000 170.626  1.00  0.00    -0.387 OA
ATOM     23  H   UNL     1      27.330 172.018 170.450  1.00  0.00     0.211 HD
ENDBRANCH   2  22
BRANCH   3  24
ATOM     24  O   UNL     1      27.779 175.600 171.731  1.00  0.00    -0.387 OA
ATOM     25  H   UNL     1      28.103 176.335 172.310  1.00  0.00     0.211 HD
ENDBRANCH   3  24
BRANCH   5  26
ATOM     26  O   UNL     1      31.899 173.774 173.447  1.00  0.00    -0.454 OA
BRANCH  26  27
ATOM     27  C   UNL     1      32.964 173.348 172.635  1.00  0.00     0.214 A 
ATOM     28  C   UNL     1      33.482 174.143 171.581  1.00  0.00     0.180 A 
ATOM     29  C   UNL     1      33.512 172.084 172.856  1.00  0.00     0.239 A 
ATOM     30  O   UNL     1      34.512 173.688 170.866  1.00  0.00    -0.452 OA
ATOM     31  C   UNL     1      34.596 171.635 172.065  1.00  0.00     0.111 A 
ATOM     32  O   UNL     1      33.047 171.359 173.768  1.00  0.00    -0.285 OA
ATOM     33  C   UNL     1      35.082 172.504 171.059  1.00  0.00     0.146 A 
ATOM     34  C   UNL     1      35.216 170.377 172.246  1.00  0.00     0.134 A 
ATOM     35  C   UNL     1      36.158 172.114 170.251  1.00  0.00     0.094 A 
ATOM     36  C   UNL     1      36.310 170.018 171.446  1.00  0.00     0.093 A 
ATOM     37  C   UNL     1      36.777 170.870 170.441  1.00  0.00     0.123 A 
BRANCH  28  38
ATOM     38  C   UNL     1      32.945 175.485 171.245  1.00  0.00     0.025 A 
ATOM     39  C   UNL     1      31.940 175.662 170.275  1.00  0.00     0.062 A 
ATOM     40  C   UNL     1      33.461 176.619 171.883  1.00  0.00     0.016 A 
ATOM     41  C   UNL     1      31.389 176.936 170.026  1.00  0.00     0.158 A 
ATOM     42  C   UNL     1      32.910 177.881 171.655  1.00  0.00     0.051 A 
ATOM     43  C   UNL     1      31.870 178.050 170.730  1.00  0.00     0.157 A 
BRANCH  41  44
ATOM     44  O   UNL     1      30.368 177.070 169.087  1.00  0.00    -0.504 OA
ATOM     45  H   UNL     1      29.511 176.558 169.161  1.00  0.00     0.293 HD
ENDBRANCH  41  44
BRANCH  43  46
ATOM     46  O   UNL     1      31.313 179.314 170.513  1.00  0.00    -0.504 OA
ATOM     47  H   UNL     1      31.693 179.947 169.819  1.00  0.00     0.293 HD
ENDBRANCH  43  46
ENDBRANCH  28  38
BRANCH  34  48
ATOM     48  O   UNL     1      34.746 169.483 173.221  1.00  0.00    -0.507 OA
ATOM     49  H   UNL     1      33.853 169.617 173.686  1.00  0.00     0.293 HD
ENDBRANCH  34  48
BRANCH  37  50
ATOM     50  O   UNL     1      37.847 170.485 169.645  1.00  0.00    -0.508 OA
ATOM     51  H   UNL     1      38.268 169.567 169.739  1.00  0.00     0.293 HD
ENDBRANCH  37  50
ENDBRANCH  26  27
ENDBRANCH   5  26
BRANCH   4  52
ATOM     52  O   UNL     1      29.057 175.149 174.125  1.00  0.00    -0.384 OA
ATOM     53  H   UNL     1      28.128 174.785 174.115  1.00  0.00     0.211 HD
ENDBRANCH   4  52
TORSDOF 16
ENDMDL
MODEL 6
REMARK VINA RESULT:    -5.874     11.200     16.360
REMARK INTER + INTRA:         -11.093
REMARK INTER:                  -8.510
REMARK INTRA:                  -2.584
REMARK UNBOUND:                -1.442
REMARK SMILES C[C@@H]1O[C@H](OC[C@H]2O[C@@H](Oc3c(-c4ccc(O)c(O)c4)oc4cc(O)cc(O)c4c3=O)[C@H](O)[C@H](O)[C@H]2O)[C@H](O)[C@@H](O)[C@@H]1O
REMARK SMILES IDX 7 1 36 2 34 3 32 4 9 5 8 6 6 7 5 8 4 9 1 10 2 11 42 12 3 13
REMARK SMILES IDX 40 14 38 15 43 16 41 18 39 20 37 22 35 24 10 26 11 27 12 28
REMARK SMILES IDX 30 29 21 30 29 31 31 32 22 33 27 34 23 35 26 36 24 37 13 38
REMARK SMILES IDX 20 39 14 40 18 41 15 42 16 43 19 44 17 46 28 48 25 50 33 52
REMARK H PARENT 43 17 41 19 39 21 37 23 35 25 19 45 17 47 28 49 25 51 33 53
REMARK Flexibility Score: inf
ROOT
ATOM      1  C   UNL     1      28.686 171.553 164.238  1.00  0.00     0.180 C 
ATOM      2  C   UNL     1      28.201 172.934 163.676  1.00  0.00     0.177 C 
ATOM      3  C   UNL     1      27.615 172.785 162.255  1.00  0.00     0.180 C 
ATOM      4  C   UNL     1      28.505 171.899 161.348  1.00  0.00     0.214 C 
ATOM      5  C   UNL     1      29.053 170.673 162.118  1.00  0.00     0.339 C 
ATOM      6  O   UNL     1      28.357 170.490 163.355  1.00  0.00    -0.332 OA
ENDROOT
BRANCH   1   7
ATOM      7  C   UNL     1      28.245 171.223 165.698  1.00  0.00     0.198 C 
BRANCH   7   8
ATOM      8  O   UNL     1      29.112 170.281 166.316  1.00  0.00    -0.347 OA
BRANCH   8   9
ATOM      9  C   UNL     1      29.197 170.407 167.740  1.00  0.00     0.281 C 
ATOM     10  C   UNL     1      30.375 168.244 170.129  1.00  0.00     0.041 C 
ATOM     11  C   UNL     1      29.221 169.207 169.831  1.00  0.00     0.150 C 
ATOM     12  C   UNL     1      29.439 170.626 170.447  1.00  0.00     0.174 C 
ATOM     13  O   UNL     1      28.954 169.184 168.428  1.00  0.00    -0.344 OA
ATOM     14  C   UNL     1      30.526 171.407 169.674  1.00  0.00     0.179 C 
ATOM     15  C   UNL     1      30.522 171.084 168.148  1.00  0.00     0.202 C 
BRANCH  12  16
ATOM     16  O   UNL     1      29.795 170.518 171.796  1.00  0.00    -0.388 OA
ATOM     17  H   UNL     1      29.639 169.575 172.069  1.00  0.00     0.211 HD
ENDBRANCH  12  16
BRANCH  14  18
ATOM     18  O   UNL     1      30.325 172.790 169.867  1.00  0.00    -0.387 OA
ATOM     19  H   UNL     1      31.094 173.262 169.440  1.00  0.00     0.211 HD
ENDBRANCH  14  18
BRANCH  15  20
ATOM     20  O   UNL     1      31.607 170.263 167.792  1.00  0.00    -0.385 OA
ATOM     21  H   UNL     1      31.207 169.424 167.438  1.00  0.00     0.211 HD
ENDBRANCH  15  20
ENDBRANCH   8   9
ENDBRANCH   7   8
ENDBRANCH   1   7
BRANCH   2  22
ATOM     22  O   UNL     1      27.229 173.535 164.491  1.00  0.00    -0.387 OA
ATOM     23  H   UNL     1      26.589 172.809 164.738  1.00  0.00     0.211 HD
ENDBRANCH   2  22
BRANCH   3  24
ATOM     24  O   UNL     1      27.360 174.035 161.677  1.00  0.00    -0.387 OA
ATOM     25  H   UNL     1      27.101 173.889 160.733  1.00  0.00     0.211 HD
ENDBRANCH   3  24
BRANCH   5  26
ATOM     26  O   UNL     1      28.965 169.504 161.292  1.00  0.00    -0.454 OA
BRANCH  26  27
ATOM     27  C   UNL     1      30.034 168.965 160.557  1.00  0.00     0.214 A 
ATOM     28  C   UNL     1      31.100 168.261 161.171  1.00  0.00     0.180 A 
ATOM     29  C   UNL     1      30.061 169.155 159.175  1.00  0.00     0.239 A 
ATOM     30  O   UNL     1      32.071 167.753 160.409  1.00  0.00    -0.452 OA
ATOM     31  C   UNL     1      31.116 168.610 158.406  1.00  0.00     0.111 A 
ATOM     32  O   UNL     1      29.137 169.799 158.621  1.00  0.00    -0.285 OA
ATOM     33  C   UNL     1      32.122 167.886 159.089  1.00  0.00     0.146 A 
ATOM     34  C   UNL     1      31.197 168.744 157.001  1.00  0.00     0.134 A 
ATOM     35  C   UNL     1      33.187 167.318 158.377  1.00  0.00     0.094 A 
ATOM     36  C   UNL     1      32.256 168.143 156.305  1.00  0.00     0.093 A 
ATOM     37  C   UNL     1      33.259 167.443 156.983  1.00  0.00     0.123 A 
BRANCH  28  38
ATOM     38  C   UNL     1      31.181 168.037 162.636  1.00  0.00     0.025 A 
ATOM     39  C   UNL     1      32.244 168.541 163.409  1.00  0.00     0.062 A 
ATOM     40  C   UNL     1      30.191 167.281 163.277  1.00  0.00     0.016 A 
ATOM     41  C   UNL     1      32.260 168.382 164.810  1.00  0.00     0.158 A 
ATOM     42  C   UNL     1      30.191 167.135 164.665  1.00  0.00     0.051 A 
ATOM     43  C   UNL     1      31.221 167.685 165.442  1.00  0.00     0.157 A 
BRANCH  41  44
ATOM     44  O   UNL     1      33.309 168.928 165.549  1.00  0.00    -0.504 OA
ATOM     45  H   UNL     1      33.794 168.402 166.249  1.00  0.00     0.293 HD
ENDBRANCH  41  44
BRANCH  43  46
ATOM     46  O   UNL     1      31.210 167.545 166.833  1.00  0.00    -0.504 OA
ATOM     47  H   UNL     1      32.045 167.280 167.344  1.00  0.00     0.293 HD
ENDBRANCH  43  46
ENDBRANCH  28  38
BRANCH  34  48
ATOM     48  O   UNL     1      30.228 169.472 156.295  1.00  0.00    -0.507 OA
ATOM     49  H   UNL     1      29.917 169.195 155.368  1.00  0.00     0.293 HD
ENDBRANCH  34  48
BRANCH  37  50
ATOM     50  O   UNL     1      34.310 166.876 156.275  1.00  0.00    -0.508 OA
ATOM     51  H   UNL     1      34.588 165.913 156.429  1.00  0.00     0.293 HD
ENDBRANCH  37  50
ENDBRANCH  26  27
ENDBRANCH   5  26
BRANCH   4  52
ATOM     52  O   UNL     1      29.563 172.640 160.801  1.00  0.00    -0.384 OA
ATOM     53  H   UNL     1      30.271 172.751 161.494  1.00  0.00     0.211 HD
ENDBRANCH   4  52
TORSDOF 16
ENDMDL
MODEL 7
REMARK VINA RESULT:    -5.823      6.184     12.842
REMARK INTER + INTRA:         -11.010
REMARK INTER:                  -9.251
REMARK INTRA:                  -1.758
REMARK UNBOUND:                -1.442
REMARK SMILES C[C@@H]1O[C@H](OC[C@H]2O[C@@H](Oc3c(-c4ccc(O)c(O)c4)oc4cc(O)cc(O)c4c3=O)[C@H](O)[C@H](O)[C@H]2O)[C@H](O)[C@@H](O)[C@@H]1O
REMARK SMILES IDX 7 1 36 2 34 3 32 4 9 5 8 6 6 7 5 8 4 9 1 10 2 11 42 12 3 13
REMARK SMILES IDX 40 14 38 15 43 16 41 18 39 20 37 22 35 24 10 26 11 27 12 28
REMARK SMILES IDX 30 29 21 30 29 31 31 32 22 33 27 34 23 35 26 36 24 37 13 38
REMARK SMILES IDX 20 39 14 40 18 41 15 42 16 43 19 44 17 46 28 48 25 50 33 52
REMARK H PARENT 43 17 41 19 39 21 37 23 35 25 19 45 17 47 28 49 25 51 33 53
REMARK Flexibility Score: inf
ROOT
ATOM      1  C   UNL     1      30.465 170.725 167.129  1.00  0.00     0.180 C 
ATOM      2  C   UNL     1      31.135 169.370 166.714  1.00  0.00     0.177 C 
ATOM      3  C   UNL     1      31.746 168.651 167.937  1.00  0.00     0.180 C 
ATOM      4  C   UNL     1      32.551 169.619 168.839  1.00  0.00     0.214 C 
ATOM      5  C   UNL     1      31.831 170.980 168.992  1.00  0.00     0.339 C 
ATOM      6  O   UNL     1      30.476 170.899 168.538  1.00  0.00    -0.332 OA
ENDROOT
BRANCH   1   7
ATOM      7  C   UNL     1      29.040 170.983 166.546  1.00  0.00     0.198 C 
BRANCH   7   8
ATOM      8  O   UNL     1      28.957 172.233 165.874  1.00  0.00    -0.347 OA
BRANCH   8   9
ATOM      9  C   UNL     1      29.102 172.146 164.451  1.00  0.00     0.281 C 
ATOM     10  C   UNL     1      28.350 169.616 162.259  1.00  0.00     0.041 C 
ATOM     11  C   UNL     1      29.431 170.652 162.588  1.00  0.00     0.150 C 
ATOM     12  C   UNL     1      29.298 171.957 161.739  1.00  0.00     0.174 C 
ATOM     13  O   UNL     1      29.467 170.845 164.003  1.00  0.00    -0.344 OA
ATOM     14  C   UNL     1      28.092 172.804 162.204  1.00  0.00     0.179 C 
ATOM     15  C   UNL     1      27.853 172.708 163.742  1.00  0.00     0.202 C 
BRANCH  12  16
ATOM     16  O   UNL     1      29.166 171.640 160.382  1.00  0.00    -0.388 OA
ATOM     17  H   UNL     1      28.195 171.602 160.180  1.00  0.00     0.211 HD
ENDBRANCH  12  16
BRANCH  14  18
ATOM     18  O   UNL     1      28.306 174.150 161.840  1.00  0.00    -0.387 OA
ATOM     19  H   UNL     1      29.284 174.261 161.682  1.00  0.00     0.211 HD
ENDBRANCH  14  18
BRANCH  15  20
ATOM     20  O   UNL     1      26.734 171.910 164.041  1.00  0.00    -0.385 OA
ATOM     21  H   UNL     1      25.939 172.472 163.839  1.00  0.00     0.211 HD
ENDBRANCH  15  20
ENDBRANCH   8   9
ENDBRANCH   7   8
ENDBRANCH   1   7
BRANCH   2  22
ATOM     22  O   UNL     1      30.234 168.492 166.093  1.00  0.00    -0.387 OA
ATOM     23  H   UNL     1      29.965 167.833 166.792  1.00  0.00     0.211 HD
ENDBRANCH   2  22
BRANCH   3  24
ATOM     24  O   UNL     1      32.508 167.543 167.546  1.00  0.00    -0.387 OA
ATOM     25  H   UNL     1      31.941 166.969 166.972  1.00  0.00     0.211 HD
ENDBRANCH   3  24
BRANCH   5  26
ATOM     26  O   UNL     1      31.899 171.413 170.357  1.00  0.00    -0.454 OA
BRANCH  26  27
ATOM     27  C   UNL     1      32.425 172.646 170.777  1.00  0.00     0.214 A 
ATOM     28  C   UNL     1      33.774 172.795 171.191  1.00  0.00     0.180 A 
ATOM     29  C   UNL     1      31.583 173.758 170.814  1.00  0.00     0.239 A 
ATOM     30  O   UNL     1      34.215 174.002 171.553  1.00  0.00    -0.452 OA
ATOM     31  C   UNL     1      32.090 175.016 171.217  1.00  0.00     0.111 A 
ATOM     32  O   UNL     1      30.381 173.635 170.475  1.00  0.00    -0.285 OA
ATOM     33  C   UNL     1      33.456 175.091 171.577  1.00  0.00     0.146 A 
ATOM     34  C   UNL     1      31.301 176.189 171.258  1.00  0.00     0.134 A 
ATOM     35  C   UNL     1      34.013 176.313 171.977  1.00  0.00     0.094 A 
ATOM     36  C   UNL     1      31.886 177.408 171.633  1.00  0.00     0.093 A 
ATOM     37  C   UNL     1      33.231 177.477 172.006  1.00  0.00     0.123 A 
BRANCH  28  38
ATOM     38  C   UNL     1      34.737 171.668 171.221  1.00  0.00     0.025 A 
ATOM     39  C   UNL     1      35.810 171.581 170.313  1.00  0.00     0.062 A 
ATOM     40  C   UNL     1      34.573 170.639 172.156  1.00  0.00     0.016 A 
ATOM     41  C   UNL     1      36.759 170.542 170.409  1.00  0.00     0.158 A 
ATOM     42  C   UNL     1      35.517 169.617 172.269  1.00  0.00     0.051 A 
ATOM     43  C   UNL     1      36.616 169.562 171.400  1.00  0.00     0.157 A 
BRANCH  41  44
ATOM     44  O   UNL     1      37.830 170.509 169.517  1.00  0.00    -0.504 OA
ATOM     45  H   UNL     1      37.695 170.392 168.532  1.00  0.00     0.293 HD
ENDBRANCH  41  44
BRANCH  43  46
ATOM     46  O   UNL     1      37.565 168.542 171.524  1.00  0.00    -0.504 OA
ATOM     47  H   UNL     1      38.539 168.693 171.285  1.00  0.00     0.293 HD
ENDBRANCH  43  46
ENDBRANCH  28  38
BRANCH  34  48
ATOM     48  O   UNL     1      29.939 176.146 170.926  1.00  0.00    -0.507 OA
ATOM     49  H   UNL     1      29.228 175.892 171.606  1.00  0.00     0.293 HD
ENDBRANCH  34  48
BRANCH  37  50
ATOM     50  O   UNL     1      33.782 178.689 172.396  1.00  0.00    -0.508 OA
ATOM     51  H   UNL     1      34.731 178.942 172.141  1.00  0.00     0.293 HD
ENDBRANCH  37  50
ENDBRANCH  26  27
ENDBRANCH   5  26
BRANCH   4  52
ATOM     52  O   UNL     1      33.848 169.809 168.343  1.00  0.00    -0.384 OA
ATOM     53  H   UNL     1      33.803 170.399 167.539  1.00  0.00     0.211 HD
ENDBRANCH   4  52
TORSDOF 16
ENDMDL
MODEL 8
REMARK VINA RESULT:    -5.813      5.384     11.368
REMARK INTER + INTRA:         -10.992
REMARK INTER:                  -8.593
REMARK INTRA:                  -2.399
REMARK UNBOUND:                -1.442
REMARK SMILES C[C@@H]1O[C@H](OC[C@H]2O[C@@H](Oc3c(-c4ccc(O)c(O)c4)oc4cc(O)cc(O)c4c3=O)[C@H](O)[C@H](O)[C@H]2O)[C@H](O)[C@@H](O)[C@@H]1O
REMARK SMILES IDX 7 1 36 2 34 3 32 4 9 5 8 6 6 7 5 8 4 9 1 10 2 11 42 12 3 13
REMARK SMILES IDX 40 14 38 15 43 16 41 18 39 20 37 22 35 24 10 26 11 27 12 28
REMARK SMILES IDX 30 29 21 30 29 31 31 32 22 33 27 34 23 35 26 36 24 37 13 38
REMARK SMILES IDX 20 39 14 40 18 41 15 42 16 43 19 44 17 46 28 48 25 50 33 52
REMARK H PARENT 43 17 41 19 39 21 37 23 35 25 19 45 17 47 28 49 25 51 33 53
REMARK Flexibility Score: inf
ROOT
ATOM      1  C   UNL     1      28.349 175.374 168.899  1.00  0.00     0.180 C 
ATOM      2  C   UNL     1      26.988 174.628 169.116  1.00  0.00     0.177 C 
ATOM      3  C   UNL     1      26.960 173.898 170.477  1.00  0.00     0.180 C 
ATOM      4  C   UNL     1      28.272 173.120 170.747  1.00  0.00     0.214 C 
ATOM      5  C   UNL     1      29.513 173.931 170.302  1.00  0.00     0.339 C 
ATOM      6  O   UNL     1      29.171 175.299 170.055  1.00  0.00    -0.332 OA
ENDROOT
BRANCH   1   7
ATOM      7  C   UNL     1      28.241 176.845 168.386  1.00  0.00     0.198 C 
BRANCH   7   8
ATOM      8  O   UNL     1      27.950 177.756 169.439  1.00  0.00    -0.347 OA
BRANCH   8   9
ATOM      9  C   UNL     1      27.096 178.841 169.057  1.00  0.00     0.281 C 
ATOM     10  C   UNL     1      26.714 181.983 170.381  1.00  0.00     0.041 C 
ATOM     11  C   UNL     1      25.916 180.793 169.837  1.00  0.00     0.150 C 
ATOM     12  C   UNL     1      25.537 180.955 168.329  1.00  0.00     0.174 C 
ATOM     13  O   UNL     1      26.607 179.586 170.166  1.00  0.00    -0.344 OA
ATOM     14  C   UNL     1      26.774 180.771 167.422  1.00  0.00     0.179 C 
ATOM     15  C   UNL     1      27.776 179.716 167.984  1.00  0.00     0.202 C 
BRANCH  12  16
ATOM     16  O   UNL     1      24.963 182.212 168.108  1.00  0.00    -0.388 OA
ATOM     17  H   UNL     1      25.442 182.626 167.342  1.00  0.00     0.211 HD
ENDBRANCH  12  16
BRANCH  14  18
ATOM     18  O   UNL     1      26.347 180.380 166.135  1.00  0.00    -0.387 OA
ATOM     19  H   UNL     1      25.369 180.569 166.078  1.00  0.00     0.211 HD
ENDBRANCH  14  18
BRANCH  15  20
ATOM     20  O   UNL     1      28.920 180.329 168.524  1.00  0.00    -0.385 OA
ATOM     21  H   UNL     1      29.530 180.490 167.755  1.00  0.00     0.211 HD
ENDBRANCH  15  20
ENDBRANCH   8   9
ENDBRANCH   7   8
ENDBRANCH   1   7
BRANCH   2  22
ATOM     22  O   UNL     1      25.884 175.493 169.058  1.00  0.00    -0.387 OA
ATOM     23  H   UNL     1      25.836 175.938 169.950  1.00  0.00     0.211 HD
ENDBRANCH   2  22
BRANCH   3  24
ATOM     24  O   UNL     1      25.831 173.077 170.589  1.00  0.00    -0.387 OA
ATOM     25  H   UNL     1      25.286 173.192 169.770  1.00  0.00     0.211 HD
ENDBRANCH   3  24
BRANCH   5  26
ATOM     26  O   UNL     1      30.543 173.822 171.292  1.00  0.00    -0.454 OA
BRANCH  26  27
ATOM     27  C   UNL     1      31.872 173.455 171.022  1.00  0.00     0.214 A 
ATOM     28  C   UNL     1      32.935 174.394 171.020  1.00  0.00     0.180 A 
ATOM     29  C   UNL     1      32.151 172.122 170.715  1.00  0.00     0.239 A 
ATOM     30  O   UNL     1      34.178 173.972 170.781  1.00  0.00    -0.452 OA
ATOM     31  C   UNL     1      33.483 171.720 170.455  1.00  0.00     0.111 A 
ATOM     32  O   UNL     1      31.217 171.285 170.688  1.00  0.00    -0.285 OA
ATOM     33  C   UNL     1      34.493 172.710 170.512  1.00  0.00     0.146 A 
ATOM     34  C   UNL     1      33.843 170.385 170.160  1.00  0.00     0.134 A 
ATOM     35  C   UNL     1      35.829 172.367 170.269  1.00  0.00     0.094 A 
ATOM     36  C   UNL     1      35.190 170.058 169.949  1.00  0.00     0.093 A 
ATOM     37  C   UNL     1      36.184 171.040 169.988  1.00  0.00     0.123 A 
BRANCH  28  38
ATOM     38  C   UNL     1      32.735 175.837 171.299  1.00  0.00     0.025 A 
ATOM     39  C   UNL     1      31.920 176.647 170.485  1.00  0.00     0.062 A 
ATOM     40  C   UNL     1      33.392 176.432 172.383  1.00  0.00     0.016 A 
ATOM     41  C   UNL     1      31.682 177.998 170.813  1.00  0.00     0.158 A 
ATOM     42  C   UNL     1      33.149 177.763 172.724  1.00  0.00     0.051 A 
ATOM     43  C   UNL     1      32.292 178.554 171.946  1.00  0.00     0.157 A 
BRANCH  41  44
ATOM     44  O   UNL     1      30.837 178.760 170.007  1.00  0.00    -0.504 OA
ATOM     45  H   UNL     1      30.144 178.338 169.421  1.00  0.00     0.293 HD
ENDBRANCH  41  44
BRANCH  43  46
ATOM     46  O   UNL     1      32.043 179.885 172.298  1.00  0.00    -0.504 OA
ATOM     47  H   UNL     1      32.799 180.543 172.447  1.00  0.00     0.293 HD
ENDBRANCH  43  46
ENDBRANCH  28  38
BRANCH  34  48
ATOM     48  O   UNL     1      32.864 169.383 170.076  1.00  0.00    -0.507 OA
ATOM     49  H   UNL     1      33.102 168.396 170.105  1.00  0.00     0.293 HD
ENDBRANCH  34  48
BRANCH  37  50
ATOM     50  O   UNL     1      37.508 170.697 169.754  1.00  0.00    -0.508 OA
ATOM     51  H   UNL     1      38.021 170.109 170.400  1.00  0.00     0.293 HD
ENDBRANCH  37  50
ENDBRANCH  26  27
ENDBRANCH   5  26
BRANCH   4  52
ATOM     52  O   UNL     1      28.256 171.870 170.112  1.00  0.00    -0.384 OA
ATOM     53  H   UNL     1      27.854 171.974 169.205  1.00  0.00     0.211 HD
ENDBRANCH   4  52
TORSDOF 16
ENDMDL
MODEL 9
REMARK VINA RESULT:    -5.776      3.717     10.215
REMARK INTER + INTRA:         -10.933
REMARK INTER:                  -7.903
REMARK INTRA:                  -3.029
REMARK UNBOUND:                -1.442
REMARK SMILES C[C@@H]1O[C@H](OC[C@H]2O[C@@H](Oc3c(-c4ccc(O)c(O)c4)oc4cc(O)cc(O)c4c3=O)[C@H](O)[C@H](O)[C@H]2O)[C@H](O)[C@@H](O)[C@@H]1O
REMARK SMILES IDX 7 1 36 2 34 3 32 4 9 5 8 6 6 7 5 8 4 9 1 10 2 11 42 12 3 13
REMARK SMILES IDX 40 14 38 15 43 16 41 18 39 20 37 22 35 24 10 26 11 27 12 28
REMARK SMILES IDX 30 29 21 30 29 31 31 32 22 33 27 34 23 35 26 36 24 37 13 38
REMARK SMILES IDX 20 39 14 40 18 41 15 42 16 43 19 44 17 46 28 48 25 50 33 52
REMARK H PARENT 43 17 41 19 39 21 37 23 35 25 19 45 17 47 28 49 25 51 33 53
REMARK Flexibility Score: inf
ROOT
ATOM      1  C   UNL     1      28.742 174.500 170.927  1.00  0.00     0.180 C 
ATOM      2  C   UNL     1      28.490 175.344 169.631  1.00  0.00     0.177 C 
ATOM      3  C   UNL     1      29.446 176.555 169.558  1.00  0.00     0.180 C 
ATOM      4  C   UNL     1      29.543 177.303 170.911  1.00  0.00     0.214 C 
ATOM      5  C   UNL     1      29.597 176.314 172.101  1.00  0.00     0.339 C 
ATOM      6  O   UNL     1      29.864 174.983 171.650  1.00  0.00    -0.332 OA
ENDROOT
BRANCH   1   7
ATOM      7  C   UNL     1      28.833 172.954 170.721  1.00  0.00     0.198 C 
BRANCH   7   8
ATOM      8  O   UNL     1      30.083 172.564 170.167  1.00  0.00    -0.347 OA
BRANCH   8   9
ATOM      9  C   UNL     1      30.054 171.308 169.480  1.00  0.00     0.281 C 
ATOM     10  C   UNL     1      32.531 169.558 167.875  1.00  0.00     0.041 C 
ATOM     11  C   UNL     1      31.066 169.988 167.736  1.00  0.00     0.150 C 
ATOM     12  C   UNL     1      30.064 168.890 168.220  1.00  0.00     0.174 C 
ATOM     13  O   UNL     1      30.904 171.272 168.339  1.00  0.00    -0.344 OA
ATOM     14  C   UNL     1      30.070 168.773 169.761  1.00  0.00     0.179 C 
ATOM     15  C   UNL     1      30.303 170.145 170.464  1.00  0.00     0.202 C 
BRANCH  12  16
ATOM     16  O   UNL     1      30.384 167.656 167.644  1.00  0.00    -0.388 OA
ATOM     17  H   UNL     1      29.563 167.313 167.202  1.00  0.00     0.211 HD
ENDBRANCH  12  16
BRANCH  14  18
ATOM     18  O   UNL     1      28.841 168.225 170.186  1.00  0.00    -0.387 OA
ATOM     19  H   UNL     1      29.015 167.736 171.038  1.00  0.00     0.211 HD
ENDBRANCH  14  18
BRANCH  15  20
ATOM     20  O   UNL     1      31.603 170.238 170.994  1.00  0.00    -0.385 OA
ATOM     21  H   UNL     1      31.694 169.475 171.624  1.00  0.00     0.211 HD
ENDBRANCH  15  20
ENDBRANCH   8   9
ENDBRANCH   7   8
ENDBRANCH   1   7
BRANCH   2  22
ATOM     22  O   UNL     1      28.646 174.590 168.458  1.00  0.00    -0.387 OA
ATOM     23  H   UNL     1      28.584 175.239 167.702  1.00  0.00     0.211 HD
ENDBRANCH   2  22
BRANCH   3  24
ATOM     24  O   UNL     1      29.098 177.415 168.508  1.00  0.00    -0.387 OA
ATOM     25  H   UNL     1      28.154 177.685 168.634  1.00  0.00     0.211 HD
ENDBRANCH   3  24
BRANCH   5  26
ATOM     26  O   UNL     1      30.579 176.752 173.049  1.00  0.00    -0.454 OA
BRANCH  26  27
ATOM     27  C   UNL     1      31.704 177.531 172.729  1.00  0.00     0.214 A 
ATOM     28  C   UNL     1      32.954 176.956 172.386  1.00  0.00     0.180 A 
ATOM     29  C   UNL     1      31.593 178.921 172.780  1.00  0.00     0.239 A 
ATOM     30  O   UNL     1      33.973 177.756 172.068  1.00  0.00    -0.452 OA
ATOM     31  C   UNL     1      32.704 179.731 172.447  1.00  0.00     0.111 A 
ATOM     32  O   UNL     1      30.500 179.443 173.107  1.00  0.00    -0.285 OA
ATOM     33  C   UNL     1      33.905 179.082 172.076  1.00  0.00     0.146 A 
ATOM     34  C   UNL     1      32.659 181.145 172.455  1.00  0.00     0.134 A 
ATOM     35  C   UNL     1      35.035 179.835 171.730  1.00  0.00     0.094 A 
ATOM     36  C   UNL     1      33.792 181.879 172.077  1.00  0.00     0.093 A 
ATOM     37  C   UNL     1      34.984 181.237 171.728  1.00  0.00     0.123 A 
BRANCH  28  38
ATOM     38  C   UNL     1      33.182 175.491 172.338  1.00  0.00     0.025 A 
ATOM     39  C   UNL     1      33.003 174.748 171.156  1.00  0.00     0.062 A 
ATOM     40  C   UNL     1      33.560 174.810 173.501  1.00  0.00     0.016 A 
ATOM     41  C   UNL     1      33.301 173.370 171.114  1.00  0.00     0.158 A 
ATOM     42  C   UNL     1      33.873 173.450 173.464  1.00  0.00     0.051 A 
ATOM     43  C   UNL     1      33.749 172.721 172.273  1.00  0.00     0.157 A 
BRANCH  41  44
ATOM     44  O   UNL     1      33.150 172.673 169.916  1.00  0.00    -0.504 OA
ATOM     45  H   UNL     1      32.281 172.660 169.417  1.00  0.00     0.293 HD
ENDBRANCH  41  44
BRANCH  43  46
ATOM     46  O   UNL     1      34.074 171.361 172.238  1.00  0.00    -0.504 OA
ATOM     47  H   UNL     1      33.459 170.660 172.633  1.00  0.00     0.293 HD
ENDBRANCH  43  46
ENDBRANCH  28  38
BRANCH  34  48
ATOM     48  O   UNL     1      31.490 181.820 172.837  1.00  0.00    -0.507 OA
ATOM     49  H   UNL     1      30.566 181.478 172.588  1.00  0.00     0.293 HD
ENDBRANCH  34  48
BRANCH  37  50
ATOM     50  O   UNL     1      36.100 181.984 171.379  1.00  0.00    -0.508 OA
ATOM     51  H   UNL     1      36.876 181.567 170.877  1.00  0.00     0.293 HD
ENDBRANCH  37  50
ENDBRANCH  26  27
ENDBRANCH   5  26
BRANCH   4  52
ATOM     52  O   UNL     1      28.474 178.197 171.071  1.00  0.00    -0.384 OA
ATOM     53  H   UNL     1      27.816 177.801 171.708  1.00  0.00     0.211 HD
ENDBRANCH   4  52
TORSDOF 16
ENDMDL
