MODEL 1
REMARK VINA RESULT:    -7.557      0.000      0.000
REMARK INTER + INTRA:          -9.660
REMARK INTER:                  -9.324
REMARK INTRA:                  -0.336
REMARK UNBOUND:                -0.336
REMARK SMILES Oc1cc(O)c2cc(O)c(-c3cc(O)c(O)c(O)c3)[o+]c2c1
REMARK SMILES IDX 10 1 20 2 21 3 22 4 2 5 3 6 4 7 6 8 7 9 8 10 11 11 12 12
REMARK SMILES IDX 13 13 19 14 15 15 17 16 14 17 16 19 18 21 9 23 1 25 5 27
REMARK H PARENT 14 18 16 20 18 22 9 24 1 26 5 28
REMARK Flexibility Score: inf
ROOT
ATOM      1  C   UNL     1     -11.651 -29.008 -21.191  1.00  0.00     0.402 A 
ATOM      2  O   UNL     1     -11.449 -28.378 -22.348  1.00  0.00    -0.202 OA
ATOM      3  C   UNL     1     -10.251 -28.263 -22.914  1.00  0.00     0.368 A 
ATOM      4  C   UNL     1     -10.123 -27.590 -24.133  1.00  0.00     0.162 A 
ATOM      5  C   UNL     1      -8.868 -27.466 -24.742  1.00  0.00     0.128 A 
ATOM      6  C   UNL     1      -7.738 -28.017 -24.128  1.00  0.00     0.093 A 
ATOM      7  C   UNL     1      -7.850 -28.694 -22.905  1.00  0.00     0.136 A 
ATOM      8  C   UNL     1      -9.112 -28.819 -22.293  1.00  0.00     0.125 A 
ATOM      9  C   UNL     1      -9.282 -29.476 -21.070  1.00  0.00     0.078 A 
ATOM     10  C   UNL     1     -10.556 -29.568 -20.501  1.00  0.00     0.223 A 
ENDROOT
BRANCH   1  11
ATOM     11  C   UNL     1     -13.032 -29.077 -20.664  1.00  0.00     0.091 A 
ATOM     12  C   UNL     1     -13.625 -27.979 -20.017  1.00  0.00     0.068 A 
ATOM     13  C   UNL     1     -14.926 -28.071 -19.504  1.00  0.00     0.162 A 
ATOM     14  C   UNL     1     -13.748 -30.280 -20.762  1.00  0.00     0.068 A 
ATOM     15  C   UNL     1     -15.643 -29.273 -19.628  1.00  0.00     0.200 A 
ATOM     16  C   UNL     1     -15.051 -30.377 -20.254  1.00  0.00     0.162 A 
BRANCH  13  17
ATOM     17  O   UNL     1     -15.507 -26.975 -18.870  1.00  0.00    -0.504 OA
ATOM     18  H   UNL     1     -16.160 -27.088 -18.103  1.00  0.00     0.293 HD
ENDBRANCH  13  17
BRANCH  15  19
ATOM     19  O   UNL     1     -16.942 -29.388 -19.130  1.00  0.00    -0.502 OA
ATOM     20  H   UNL     1     -17.661 -28.704 -19.337  1.00  0.00     0.293 HD
ENDBRANCH  15  19
BRANCH  16  21
ATOM     21  O   UNL     1     -15.763 -31.571 -20.366  1.00  0.00    -0.504 OA
ATOM     22  H   UNL     1     -16.699 -31.596 -20.753  1.00  0.00     0.293 HD
ENDBRANCH  16  21
ENDBRANCH   1  11
BRANCH  10  23
ATOM     23  O   UNL     1     -10.725 -30.177 -19.258  1.00  0.00    -0.500 OA
ATOM     24  H   UNL     1     -11.281 -31.017 -19.148  1.00  0.00     0.294 HD
ENDBRANCH  10  23
BRANCH   5  25
ATOM     25  O   UNL     1      -8.732 -26.798 -25.956  1.00  0.00    -0.507 OA
ATOM     26  H   UNL     1      -9.470 -26.808 -26.652  1.00  0.00     0.293 HD
ENDBRANCH   5  25
BRANCH   7  27
ATOM     27  O   UNL     1      -6.714 -29.237 -22.303  1.00  0.00    -0.507 OA
ATOM     28  H   UNL     1      -6.740 -29.616 -21.363  1.00  0.00     0.293 HD
ENDBRANCH   7  27
TORSDOF 7
ENDMDL
MODEL 2
REMARK VINA RESULT:    -6.969      6.334     12.031
REMARK INTER + INTRA:          -8.934
REMARK INTER:                  -8.665
REMARK INTRA:                  -0.269
REMARK UNBOUND:                -0.336
REMARK SMILES Oc1cc(O)c2cc(O)c(-c3cc(O)c(O)c(O)c3)[o+]c2c1
REMARK SMILES IDX 10 1 20 2 21 3 22 4 2 5 3 6 4 7 6 8 7 9 8 10 11 11 12 12
REMARK SMILES IDX 13 13 19 14 15 15 17 16 14 17 16 19 18 21 9 23 1 25 5 27
REMARK H PARENT 14 18 16 20 18 22 9 24 1 26 5 28
REMARK Flexibility Score: inf
ROOT
ATOM      1  C   UNL     1      -5.164 -25.560 -27.862  1.00  0.00     0.402 A 
ATOM      2  O   UNL     1      -4.736 -26.395 -26.916  1.00  0.00    -0.202 OA
ATOM      3  C   UNL     1      -5.555 -27.109 -26.150  1.00  0.00     0.368 A 
ATOM      4  C   UNL     1      -5.026 -27.967 -25.181  1.00  0.00     0.162 A 
ATOM      5  C   UNL     1      -5.877 -28.727 -24.371  1.00  0.00     0.128 A 
ATOM      6  C   UNL     1      -7.264 -28.628 -24.530  1.00  0.00     0.093 A 
ATOM      7  C   UNL     1      -7.811 -27.771 -25.498  1.00  0.00     0.136 A 
ATOM      8  C   UNL     1      -6.953 -27.007 -26.312  1.00  0.00     0.125 A 
ATOM      9  C   UNL     1      -7.443 -26.130 -27.287  1.00  0.00     0.078 A 
ATOM     10  C   UNL     1      -6.549 -25.389 -28.066  1.00  0.00     0.223 A 
ENDROOT
BRANCH   1  11
ATOM     11  C   UNL     1      -4.155 -24.826 -28.657  1.00  0.00     0.091 A 
ATOM     12  C   UNL     1      -3.318 -25.489 -29.571  1.00  0.00     0.068 A 
ATOM     13  C   UNL     1      -2.352 -24.781 -30.298  1.00  0.00     0.162 A 
ATOM     14  C   UNL     1      -3.988 -23.447 -28.455  1.00  0.00     0.068 A 
ATOM     15  C   UNL     1      -2.209 -23.396 -30.106  1.00  0.00     0.200 A 
ATOM     16  C   UNL     1      -3.025 -22.732 -29.182  1.00  0.00     0.162 A 
BRANCH  13  17
ATOM     17  O   UNL     1      -1.532 -25.447 -31.207  1.00  0.00    -0.504 OA
ATOM     18  H   UNL     1      -0.691 -25.019 -31.577  1.00  0.00     0.293 HD
ENDBRANCH  13  17
BRANCH  15  19
ATOM     19  O   UNL     1      -1.258 -22.668 -30.822  1.00  0.00    -0.502 OA
ATOM     20  H   UNL     1      -0.275 -22.913 -30.817  1.00  0.00     0.293 HD
ENDBRANCH  15  19
BRANCH  16  21
ATOM     21  O   UNL     1      -2.873 -21.360 -28.988  1.00  0.00    -0.504 OA
ATOM     22  H   UNL     1      -2.420 -20.988 -28.161  1.00  0.00     0.293 HD
ENDBRANCH  16  21
ENDBRANCH   1  11
BRANCH  10  23
ATOM     23  O   UNL     1      -7.030 -24.476 -29.004  1.00  0.00    -0.500 OA
ATOM     24  H   UNL     1      -6.674 -24.449 -29.952  1.00  0.00     0.294 HD
ENDBRANCH  10  23
BRANCH   5  25
ATOM     25  O   UNL     1      -5.358 -29.585 -23.404  1.00  0.00    -0.507 OA
ATOM     26  H   UNL     1      -4.361 -29.639 -23.224  1.00  0.00     0.293 HD
ENDBRANCH   5  25
BRANCH   7  27
ATOM     27  O   UNL     1      -9.195 -27.681 -25.645  1.00  0.00    -0.507 OA
ATOM     28  H   UNL     1      -9.803 -28.467 -25.450  1.00  0.00     0.293 HD
ENDBRANCH   7  27
TORSDOF 7
ENDMDL
MODEL 3
REMARK VINA RESULT:    -6.853      2.843      6.423
REMARK INTER + INTRA:          -8.791
REMARK INTER:                  -8.407
REMARK INTRA:                  -0.384
REMARK UNBOUND:                -0.336
REMARK SMILES Oc1cc(O)c2cc(O)c(-c3cc(O)c(O)c(O)c3)[o+]c2c1
REMARK SMILES IDX 10 1 20 2 21 3 22 4 2 5 3 6 4 7 6 8 7 9 8 10 11 11 12 12
REMARK SMILES IDX 13 13 19 14 15 15 17 16 14 17 16 19 18 21 9 23 1 25 5 27
REMARK H PARENT 14 18 16 20 18 22 9 24 1 26 5 28
REMARK Flexibility Score: inf
ROOT
ATOM      1  C   UNL     1     -12.031 -27.902 -21.711  1.00  0.00     0.402 A 
ATOM      2  O   UNL     1     -11.990 -26.578 -21.849  1.00  0.00    -0.202 OA
ATOM      3  C   UNL     1     -12.653 -25.742 -21.056  1.00  0.00     0.368 A 
ATOM      4  C   UNL     1     -12.554 -24.363 -21.265  1.00  0.00     0.162 A 
ATOM      5  C   UNL     1     -13.244 -23.472 -20.434  1.00  0.00     0.128 A 
ATOM      6  C   UNL     1     -14.037 -23.963 -19.391  1.00  0.00     0.093 A 
ATOM      7  C   UNL     1     -14.147 -25.344 -19.169  1.00  0.00     0.136 A 
ATOM      8  C   UNL     1     -13.453 -26.239 -20.005  1.00  0.00     0.125 A 
ATOM      9  C   UNL     1     -13.533 -27.626 -19.836  1.00  0.00     0.078 A 
ATOM     10  C   UNL     1     -12.829 -28.473 -20.697  1.00  0.00     0.223 A 
ENDROOT
BRANCH   1  11
ATOM     11  C   UNL     1     -11.243 -28.729 -22.651  1.00  0.00     0.091 A 
ATOM     12  C   UNL     1      -9.938 -29.150 -22.339  1.00  0.00     0.068 A 
ATOM     13  C   UNL     1      -9.198 -29.914 -23.252  1.00  0.00     0.162 A 
ATOM     14  C   UNL     1     -11.784 -29.055 -23.904  1.00  0.00     0.068 A 
ATOM     15  C   UNL     1      -9.757 -30.254 -24.495  1.00  0.00     0.200 A 
ATOM     16  C   UNL     1     -11.049 -29.821 -24.821  1.00  0.00     0.162 A 
BRANCH  13  17
ATOM     17  O   UNL     1      -7.908 -30.332 -22.930  1.00  0.00    -0.504 OA
ATOM     18  H   UNL     1      -7.114 -29.705 -22.996  1.00  0.00     0.293 HD
ENDBRANCH  13  17
BRANCH  15  19
ATOM     19  O   UNL     1      -9.043 -31.018 -25.418  1.00  0.00    -0.502 OA
ATOM     20  H   UNL     1      -9.502 -31.587 -26.119  1.00  0.00     0.293 HD
ENDBRANCH  15  19
BRANCH  16  21
ATOM     21  O   UNL     1     -11.597 -30.153 -26.059  1.00  0.00    -0.504 OA
ATOM     22  H   UNL     1     -11.933 -29.442 -26.698  1.00  0.00     0.293 HD
ENDBRANCH  16  21
ENDBRANCH   1  11
BRANCH  10  23
ATOM     23  O   UNL     1     -12.944 -29.856 -20.566  1.00  0.00    -0.500 OA
ATOM     24  H   UNL     1     -12.403 -30.372 -19.881  1.00  0.00     0.294 HD
ENDBRANCH  10  23
BRANCH   5  25
ATOM     25  O   UNL     1     -13.150 -22.097 -20.635  1.00  0.00    -0.507 OA
ATOM     26  H   UNL     1     -13.894 -21.468 -20.353  1.00  0.00     0.293 HD
ENDBRANCH   5  25
BRANCH   7  27
ATOM     27  O   UNL     1     -14.943 -25.820 -18.126  1.00  0.00    -0.507 OA
ATOM     28  H   UNL     1     -15.899 -26.117 -18.281  1.00  0.00     0.293 HD
ENDBRANCH   7  27
TORSDOF 7
ENDMDL
MODEL 4
REMARK VINA RESULT:    -6.850      1.016      3.139
REMARK INTER + INTRA:          -8.788
REMARK INTER:                  -8.454
REMARK INTRA:                  -0.334
REMARK UNBOUND:                -0.336
REMARK SMILES Oc1cc(O)c2cc(O)c(-c3cc(O)c(O)c(O)c3)[o+]c2c1
REMARK SMILES IDX 10 1 20 2 21 3 22 4 2 5 3 6 4 7 6 8 7 9 8 10 11 11 12 12
REMARK SMILES IDX 13 13 19 14 15 15 17 16 14 17 16 19 18 21 9 23 1 25 5 27
REMARK H PARENT 14 18 16 20 18 22 9 24 1 26 5 28
REMARK Flexibility Score: inf
ROOT
ATOM      1  C   UNL     1     -12.378 -28.654 -22.192  1.00  0.00     0.402 A 
ATOM      2  O   UNL     1     -11.167 -29.038 -21.790  1.00  0.00    -0.202 OA
ATOM      3  C   UNL     1     -10.061 -28.813 -22.493  1.00  0.00     0.368 A 
ATOM      4  C   UNL     1      -8.827 -29.244 -21.998  1.00  0.00     0.162 A 
ATOM      5  C   UNL     1      -7.654 -29.011 -22.728  1.00  0.00     0.128 A 
ATOM      6  C   UNL     1      -7.718 -28.345 -23.957  1.00  0.00     0.093 A 
ATOM      7  C   UNL     1      -8.950 -27.908 -24.467  1.00  0.00     0.136 A 
ATOM      8  C   UNL     1     -10.128 -28.143 -23.733  1.00  0.00     0.125 A 
ATOM      9  C   UNL     1     -11.385 -27.737 -24.197  1.00  0.00     0.078 A 
ATOM     10  C   UNL     1     -12.526 -28.000 -23.433  1.00  0.00     0.223 A 
ENDROOT
BRANCH   1  11
ATOM     11  C   UNL     1     -13.534 -28.953 -21.317  1.00  0.00     0.091 A 
ATOM     12  C   UNL     1     -14.098 -30.240 -21.264  1.00  0.00     0.068 A 
ATOM     13  C   UNL     1     -15.207 -30.499 -20.447  1.00  0.00     0.162 A 
ATOM     14  C   UNL     1     -14.116 -27.921 -20.566  1.00  0.00     0.068 A 
ATOM     15  C   UNL     1     -15.768 -29.463 -19.681  1.00  0.00     0.200 A 
ATOM     16  C   UNL     1     -15.223 -28.175 -19.744  1.00  0.00     0.162 A 
BRANCH  13  17
ATOM     17  O   UNL     1     -15.754 -31.779 -20.396  1.00  0.00    -0.504 OA
ATOM     18  H   UNL     1     -15.172 -32.609 -20.428  1.00  0.00     0.293 HD
ENDBRANCH  13  17
BRANCH  15  19
ATOM     19  O   UNL     1     -16.868 -29.697 -18.855  1.00  0.00    -0.502 OA
ATOM     20  H   UNL     1     -17.125 -30.628 -18.551  1.00  0.00     0.293 HD
ENDBRANCH  15  19
BRANCH  16  21
ATOM     21  O   UNL     1     -15.788 -27.148 -18.990  1.00  0.00    -0.504 OA
ATOM     22  H   UNL     1     -15.394 -26.865 -18.100  1.00  0.00     0.293 HD
ENDBRANCH  16  21
ENDBRANCH   1  11
BRANCH  10  23
ATOM     23  O   UNL     1     -13.785 -27.643 -23.912  1.00  0.00    -0.500 OA
ATOM     24  H   UNL     1     -14.026 -27.731 -24.892  1.00  0.00     0.294 HD
ENDBRANCH  10  23
BRANCH   5  25
ATOM     25  O   UNL     1      -6.420 -29.435 -22.242  1.00  0.00    -0.507 OA
ATOM     26  H   UNL     1      -6.252 -30.406 -21.998  1.00  0.00     0.293 HD
ENDBRANCH   5  25
BRANCH   7  27
ATOM     27  O   UNL     1      -9.000 -27.247 -25.695  1.00  0.00    -0.507 OA
ATOM     28  H   UNL     1      -8.164 -26.889 -26.140  1.00  0.00     0.293 HD
ENDBRANCH   7  27
TORSDOF 7
ENDMDL
MODEL 5
REMARK VINA RESULT:    -6.839     11.982     13.910
REMARK INTER + INTRA:          -8.773
REMARK INTER:                  -8.398
REMARK INTRA:                  -0.376
REMARK UNBOUND:                -0.336
REMARK SMILES Oc1cc(O)c2cc(O)c(-c3cc(O)c(O)c(O)c3)[o+]c2c1
REMARK SMILES IDX 10 1 20 2 21 3 22 4 2 5 3 6 4 7 6 8 7 9 8 10 11 11 12 12
REMARK SMILES IDX 13 13 19 14 15 15 17 16 14 17 16 19 18 21 9 23 1 25 5 27
REMARK H PARENT 14 18 16 20 18 22 9 24 1 26 5 28
REMARK Flexibility Score: inf
ROOT
ATOM      1  C   UNL     1      -5.210 -20.960 -29.275  1.00  0.00     0.402 A 
ATOM      2  O   UNL     1      -4.014 -21.461 -29.580  1.00  0.00    -0.202 OA
ATOM      3  C   UNL     1      -3.835 -22.704 -30.017  1.00  0.00     0.368 A 
ATOM      4  C   UNL     1      -2.546 -23.152 -30.320  1.00  0.00     0.162 A 
ATOM      5  C   UNL     1      -2.344 -24.458 -30.784  1.00  0.00     0.128 A 
ATOM      6  C   UNL     1      -3.436 -25.318 -30.944  1.00  0.00     0.093 A 
ATOM      7  C   UNL     1      -4.735 -24.883 -30.642  1.00  0.00     0.136 A 
ATOM      8  C   UNL     1      -4.937 -23.570 -30.176  1.00  0.00     0.125 A 
ATOM      9  C   UNL     1      -6.210 -23.085 -29.852  1.00  0.00     0.078 A 
ATOM     10  C   UNL     1      -6.356 -21.775 -29.387  1.00  0.00     0.223 A 
ENDROOT
BRANCH   1  11
ATOM     11  C   UNL     1      -5.284 -19.558 -28.807  1.00  0.00     0.091 A 
ATOM     12  C   UNL     1      -5.266 -19.241 -27.438  1.00  0.00     0.068 A 
ATOM     13  C   UNL     1      -5.359 -17.909 -27.013  1.00  0.00     0.162 A 
ATOM     14  C   UNL     1      -5.431 -18.525 -29.745  1.00  0.00     0.068 A 
ATOM     15  C   UNL     1      -5.483 -16.879 -27.961  1.00  0.00     0.200 A 
ATOM     16  C   UNL     1      -5.522 -17.190 -29.327  1.00  0.00     0.162 A 
BRANCH  13  17
ATOM     17  O   UNL     1      -5.334 -17.605 -25.654  1.00  0.00    -0.504 OA
ATOM     18  H   UNL     1      -6.173 -17.336 -25.152  1.00  0.00     0.293 HD
ENDBRANCH  13  17
BRANCH  15  19
ATOM     19  O   UNL     1      -5.572 -15.545 -27.564  1.00  0.00    -0.502 OA
ATOM     20  H   UNL     1      -5.955 -15.274 -26.666  1.00  0.00     0.293 HD
ENDBRANCH  15  19
BRANCH  16  21
ATOM     21  O   UNL     1      -5.654 -16.166 -30.263  1.00  0.00    -0.504 OA
ATOM     22  H   UNL     1      -4.846 -15.688 -30.644  1.00  0.00     0.293 HD
ENDBRANCH  16  21
ENDBRANCH   1  11
BRANCH  10  23
ATOM     23  O   UNL     1      -7.614 -21.302 -29.014  1.00  0.00    -0.500 OA
ATOM     24  H   UNL     1      -7.901 -21.263 -28.043  1.00  0.00     0.294 HD
ENDBRANCH  10  23
BRANCH   5  25
ATOM     25  O   UNL     1      -1.063 -24.912 -31.090  1.00  0.00    -0.507 OA
ATOM     26  H   UNL     1      -0.830 -25.256 -32.016  1.00  0.00     0.293 HD
ENDBRANCH   5  25
BRANCH   7  27
ATOM     27  O   UNL     1      -5.816 -25.751 -30.804  1.00  0.00    -0.507 OA
ATOM     28  H   UNL     1      -6.624 -25.714 -30.194  1.00  0.00     0.293 HD
ENDBRANCH   7  27
TORSDOF 7
ENDMDL
MODEL 6
REMARK VINA RESULT:    -6.830     12.731     14.044
REMARK INTER + INTRA:          -8.763
REMARK INTER:                  -8.392
REMARK INTRA:                  -0.371
REMARK UNBOUND:                -0.336
REMARK SMILES Oc1cc(O)c2cc(O)c(-c3cc(O)c(O)c(O)c3)[o+]c2c1
REMARK SMILES IDX 10 1 20 2 21 3 22 4 2 5 3 6 4 7 6 8 7 9 8 10 11 11 12 12
REMARK SMILES IDX 13 13 19 14 15 15 17 16 14 17 16 19 18 21 9 23 1 25 5 27
REMARK H PARENT 14 18 16 20 18 22 9 24 1 26 5 28
REMARK Flexibility Score: inf
ROOT
ATOM      1  C   UNL     1      -4.964 -20.763 -29.705  1.00  0.00     0.402 A 
ATOM      2  O   UNL     1      -4.199 -21.062 -28.656  1.00  0.00    -0.202 OA
ATOM      3  C   UNL     1      -3.381 -22.110 -28.626  1.00  0.00     0.368 A 
ATOM      4  C   UNL     1      -2.607 -22.353 -27.487  1.00  0.00     0.162 A 
ATOM      5  C   UNL     1      -1.739 -23.451 -27.445  1.00  0.00     0.128 A 
ATOM      6  C   UNL     1      -1.647 -24.310 -28.546  1.00  0.00     0.093 A 
ATOM      7  C   UNL     1      -2.418 -24.080 -29.695  1.00  0.00     0.136 A 
ATOM      8  C   UNL     1      -3.290 -22.976 -29.737  1.00  0.00     0.125 A 
ATOM      9  C   UNL     1      -4.089 -22.703 -30.854  1.00  0.00     0.078 A 
ATOM     10  C   UNL     1      -4.944 -21.596 -30.843  1.00  0.00     0.223 A 
ENDROOT
BRANCH   1  11
ATOM     11  C   UNL     1      -5.828 -19.564 -29.622  1.00  0.00     0.091 A 
ATOM     12  C   UNL     1      -7.101 -19.619 -29.030  1.00  0.00     0.068 A 
ATOM     13  C   UNL     1      -7.915 -18.479 -28.981  1.00  0.00     0.162 A 
ATOM     14  C   UNL     1      -5.393 -18.360 -30.196  1.00  0.00     0.068 A 
ATOM     15  C   UNL     1      -7.460 -17.271 -29.538  1.00  0.00     0.200 A 
ATOM     16  C   UNL     1      -6.200 -17.215 -30.148  1.00  0.00     0.162 A 
BRANCH  13  17
ATOM     17  O   UNL     1      -9.173 -18.542 -28.386  1.00  0.00    -0.504 OA
ATOM     18  H   UNL     1      -9.299 -18.895 -27.444  1.00  0.00     0.293 HD
ENDBRANCH  13  17
BRANCH  15  19
ATOM     19  O   UNL     1      -8.249 -16.121 -29.497  1.00  0.00    -0.502 OA
ATOM     20  H   UNL     1      -9.128 -16.088 -28.996  1.00  0.00     0.293 HD
ENDBRANCH  15  19
BRANCH  16  21
ATOM     21  O   UNL     1      -5.757 -16.017 -30.707  1.00  0.00    -0.504 OA
ATOM     22  H   UNL     1      -6.391 -15.390 -31.187  1.00  0.00     0.293 HD
ENDBRANCH  16  21
ENDBRANCH   1  11
BRANCH  10  23
ATOM     23  O   UNL     1      -5.779 -21.348 -31.931  1.00  0.00    -0.500 OA
ATOM     24  H   UNL     1      -6.237 -20.452 -32.056  1.00  0.00     0.294 HD
ENDBRANCH  10  23
BRANCH   5  25
ATOM     25  O   UNL     1      -0.964 -23.699 -26.315  1.00  0.00    -0.507 OA
ATOM     26  H   UNL     1      -0.081 -23.223 -26.163  1.00  0.00     0.293 HD
ENDBRANCH   5  25
BRANCH   7  27
ATOM     27  O   UNL     1      -2.318 -24.945 -30.786  1.00  0.00    -0.507 OA
ATOM     28  H   UNL     1      -2.918 -24.851 -31.596  1.00  0.00     0.293 HD
ENDBRANCH   7  27
TORSDOF 7
ENDMDL
MODEL 7
REMARK VINA RESULT:    -6.824      5.778      9.159
REMARK INTER + INTRA:          -8.755
REMARK INTER:                  -8.573
REMARK INTRA:                  -0.182
REMARK UNBOUND:                -0.336
REMARK SMILES Oc1cc(O)c2cc(O)c(-c3cc(O)c(O)c(O)c3)[o+]c2c1
REMARK SMILES IDX 10 1 20 2 21 3 22 4 2 5 3 6 4 7 6 8 7 9 8 10 11 11 12 12
REMARK SMILES IDX 13 13 19 14 15 15 17 16 14 17 16 19 18 21 9 23 1 25 5 27
REMARK H PARENT 14 18 16 20 18 22 9 24 1 26 5 28
REMARK Flexibility Score: inf
ROOT
ATOM      1  C   UNL     1      -5.104 -26.215 -26.556  1.00  0.00     0.402 A 
ATOM      2  O   UNL     1      -5.626 -26.161 -27.781  1.00  0.00    -0.202 OA
ATOM      3  C   UNL     1      -5.079 -25.466 -28.774  1.00  0.00     0.368 A 
ATOM      4  C   UNL     1      -5.686 -25.464 -30.033  1.00  0.00     0.162 A 
ATOM      5  C   UNL     1      -5.119 -24.739 -31.089  1.00  0.00     0.128 A 
ATOM      6  C   UNL     1      -3.940 -24.014 -30.882  1.00  0.00     0.093 A 
ATOM      7  C   UNL     1      -3.320 -24.005 -29.623  1.00  0.00     0.136 A 
ATOM      8  C   UNL     1      -3.891 -24.734 -28.563  1.00  0.00     0.125 A 
ATOM      9  C   UNL     1      -3.321 -24.755 -27.285  1.00  0.00     0.078 A 
ATOM     10  C   UNL     1      -3.931 -25.490 -26.264  1.00  0.00     0.223 A 
ENDROOT
BRANCH   1  11
ATOM     11  C   UNL     1      -5.800 -27.031 -25.535  1.00  0.00     0.091 A 
ATOM     12  C   UNL     1      -7.110 -26.729 -25.125  1.00  0.00     0.068 A 
ATOM     13  C   UNL     1      -7.745 -27.499 -24.141  1.00  0.00     0.162 A 
ATOM     14  C   UNL     1      -5.120 -28.094 -24.920  1.00  0.00     0.068 A 
ATOM     15  C   UNL     1      -7.064 -28.575 -23.548  1.00  0.00     0.200 A 
ATOM     16  C   UNL     1      -5.751 -28.869 -23.937  1.00  0.00     0.162 A 
BRANCH  13  17
ATOM     17  O   UNL     1      -9.047 -27.195 -23.747  1.00  0.00    -0.504 OA
ATOM     18  H   UNL     1      -9.265 -26.343 -23.243  1.00  0.00     0.293 HD
ENDBRANCH  13  17
BRANCH  15  19
ATOM     19  O   UNL     1      -7.676 -29.360 -22.570  1.00  0.00    -0.502 OA
ATOM     20  H   UNL     1      -7.180 -29.680 -21.747  1.00  0.00     0.293 HD
ENDBRANCH  15  19
BRANCH  16  21
ATOM     21  O   UNL     1      -5.076 -29.932 -23.340  1.00  0.00    -0.504 OA
ATOM     22  H   UNL     1      -4.067 -30.012 -23.385  1.00  0.00     0.293 HD
ENDBRANCH  16  21
ENDBRANCH   1  11
BRANCH  10  23
ATOM     23  O   UNL     1      -3.396 -25.475 -24.977  1.00  0.00    -0.500 OA
ATOM     24  H   UNL     1      -2.546 -24.967 -24.759  1.00  0.00     0.294 HD
ENDBRANCH  10  23
BRANCH   5  25
ATOM     25  O   UNL     1      -5.716 -24.732 -32.347  1.00  0.00    -0.507 OA
ATOM     26  H   UNL     1      -5.492 -24.022 -33.036  1.00  0.00     0.293 HD
ENDBRANCH   5  25
BRANCH   7  27
ATOM     27  O   UNL     1      -2.146 -23.276 -29.431  1.00  0.00    -0.507 OA
ATOM     28  H   UNL     1      -1.765 -23.117 -28.505  1.00  0.00     0.293 HD
ENDBRANCH   7  27
TORSDOF 7
ENDMDL
MODEL 8
REMARK VINA RESULT:    -6.745      5.564      9.133
REMARK INTER + INTRA:          -8.658
REMARK INTER:                  -8.459
REMARK INTRA:                  -0.199
REMARK UNBOUND:                -0.336
REMARK SMILES Oc1cc(O)c2cc(O)c(-c3cc(O)c(O)c(O)c3)[o+]c2c1
REMARK SMILES IDX 10 1 20 2 21 3 22 4 2 5 3 6 4 7 6 8 7 9 8 10 11 11 12 12
REMARK SMILES IDX 13 13 19 14 15 15 17 16 14 17 16 19 18 21 9 23 1 25 5 27
REMARK H PARENT 14 18 16 20 18 22 9 24 1 26 5 28
REMARK Flexibility Score: inf
ROOT
ATOM      1  C   UNL     1      -5.047 -26.434 -26.124  1.00  0.00     0.402 A 
ATOM      2  O   UNL     1      -3.937 -25.856 -25.666  1.00  0.00    -0.202 OA
ATOM      3  C   UNL     1      -3.157 -25.082 -26.415  1.00  0.00     0.368 A 
ATOM      4  C   UNL     1      -2.010 -24.508 -25.858  1.00  0.00     0.162 A 
ATOM      5  C   UNL     1      -1.183 -23.688 -26.635  1.00  0.00     0.128 A 
ATOM      6  C   UNL     1      -1.504 -23.443 -27.975  1.00  0.00     0.093 A 
ATOM      7  C   UNL     1      -2.651 -24.013 -28.549  1.00  0.00     0.136 A 
ATOM      8  C   UNL     1      -3.482 -24.837 -27.767  1.00  0.00     0.125 A 
ATOM      9  C   UNL     1      -4.633 -25.438 -28.288  1.00  0.00     0.078 A 
ATOM     10  C   UNL     1      -5.422 -26.253 -27.471  1.00  0.00     0.223 A 
ENDROOT
BRANCH   1  11
ATOM     11  C   UNL     1      -5.837 -27.267 -25.191  1.00  0.00     0.091 A 
ATOM     12  C   UNL     1      -7.184 -26.977 -24.912  1.00  0.00     0.068 A 
ATOM     13  C   UNL     1      -7.911 -27.764 -24.008  1.00  0.00     0.162 A 
ATOM     14  C   UNL     1      -5.218 -28.337 -24.526  1.00  0.00     0.068 A 
ATOM     15  C   UNL     1      -7.287 -28.847 -23.365  1.00  0.00     0.200 A 
ATOM     16  C   UNL     1      -5.940 -29.129 -23.623  1.00  0.00     0.162 A 
BRANCH  13  17
ATOM     17  O   UNL     1      -9.247 -27.472 -23.744  1.00  0.00    -0.504 OA
ATOM     18  H   UNL     1      -9.685 -27.730 -22.866  1.00  0.00     0.293 HD
ENDBRANCH  13  17
BRANCH  15  19
ATOM     19  O   UNL     1      -7.991 -29.648 -22.466  1.00  0.00    -0.502 OA
ATOM     20  H   UNL     1      -7.673 -30.573 -22.204  1.00  0.00     0.293 HD
ENDBRANCH  15  19
BRANCH  16  21
ATOM     21  O   UNL     1      -5.323 -30.199 -22.976  1.00  0.00    -0.504 OA
ATOM     22  H   UNL     1      -4.417 -30.545 -23.270  1.00  0.00     0.293 HD
ENDBRANCH  16  21
ENDBRANCH   1  11
BRANCH  10  23
ATOM     23  O   UNL     1      -6.542 -26.896 -27.998  1.00  0.00    -0.500 OA
ATOM     24  H   UNL     1      -6.491 -27.442 -28.850  1.00  0.00     0.294 HD
ENDBRANCH  10  23
BRANCH   5  25
ATOM     25  O   UNL     1      -0.039 -23.111 -26.088  1.00  0.00    -0.507 OA
ATOM     26  H   UNL     1       0.708 -23.680 -25.702  1.00  0.00     0.293 HD
ENDBRANCH   5  25
BRANCH   7  27
ATOM     27  O   UNL     1      -2.958 -23.761 -29.886  1.00  0.00    -0.507 OA
ATOM     28  H   UNL     1      -2.537 -24.295 -30.638  1.00  0.00     0.293 HD
ENDBRANCH   7  27
TORSDOF 7
ENDMDL
MODEL 9
REMARK VINA RESULT:    -6.685      4.590      5.563
REMARK INTER + INTRA:          -8.583
REMARK INTER:                  -8.199
REMARK INTRA:                  -0.384
REMARK UNBOUND:                -0.336
REMARK SMILES Oc1cc(O)c2cc(O)c(-c3cc(O)c(O)c(O)c3)[o+]c2c1
REMARK SMILES IDX 10 1 20 2 21 3 22 4 2 5 3 6 4 7 6 8 7 9 8 10 11 11 12 12
REMARK SMILES IDX 13 13 19 14 15 15 17 16 14 17 16 19 18 21 9 23 1 25 5 27
REMARK H PARENT 14 18 16 20 18 22 9 24 1 26 5 28
REMARK Flexibility Score: inf
ROOT
ATOM      1  C   UNL     1     -14.541 -31.565 -23.765  1.00  0.00     0.402 A 
ATOM      2  O   UNL     1     -14.186 -30.889 -24.858  1.00  0.00    -0.202 OA
ATOM      3  C   UNL     1     -13.770 -31.479 -25.974  1.00  0.00     0.368 A 
ATOM      4  C   UNL     1     -13.420 -30.699 -27.080  1.00  0.00     0.162 A 
ATOM      5  C   UNL     1     -12.984 -31.308 -28.264  1.00  0.00     0.128 A 
ATOM      6  C   UNL     1     -12.897 -32.702 -28.339  1.00  0.00     0.093 A 
ATOM      7  C   UNL     1     -13.243 -33.499 -27.237  1.00  0.00     0.136 A 
ATOM      8  C   UNL     1     -13.682 -32.886 -26.048  1.00  0.00     0.125 A 
ATOM      9  C   UNL     1     -14.032 -33.630 -24.915  1.00  0.00     0.078 A 
ATOM     10  C   UNL     1     -14.456 -32.972 -23.756  1.00  0.00     0.223 A 
ENDROOT
BRANCH   1  11
ATOM     11  C   UNL     1     -14.996 -30.796 -22.585  1.00  0.00     0.091 A 
ATOM     12  C   UNL     1     -16.360 -30.536 -22.362  1.00  0.00     0.068 A 
ATOM     13  C   UNL     1     -16.770 -29.787 -21.251  1.00  0.00     0.162 A 
ATOM     14  C   UNL     1     -14.047 -30.267 -21.697  1.00  0.00     0.068 A 
ATOM     15  C   UNL     1     -15.813 -29.281 -20.356  1.00  0.00     0.200 A 
ATOM     16  C   UNL     1     -14.452 -29.519 -20.582  1.00  0.00     0.162 A 
BRANCH  13  17
ATOM     17  O   UNL     1     -18.125 -29.540 -21.036  1.00  0.00    -0.504 OA
ATOM     18  H   UNL     1     -18.536 -28.631 -21.218  1.00  0.00     0.293 HD
ENDBRANCH  13  17
BRANCH  15  19
ATOM     19  O   UNL     1     -16.197 -28.537 -19.240  1.00  0.00    -0.502 OA
ATOM     20  H   UNL     1     -16.070 -27.534 -19.191  1.00  0.00     0.293 HD
ENDBRANCH  15  19
BRANCH  16  21
ATOM     21  O   UNL     1     -13.505 -29.008 -19.697  1.00  0.00    -0.504 OA
ATOM     22  H   UNL     1     -13.670 -28.152 -19.179  1.00  0.00     0.293 HD
ENDBRANCH  16  21
ENDBRANCH   1  11
BRANCH  10  23
ATOM     23  O   UNL     1     -14.758 -33.704 -22.609  1.00  0.00    -0.500 OA
ATOM     24  H   UNL     1     -14.752 -33.278 -21.689  1.00  0.00     0.294 HD
ENDBRANCH  10  23
BRANCH   5  25
ATOM     25  O   UNL     1     -12.634 -30.538 -29.371  1.00  0.00    -0.507 OA
ATOM     26  H   UNL     1     -13.282 -29.871 -29.778  1.00  0.00     0.293 HD
ENDBRANCH   5  25
BRANCH   7  27
ATOM     27  O   UNL     1     -13.150 -34.888 -27.325  1.00  0.00    -0.507 OA
ATOM     28  H   UNL     1     -12.271 -35.350 -27.528  1.00  0.00     0.293 HD
ENDBRANCH   7  27
TORSDOF 7
ENDMDL
