MODEL 1
REMARK VINA RESULT:    -6.303      0.000      0.000
REMARK INTER + INTRA:          -7.542
REMARK INTER:                  -7.409
REMARK INTRA:                  -0.134
REMARK UNBOUND:                -0.134
REMARK SMILES O=C([O-])C=Cc1ccc(O)c(O)c1
REMARK SMILES IDX 6 1 13 2 7 3 11 4 8 5 9 6 5 7 4 8 2 9 1 10 3 11 12 12 10 14
REMARK H PARENT 12 13 10 15
REMARK Flexibility Score: inf
ROOT
ATOM      1  C   UNL     1       6.518  -6.954  -9.647  1.00  0.00    -0.022 A 
ATOM      2  C   UNL     1       5.360  -7.097 -10.436  1.00  0.00     0.058 A 
ATOM      3  C   UNL     1       6.379  -6.586  -8.302  1.00  0.00     0.012 A 
ATOM      4  C   UNL     1       4.089  -6.852  -9.900  1.00  0.00     0.157 A 
ATOM      5  C   UNL     1       5.116  -6.337  -7.762  1.00  0.00     0.051 A 
ATOM      6  C   UNL     1       3.965  -6.462  -8.547  1.00  0.00     0.157 A 
ENDROOT
BRANCH   1   7
ATOM      7  C   UNL     1       7.881  -7.217 -10.174  1.00  0.00     0.010 C 
ATOM      8  C   UNL     1       8.781  -6.255 -10.421  1.00  0.00     0.025 C 
BRANCH   8   9
ATOM      9  C   UNL     1      10.126  -6.563 -10.931  1.00  0.00     0.064 C 
ATOM     10  O   UNL     1      10.434  -7.756 -11.192  1.00  0.00    -0.545 OA
ATOM     11  O   UNL     1      11.068  -5.558 -11.127  1.00  0.00    -0.545 OA
ENDBRANCH   8   9
ENDBRANCH   1   7
BRANCH   4  12
ATOM     12  O   UNL     1       2.985  -7.013 -10.742  1.00  0.00    -0.504 OA
ATOM     13  H   UNL     1       2.104  -6.537 -10.615  1.00  0.00     0.293 HD
ENDBRANCH   4  12
BRANCH   6  14
ATOM     14  O   UNL     1       2.733  -6.192  -7.948  1.00  0.00    -0.504 OA
ATOM     15  H   UNL     1       1.927  -6.795  -8.018  1.00  0.00     0.293 HD
ENDBRANCH   6  14
TORSDOF 4
ENDMDL
MODEL 2
REMARK VINA RESULT:    -6.292      4.469      6.765
REMARK INTER + INTRA:          -7.530
REMARK INTER:                  -7.376
REMARK INTRA:                  -0.153
REMARK UNBOUND:                -0.134
REMARK SMILES O=C([O-])C=Cc1ccc(O)c(O)c1
REMARK SMILES IDX 6 1 13 2 7 3 11 4 8 5 9 6 5 7 4 8 2 9 1 10 3 11 12 12 10 14
REMARK H PARENT 12 13 10 15
REMARK Flexibility Score: inf
ROOT
ATOM      1  C   UNL     1      12.261  -5.434 -12.535  1.00  0.00    -0.022 A 
ATOM      2  C   UNL     1      11.985  -6.765 -12.167  1.00  0.00     0.058 A 
ATOM      3  C   UNL     1      11.348  -4.431 -12.180  1.00  0.00     0.012 A 
ATOM      4  C   UNL     1      10.808  -7.094 -11.481  1.00  0.00     0.157 A 
ATOM      5  C   UNL     1      10.172  -4.751 -11.500  1.00  0.00     0.051 A 
ATOM      6  C   UNL     1       9.887  -6.074 -11.147  1.00  0.00     0.157 A 
ENDROOT
BRANCH   1   7
ATOM      7  C   UNL     1      13.502  -5.045 -13.251  1.00  0.00     0.010 C 
ATOM      8  C   UNL     1      13.995  -3.798 -13.261  1.00  0.00     0.025 C 
BRANCH   8   9
ATOM      9  C   UNL     1      15.236  -3.460 -13.974  1.00  0.00     0.064 C 
ATOM     10  O   UNL     1      15.934  -4.380 -14.477  1.00  0.00    -0.545 OA
ATOM     11  O   UNL     1      15.656  -2.140 -14.101  1.00  0.00    -0.545 OA
ENDBRANCH   8   9
ENDBRANCH   1   7
BRANCH   4  12
ATOM     12  O   UNL     1      10.600  -8.435 -11.149  1.00  0.00    -0.504 OA
ATOM     13  H   UNL     1      10.627  -8.794 -10.206  1.00  0.00     0.293 HD
ENDBRANCH   4  12
BRANCH   6  14
ATOM     14  O   UNL     1       8.691  -6.327 -10.474  1.00  0.00    -0.504 OA
ATOM     15  H   UNL     1       8.113  -7.139 -10.634  1.00  0.00     0.293 HD
ENDBRANCH   6  14
TORSDOF 4
ENDMDL
MODEL 3
REMARK VINA RESULT:    -6.182      2.821      6.971
REMARK INTER + INTRA:          -7.400
REMARK INTER:                  -7.267
REMARK INTRA:                  -0.133
REMARK UNBOUND:                -0.134
REMARK SMILES O=C([O-])C=Cc1ccc(O)c(O)c1
REMARK SMILES IDX 6 1 13 2 7 3 11 4 8 5 9 6 5 7 4 8 2 9 1 10 3 11 12 12 10 14
REMARK H PARENT 12 13 10 15
REMARK Flexibility Score: inf
ROOT
ATOM      1  C   UNL     1       3.150  -6.602  -8.807  1.00  0.00    -0.022 A 
ATOM      2  C   UNL     1       4.315  -6.506  -8.021  1.00  0.00     0.058 A 
ATOM      3  C   UNL     1       3.278  -6.885 -10.174  1.00  0.00     0.012 A 
ATOM      4  C   UNL     1       5.585  -6.662  -8.593  1.00  0.00     0.157 A 
ATOM      5  C   UNL     1       4.540  -7.039 -10.752  1.00  0.00     0.051 A 
ATOM      6  C   UNL     1       5.699  -6.927  -9.977  1.00  0.00     0.157 A 
ENDROOT
BRANCH   1   7
ATOM      7  C   UNL     1       1.788  -6.455  -8.237  1.00  0.00     0.010 C 
ATOM      8  C   UNL     1       0.991  -5.404  -8.475  1.00  0.00     0.025 C 
BRANCH   8   9
ATOM      9  C   UNL     1      -0.359  -5.306  -7.898  1.00  0.00     0.064 C 
ATOM     10  O   UNL     1      -1.225  -6.172  -8.193  1.00  0.00    -0.545 OA
ATOM     11  O   UNL     1      -0.698  -4.270  -7.034  1.00  0.00    -0.545 OA
ENDBRANCH   8   9
ENDBRANCH   1   7
BRANCH   4  12
ATOM     12  O   UNL     1       6.696  -6.553  -7.753  1.00  0.00    -0.504 OA
ATOM     13  H   UNL     1       6.651  -6.235  -6.796  1.00  0.00     0.293 HD
ENDBRANCH   4  12
BRANCH   6  14
ATOM     14  O   UNL     1       6.930  -7.086 -10.617  1.00  0.00    -0.504 OA
ATOM     15  H   UNL     1       7.317  -6.420 -11.269  1.00  0.00     0.293 HD
ENDBRANCH   6  14
TORSDOF 4
ENDMDL
MODEL 4
REMARK VINA RESULT:    -6.116      4.436      6.567
REMARK INTER + INTRA:          -7.323
REMARK INTER:                  -7.201
REMARK INTRA:                  -0.122
REMARK UNBOUND:                -0.134
REMARK SMILES O=C([O-])C=Cc1ccc(O)c(O)c1
REMARK SMILES IDX 6 1 13 2 7 3 11 4 8 5 9 6 5 7 4 8 2 9 1 10 3 11 12 12 10 14
REMARK H PARENT 12 13 10 15
REMARK Flexibility Score: inf
ROOT
ATOM      1  C   UNL     1      12.087  -5.450 -12.528  1.00  0.00    -0.022 A 
ATOM      2  C   UNL     1      10.907  -4.682 -12.550  1.00  0.00     0.058 A 
ATOM      3  C   UNL     1      12.093  -6.661 -11.821  1.00  0.00     0.012 A 
ATOM      4  C   UNL     1       9.762  -5.100 -11.858  1.00  0.00     0.157 A 
ATOM      5  C   UNL     1      10.958  -7.082 -11.126  1.00  0.00     0.051 A 
ATOM      6  C   UNL     1       9.789  -6.313 -11.132  1.00  0.00     0.157 A 
ENDROOT
BRANCH   1   7
ATOM      7  C   UNL     1      13.315  -5.048 -13.258  1.00  0.00     0.010 C 
ATOM      8  C   UNL     1      13.871  -3.832 -13.166  1.00  0.00     0.025 C 
BRANCH   8   9
ATOM      9  C   UNL     1      15.098  -3.482 -13.898  1.00  0.00     0.064 C 
ATOM     10  O   UNL     1      15.333  -2.276 -14.174  1.00  0.00    -0.545 OA
ATOM     11  O   UNL     1      16.003  -4.461 -14.295  1.00  0.00    -0.545 OA
ENDBRANCH   8   9
ENDBRANCH   1   7
BRANCH   4  12
ATOM     12  O   UNL     1       8.627  -4.287 -11.923  1.00  0.00    -0.504 OA
ATOM     13  H   UNL     1       8.189  -3.863 -11.119  1.00  0.00     0.293 HD
ENDBRANCH   4  12
BRANCH   6  14
ATOM     14  O   UNL     1       8.691  -6.788 -10.412  1.00  0.00    -0.504 OA
ATOM     15  H   UNL     1       8.346  -7.735 -10.467  1.00  0.00     0.293 HD
ENDBRANCH   6  14
TORSDOF 4
ENDMDL
MODEL 5
REMARK VINA RESULT:    -6.114      2.859      7.204
REMARK INTER + INTRA:          -7.320
REMARK INTER:                  -7.175
REMARK INTRA:                  -0.146
REMARK UNBOUND:                -0.134
REMARK SMILES O=C([O-])C=Cc1ccc(O)c(O)c1
REMARK SMILES IDX 6 1 13 2 7 3 11 4 8 5 9 6 5 7 4 8 2 9 1 10 3 11 12 12 10 14
REMARK H PARENT 12 13 10 15
REMARK Flexibility Score: inf
ROOT
ATOM      1  C   UNL     1      10.815  -5.785 -11.388  1.00  0.00    -0.022 A 
ATOM      2  C   UNL     1      11.609  -6.199 -12.475  1.00  0.00     0.058 A 
ATOM      3  C   UNL     1      11.021  -4.507 -10.849  1.00  0.00     0.012 A 
ATOM      4  C   UNL     1      12.608  -5.366 -12.997  1.00  0.00     0.157 A 
ATOM      5  C   UNL     1      12.016  -3.673 -11.360  1.00  0.00     0.051 A 
ATOM      6  C   UNL     1      12.818  -4.087 -12.429  1.00  0.00     0.157 A 
ENDROOT
BRANCH   1   7
ATOM      7  C   UNL     1       9.740  -6.632 -10.816  1.00  0.00     0.010 C 
ATOM      8  C   UNL     1       8.533  -6.168 -10.465  1.00  0.00     0.025 C 
BRANCH   8   9
ATOM      9  C   UNL     1       7.492  -7.048  -9.913  1.00  0.00     0.064 C 
ATOM     10  O   UNL     1       7.506  -8.277 -10.189  1.00  0.00    -0.545 OA
ATOM     11  O   UNL     1       6.488  -6.547  -9.091  1.00  0.00    -0.545 OA
ENDBRANCH   8   9
ENDBRANCH   1   7
BRANCH   4  12
ATOM     12  O   UNL     1      13.357  -5.843 -14.076  1.00  0.00    -0.504 OA
ATOM     13  H   UNL     1      13.326  -5.447 -15.004  1.00  0.00     0.293 HD
ENDBRANCH   4  12
BRANCH   6  14
ATOM     14  O   UNL     1      13.799  -3.208 -12.890  1.00  0.00    -0.504 OA
ATOM     15  H   UNL     1      14.127  -2.407 -12.372  1.00  0.00     0.293 HD
ENDBRANCH   6  14
TORSDOF 4
ENDMDL
MODEL 6
REMARK VINA RESULT:    -6.101      0.892      1.885
REMARK INTER + INTRA:          -7.305
REMARK INTER:                  -7.171
REMARK INTRA:                  -0.134
REMARK UNBOUND:                -0.134
REMARK SMILES O=C([O-])C=Cc1ccc(O)c(O)c1
REMARK SMILES IDX 6 1 13 2 7 3 11 4 8 5 9 6 5 7 4 8 2 9 1 10 3 11 12 12 10 14
REMARK H PARENT 12 13 10 15
REMARK Flexibility Score: inf
ROOT
ATOM      1  C   UNL     1       6.446  -6.840  -9.755  1.00  0.00    -0.022 A 
ATOM      2  C   UNL     1       5.901  -6.657  -8.469  1.00  0.00     0.058 A 
ATOM      3  C   UNL     1       5.576  -7.005 -10.842  1.00  0.00     0.012 A 
ATOM      4  C   UNL     1       4.514  -6.664  -8.268  1.00  0.00     0.157 A 
ATOM      5  C   UNL     1       4.194  -7.017 -10.648  1.00  0.00     0.051 A 
ATOM      6  C   UNL     1       3.649  -6.851  -9.370  1.00  0.00     0.157 A 
ENDROOT
BRANCH   1   7
ATOM      7  C   UNL     1       7.908  -6.827 -10.011  1.00  0.00     0.010 C 
ATOM      8  C   UNL     1       8.561  -5.784 -10.544  1.00  0.00     0.025 C 
BRANCH   8   9
ATOM      9  C   UNL     1      10.014  -5.810 -10.769  1.00  0.00     0.064 C 
ATOM     10  O   UNL     1      10.562  -6.872 -11.167  1.00  0.00    -0.545 OA
ATOM     11  O   UNL     1      10.796  -4.682 -10.544  1.00  0.00    -0.545 OA
ENDBRANCH   8   9
ENDBRANCH   1   7
BRANCH   4  12
ATOM     12  O   UNL     1       4.044  -6.477  -6.965  1.00  0.00    -0.504 OA
ATOM     13  H   UNL     1       3.100  -6.199  -6.740  1.00  0.00     0.293 HD
ENDBRANCH   4  12
BRANCH   6  14
ATOM     14  O   UNL     1       2.259  -6.879  -9.244  1.00  0.00    -0.504 OA
ATOM     15  H   UNL     1       1.638  -7.291  -9.925  1.00  0.00     0.293 HD
ENDBRANCH   6  14
TORSDOF 4
ENDMDL
MODEL 7
REMARK VINA RESULT:    -5.919      2.865      6.870
REMARK INTER + INTRA:          -7.091
REMARK INTER:                  -6.958
REMARK INTRA:                  -0.133
REMARK UNBOUND:                -0.134
REMARK SMILES O=C([O-])C=Cc1ccc(O)c(O)c1
REMARK SMILES IDX 6 1 13 2 7 3 11 4 8 5 9 6 5 7 4 8 2 9 1 10 3 11 12 12 10 14
REMARK H PARENT 12 13 10 15
REMARK Flexibility Score: inf
ROOT
ATOM      1  C   UNL     1       2.950  -6.328  -8.684  1.00  0.00    -0.022 A 
ATOM      2  C   UNL     1       3.492  -6.947  -9.827  1.00  0.00     0.058 A 
ATOM      3  C   UNL     1       3.822  -5.852  -7.695  1.00  0.00     0.012 A 
ATOM      4  C   UNL     1       4.876  -7.111  -9.969  1.00  0.00     0.157 A 
ATOM      5  C   UNL     1       5.202  -6.015  -7.827  1.00  0.00     0.051 A 
ATOM      6  C   UNL     1       5.743  -6.644  -8.953  1.00  0.00     0.157 A 
ENDROOT
BRANCH   1   7
ATOM      7  C   UNL     1       1.491  -6.124  -8.502  1.00  0.00     0.010 C 
ATOM      8  C   UNL     1       0.895  -4.924  -8.552  1.00  0.00     0.025 C 
BRANCH   8   9
ATOM      9  C   UNL     1      -0.557  -4.770  -8.379  1.00  0.00     0.064 C 
ATOM     10  O   UNL     1      -1.045  -3.621  -8.213  1.00  0.00    -0.545 OA
ATOM     11  O   UNL     1      -1.404  -5.874  -8.392  1.00  0.00    -0.545 OA
ENDBRANCH   8   9
ENDBRANCH   1   7
BRANCH   4  12
ATOM     12  O   UNL     1       5.343  -7.735 -11.129  1.00  0.00    -0.504 OA
ATOM     13  H   UNL     1       5.701  -7.239 -11.931  1.00  0.00     0.293 HD
ENDBRANCH   4  12
BRANCH   6  14
ATOM     14  O   UNL     1       7.130  -6.781  -9.022  1.00  0.00    -0.504 OA
ATOM     15  H   UNL     1       7.654  -7.481  -8.517  1.00  0.00     0.293 HD
ENDBRANCH   6  14
TORSDOF 4
ENDMDL
MODEL 8
REMARK VINA RESULT:    -5.902      4.274      8.864
REMARK INTER + INTRA:          -7.071
REMARK INTER:                  -6.926
REMARK INTRA:                  -0.146
REMARK UNBOUND:                -0.134
REMARK SMILES O=C([O-])C=Cc1ccc(O)c(O)c1
REMARK SMILES IDX 6 1 13 2 7 3 11 4 8 5 9 6 5 7 4 8 2 9 1 10 3 11 12 12 10 14
REMARK H PARENT 12 13 10 15
REMARK Flexibility Score: inf
ROOT
ATOM      1  C   UNL     1      12.411  -5.268 -13.101  1.00  0.00    -0.022 A 
ATOM      2  C   UNL     1      13.211  -5.837 -14.112  1.00  0.00     0.058 A 
ATOM      3  C   UNL     1      12.738  -3.995 -12.615  1.00  0.00     0.012 A 
ATOM      4  C   UNL     1      14.332  -5.159 -14.609  1.00  0.00     0.157 A 
ATOM      5  C   UNL     1      13.855  -3.315 -13.103  1.00  0.00     0.051 A 
ATOM      6  C   UNL     1      14.662  -3.883 -14.095  1.00  0.00     0.157 A 
ENDROOT
BRANCH   1   7
ATOM      7  C   UNL     1      11.209  -5.949 -12.558  1.00  0.00     0.010 C 
ATOM      8  C   UNL     1      10.763  -5.784 -11.304  1.00  0.00     0.025 C 
BRANCH   8   9
ATOM      9  C   UNL     1       9.559  -6.469 -10.812  1.00  0.00     0.064 C 
ATOM     10  O   UNL     1       8.577  -5.789 -10.412  1.00  0.00    -0.545 OA
ATOM     11  O   UNL     1       9.485  -7.858 -10.777  1.00  0.00    -0.545 OA
ENDBRANCH   8   9
ENDBRANCH   1   7
BRANCH   4  12
ATOM     12  O   UNL     1      15.081  -5.783 -15.610  1.00  0.00    -0.504 OA
ATOM     13  H   UNL     1      15.450  -5.306 -16.419  1.00  0.00     0.293 HD
ENDBRANCH   4  12
BRANCH   6  14
ATOM     14  O   UNL     1      15.768  -3.154 -14.535  1.00  0.00    -0.504 OA
ATOM     15  H   UNL     1      15.725  -2.434 -15.240  1.00  0.00     0.293 HD
ENDBRANCH   6  14
TORSDOF 4
ENDMDL
MODEL 9
REMARK VINA RESULT:    -5.871      5.558      7.131
REMARK INTER + INTRA:          -7.034
REMARK INTER:                  -6.910
REMARK INTRA:                  -0.124
REMARK UNBOUND:                -0.134
REMARK SMILES O=C([O-])C=Cc1ccc(O)c(O)c1
REMARK SMILES IDX 6 1 13 2 7 3 11 4 8 5 9 6 5 7 4 8 2 9 1 10 3 11 12 12 10 14
REMARK H PARENT 12 13 10 15
REMARK Flexibility Score: inf
ROOT
ATOM      1  C   UNL     1      11.140  -6.803 -11.621  1.00  0.00    -0.022 A 
ATOM      2  C   UNL     1      12.168  -6.492 -12.533  1.00  0.00     0.058 A 
ATOM      3  C   UNL     1      10.636  -5.787 -10.798  1.00  0.00     0.012 A 
ATOM      4  C   UNL     1      12.701  -5.197 -12.603  1.00  0.00     0.157 A 
ATOM      5  C   UNL     1      11.163  -4.496 -10.860  1.00  0.00     0.051 A 
ATOM      6  C   UNL     1      12.195  -4.187 -11.752  1.00  0.00     0.157 A 
ENDROOT
BRANCH   1   7
ATOM      7  C   UNL     1      10.542  -8.158 -11.525  1.00  0.00     0.010 C 
ATOM      8  C   UNL     1      10.912  -9.191 -12.295  1.00  0.00     0.025 C 
BRANCH   8   9
ATOM      9  C   UNL     1      10.299 -10.521 -12.155  1.00  0.00     0.064 C 
ATOM     10  O   UNL     1       9.884 -11.125 -13.180  1.00  0.00    -0.545 OA
ATOM     11  O   UNL     1      10.167 -11.125 -10.909  1.00  0.00    -0.545 OA
ENDBRANCH   8   9
ENDBRANCH   1   7
BRANCH   4  12
ATOM     12  O   UNL     1      13.719  -4.961 -13.530  1.00  0.00    -0.504 OA
ATOM     13  H   UNL     1      14.555  -4.433 -13.328  1.00  0.00     0.293 HD
ENDBRANCH   4  12
BRANCH   6  14
ATOM     14  O   UNL     1      12.682  -2.879 -11.760  1.00  0.00    -0.504 OA
ATOM     15  H   UNL     1      12.340  -2.145 -11.158  1.00  0.00     0.293 HD
ENDBRANCH   6  14
TORSDOF 4
ENDMDL
