MODEL 1
REMARK VINA RESULT:    -3.706      0.000      0.000
REMARK INTER + INTRA:         -10.172
REMARK INTER:                  -6.956
REMARK INTRA:                  -3.216
REMARK UNBOUND:                -3.216
REMARK SMILES CCCCCCCCC=CCCCCCCCC(=O)[O-]
REMARK SMILES IDX 10 1 9 2 11 3 12 4 13 5 14 6 15 7 16 8 17 9 18 10 19 11
REMARK SMILES IDX 20 12 8 13 7 14 6 15 5 16 4 17 3 18 2 19 1 20
REMARK H PARENT
REMARK Flexibility Score: inf
ROOT
ATOM      1  C   UNL     1       5.565  -1.093   2.613  1.00  0.00    -0.031 C 
ATOM      2  C   UNL     1       4.328  -1.501   2.957  1.00  0.00    -0.031 C 
ENDROOT
BRANCH   1   3
ATOM      3  C   UNL     1       6.626  -0.624   3.577  1.00  0.00     0.027 C 
BRANCH   3   4
ATOM      4  C   UNL     1       7.674  -1.714   3.838  1.00  0.00     0.004 C 
BRANCH   4   5
ATOM      5  C   UNL     1       7.631  -2.178   5.298  1.00  0.00     0.000 C 
BRANCH   5   6
ATOM      6  C   UNL     1       6.812  -3.467   5.441  1.00  0.00     0.000 C 
BRANCH   6   7
ATOM      7  C   UNL     1       6.825  -4.274   4.138  1.00  0.00     0.000 C 
BRANCH   7   8
ATOM      8  C   UNL     1       5.464  -4.936   3.887  1.00  0.00     0.006 C 
BRANCH   8   9
ATOM      9  C   UNL     1       5.186  -5.066   2.387  1.00  0.00     0.053 C 
BRANCH   9  10
ATOM     10  C   UNL     1       3.800  -5.579   2.154  1.00  0.00     0.041 C 
ATOM     11  O   UNL     1       3.304  -6.441   2.927  1.00  0.00    -0.550 OA
ATOM     12  O   UNL     1       3.072  -5.141   1.055  1.00  0.00    -0.550 OA
ENDBRANCH   9  10
ENDBRANCH   8   9
ENDBRANCH   7   8
ENDBRANCH   6   7
ENDBRANCH   5   6
ENDBRANCH   4   5
ENDBRANCH   3   4
ENDBRANCH   1   3
BRANCH   2  13
ATOM     13  C   UNL     1       3.797  -1.595   4.369  1.00  0.00     0.027 C 
BRANCH  13  14
ATOM     14  C   UNL     1       2.989  -0.347   4.754  1.00  0.00     0.004 C 
BRANCH  14  15
ATOM     15  C   UNL     1       3.433   0.249   6.098  1.00  0.00     0.000 C 
BRANCH  15  16
ATOM     16  C   UNL     1       4.701  -0.445   6.614  1.00  0.00     0.000 C 
BRANCH  16  17
ATOM     17  C   UNL     1       4.514  -1.088   8.000  1.00  0.00    -0.000 C 
BRANCH  17  18
ATOM     18  C   UNL     1       4.369  -2.621   7.992  1.00  0.00    -0.000 C 
BRANCH  18  19
ATOM     19  C   UNL     1       2.947  -3.086   7.649  1.00  0.00    -0.003 C 
ATOM     20  C   UNL     1       2.973  -4.264   6.678  1.00  0.00     0.004 C 
ENDBRANCH  18  19
ENDBRANCH  17  18
ENDBRANCH  16  17
ENDBRANCH  15  16
ENDBRANCH  14  15
ENDBRANCH  13  14
ENDBRANCH   2  13
TORSDOF 15
ENDMDL
MODEL 2
REMARK VINA RESULT:    -3.585      1.728      2.771
REMARK INTER + INTRA:          -9.944
REMARK INTER:                  -7.137
REMARK INTRA:                  -2.807
REMARK UNBOUND:                -3.216
REMARK SMILES CCCCCCCCC=CCCCCCCCC(=O)[O-]
REMARK SMILES IDX 10 1 9 2 11 3 12 4 13 5 14 6 15 7 16 8 17 9 18 10 19 11
REMARK SMILES IDX 20 12 8 13 7 14 6 15 5 16 4 17 3 18 2 19 1 20
REMARK H PARENT
REMARK Flexibility Score: inf
ROOT
ATOM      1  C   UNL     1       3.113  -0.822   4.249  1.00  0.00    -0.031 C 
ATOM      2  C   UNL     1       2.858  -0.102   5.358  1.00  0.00    -0.031 C 
ENDROOT
BRANCH   1   3
ATOM      3  C   UNL     1       4.488  -1.180   3.739  1.00  0.00     0.027 C 
BRANCH   3   4
ATOM      4  C   UNL     1       4.477  -2.508   2.971  1.00  0.00     0.004 C 
BRANCH   4   5
ATOM      5  C   UNL     1       5.754  -3.310   3.245  1.00  0.00     0.000 C 
BRANCH   5   6
ATOM      6  C   UNL     1       5.601  -4.763   2.779  1.00  0.00     0.000 C 
BRANCH   6   7
ATOM      7  C   UNL     1       4.122  -5.137   2.621  1.00  0.00     0.000 C 
BRANCH   7   8
ATOM      8  C   UNL     1       3.850  -5.728   1.231  1.00  0.00     0.006 C 
BRANCH   8   9
ATOM      9  C   UNL     1       5.094  -6.433   0.682  1.00  0.00     0.053 C 
BRANCH   9  10
ATOM     10  C   UNL     1       4.973  -7.914   0.851  1.00  0.00     0.041 C 
ATOM     11  O   UNL     1       5.906  -8.569   1.386  1.00  0.00    -0.550 OA
ATOM     12  O   UNL     1       3.851  -8.579   0.374  1.00  0.00    -0.550 OA
ENDBRANCH   9  10
ENDBRANCH   8   9
ENDBRANCH   7   8
ENDBRANCH   6   7
ENDBRANCH   5   6
ENDBRANCH   4   5
ENDBRANCH   3   4
ENDBRANCH   1   3
BRANCH   2  13
ATOM     13  C   UNL     1       3.901   0.444   6.307  1.00  0.00     0.027 C 
BRANCH  13  14
ATOM     14  C   UNL     1       3.651  -0.021   7.750  1.00  0.00     0.004 C 
BRANCH  14  15
ATOM     15  C   UNL     1       4.816  -0.849   8.311  1.00  0.00     0.000 C 
BRANCH  15  16
ATOM     16  C   UNL     1       5.862  -1.132   7.223  1.00  0.00     0.000 C 
BRANCH  16  17
ATOM     17  C   UNL     1       5.960  -2.625   6.858  1.00  0.00    -0.000 C 
BRANCH  17  18
ATOM     18  C   UNL     1       4.828  -3.507   7.415  1.00  0.00    -0.000 C 
BRANCH  18  19
ATOM     19  C   UNL     1       3.754  -3.835   6.369  1.00  0.00    -0.003 C 
ATOM     20  C   UNL     1       2.365  -3.439   6.864  1.00  0.00     0.004 C 
ENDBRANCH  18  19
ENDBRANCH  17  18
ENDBRANCH  16  17
ENDBRANCH  15  16
ENDBRANCH  14  15
ENDBRANCH  13  14
ENDBRANCH   2  13
TORSDOF 15
ENDMDL
MODEL 3
REMARK VINA RESULT:    -3.510      1.456      3.338
REMARK INTER + INTRA:          -9.803
REMARK INTER:                  -6.923
REMARK INTRA:                  -2.880
REMARK UNBOUND:                -3.216
REMARK SMILES CCCCCCCCC=CCCCCCCCC(=O)[O-]
REMARK SMILES IDX 10 1 9 2 11 3 12 4 13 5 14 6 15 7 16 8 17 9 18 10 19 11
REMARK SMILES IDX 20 12 8 13 7 14 6 15 5 16 4 17 3 18 2 19 1 20
REMARK H PARENT
REMARK Flexibility Score: inf
ROOT
ATOM      1  C   UNL     1       3.741   0.667   6.666  1.00  0.00    -0.031 C 
ATOM      2  C   UNL     1       3.848   0.478   7.995  1.00  0.00    -0.031 C 
ENDROOT
BRANCH   1   3
ATOM      3  C   UNL     1       4.265  -0.272   5.607  1.00  0.00     0.027 C 
BRANCH   3   4
ATOM      4  C   UNL     1       3.159  -0.694   4.631  1.00  0.00     0.004 C 
BRANCH   4   5
ATOM      5  C   UNL     1       3.739  -1.492   3.457  1.00  0.00     0.000 C 
BRANCH   5   6
ATOM      6  C   UNL     1       5.237  -1.753   3.658  1.00  0.00     0.000 C 
BRANCH   6   7
ATOM      7  C   UNL     1       5.622  -3.155   3.170  1.00  0.00     0.000 C 
BRANCH   7   8
ATOM      8  C   UNL     1       4.393  -3.913   2.653  1.00  0.00     0.006 C 
BRANCH   8   9
ATOM      9  C   UNL     1       4.385  -5.357   3.163  1.00  0.00     0.053 C 
BRANCH   9  10
ATOM     10  C   UNL     1       4.117  -6.308   2.040  1.00  0.00     0.041 C 
ATOM     11  O   UNL     1       3.515  -7.392   2.256  1.00  0.00    -0.550 OA
ATOM     12  O   UNL     1       4.576  -6.020   0.761  1.00  0.00    -0.550 OA
ENDBRANCH   9  10
ENDBRANCH   8   9
ENDBRANCH   7   8
ENDBRANCH   6   7
ENDBRANCH   5   6
ENDBRANCH   4   5
ENDBRANCH   3   4
ENDBRANCH   1   3
BRANCH   2  13
ATOM     13  C   UNL     1       4.478  -0.724   8.661  1.00  0.00     0.027 C 
BRANCH  13  14
ATOM     14  C   UNL     1       3.416  -1.691   9.206  1.00  0.00     0.004 C 
BRANCH  14  15
ATOM     15  C   UNL     1       2.003  -1.350   8.710  1.00  0.00     0.000 C 
BRANCH  15  16
ATOM     16  C   UNL     1       1.599  -2.256   7.538  1.00  0.00     0.000 C 
BRANCH  16  17
ATOM     17  C   UNL     1       2.268  -3.641   7.591  1.00  0.00    -0.000 C 
BRANCH  17  18
ATOM     18  C   UNL     1       3.186  -3.967   6.399  1.00  0.00    -0.000 C 
BRANCH  18  19
ATOM     19  C   UNL     1       4.522  -4.592   6.824  1.00  0.00    -0.003 C 
ATOM     20  C   UNL     1       5.644  -3.558   6.808  1.00  0.00     0.004 C 
ENDBRANCH  18  19
ENDBRANCH  17  18
ENDBRANCH  16  17
ENDBRANCH  15  16
ENDBRANCH  14  15
ENDBRANCH  13  14
ENDBRANCH   2  13
TORSDOF 15
ENDMDL
MODEL 4
REMARK VINA RESULT:    -3.497      1.586      3.300
REMARK INTER + INTRA:          -9.778
REMARK INTER:                  -7.092
REMARK INTRA:                  -2.686
REMARK UNBOUND:                -3.216
REMARK SMILES CCCCCCCCC=CCCCCCCCC(=O)[O-]
REMARK SMILES IDX 10 1 9 2 11 3 12 4 13 5 14 6 15 7 16 8 17 9 18 10 19 11
REMARK SMILES IDX 20 12 8 13 7 14 6 15 5 16 4 17 3 18 2 19 1 20
REMARK H PARENT
REMARK Flexibility Score: inf
ROOT
ATOM      1  C   UNL     1       3.761   0.411   6.088  1.00  0.00    -0.031 C 
ATOM      2  C   UNL     1       4.079   0.126   7.365  1.00  0.00    -0.031 C 
ENDROOT
BRANCH   1   3
ATOM      3  C   UNL     1       2.697  -0.288   5.278  1.00  0.00     0.027 C 
BRANCH   3   4
ATOM      4  C   UNL     1       3.305  -1.078   4.112  1.00  0.00     0.004 C 
BRANCH   4   5
ATOM      5  C   UNL     1       4.828  -0.909   4.069  1.00  0.00     0.000 C 
BRANCH   5   6
ATOM      6  C   UNL     1       5.494  -2.103   3.375  1.00  0.00     0.000 C 
BRANCH   6   7
ATOM      7  C   UNL     1       4.465  -3.190   3.042  1.00  0.00     0.000 C 
BRANCH   7   8
ATOM      8  C   UNL     1       5.148  -4.547   2.832  1.00  0.00     0.006 C 
BRANCH   8   9
ATOM      9  C   UNL     1       4.127  -5.620   2.440  1.00  0.00     0.053 C 
BRANCH   9  10
ATOM     10  C   UNL     1       4.211  -5.913   0.976  1.00  0.00     0.041 C 
ATOM     11  O   UNL     1       5.300  -6.285   0.465  1.00  0.00    -0.550 OA
ATOM     12  O   UNL     1       3.098  -5.730   0.165  1.00  0.00    -0.550 OA
ENDBRANCH   9  10
ENDBRANCH   8   9
ENDBRANCH   7   8
ENDBRANCH   6   7
ENDBRANCH   5   6
ENDBRANCH   4   5
ENDBRANCH   3   4
ENDBRANCH   1   3
BRANCH   2  13
ATOM     13  C   UNL     1       3.405  -0.919   8.224  1.00  0.00     0.027 C 
BRANCH  13  14
ATOM     14  C   UNL     1       4.314  -2.136   8.453  1.00  0.00     0.004 C 
BRANCH  14  15
ATOM     15  C   UNL     1       4.958  -2.641   7.153  1.00  0.00     0.000 C 
BRANCH  15  16
ATOM     16  C   UNL     1       4.462  -4.052   6.807  1.00  0.00     0.000 C 
BRANCH  16  17
ATOM     17  C   UNL     1       2.996  -4.075   6.336  1.00  0.00    -0.000 C 
BRANCH  17  18
ATOM     18  C   UNL     1       2.053  -4.946   7.185  1.00  0.00    -0.000 C 
BRANCH  18  19
ATOM     19  C   UNL     1       0.798  -4.193   7.648  1.00  0.00    -0.003 C 
ATOM     20  C   UNL     1       0.681  -2.838   6.955  1.00  0.00     0.004 C 
ENDBRANCH  18  19
ENDBRANCH  17  18
ENDBRANCH  16  17
ENDBRANCH  15  16
ENDBRANCH  14  15
ENDBRANCH  13  14
ENDBRANCH   2  13
TORSDOF 15
ENDMDL
MODEL 5
REMARK VINA RESULT:    -3.441      1.252      1.954
REMARK INTER + INTRA:          -9.673
REMARK INTER:                  -7.107
REMARK INTRA:                  -2.567
REMARK UNBOUND:                -3.216
REMARK SMILES CCCCCCCCC=CCCCCCCCC(=O)[O-]
REMARK SMILES IDX 10 1 9 2 11 3 12 4 13 5 14 6 15 7 16 8 17 9 18 10 19 11
REMARK SMILES IDX 20 12 8 13 7 14 6 15 5 16 4 17 3 18 2 19 1 20
REMARK H PARENT
REMARK Flexibility Score: inf
ROOT
ATOM      1  C   UNL     1       5.493  -1.104   2.649  1.00  0.00    -0.031 C 
ATOM      2  C   UNL     1       4.275  -1.583   2.969  1.00  0.00    -0.031 C 
ENDROOT
BRANCH   1   3
ATOM      3  C   UNL     1       6.541  -0.656   3.638  1.00  0.00     0.027 C 
BRANCH   3   4
ATOM      4  C   UNL     1       7.915  -1.255   3.314  1.00  0.00     0.004 C 
BRANCH   4   5
ATOM      5  C   UNL     1       7.842  -2.784   3.235  1.00  0.00     0.000 C 
BRANCH   5   6
ATOM      6  C   UNL     1       7.217  -3.371   4.506  1.00  0.00     0.000 C 
BRANCH   6   7
ATOM      7  C   UNL     1       6.311  -4.563   4.174  1.00  0.00     0.000 C 
BRANCH   7   8
ATOM      8  C   UNL     1       6.175  -4.745   2.657  1.00  0.00     0.006 C 
BRANCH   8   9
ATOM      9  C   UNL     1       5.417  -6.033   2.325  1.00  0.00     0.053 C 
BRANCH   9  10
ATOM     10  C   UNL     1       3.941  -5.820   2.449  1.00  0.00     0.041 C 
ATOM     11  O   UNL     1       3.298  -6.364   3.385  1.00  0.00    -0.550 OA
ATOM     12  O   UNL     1       3.267  -5.058   1.503  1.00  0.00    -0.550 OA
ENDBRANCH   9  10
ENDBRANCH   8   9
ENDBRANCH   7   8
ENDBRANCH   6   7
ENDBRANCH   5   6
ENDBRANCH   4   5
ENDBRANCH   3   4
ENDBRANCH   1   3
BRANCH   2  13
ATOM     13  C   UNL     1       3.757  -1.790   4.374  1.00  0.00     0.027 C 
BRANCH  13  14
ATOM     14  C   UNL     1       2.952  -0.577   4.864  1.00  0.00     0.004 C 
BRANCH  14  15
ATOM     15  C   UNL     1       3.666   0.185   5.990  1.00  0.00     0.000 C 
BRANCH  15  16
ATOM     16  C   UNL     1       3.417  -0.485   7.349  1.00  0.00     0.000 C 
BRANCH  16  17
ATOM     17  C   UNL     1       4.718  -0.837   8.093  1.00  0.00    -0.000 C 
BRANCH  17  18
ATOM     18  C   UNL     1       5.949  -1.039   7.191  1.00  0.00    -0.000 C 
BRANCH  18  19
ATOM     19  C   UNL     1       7.104  -1.756   7.904  1.00  0.00    -0.003 C 
ATOM     20  C   UNL     1       8.451  -1.361   7.306  1.00  0.00     0.004 C 
ENDBRANCH  18  19
ENDBRANCH  17  18
ENDBRANCH  16  17
ENDBRANCH  15  16
ENDBRANCH  14  15
ENDBRANCH  13  14
ENDBRANCH   2  13
TORSDOF 15
ENDMDL
MODEL 6
REMARK VINA RESULT:    -3.427      2.382      5.510
REMARK INTER + INTRA:          -9.648
REMARK INTER:                  -7.203
REMARK INTRA:                  -2.445
REMARK UNBOUND:                -3.216
REMARK SMILES CCCCCCCCC=CCCCCCCCC(=O)[O-]
REMARK SMILES IDX 10 1 9 2 11 3 12 4 13 5 14 6 15 7 16 8 17 9 18 10 19 11
REMARK SMILES IDX 20 12 8 13 7 14 6 15 5 16 4 17 3 18 2 19 1 20
REMARK H PARENT
REMARK Flexibility Score: inf
ROOT
ATOM      1  C   UNL     1       4.325  -1.586   3.033  1.00  0.00    -0.031 C 
ATOM      2  C   UNL     1       5.567  -1.156   2.738  1.00  0.00    -0.031 C 
ENDROOT
BRANCH   1   3
ATOM      3  C   UNL     1       3.759  -1.723   4.425  1.00  0.00     0.027 C 
BRANCH   3   4
ATOM      4  C   UNL     1       2.895  -0.513   4.804  1.00  0.00     0.004 C 
BRANCH   4   5
ATOM      5  C   UNL     1       3.618   0.380   5.819  1.00  0.00     0.000 C 
BRANCH   5   6
ATOM      6  C   UNL     1       4.451  -0.460   6.795  1.00  0.00     0.000 C 
BRANCH   6   7
ATOM      7  C   UNL     1       3.903  -0.348   8.223  1.00  0.00     0.000 C 
BRANCH   7   8
ATOM      8  C   UNL     1       3.241  -1.659   8.663  1.00  0.00     0.006 C 
BRANCH   8   9
ATOM      9  C   UNL     1       1.758  -1.445   8.983  1.00  0.00     0.053 C 
BRANCH   9  10
ATOM     10  C   UNL     1       0.910  -2.384   8.185  1.00  0.00     0.041 C 
ATOM     11  O   UNL     1       0.121  -3.175   8.765  1.00  0.00    -0.550 OA
ATOM     12  O   UNL     1       1.025  -2.418   6.801  1.00  0.00    -0.550 OA
ENDBRANCH   9  10
ENDBRANCH   8   9
ENDBRANCH   7   8
ENDBRANCH   6   7
ENDBRANCH   5   6
ENDBRANCH   4   5
ENDBRANCH   3   4
ENDBRANCH   1   3
BRANCH   2  13
ATOM     13  C   UNL     1       6.599  -0.700   3.744  1.00  0.00     0.027 C 
BRANCH  13  14
ATOM     14  C   UNL     1       7.577  -1.829   4.101  1.00  0.00     0.004 C 
BRANCH  14  15
ATOM     15  C   UNL     1       7.956  -2.686   2.884  1.00  0.00     0.000 C 
BRANCH  15  16
ATOM     16  C   UNL     1       7.839  -4.182   3.207  1.00  0.00     0.000 C 
BRANCH  16  17
ATOM     17  C   UNL     1       6.503  -4.793   2.746  1.00  0.00    -0.000 C 
BRANCH  17  18
ATOM     18  C   UNL     1       5.449  -4.967   3.854  1.00  0.00    -0.000 C 
BRANCH  18  19
ATOM     19  C   UNL     1       4.120  -5.531   3.334  1.00  0.00    -0.003 C 
ATOM     20  C   UNL     1       3.848  -5.069   1.905  1.00  0.00     0.004 C 
ENDBRANCH  18  19
ENDBRANCH  17  18
ENDBRANCH  16  17
ENDBRANCH  15  16
ENDBRANCH  14  15
ENDBRANCH  13  14
ENDBRANCH   2  13
TORSDOF 15
ENDMDL
MODEL 7
REMARK VINA RESULT:    -3.396      2.564      3.760
REMARK INTER + INTRA:          -9.590
REMARK INTER:                  -7.180
REMARK INTRA:                  -2.409
REMARK UNBOUND:                -3.216
REMARK SMILES CCCCCCCCC=CCCCCCCCC(=O)[O-]
REMARK SMILES IDX 10 1 9 2 11 3 12 4 13 5 14 6 15 7 16 8 17 9 18 10 19 11
REMARK SMILES IDX 20 12 8 13 7 14 6 15 5 16 4 17 3 18 2 19 1 20
REMARK H PARENT
REMARK Flexibility Score: inf
ROOT
ATOM      1  C   UNL     1       3.083  -0.820   4.251  1.00  0.00    -0.031 C 
ATOM      2  C   UNL     1       2.962  -0.082   5.371  1.00  0.00    -0.031 C 
ENDROOT
BRANCH   1   3
ATOM      3  C   UNL     1       4.384  -1.312   3.667  1.00  0.00     0.027 C 
BRANCH   3   4
ATOM      4  C   UNL     1       4.228  -2.698   3.029  1.00  0.00     0.004 C 
BRANCH   4   5
ATOM      5  C   UNL     1       4.868  -3.780   3.907  1.00  0.00     0.000 C 
BRANCH   5   6
ATOM      6  C   UNL     1       5.559  -4.846   3.049  1.00  0.00     0.000 C 
BRANCH   6   7
ATOM      7  C   UNL     1       6.995  -4.430   2.706  1.00  0.00     0.000 C 
BRANCH   7   8
ATOM      8  C   UNL     1       7.594  -3.557   3.815  1.00  0.00     0.006 C 
BRANCH   8   9
ATOM      9  C   UNL     1       8.322  -2.344   3.227  1.00  0.00     0.053 C 
BRANCH   9  10
ATOM     10  C   UNL     1       7.929  -1.096   3.950  1.00  0.00     0.041 C 
ATOM     11  O   UNL     1       7.936   0.013   3.354  1.00  0.00    -0.550 OA
ATOM     12  O   UNL     1       7.599  -1.149   5.299  1.00  0.00    -0.550 OA
ENDBRANCH   9  10
ENDBRANCH   8   9
ENDBRANCH   7   8
ENDBRANCH   6   7
ENDBRANCH   5   6
ENDBRANCH   4   5
ENDBRANCH   3   4
ENDBRANCH   1   3
BRANCH   2  13
ATOM     13  C   UNL     1       4.105   0.353   6.260  1.00  0.00     0.027 C 
BRANCH  13  14
ATOM     14  C   UNL     1       3.605   1.154   7.472  1.00  0.00     0.004 C 
BRANCH  14  15
ATOM     15  C   UNL     1       3.506   0.297   8.743  1.00  0.00     0.000 C 
BRANCH  15  16
ATOM     16  C   UNL     1       4.460  -0.904   8.670  1.00  0.00     0.000 C 
BRANCH  16  17
ATOM     17  C   UNL     1       3.728  -2.257   8.711  1.00  0.00    -0.000 C 
BRANCH  17  18
ATOM     18  C   UNL     1       3.837  -3.097   7.426  1.00  0.00    -0.000 C 
BRANCH  18  19
ATOM     19  C   UNL     1       2.471  -3.516   6.866  1.00  0.00    -0.003 C 
ATOM     20  C   UNL     1       1.370  -2.568   7.333  1.00  0.00     0.004 C 
ENDBRANCH  18  19
ENDBRANCH  17  18
ENDBRANCH  16  17
ENDBRANCH  15  16
ENDBRANCH  14  15
ENDBRANCH  13  14
ENDBRANCH   2  13
TORSDOF 15
ENDMDL
MODEL 8
REMARK VINA RESULT:    -3.389      3.318      5.927
REMARK INTER + INTRA:          -9.577
REMARK INTER:                  -7.723
REMARK INTRA:                  -1.854
REMARK UNBOUND:                -3.216
REMARK SMILES CCCCCCCCC=CCCCCCCCC(=O)[O-]
REMARK SMILES IDX 10 1 9 2 11 3 12 4 13 5 14 6 15 7 16 8 17 9 18 10 19 11
REMARK SMILES IDX 20 12 8 13 7 14 6 15 5 16 4 17 3 18 2 19 1 20
REMARK H PARENT
REMARK Flexibility Score: inf
ROOT
ATOM      1  C   UNL     1       3.734   0.764   8.759  1.00  0.00    -0.031 C 
ATOM      2  C   UNL     1       3.605   1.072   7.454  1.00  0.00    -0.031 C 
ENDROOT
BRANCH   1   3
ATOM      3  C   UNL     1       4.463  -0.442   9.300  1.00  0.00     0.027 C 
BRANCH   3   4
ATOM      4  C   UNL     1       3.528  -1.651   9.439  1.00  0.00     0.004 C 
BRANCH   4   5
ATOM      5  C   UNL     1       3.642  -2.574   8.220  1.00  0.00     0.000 C 
BRANCH   5   6
ATOM      6  C   UNL     1       2.781  -3.830   8.399  1.00  0.00     0.000 C 
BRANCH   6   7
ATOM      7  C   UNL     1       1.803  -3.999   7.230  1.00  0.00     0.000 C 
BRANCH   7   8
ATOM      8  C   UNL     1       0.929  -2.750   7.059  1.00  0.00     0.006 C 
BRANCH   8   9
ATOM      9  C   UNL     1      -0.556  -3.097   7.197  1.00  0.00     0.053 C 
BRANCH   9  10
ATOM     10  C   UNL     1      -1.052  -2.741   8.563  1.00  0.00     0.041 C 
ATOM     11  O   UNL     1      -0.309  -2.117   9.365  1.00  0.00    -0.550 OA
ATOM     12  O   UNL     1      -2.319  -3.140   8.968  1.00  0.00    -0.550 OA
ENDBRANCH   9  10
ENDBRANCH   8   9
ENDBRANCH   7   8
ENDBRANCH   6   7
ENDBRANCH   5   6
ENDBRANCH   4   5
ENDBRANCH   3   4
ENDBRANCH   1   3
BRANCH   2  13
ATOM     13  C   UNL     1       4.195   0.287   6.305  1.00  0.00     0.027 C 
BRANCH  13  14
ATOM     14  C   UNL     1       3.124  -0.095   5.272  1.00  0.00     0.004 C 
BRANCH  14  15
ATOM     15  C   UNL     1       3.345  -1.498   4.688  1.00  0.00     0.000 C 
BRANCH  15  16
ATOM     16  C   UNL     1       4.097  -1.424   3.352  1.00  0.00     0.000 C 
BRANCH  16  17
ATOM     17  C   UNL     1       4.853  -2.722   3.015  1.00  0.00    -0.000 C 
BRANCH  17  18
ATOM     18  C   UNL     1       4.513  -3.925   3.913  1.00  0.00    -0.000 C 
BRANCH  18  19
ATOM     19  C   UNL     1       4.413  -5.244   3.134  1.00  0.00    -0.003 C 
ATOM     20  C   UNL     1       3.736  -5.035   1.782  1.00  0.00     0.004 C 
ENDBRANCH  18  19
ENDBRANCH  17  18
ENDBRANCH  16  17
ENDBRANCH  15  16
ENDBRANCH  14  15
ENDBRANCH  13  14
ENDBRANCH   2  13
TORSDOF 15
ENDMDL
MODEL 9
REMARK VINA RESULT:    -3.367      1.345      3.128
REMARK INTER + INTRA:          -9.536
REMARK INTER:                  -6.572
REMARK INTRA:                  -2.964
REMARK UNBOUND:                -3.216
REMARK SMILES CCCCCCCCC=CCCCCCCCC(=O)[O-]
REMARK SMILES IDX 10 1 9 2 11 3 12 4 13 5 14 6 15 7 16 8 17 9 18 10 19 11
REMARK SMILES IDX 20 12 8 13 7 14 6 15 5 16 4 17 3 18 2 19 1 20
REMARK H PARENT
REMARK Flexibility Score: inf
ROOT
ATOM      1  C   UNL     1       8.151  -2.181   3.111  1.00  0.00    -0.031 C 
ATOM      2  C   UNL     1       8.263  -3.273   3.891  1.00  0.00    -0.031 C 
ENDROOT
BRANCH   1   3
ATOM      3  C   UNL     1       7.763  -0.804   3.589  1.00  0.00     0.027 C 
BRANCH   3   4
ATOM      4  C   UNL     1       6.348  -0.426   3.132  1.00  0.00     0.004 C 
BRANCH   4   5
ATOM      5  C   UNL     1       5.325  -0.687   4.243  1.00  0.00     0.000 C 
BRANCH   5   6
ATOM      6  C   UNL     1       4.107  -1.446   3.702  1.00  0.00     0.000 C 
BRANCH   6   7
ATOM      7  C   UNL     1       4.534  -2.538   2.714  1.00  0.00     0.000 C 
BRANCH   7   8
ATOM      8  C   UNL     1       4.209  -3.933   3.262  1.00  0.00     0.006 C 
BRANCH   8   9
ATOM      9  C   UNL     1       4.873  -5.024   2.416  1.00  0.00     0.053 C 
BRANCH   9  10
ATOM     10  C   UNL     1       3.843  -5.786   1.644  1.00  0.00     0.041 C 
ATOM     11  O   UNL     1       3.000  -5.176   0.935  1.00  0.00    -0.550 OA
ATOM     12  O   UNL     1       3.782  -7.170   1.745  1.00  0.00    -0.550 OA
ENDBRANCH   9  10
ENDBRANCH   8   9
ENDBRANCH   7   8
ENDBRANCH   6   7
ENDBRANCH   5   6
ENDBRANCH   4   5
ENDBRANCH   3   4
ENDBRANCH   1   3
BRANCH   2  13
ATOM     13  C   UNL     1       8.055  -3.304   5.388  1.00  0.00     0.027 C 
BRANCH  13  14
ATOM     14  C   UNL     1       6.818  -4.131   5.770  1.00  0.00     0.004 C 
BRANCH  14  15
ATOM     15  C   UNL     1       5.885  -3.383   6.734  1.00  0.00     0.000 C 
BRANCH  15  16
ATOM     16  C   UNL     1       6.496  -2.039   7.157  1.00  0.00     0.000 C 
BRANCH  16  17
ATOM     17  C   UNL     1       5.552  -1.201   8.038  1.00  0.00    -0.000 C 
BRANCH  17  18
ATOM     18  C   UNL     1       4.063  -1.575   7.936  1.00  0.00    -0.000 C 
BRANCH  18  19
ATOM     19  C   UNL     1       3.214  -0.482   7.273  1.00  0.00    -0.003 C 
ATOM     20  C   UNL     1       3.718   0.910   7.648  1.00  0.00     0.004 C 
ENDBRANCH  18  19
ENDBRANCH  17  18
ENDBRANCH  16  17
ENDBRANCH  15  16
ENDBRANCH  14  15
ENDBRANCH  13  14
ENDBRANCH   2  13
TORSDOF 15
ENDMDL
