MODEL 1
REMARK VINA RESULT:    -6.411      0.000      0.000
REMARK INTER + INTRA:         -16.020
REMARK INTER:                 -13.906
REMARK INTRA:                  -2.114
REMARK UNBOUND:                -2.114
REMARK SMILES CCCCCCCCCCCCCCCCCCCCCC(=O)[O-]
REMARK SMILES IDX 12 1 11 2 10 3 9 4 8 5 7 6 6 7 5 8 4 9 3 10 2 11 1 12 13 13
REMARK SMILES IDX 14 14 15 15 16 16 17 17 18 18 19 19 20 20 21 21 22 22 23 23
REMARK SMILES IDX 24 24
REMARK H PARENT
REMARK Flexibility Score: inf
ROOT
ATOM      1  C   UNL     1       2.306   4.591  17.304  1.00  0.00     0.000 C 
ENDROOT
BRANCH   1   2
ATOM      2  C   UNL     1       2.759   4.435  18.766  1.00  0.00     0.000 C 
BRANCH   2   3
ATOM      3  C   UNL     1       2.464   5.681  19.622  1.00  0.00     0.000 C 
BRANCH   3   4
ATOM      4  C   UNL     1       2.007   6.924  18.835  1.00  0.00    -0.000 C 
BRANCH   4   5
ATOM      5  C   UNL     1       2.146   8.262  19.587  1.00  0.00    -0.000 C 
BRANCH   5   6
ATOM      6  C   UNL     1       2.869   9.359  18.776  1.00  0.00    -0.000 C 
BRANCH   6   7
ATOM      7  C   UNL     1       2.926   9.034  17.273  1.00  0.00    -0.000 C 
BRANCH   7   8
ATOM      8  C   UNL     1       4.363   8.853  16.760  1.00  0.00    -0.000 C 
BRANCH   8   9
ATOM      9  C   UNL     1       4.517   7.615  15.860  1.00  0.00    -0.000 C 
BRANCH   9  10
ATOM     10  C   UNL     1       5.901   7.537  15.196  1.00  0.00    -0.000 C 
BRANCH  10  11
ATOM     11  C   UNL     1       5.838   7.710  13.671  1.00  0.00    -0.003 C 
ATOM     12  C   UNL     1       5.352   9.108  13.295  1.00  0.00     0.004 C 
ENDBRANCH  10  11
ENDBRANCH   9  10
ENDBRANCH   8   9
ENDBRANCH   7   8
ENDBRANCH   6   7
ENDBRANCH   5   6
ENDBRANCH   4   5
ENDBRANCH   3   4
ENDBRANCH   2   3
ENDBRANCH   1   2
BRANCH   1  13
ATOM     13  C   UNL     1       3.407   4.218  16.292  1.00  0.00     0.000 C 
BRANCH  13  14
ATOM     14  C   UNL     1       2.905   3.688  14.936  1.00  0.00     0.000 C 
BRANCH  14  15
ATOM     15  C   UNL     1       3.714   4.230  13.744  1.00  0.00     0.000 C 
BRANCH  15  16
ATOM     16  C   UNL     1       4.676   3.184  13.156  1.00  0.00     0.000 C 
BRANCH  16  17
ATOM     17  C   UNL     1       4.670   1.861  13.939  1.00  0.00     0.000 C 
BRANCH  17  18
ATOM     18  C   UNL     1       4.058   0.732  13.100  1.00  0.00     0.000 C 
BRANCH  18  19
ATOM     19  C   UNL     1       3.977  -0.571  13.905  1.00  0.00     0.000 C 
BRANCH  19  20
ATOM     20  C   UNL     1       3.678  -0.288  15.384  1.00  0.00     0.006 C 
BRANCH  20  21
ATOM     21  C   UNL     1       4.640  -1.024  16.325  1.00  0.00     0.053 C 
BRANCH  21  22
ATOM     22  C   UNL     1       5.051  -0.168  17.483  1.00  0.00     0.041 C 
ATOM     23  O   UNL     1       5.735  -0.656  18.421  1.00  0.00    -0.550 OA
ATOM     24  O   UNL     1       4.710   1.178  17.509  1.00  0.00    -0.550 OA
ENDBRANCH  21  22
ENDBRANCH  20  21
ENDBRANCH  19  20
ENDBRANCH  18  19
ENDBRANCH  17  18
ENDBRANCH  16  17
ENDBRANCH  15  16
ENDBRANCH  14  15
ENDBRANCH  13  14
ENDBRANCH   1  13
TORSDOF 20
ENDMDL
MODEL 2
REMARK VINA RESULT:    -6.337      2.612      7.981
REMARK INTER + INTRA:         -15.860
REMARK INTER:                 -13.434
REMARK INTRA:                  -2.426
REMARK UNBOUND:                -2.114
REMARK SMILES CCCCCCCCCCCCCCCCCCCCCC(=O)[O-]
REMARK SMILES IDX 12 1 11 2 10 3 9 4 8 5 7 6 6 7 5 8 4 9 3 10 2 11 1 12 13 13
REMARK SMILES IDX 14 14 15 15 16 16 17 17 18 18 19 19 20 20 21 21 22 22 23 23
REMARK SMILES IDX 24 24
REMARK H PARENT
REMARK Flexibility Score: inf
ROOT
ATOM      1  C   UNL     1       2.409   4.383  17.214  1.00  0.00     0.000 C 
ENDROOT
BRANCH   1   2
ATOM      2  C   UNL     1       3.538   4.255  16.177  1.00  0.00     0.000 C 
BRANCH   2   3
ATOM      3  C   UNL     1       3.025   3.868  14.776  1.00  0.00     0.000 C 
BRANCH   3   4
ATOM      4  C   UNL     1       3.911   4.328  13.603  1.00  0.00    -0.000 C 
BRANCH   4   5
ATOM      5  C   UNL     1       4.723   3.211  12.919  1.00  0.00    -0.000 C 
BRANCH   5   6
ATOM      6  C   UNL     1       4.438   1.802  13.482  1.00  0.00    -0.000 C 
BRANCH   6   7
ATOM      7  C   UNL     1       5.624   1.243  14.288  1.00  0.00    -0.000 C 
BRANCH   7   8
ATOM      8  C   UNL     1       5.180   0.312  15.428  1.00  0.00    -0.000 C 
BRANCH   8   9
ATOM      9  C   UNL     1       3.652   0.278  15.601  1.00  0.00    -0.000 C 
BRANCH   9  10
ATOM     10  C   UNL     1       3.054  -1.104  15.292  1.00  0.00    -0.000 C 
BRANCH  10  11
ATOM     11  C   UNL     1       1.609  -1.024  14.776  1.00  0.00    -0.003 C 
ATOM     12  C   UNL     1       1.042   0.383  14.948  1.00  0.00     0.004 C 
ENDBRANCH  10  11
ENDBRANCH   9  10
ENDBRANCH   8   9
ENDBRANCH   7   8
ENDBRANCH   6   7
ENDBRANCH   5   6
ENDBRANCH   4   5
ENDBRANCH   3   4
ENDBRANCH   2   3
ENDBRANCH   1   2
BRANCH   1  13
ATOM     13  C   UNL     1       2.925   4.376  18.666  1.00  0.00     0.000 C 
BRANCH  13  14
ATOM     14  C   UNL     1       2.418   5.530  19.552  1.00  0.00     0.000 C 
BRANCH  14  15
ATOM     15  C   UNL     1       2.048   6.787  18.746  1.00  0.00     0.000 C 
BRANCH  15  16
ATOM     16  C   UNL     1       2.027   8.059  19.609  1.00  0.00     0.000 C 
BRANCH  16  17
ATOM     17  C   UNL     1       2.790   9.228  18.966  1.00  0.00     0.000 C 
BRANCH  17  18
ATOM     18  C   UNL     1       2.896   9.043  17.447  1.00  0.00     0.000 C 
BRANCH  18  19
ATOM     19  C   UNL     1       4.344   8.763  17.025  1.00  0.00     0.000 C 
BRANCH  19  20
ATOM     20  C   UNL     1       4.391   7.869  15.778  1.00  0.00     0.006 C 
BRANCH  20  21
ATOM     21  C   UNL     1       5.813   7.719  15.222  1.00  0.00     0.053 C 
BRANCH  21  22
ATOM     22  C   UNL     1       5.872   8.019  13.756  1.00  0.00     0.041 C 
ATOM     23  O   UNL     1       6.156   7.108  12.934  1.00  0.00    -0.550 OA
ATOM     24  O   UNL     1       5.577   9.295  13.294  1.00  0.00    -0.550 OA
ENDBRANCH  21  22
ENDBRANCH  20  21
ENDBRANCH  19  20
ENDBRANCH  18  19
ENDBRANCH  17  18
ENDBRANCH  16  17
ENDBRANCH  15  16
ENDBRANCH  14  15
ENDBRANCH  13  14
ENDBRANCH   1  13
TORSDOF 20
ENDMDL
MODEL 3
REMARK VINA RESULT:    -6.286      1.245      5.270
REMARK INTER + INTRA:         -15.750
REMARK INTER:                 -13.700
REMARK INTRA:                  -2.050
REMARK UNBOUND:                -2.114
REMARK SMILES CCCCCCCCCCCCCCCCCCCCCC(=O)[O-]
REMARK SMILES IDX 12 1 11 2 10 3 9 4 8 5 7 6 6 7 5 8 4 9 3 10 2 11 1 12 13 13
REMARK SMILES IDX 14 14 15 15 16 16 17 17 18 18 19 19 20 20 21 21 22 22 23 23
REMARK SMILES IDX 24 24
REMARK H PARENT
REMARK Flexibility Score: inf
ROOT
ATOM      1  C   UNL     1       2.337   9.275  18.175  1.00  0.00     0.000 C 
ENDROOT
BRANCH   1   2
ATOM      2  C   UNL     1       3.793   9.020  17.746  1.00  0.00     0.000 C 
BRANCH   2   3
ATOM      3  C   UNL     1       3.946   8.840  16.224  1.00  0.00     0.000 C 
BRANCH   3   4
ATOM      4  C   UNL     1       4.754   7.602  15.788  1.00  0.00    -0.000 C 
BRANCH   4   5
ATOM      5  C   UNL     1       5.448   7.724  14.418  1.00  0.00    -0.000 C 
BRANCH   5   6
ATOM      6  C   UNL     1       5.312   6.463  13.538  1.00  0.00    -0.000 C 
BRANCH   6   7
ATOM      7  C   UNL     1       4.529   5.340  14.241  1.00  0.00    -0.000 C 
BRANCH   7   8
ATOM      8  C   UNL     1       3.911   4.339  13.251  1.00  0.00    -0.000 C 
BRANCH   8   9
ATOM      9  C   UNL     1       4.882   3.206  12.875  1.00  0.00    -0.000 C 
BRANCH   9  10
ATOM     10  C   UNL     1       4.791   2.009  13.836  1.00  0.00    -0.000 C 
BRANCH  10  11
ATOM     11  C   UNL     1       3.867   0.899  13.314  1.00  0.00    -0.003 C 
ATOM     12  C   UNL     1       2.977   0.355  14.430  1.00  0.00     0.004 C 
ENDBRANCH  10  11
ENDBRANCH   9  10
ENDBRANCH   8   9
ENDBRANCH   7   8
ENDBRANCH   6   7
ENDBRANCH   5   6
ENDBRANCH   4   5
ENDBRANCH   3   4
ENDBRANCH   2   3
ENDBRANCH   1   2
BRANCH   1  13
ATOM     13  C   UNL     1       1.911   8.421  19.385  1.00  0.00     0.000 C 
BRANCH  13  14
ATOM     14  C   UNL     1       2.473   6.987  19.413  1.00  0.00     0.000 C 
BRANCH  14  15
ATOM     15  C   UNL     1       1.849   6.077  18.341  1.00  0.00     0.000 C 
BRANCH  15  16
ATOM     16  C   UNL     1       2.642   4.777  18.131  1.00  0.00     0.000 C 
BRANCH  16  17
ATOM     17  C   UNL     1       2.880   4.006  19.439  1.00  0.00     0.000 C 
BRANCH  17  18
ATOM     18  C   UNL     1       3.418   2.598  19.154  1.00  0.00     0.000 C 
BRANCH  18  19
ATOM     19  C   UNL     1       3.634   2.385  17.650  1.00  0.00     0.000 C 
BRANCH  19  20
ATOM     20  C   UNL     1       4.734   1.345  17.394  1.00  0.00     0.006 C 
BRANCH  20  21
ATOM     21  C   UNL     1       4.710   0.206  18.421  1.00  0.00     0.053 C 
BRANCH  21  22
ATOM     22  C   UNL     1       5.444  -1.004  17.928  1.00  0.00     0.041 C 
ATOM     23  O   UNL     1       6.174  -1.665  18.713  1.00  0.00    -0.550 OA
ATOM     24  O   UNL     1       5.292  -1.422  16.613  1.00  0.00    -0.550 OA
ENDBRANCH  21  22
ENDBRANCH  20  21
ENDBRANCH  19  20
ENDBRANCH  18  19
ENDBRANCH  17  18
ENDBRANCH  16  17
ENDBRANCH  15  16
ENDBRANCH  14  15
ENDBRANCH  13  14
ENDBRANCH   1  13
TORSDOF 20
ENDMDL
MODEL 4
REMARK VINA RESULT:    -6.248      2.851      7.000
REMARK INTER + INTRA:         -15.668
REMARK INTER:                 -13.712
REMARK INTRA:                  -1.955
REMARK UNBOUND:                -2.114
REMARK SMILES CCCCCCCCCCCCCCCCCCCCCC(=O)[O-]
REMARK SMILES IDX 12 1 11 2 10 3 9 4 8 5 7 6 6 7 5 8 4 9 3 10 2 11 1 12 13 13
REMARK SMILES IDX 14 14 15 15 16 16 17 17 18 18 19 19 20 20 21 21 22 22 23 23
REMARK SMILES IDX 24 24
REMARK H PARENT
REMARK Flexibility Score: inf
ROOT
ATOM      1  C   UNL     1       5.512  -1.206  17.735  1.00  0.00     0.000 C 
ENDROOT
BRANCH   1   2
ATOM      2  C   UNL     1       5.026  -1.677  16.353  1.00  0.00     0.000 C 
BRANCH   2   3
ATOM      3  C   UNL     1       5.035  -0.552  15.300  1.00  0.00     0.000 C 
BRANCH   3   4
ATOM      4  C   UNL     1       3.681  -0.283  14.616  1.00  0.00    -0.000 C 
BRANCH   4   5
ATOM      5  C   UNL     1       3.302   1.203  14.478  1.00  0.00    -0.000 C 
BRANCH   5   6
ATOM      6  C   UNL     1       4.376   2.055  13.766  1.00  0.00    -0.000 C 
BRANCH   6   7
ATOM      7  C   UNL     1       4.284   3.545  14.142  1.00  0.00    -0.000 C 
BRANCH   7   8
ATOM      8  C   UNL     1       4.180   4.461  12.912  1.00  0.00    -0.000 C 
BRANCH   8   9
ATOM      9  C   UNL     1       4.916   5.798  13.109  1.00  0.00    -0.000 C 
BRANCH   9  10
ATOM     10  C   UNL     1       4.971   6.230  14.583  1.00  0.00    -0.000 C 
BRANCH  10  11
ATOM     11  C   UNL     1       6.009   7.333  14.840  1.00  0.00    -0.003 C 
ATOM     12  C   UNL     1       6.197   8.210  13.604  1.00  0.00     0.004 C 
ENDBRANCH  10  11
ENDBRANCH   9  10
ENDBRANCH   8   9
ENDBRANCH   7   8
ENDBRANCH   6   7
ENDBRANCH   5   6
ENDBRANCH   4   5
ENDBRANCH   3   4
ENDBRANCH   2   3
ENDBRANCH   1   2
BRANCH   1  13
ATOM     13  C   UNL     1       5.223   0.285  17.997  1.00  0.00     0.000 C 
BRANCH  13  14
ATOM     14  C   UNL     1       4.391   0.586  19.257  1.00  0.00     0.000 C 
BRANCH  14  15
ATOM     15  C   UNL     1       3.741   1.980  19.228  1.00  0.00     0.000 C 
BRANCH  15  16
ATOM     16  C   UNL     1       3.593   2.535  17.802  1.00  0.00     0.000 C 
BRANCH  16  17
ATOM     17  C   UNL     1       2.974   3.941  17.770  1.00  0.00     0.000 C 
BRANCH  17  18
ATOM     18  C   UNL     1       2.103   4.184  19.009  1.00  0.00     0.000 C 
BRANCH  18  19
ATOM     19  C   UNL     1       2.401   5.553  19.633  1.00  0.00     0.000 C 
BRANCH  19  20
ATOM     20  C   UNL     1       2.236   6.677  18.601  1.00  0.00     0.006 C 
BRANCH  20  21
ATOM     21  C   UNL     1       2.053   8.050  19.260  1.00  0.00     0.053 C 
BRANCH  21  22
ATOM     22  C   UNL     1       2.831   9.116  18.550  1.00  0.00     0.041 C 
ATOM     23  O   UNL     1       2.992   9.058  17.302  1.00  0.00    -0.550 OA
ATOM     24  O   UNL     1       3.346  10.192  19.261  1.00  0.00    -0.550 OA
ENDBRANCH  21  22
ENDBRANCH  20  21
ENDBRANCH  19  20
ENDBRANCH  18  19
ENDBRANCH  17  18
ENDBRANCH  16  17
ENDBRANCH  15  16
ENDBRANCH  14  15
ENDBRANCH  13  14
ENDBRANCH   1  13
TORSDOF 20
ENDMDL
MODEL 5
REMARK VINA RESULT:    -6.248      1.065      1.985
REMARK INTER + INTRA:         -15.666
REMARK INTER:                 -13.508
REMARK INTRA:                  -2.158
REMARK UNBOUND:                -2.114
REMARK SMILES CCCCCCCCCCCCCCCCCCCCCC(=O)[O-]
REMARK SMILES IDX 12 1 11 2 10 3 9 4 8 5 7 6 6 7 5 8 4 9 3 10 2 11 1 12 13 13
REMARK SMILES IDX 14 14 15 15 16 16 17 17 18 18 19 19 20 20 21 21 22 22 23 23
REMARK SMILES IDX 24 24
REMARK H PARENT
REMARK Flexibility Score: inf
ROOT
ATOM      1  C   UNL     1       3.026   3.922  16.401  1.00  0.00     0.000 C 
ENDROOT
BRANCH   1   2
ATOM      2  C   UNL     1       3.359   2.790  17.388  1.00  0.00     0.000 C 
BRANCH   2   3
ATOM      3  C   UNL     1       3.262   3.231  18.861  1.00  0.00     0.000 C 
BRANCH   3   4
ATOM      4  C   UNL     1       2.049   4.117  19.203  1.00  0.00    -0.000 C 
BRANCH   4   5
ATOM      5  C   UNL     1       2.386   5.576  19.566  1.00  0.00    -0.000 C 
BRANCH   5   6
ATOM      6  C   UNL     1       1.986   6.596  18.478  1.00  0.00    -0.000 C 
BRANCH   6   7
ATOM      7  C   UNL     1       2.313   8.043  18.885  1.00  0.00    -0.000 C 
BRANCH   7   8
ATOM      8  C   UNL     1       3.094   8.802  17.799  1.00  0.00    -0.000 C 
BRANCH   8   9
ATOM      9  C   UNL     1       3.705   7.861  16.746  1.00  0.00    -0.000 C 
BRANCH   9  10
ATOM     10  C   UNL     1       4.579   8.608  15.725  1.00  0.00    -0.000 C 
BRANCH  10  11
ATOM     11  C   UNL     1       5.797   7.787  15.274  1.00  0.00    -0.003 C 
ATOM     12  C   UNL     1       5.684   7.399  13.802  1.00  0.00     0.004 C 
ENDBRANCH  10  11
ENDBRANCH   9  10
ENDBRANCH   8   9
ENDBRANCH   7   8
ENDBRANCH   6   7
ENDBRANCH   5   6
ENDBRANCH   4   5
ENDBRANCH   3   4
ENDBRANCH   2   3
ENDBRANCH   1   2
BRANCH   1  13
ATOM     13  C   UNL     1       2.987   3.448  14.935  1.00  0.00     0.000 C 
BRANCH  13  14
ATOM     14  C   UNL     1       3.708   4.361  13.926  1.00  0.00     0.000 C 
BRANCH  14  15
ATOM     15  C   UNL     1       4.728   3.605  13.056  1.00  0.00     0.000 C 
BRANCH  15  16
ATOM     16  C   UNL     1       4.479   2.088  13.034  1.00  0.00     0.000 C 
BRANCH  16  17
ATOM     17  C   UNL     1       5.709   1.275  13.466  1.00  0.00     0.000 C 
BRANCH  17  18
ATOM     18  C   UNL     1       5.660   0.966  14.968  1.00  0.00     0.000 C 
BRANCH  18  19
ATOM     19  C   UNL     1       5.332  -0.512  15.216  1.00  0.00     0.000 C 
BRANCH  19  20
ATOM     20  C   UNL     1       4.344  -0.668  16.380  1.00  0.00     0.006 C 
BRANCH  20  21
ATOM     21  C   UNL     1       4.851  -1.646  17.448  1.00  0.00     0.053 C 
BRANCH  21  22
ATOM     22  C   UNL     1       5.360  -0.931  18.662  1.00  0.00     0.041 C 
ATOM     23  O   UNL     1       4.755   0.084  19.098  1.00  0.00    -0.550 OA
ATOM     24  O   UNL     1       6.479  -1.407  19.333  1.00  0.00    -0.550 OA
ENDBRANCH  21  22
ENDBRANCH  20  21
ENDBRANCH  19  20
ENDBRANCH  18  19
ENDBRANCH  17  18
ENDBRANCH  16  17
ENDBRANCH  15  16
ENDBRANCH  14  15
ENDBRANCH  13  14
ENDBRANCH   1  13
TORSDOF 20
ENDMDL
MODEL 6
REMARK VINA RESULT:    -6.229      2.921      7.911
REMARK INTER + INTRA:         -15.626
REMARK INTER:                 -12.987
REMARK INTRA:                  -2.639
REMARK UNBOUND:                -2.114
REMARK SMILES CCCCCCCCCCCCCCCCCCCCCC(=O)[O-]
REMARK SMILES IDX 12 1 11 2 10 3 9 4 8 5 7 6 6 7 5 8 4 9 3 10 2 11 1 12 13 13
REMARK SMILES IDX 14 14 15 15 16 16 17 17 18 18 19 19 20 20 21 21 22 22 23 23
REMARK SMILES IDX 24 24
REMARK H PARENT
REMARK Flexibility Score: inf
ROOT
ATOM      1  C   UNL     1       2.512   3.194  17.716  1.00  0.00     0.000 C 
ENDROOT
BRANCH   1   2
ATOM      2  C   UNL     1       3.603   3.148  16.632  1.00  0.00     0.000 C 
BRANCH   2   3
ATOM      3  C   UNL     1       3.113   3.662  15.265  1.00  0.00     0.000 C 
BRANCH   3   4
ATOM      4  C   UNL     1       4.161   3.626  14.136  1.00  0.00    -0.000 C 
BRANCH   4   5
ATOM      5  C   UNL     1       4.220   2.308  13.342  1.00  0.00    -0.000 C 
BRANCH   5   6
ATOM      6  C   UNL     1       5.604   1.622  13.377  1.00  0.00    -0.000 C 
BRANCH   6   7
ATOM      7  C   UNL     1       5.648   0.444  14.365  1.00  0.00    -0.000 C 
BRANCH   7   8
ATOM      8  C   UNL     1       4.253  -0.118  14.681  1.00  0.00    -0.000 C 
BRANCH   8   9
ATOM      9  C   UNL     1       4.084  -0.479  16.167  1.00  0.00    -0.000 C 
BRANCH   9  10
ATOM     10  C   UNL     1       5.203   0.103  17.045  1.00  0.00    -0.000 C 
BRANCH  10  11
ATOM     11  C   UNL     1       4.890   0.006  18.546  1.00  0.00    -0.003 C 
ATOM     12  C   UNL     1       5.975  -0.773  19.286  1.00  0.00     0.004 C 
ENDBRANCH  10  11
ENDBRANCH   9  10
ENDBRANCH   8   9
ENDBRANCH   7   8
ENDBRANCH   6   7
ENDBRANCH   5   6
ENDBRANCH   4   5
ENDBRANCH   3   4
ENDBRANCH   2   3
ENDBRANCH   1   2
BRANCH   1  13
ATOM     13  C   UNL     1       3.082   3.410  19.132  1.00  0.00     0.000 C 
BRANCH  13  14
ATOM     14  C   UNL     1       2.679   4.732  19.812  1.00  0.00     0.000 C 
BRANCH  14  15
ATOM     15  C   UNL     1       1.741   5.590  18.945  1.00  0.00     0.000 C 
BRANCH  15  16
ATOM     16  C   UNL     1       2.305   6.995  18.675  1.00  0.00     0.000 C 
BRANCH  16  17
ATOM     17  C   UNL     1       3.103   7.076  17.363  1.00  0.00     0.000 C 
BRANCH  17  18
ATOM     18  C   UNL     1       3.497   8.525  17.052  1.00  0.00     0.000 C 
BRANCH  18  19
ATOM     19  C   UNL     1       4.558   8.582  15.945  1.00  0.00     0.000 C 
BRANCH  19  20
ATOM     20  C   UNL     1       4.908   7.173  15.444  1.00  0.00     0.006 C 
BRANCH  20  21
ATOM     21  C   UNL     1       5.296   7.162  13.960  1.00  0.00     0.053 C 
BRANCH  21  22
ATOM     22  C   UNL     1       6.073   8.384  13.578  1.00  0.00     0.041 C 
ATOM     23  O   UNL     1       7.315   8.435  13.783  1.00  0.00    -0.550 OA
ATOM     24  O   UNL     1       5.433   9.452  12.962  1.00  0.00    -0.550 OA
ENDBRANCH  21  22
ENDBRANCH  20  21
ENDBRANCH  19  20
ENDBRANCH  18  19
ENDBRANCH  17  18
ENDBRANCH  16  17
ENDBRANCH  15  16
ENDBRANCH  14  15
ENDBRANCH  13  14
ENDBRANCH   1  13
TORSDOF 20
ENDMDL
MODEL 7
REMARK VINA RESULT:    -6.170      1.691      3.641
REMARK INTER + INTRA:         -15.498
REMARK INTER:                 -13.420
REMARK INTRA:                  -2.078
REMARK UNBOUND:                -2.114
REMARK SMILES CCCCCCCCCCCCCCCCCCCCCC(=O)[O-]
REMARK SMILES IDX 12 1 11 2 10 3 9 4 8 5 7 6 6 7 5 8 4 9 3 10 2 11 1 12 13 13
REMARK SMILES IDX 14 14 15 15 16 16 17 17 18 18 19 19 20 20 21 21 22 22 23 23
REMARK SMILES IDX 24 24
REMARK H PARENT
REMARK Flexibility Score: inf
ROOT
ATOM      1  C   UNL     1       2.362   5.391  19.488  1.00  0.00     0.000 C 
ENDROOT
BRANCH   1   2
ATOM      2  C   UNL     1       2.182   6.593  18.545  1.00  0.00     0.000 C 
BRANCH   2   3
ATOM      3  C   UNL     1       2.091   7.936  19.295  1.00  0.00     0.000 C 
BRANCH   3   4
ATOM      4  C   UNL     1       2.400   9.184  18.446  1.00  0.00    -0.000 C 
BRANCH   4   5
ATOM      5  C   UNL     1       3.805   9.214  17.816  1.00  0.00    -0.000 C 
BRANCH   5   6
ATOM      6  C   UNL     1       3.813   8.923  16.300  1.00  0.00    -0.000 C 
BRANCH   6   7
ATOM      7  C   UNL     1       4.838   7.839  15.918  1.00  0.00    -0.000 C 
BRANCH   7   8
ATOM      8  C   UNL     1       5.210   7.875  14.427  1.00  0.00    -0.000 C 
BRANCH   8   9
ATOM      9  C   UNL     1       5.630   6.495  13.891  1.00  0.00    -0.000 C 
BRANCH   9  10
ATOM     10  C   UNL     1       4.537   5.839  13.032  1.00  0.00    -0.000 C 
BRANCH  10  11
ATOM     11  C   UNL     1       4.202   4.411  13.488  1.00  0.00    -0.003 C 
ATOM     12  C   UNL     1       3.855   4.375  14.974  1.00  0.00     0.004 C 
ENDBRANCH  10  11
ENDBRANCH   9  10
ENDBRANCH   8   9
ENDBRANCH   7   8
ENDBRANCH   6   7
ENDBRANCH   5   6
ENDBRANCH   4   5
ENDBRANCH   3   4
ENDBRANCH   2   3
ENDBRANCH   1   2
BRANCH   1  13
ATOM     13  C   UNL     1       1.331   4.273  19.237  1.00  0.00     0.000 C 
BRANCH  13  14
ATOM     14  C   UNL     1       1.915   2.852  19.112  1.00  0.00     0.000 C 
BRANCH  14  15
ATOM     15  C   UNL     1       3.377   2.846  18.634  1.00  0.00     0.000 C 
BRANCH  15  16
ATOM     16  C   UNL     1       4.069   1.492  18.862  1.00  0.00     0.000 C 
BRANCH  16  17
ATOM     17  C   UNL     1       4.842   1.000  17.628  1.00  0.00     0.000 C 
BRANCH  17  18
ATOM     18  C   UNL     1       4.843  -0.532  17.558  1.00  0.00     0.000 C 
BRANCH  18  19
ATOM     19  C   UNL     1       4.398  -1.021  16.173  1.00  0.00     0.000 C 
BRANCH  19  20
ATOM     20  C   UNL     1       4.493   0.105  15.134  1.00  0.00     0.006 C 
BRANCH  20  21
ATOM     21  C   UNL     1       3.282   0.134  14.193  1.00  0.00     0.053 C 
BRANCH  21  22
ATOM     22  C   UNL     1       2.017   0.467  14.923  1.00  0.00     0.041 C 
ATOM     23  O   UNL     1       1.900   1.573  15.514  1.00  0.00    -0.550 OA
ATOM     24  O   UNL     1       0.954  -0.427  14.918  1.00  0.00    -0.550 OA
ENDBRANCH  21  22
ENDBRANCH  20  21
ENDBRANCH  19  20
ENDBRANCH  18  19
ENDBRANCH  17  18
ENDBRANCH  16  17
ENDBRANCH  15  16
ENDBRANCH  14  15
ENDBRANCH  13  14
ENDBRANCH   1  13
TORSDOF 20
ENDMDL
MODEL 8
REMARK VINA RESULT:    -6.164      1.015      3.809
REMARK INTER + INTRA:         -15.486
REMARK INTER:                 -13.779
REMARK INTRA:                  -1.706
REMARK UNBOUND:                -2.114
REMARK SMILES CCCCCCCCCCCCCCCCCCCCCC(=O)[O-]
REMARK SMILES IDX 12 1 11 2 10 3 9 4 8 5 7 6 6 7 5 8 4 9 3 10 2 11 1 12 13 13
REMARK SMILES IDX 14 14 15 15 16 16 17 17 18 18 19 19 20 20 21 21 22 22 23 23
REMARK SMILES IDX 24 24
REMARK H PARENT
REMARK Flexibility Score: inf
ROOT
ATOM      1  C   UNL     1       5.698   6.606  14.146  1.00  0.00     0.000 C 
ENDROOT
BRANCH   1   2
ATOM      2  C   UNL     1       5.245   7.968  14.700  1.00  0.00     0.000 C 
BRANCH   2   3
ATOM      3  C   UNL     1       4.549   7.857  16.070  1.00  0.00     0.000 C 
BRANCH   3   4
ATOM      4  C   UNL     1       3.766   9.109  16.512  1.00  0.00    -0.000 C 
BRANCH   4   5
ATOM      5  C   UNL     1       3.705   9.338  18.034  1.00  0.00    -0.000 C 
BRANCH   5   6
ATOM      6  C   UNL     1       2.274   9.301  18.612  1.00  0.00    -0.000 C 
BRANCH   6   7
ATOM      7  C   UNL     1       1.962   7.970  19.318  1.00  0.00    -0.000 C 
BRANCH   7   8
ATOM      8  C   UNL     1       2.383   6.746  18.488  1.00  0.00    -0.000 C 
BRANCH   8   9
ATOM      9  C   UNL     1       1.792   5.433  19.031  1.00  0.00    -0.000 C 
BRANCH   9  10
ATOM     10  C   UNL     1       2.771   4.682  19.947  1.00  0.00    -0.000 C 
BRANCH  10  11
ATOM     11  C   UNL     1       3.147   3.295  19.403  1.00  0.00    -0.003 C 
ATOM     12  C   UNL     1       2.759   3.158  17.932  1.00  0.00     0.004 C 
ENDBRANCH  10  11
ENDBRANCH   9  10
ENDBRANCH   8   9
ENDBRANCH   7   8
ENDBRANCH   6   7
ENDBRANCH   5   6
ENDBRANCH   4   5
ENDBRANCH   3   4
ENDBRANCH   2   3
ENDBRANCH   1   2
BRANCH   1  13
ATOM     13  C   UNL     1       4.925   6.186  12.881  1.00  0.00     0.000 C 
BRANCH  13  14
ATOM     14  C   UNL     1       4.215   4.821  12.963  1.00  0.00     0.000 C 
BRANCH  14  15
ATOM     15  C   UNL     1       3.775   4.460  14.392  1.00  0.00     0.000 C 
BRANCH  15  16
ATOM     16  C   UNL     1       3.716   2.942  14.627  1.00  0.00     0.000 C 
BRANCH  16  17
ATOM     17  C   UNL     1       4.805   2.176  13.860  1.00  0.00     0.000 C 
BRANCH  17  18
ATOM     18  C   UNL     1       4.472   0.680  13.784  1.00  0.00     0.000 C 
BRANCH  18  19
ATOM     19  C   UNL     1       3.136   0.377  14.473  1.00  0.00     0.000 C 
BRANCH  19  20
ATOM     20  C   UNL     1       3.291  -0.750  15.504  1.00  0.00     0.006 C 
BRANCH  20  21
ATOM     21  C   UNL     1       4.760  -1.032  15.843  1.00  0.00     0.053 C 
BRANCH  21  22
ATOM     22  C   UNL     1       5.149  -0.445  17.166  1.00  0.00     0.041 C 
ATOM     23  O   UNL     1       5.169   0.804  17.323  1.00  0.00    -0.550 OA
ATOM     24  O   UNL     1       5.450  -1.278  18.235  1.00  0.00    -0.550 OA
ENDBRANCH  21  22
ENDBRANCH  20  21
ENDBRANCH  19  20
ENDBRANCH  18  19
ENDBRANCH  17  18
ENDBRANCH  16  17
ENDBRANCH  15  16
ENDBRANCH  14  15
ENDBRANCH  13  14
ENDBRANCH   1  13
TORSDOF 20
ENDMDL
MODEL 9
REMARK VINA RESULT:    -6.111      1.371      7.316
REMARK INTER + INTRA:         -15.371
REMARK INTER:                 -13.226
REMARK INTRA:                  -2.145
REMARK UNBOUND:                -2.114
REMARK SMILES CCCCCCCCCCCCCCCCCCCCCC(=O)[O-]
REMARK SMILES IDX 12 1 11 2 10 3 9 4 8 5 7 6 6 7 5 8 4 9 3 10 2 11 1 12 13 13
REMARK SMILES IDX 14 14 15 15 16 16 17 17 18 18 19 19 20 20 21 21 22 22 23 23
REMARK SMILES IDX 24 24
REMARK H PARENT
REMARK Flexibility Score: inf
ROOT
ATOM      1  C   UNL     1       6.002   6.522  14.058  1.00  0.00     0.000 C 
ENDROOT
BRANCH   1   2
ATOM      2  C   UNL     1       4.870   6.471  13.018  1.00  0.00     0.000 C 
BRANCH   2   3
ATOM      3  C   UNL     1       4.137   5.116  12.995  1.00  0.00     0.000 C 
BRANCH   3   4
ATOM      4  C   UNL     1       4.610   4.096  14.049  1.00  0.00    -0.000 C 
BRANCH   4   5
ATOM      5  C   UNL     1       3.755   4.036  15.329  1.00  0.00    -0.000 C 
BRANCH   5   6
ATOM      6  C   UNL     1       2.905   2.752  15.449  1.00  0.00    -0.000 C 
BRANCH   6   7
ATOM      7  C   UNL     1       3.260   1.712  14.372  1.00  0.00    -0.000 C 
BRANCH   7   8
ATOM      8  C   UNL     1       3.291   0.277  14.921  1.00  0.00    -0.000 C 
BRANCH   8   9
ATOM      9  C   UNL     1       4.672  -0.385  14.766  1.00  0.00    -0.000 C 
BRANCH   9  10
ATOM     10  C   UNL     1       5.273  -0.815  16.114  1.00  0.00    -0.000 C 
BRANCH  10  11
ATOM     11  C   UNL     1       4.965   0.177  17.245  1.00  0.00    -0.003 C 
ATOM     12  C   UNL     1       5.163  -0.470  18.614  1.00  0.00     0.004 C 
ENDBRANCH  10  11
ENDBRANCH   9  10
ENDBRANCH   8   9
ENDBRANCH   7   8
ENDBRANCH   6   7
ENDBRANCH   5   6
ENDBRANCH   4   5
ENDBRANCH   3   4
ENDBRANCH   2   3
ENDBRANCH   1   2
BRANCH   1  13
ATOM     13  C   UNL     1       5.839   7.677  15.065  1.00  0.00     0.000 C 
BRANCH  13  14
ATOM     14  C   UNL     1       4.500   7.707  15.825  1.00  0.00     0.000 C 
BRANCH  14  15
ATOM     15  C   UNL     1       4.403   8.875  16.822  1.00  0.00     0.000 C 
BRANCH  15  16
ATOM     16  C   UNL     1       2.967   9.111  17.320  1.00  0.00     0.000 C 
BRANCH  16  17
ATOM     17  C   UNL     1       2.911   9.543  18.794  1.00  0.00     0.000 C 
BRANCH  17  18
ATOM     18  C   UNL     1       2.193   8.489  19.646  1.00  0.00     0.000 C 
BRANCH  18  19
ATOM     19  C   UNL     1       1.872   7.237  18.820  1.00  0.00     0.000 C 
BRANCH  19  20
ATOM     20  C   UNL     1       2.311   5.964  19.556  1.00  0.00     0.006 C 
BRANCH  20  21
ATOM     21  C   UNL     1       2.501   4.776  18.604  1.00  0.00     0.053 C 
BRANCH  21  22
ATOM     22  C   UNL     1       2.549   3.473  19.342  1.00  0.00     0.041 C 
ATOM     23  O   UNL     1       3.513   2.681  19.167  1.00  0.00    -0.550 OA
ATOM     24  O   UNL     1       1.550   3.150  20.250  1.00  0.00    -0.550 OA
ENDBRANCH  21  22
ENDBRANCH  20  21
ENDBRANCH  19  20
ENDBRANCH  18  19
ENDBRANCH  17  18
ENDBRANCH  16  17
ENDBRANCH  15  16
ENDBRANCH  14  15
ENDBRANCH  13  14
ENDBRANCH   1  13
TORSDOF 20
ENDMDL
