MODEL 1
REMARK VINA RESULT:    -8.407      0.000      0.000
REMARK INTER + INTRA:         -10.106
REMARK INTER:                 -10.127
REMARK INTRA:                   0.021
REMARK UNBOUND:                 0.021
REMARK SMILES O=c1c(O)c(-c2ccc(O)c(O)c2)oc2cc(O)cc(O)c12
REMARK SMILES IDX 5 1 3 2 2 3 1 4 22 5 20 6 19 7 17 8 16 9 15 10 14 11 6 12
REMARK SMILES IDX 7 13 8 14 9 15 13 16 11 17 10 18 12 20 4 22 21 24 18 26
REMARK H PARENT 10 19 12 21 4 23 21 25 18 27
REMARK Flexibility Score: inf
ROOT
ATOM      1  C   UNL     1      16.581  -4.227 -15.965  1.00  0.00     0.180 A 
ATOM      2  C   UNL     1      15.739  -4.647 -14.917  1.00  0.00     0.208 A 
ATOM      3  C   UNL     1      16.264  -5.483 -13.919  1.00  0.00     0.238 A 
ATOM      4  O   UNL     1      15.523  -5.857 -12.970  1.00  0.00    -0.285 OA
ATOM      5  C   UNL     1      17.608  -5.900 -13.995  1.00  0.00     0.111 A 
ATOM      6  C   UNL     1      18.213  -6.745 -13.034  1.00  0.00     0.134 A 
ATOM      7  C   UNL     1      19.555  -7.124 -13.185  1.00  0.00     0.093 A 
ATOM      8  C   UNL     1      20.303  -6.674 -14.279  1.00  0.00     0.123 A 
ATOM      9  C   UNL     1      19.712  -5.840 -15.230  1.00  0.00     0.094 A 
ATOM     10  C   UNL     1      18.376  -5.451 -15.095  1.00  0.00     0.146 A 
ATOM     11  O   UNL     1      17.841  -4.652 -16.012  1.00  0.00    -0.452 OA
ENDROOT
BRANCH   1  12
ATOM     12  C   UNL     1      16.107  -3.330 -17.043  1.00  0.00     0.025 A 
ATOM     13  C   UNL     1      16.268  -3.665 -18.399  1.00  0.00     0.016 A 
ATOM     14  C   UNL     1      15.790  -2.814 -19.399  1.00  0.00     0.051 A 
ATOM     15  C   UNL     1      15.135  -1.623 -19.060  1.00  0.00     0.157 A 
ATOM     16  C   UNL     1      15.430  -2.146 -16.709  1.00  0.00     0.062 A 
ATOM     17  C   UNL     1      14.952  -1.290 -17.707  1.00  0.00     0.158 A 
BRANCH  15  18
ATOM     18  O   UNL     1      14.662  -0.774 -20.060  1.00  0.00    -0.504 OA
ATOM     19  H   UNL     1      13.863  -1.023 -20.633  1.00  0.00     0.293 HD
ENDBRANCH  15  18
BRANCH  17  20
ATOM     20  O   UNL     1      14.296  -0.116 -17.338  1.00  0.00    -0.504 OA
ATOM     21  H   UNL     1      13.864   0.497 -18.018  1.00  0.00     0.293 HD
ENDBRANCH  17  20
ENDBRANCH   1  12
BRANCH   2  22
ATOM     22  O   UNL     1      14.397  -4.260 -14.891  1.00  0.00    -0.502 OA
ATOM     23  H   UNL     1      13.885  -4.133 -14.026  1.00  0.00     0.293 HD
ENDBRANCH   2  22
BRANCH   6  24
ATOM     24  O   UNL     1      17.493  -7.211 -11.932  1.00  0.00    -0.507 OA
ATOM     25  H   UNL     1      16.549  -7.569 -12.024  1.00  0.00     0.293 HD
ENDBRANCH   6  24
BRANCH   8  26
ATOM     26  O   UNL     1      21.637  -7.050 -14.431  1.00  0.00    -0.508 OA
ATOM     27  H   UNL     1      22.261  -6.548 -15.051  1.00  0.00     0.293 HD
ENDBRANCH   8  26
TORSDOF 6
ENDMDL
MODEL 2
REMARK VINA RESULT:    -8.325      2.638      8.341
REMARK INTER + INTRA:         -10.007
REMARK INTER:                  -9.759
REMARK INTRA:                  -0.248
REMARK UNBOUND:                 0.021
REMARK SMILES O=c1c(O)c(-c2ccc(O)c(O)c2)oc2cc(O)cc(O)c12
REMARK SMILES IDX 5 1 3 2 2 3 1 4 22 5 20 6 19 7 17 8 16 9 15 10 14 11 6 12
REMARK SMILES IDX 7 13 8 14 9 15 13 16 11 17 10 18 12 20 4 22 21 24 18 26
REMARK H PARENT 10 19 12 21 4 23 21 25 18 27
REMARK Flexibility Score: inf
ROOT
ATOM      1  C   UNL     1      19.191  -7.368 -13.008  1.00  0.00     0.180 A 
ATOM      2  C   UNL     1      19.949  -6.788 -14.044  1.00  0.00     0.208 A 
ATOM      3  C   UNL     1      19.332  -5.863 -14.900  1.00  0.00     0.238 A 
ATOM      4  O   UNL     1      20.004  -5.330 -15.824  1.00  0.00    -0.285 OA
ATOM      5  C   UNL     1      17.969  -5.551 -14.723  1.00  0.00     0.111 A 
ATOM      6  C   UNL     1      17.271  -4.634 -15.545  1.00  0.00     0.134 A 
ATOM      7  C   UNL     1      15.911  -4.383 -15.310  1.00  0.00     0.093 A 
ATOM      8  C   UNL     1      15.237  -5.032 -14.270  1.00  0.00     0.123 A 
ATOM      9  C   UNL     1      15.920  -5.936 -13.456  1.00  0.00     0.094 A 
ATOM     10  C   UNL     1      17.276  -6.199 -13.673  1.00  0.00     0.146 A 
ATOM     11  O   UNL     1      17.903  -7.059 -12.880  1.00  0.00    -0.452 OA
ENDROOT
BRANCH   1  12
ATOM     12  C   UNL     1      19.775  -8.336 -12.052  1.00  0.00     0.025 A 
ATOM     13  C   UNL     1      19.500  -9.711 -12.142  1.00  0.00     0.016 A 
ATOM     14  C   UNL     1      20.083 -10.609 -11.243  1.00  0.00     0.051 A 
ATOM     15  C   UNL     1      20.957 -10.148 -10.250  1.00  0.00     0.157 A 
ATOM     16  C   UNL     1      20.669  -7.882 -11.069  1.00  0.00     0.062 A 
ATOM     17  C   UNL     1      21.253  -8.777 -10.166  1.00  0.00     0.158 A 
BRANCH  15  18
ATOM     18  O   UNL     1      21.535 -11.045  -9.353  1.00  0.00    -0.504 OA
ATOM     19  H   UNL     1      22.394 -10.825  -8.862  1.00  0.00     0.293 HD
ENDBRANCH  15  18
BRANCH  17  20
ATOM     20  O   UNL     1      22.125  -8.287  -9.193  1.00  0.00    -0.504 OA
ATOM     21  H   UNL     1      22.198  -7.298  -8.984  1.00  0.00     0.293 HD
ENDBRANCH  17  20
ENDBRANCH   1  12
BRANCH   2  22
ATOM     22  O   UNL     1      21.285  -7.152 -14.229  1.00  0.00    -0.502 OA
ATOM     23  H   UNL     1      21.675  -7.340 -15.145  1.00  0.00     0.293 HD
ENDBRANCH   2  22
BRANCH   6  24
ATOM     24  O   UNL     1      17.916  -3.972 -16.592  1.00  0.00    -0.507 OA
ATOM     25  H   UNL     1      17.418  -3.676 -17.423  1.00  0.00     0.293 HD
ENDBRANCH   6  24
BRANCH   8  26
ATOM     26  O   UNL     1      13.885  -4.784 -14.036  1.00  0.00    -0.508 OA
ATOM     27  H   UNL     1      13.563  -4.393 -13.158  1.00  0.00     0.293 HD
ENDBRANCH   8  26
TORSDOF 6
ENDMDL
MODEL 3
REMARK VINA RESULT:    -8.181      1.575      3.172
REMARK INTER + INTRA:          -9.834
REMARK INTER:                  -9.609
REMARK INTRA:                  -0.225
REMARK UNBOUND:                 0.021
REMARK SMILES O=c1c(O)c(-c2ccc(O)c(O)c2)oc2cc(O)cc(O)c12
REMARK SMILES IDX 5 1 3 2 2 3 1 4 22 5 20 6 19 7 17 8 16 9 15 10 14 11 6 12
REMARK SMILES IDX 7 13 8 14 9 15 13 16 11 17 10 18 12 20 4 22 21 24 18 26
REMARK H PARENT 10 19 12 21 4 23 21 25 18 27
REMARK Flexibility Score: inf
ROOT
ATOM      1  C   UNL     1      16.127  -3.677 -16.433  1.00  0.00     0.180 A 
ATOM      2  C   UNL     1      17.261  -4.313 -16.974  1.00  0.00     0.208 A 
ATOM      3  C   UNL     1      17.939  -5.266 -16.197  1.00  0.00     0.238 A 
ATOM      4  O   UNL     1      18.950  -5.849 -16.675  1.00  0.00    -0.285 OA
ATOM      5  C   UNL     1      17.487  -5.550 -14.893  1.00  0.00     0.111 A 
ATOM      6  C   UNL     1      18.115  -6.494 -14.044  1.00  0.00     0.134 A 
ATOM      7  C   UNL     1      17.610  -6.715 -12.754  1.00  0.00     0.093 A 
ATOM      8  C   UNL     1      16.490  -6.012 -12.298  1.00  0.00     0.123 A 
ATOM      9  C   UNL     1      15.866  -5.081 -13.131  1.00  0.00     0.094 A 
ATOM     10  C   UNL     1      16.354  -4.848 -14.420  1.00  0.00     0.146 A 
ATOM     11  O   UNL     1      15.737  -3.961 -15.193  1.00  0.00    -0.452 OA
ENDROOT
BRANCH   1  12
ATOM     12  C   UNL     1      15.347  -2.676 -17.197  1.00  0.00     0.025 A 
ATOM     13  C   UNL     1      15.407  -1.307 -16.883  1.00  0.00     0.016 A 
ATOM     14  C   UNL     1      14.681  -0.377 -17.634  1.00  0.00     0.051 A 
ATOM     15  C   UNL     1      13.896  -0.800 -18.715  1.00  0.00     0.157 A 
ATOM     16  C   UNL     1      14.577  -3.091 -18.295  1.00  0.00     0.062 A 
ATOM     17  C   UNL     1      13.847  -2.164 -19.048  1.00  0.00     0.158 A 
BRANCH  15  18
ATOM     18  O   UNL     1      13.171   0.129 -19.460  1.00  0.00    -0.504 OA
ATOM     19  H   UNL     1      12.726   0.928 -19.023  1.00  0.00     0.293 HD
ENDBRANCH  15  18
BRANCH  17  20
ATOM     20  O   UNL     1      13.082  -2.616 -20.123  1.00  0.00    -0.504 OA
ATOM     21  H   UNL     1      13.054  -3.592 -20.391  1.00  0.00     0.293 HD
ENDBRANCH  17  20
ENDBRANCH   1  12
BRANCH   2  22
ATOM     22  O   UNL     1      17.718  -3.976 -18.250  1.00  0.00    -0.502 OA
ATOM     23  H   UNL     1      18.046  -3.046 -18.482  1.00  0.00     0.293 HD
ENDBRANCH   2  22
BRANCH   6  24
ATOM     24  O   UNL     1      19.235  -7.210 -14.471  1.00  0.00    -0.507 OA
ATOM     25  H   UNL     1      20.178  -6.894 -14.274  1.00  0.00     0.293 HD
ENDBRANCH   6  24
BRANCH   8  26
ATOM     26  O   UNL     1      15.988  -6.230 -11.016  1.00  0.00    -0.508 OA
ATOM     27  H   UNL     1      15.747  -7.160 -10.694  1.00  0.00     0.293 HD
ENDBRANCH   8  26
TORSDOF 6
ENDMDL
MODEL 4
REMARK VINA RESULT:    -8.151      2.307      7.440
REMARK INTER + INTRA:          -9.798
REMARK INTER:                  -9.467
REMARK INTRA:                  -0.331
REMARK UNBOUND:                 0.021
REMARK SMILES O=c1c(O)c(-c2ccc(O)c(O)c2)oc2cc(O)cc(O)c12
REMARK SMILES IDX 5 1 3 2 2 3 1 4 22 5 20 6 19 7 17 8 16 9 15 10 14 11 6 12
REMARK SMILES IDX 7 13 8 14 9 15 13 16 11 17 10 18 12 20 4 22 21 24 18 26
REMARK H PARENT 10 19 12 21 4 23 21 25 18 27
REMARK Flexibility Score: inf
ROOT
ATOM      1  C   UNL     1      18.331  -6.909 -13.388  1.00  0.00     0.180 A 
ATOM      2  C   UNL     1      17.232  -6.219 -12.841  1.00  0.00     0.208 A 
ATOM      3  C   UNL     1      16.527  -5.314 -13.650  1.00  0.00     0.238 A 
ATOM      4  O   UNL     1      15.535  -4.699 -13.173  1.00  0.00    -0.285 OA
ATOM      5  C   UNL     1      16.944  -5.098 -14.979  1.00  0.00     0.111 A 
ATOM      6  C   UNL     1      16.292  -4.200 -15.858  1.00  0.00     0.134 A 
ATOM      7  C   UNL     1      16.773  -4.033 -17.165  1.00  0.00     0.093 A 
ATOM      8  C   UNL     1      17.892  -4.746 -17.608  1.00  0.00     0.123 A 
ATOM      9  C   UNL     1      18.538  -5.632 -16.746  1.00  0.00     0.094 A 
ATOM     10  C   UNL     1      18.073  -5.814 -15.440  1.00  0.00     0.146 A 
ATOM     11  O   UNL     1      18.703  -6.669 -14.643  1.00  0.00    -0.452 OA
ENDROOT
BRANCH   1  12
ATOM     12  C   UNL     1      19.111  -7.894 -12.605  1.00  0.00     0.025 A 
ATOM     13  C   UNL     1      18.777  -9.259 -12.605  1.00  0.00     0.016 A 
ATOM     14  C   UNL     1      19.543 -10.174 -11.878  1.00  0.00     0.051 A 
ATOM     15  C   UNL     1      20.661  -9.741 -11.152  1.00  0.00     0.157 A 
ATOM     16  C   UNL     1      20.245  -7.469 -11.894  1.00  0.00     0.062 A 
ATOM     17  C   UNL     1      21.014  -8.381 -11.163  1.00  0.00     0.158 A 
BRANCH  15  18
ATOM     18  O   UNL     1      21.422 -10.656 -10.425  1.00  0.00    -0.504 OA
ATOM     19  H   UNL     1      22.311 -10.999 -10.771  1.00  0.00     0.293 HD
ENDBRANCH  15  18
BRANCH  17  20
ATOM     20  O   UNL     1      22.125  -7.920 -10.457  1.00  0.00    -0.504 OA
ATOM     21  H   UNL     1      22.395  -6.944 -10.456  1.00  0.00     0.293 HD
ENDBRANCH  17  20
ENDBRANCH   1  12
BRANCH   2  22
ATOM     22  O   UNL     1      16.870  -6.415 -11.506  1.00  0.00    -0.502 OA
ATOM     23  H   UNL     1      15.905  -6.525 -11.215  1.00  0.00     0.293 HD
ENDBRANCH   2  22
BRANCH   6  24
ATOM     24  O   UNL     1      15.174  -3.474 -15.445  1.00  0.00    -0.507 OA
ATOM     25  H   UNL     1      14.231  -3.776 -15.661  1.00  0.00     0.293 HD
ENDBRANCH   6  24
BRANCH   8  26
ATOM     26  O   UNL     1      18.372  -4.579 -18.907  1.00  0.00    -0.508 OA
ATOM     27  H   UNL     1      19.300  -4.214 -19.085  1.00  0.00     0.293 HD
ENDBRANCH   8  26
TORSDOF 6
ENDMDL
MODEL 5
REMARK VINA RESULT:    -8.121      1.356      2.861
REMARK INTER + INTRA:          -9.762
REMARK INTER:                  -9.730
REMARK INTRA:                  -0.031
REMARK UNBOUND:                 0.021
REMARK SMILES O=c1c(O)c(-c2ccc(O)c(O)c2)oc2cc(O)cc(O)c12
REMARK SMILES IDX 5 1 3 2 2 3 1 4 22 5 20 6 19 7 17 8 16 9 15 10 14 11 6 12
REMARK SMILES IDX 7 13 8 14 9 15 13 16 11 17 10 18 12 20 4 22 21 24 18 26
REMARK H PARENT 10 19 12 21 4 23 21 25 18 27
REMARK Flexibility Score: inf
ROOT
ATOM      1  C   UNL     1      16.578  -4.155 -16.899  1.00  0.00     0.180 A 
ATOM      2  C   UNL     1      17.751  -4.776 -17.372  1.00  0.00     0.208 A 
ATOM      3  C   UNL     1      18.442  -5.655 -16.523  1.00  0.00     0.238 A 
ATOM      4  O   UNL     1      19.487  -6.224 -16.940  1.00  0.00    -0.285 OA
ATOM      5  C   UNL     1      17.966  -5.881 -15.216  1.00  0.00     0.111 A 
ATOM      6  C   UNL     1      18.606  -6.747 -14.297  1.00  0.00     0.134 A 
ATOM      7  C   UNL     1      18.074  -6.913 -13.010  1.00  0.00     0.093 A 
ATOM      8  C   UNL     1      16.916  -6.229 -12.625  1.00  0.00     0.123 A 
ATOM      9  C   UNL     1      16.280  -5.374 -13.527  1.00  0.00     0.094 A 
ATOM     10  C   UNL     1      16.794  -5.197 -14.815  1.00  0.00     0.146 A 
ATOM     11  O   UNL     1      16.166  -4.382 -15.654  1.00  0.00    -0.452 OA
ENDROOT
BRANCH   1  12
ATOM     12  C   UNL     1      15.782  -3.232 -17.740  1.00  0.00     0.025 A 
ATOM     13  C   UNL     1      15.377  -3.589 -19.038  1.00  0.00     0.016 A 
ATOM     14  C   UNL     1      14.606  -2.711 -19.804  1.00  0.00     0.051 A 
ATOM     15  C   UNL     1      14.217  -1.470 -19.280  1.00  0.00     0.157 A 
ATOM     16  C   UNL     1      15.372  -1.997 -17.212  1.00  0.00     0.062 A 
ATOM     17  C   UNL     1      14.601  -1.115 -17.976  1.00  0.00     0.158 A 
BRANCH  15  18
ATOM     18  O   UNL     1      13.450  -0.595 -20.048  1.00  0.00    -0.504 OA
ATOM     19  H   UNL     1      12.958  -0.909 -20.877  1.00  0.00     0.293 HD
ENDBRANCH  15  18
BRANCH  17  20
ATOM     20  O   UNL     1      14.224   0.109 -17.424  1.00  0.00    -0.504 OA
ATOM     21  H   UNL     1      14.752   0.551 -16.681  1.00  0.00     0.293 HD
ENDBRANCH  17  20
ENDBRANCH   1  12
BRANCH   2  22
ATOM     22  O   UNL     1      18.229  -4.496 -18.654  1.00  0.00    -0.502 OA
ATOM     23  H   UNL     1      18.668  -5.200 -19.235  1.00  0.00     0.293 HD
ENDBRANCH   2  22
BRANCH   6  24
ATOM     24  O   UNL     1      19.763  -7.442 -14.652  1.00  0.00    -0.507 OA
ATOM     25  H   UNL     1      20.341  -7.153 -15.433  1.00  0.00     0.293 HD
ENDBRANCH   6  24
BRANCH   8  26
ATOM     26  O   UNL     1      16.387  -6.392 -11.345  1.00  0.00    -0.508 OA
ATOM     27  H   UNL     1      16.722  -7.119 -10.723  1.00  0.00     0.293 HD
ENDBRANCH   8  26
TORSDOF 6
ENDMDL
MODEL 6
REMARK VINA RESULT:    -7.752      1.073      1.209
REMARK INTER + INTRA:          -9.317
REMARK INTER:                  -9.138
REMARK INTRA:                  -0.179
REMARK UNBOUND:                 0.021
REMARK SMILES O=c1c(O)c(-c2ccc(O)c(O)c2)oc2cc(O)cc(O)c12
REMARK SMILES IDX 5 1 3 2 2 3 1 4 22 5 20 6 19 7 17 8 16 9 15 10 14 11 6 12
REMARK SMILES IDX 7 13 8 14 9 15 13 16 11 17 10 18 12 20 4 22 21 24 18 26
REMARK H PARENT 10 19 12 21 4 23 21 25 18 27
REMARK Flexibility Score: inf
ROOT
ATOM      1  C   UNL     1      16.528  -3.819 -16.603  1.00  0.00     0.180 A 
ATOM      2  C   UNL     1      15.974  -4.359 -15.426  1.00  0.00     0.208 A 
ATOM      3  C   UNL     1      16.795  -5.117 -14.576  1.00  0.00     0.238 A 
ATOM      4  O   UNL     1      16.312  -5.596 -13.514  1.00  0.00    -0.285 OA
ATOM      5  C   UNL     1      18.142  -5.341 -14.925  1.00  0.00     0.111 A 
ATOM      6  C   UNL     1      19.034  -6.097 -14.127  1.00  0.00     0.134 A 
ATOM      7  C   UNL     1      20.359  -6.282 -14.548  1.00  0.00     0.093 A 
ATOM      8  C   UNL     1      20.808  -5.726 -15.750  1.00  0.00     0.123 A 
ATOM      9  C   UNL     1      19.933  -4.980 -16.541  1.00  0.00     0.094 A 
ATOM     10  C   UNL     1      18.609  -4.783 -16.138  1.00  0.00     0.146 A 
ATOM     11  O   UNL     1      17.801  -4.063 -16.907  1.00  0.00    -0.452 OA
ENDROOT
BRANCH   1  12
ATOM     12  C   UNL     1      15.734  -2.993 -17.540  1.00  0.00     0.025 A 
ATOM     13  C   UNL     1      15.405  -3.454 -18.827  1.00  0.00     0.016 A 
ATOM     14  C   UNL     1      14.633  -2.666 -19.684  1.00  0.00     0.051 A 
ATOM     15  C   UNL     1      14.167  -1.413 -19.266  1.00  0.00     0.157 A 
ATOM     16  C   UNL     1      15.246  -1.745 -17.118  1.00  0.00     0.062 A 
ATOM     17  C   UNL     1      14.474  -0.953 -17.974  1.00  0.00     0.158 A 
BRANCH  15  18
ATOM     18  O   UNL     1      13.400  -0.627 -20.124  1.00  0.00    -0.504 OA
ATOM     19  H   UNL     1      12.920   0.203 -19.797  1.00  0.00     0.293 HD
ENDBRANCH  15  18
BRANCH  17  20
ATOM     20  O   UNL     1      14.019   0.287 -17.525  1.00  0.00    -0.504 OA
ATOM     21  H   UNL     1      13.697   1.006 -18.161  1.00  0.00     0.293 HD
ENDBRANCH  17  20
ENDBRANCH   1  12
BRANCH   2  22
ATOM     22  O   UNL     1      14.624  -4.164 -15.128  1.00  0.00    -0.502 OA
ATOM     23  H   UNL     1      14.087  -3.397 -15.516  1.00  0.00     0.293 HD
ENDBRANCH   2  22
BRANCH   6  24
ATOM     24  O   UNL     1      18.614  -6.664 -12.922  1.00  0.00    -0.507 OA
ATOM     25  H   UNL     1      19.233  -7.233 -12.356  1.00  0.00     0.293 HD
ENDBRANCH   6  24
BRANCH   8  26
ATOM     26  O   UNL     1      22.125  -5.911 -16.170  1.00  0.00    -0.508 OA
ATOM     27  H   UNL     1      22.882  -5.349 -15.798  1.00  0.00     0.293 HD
ENDBRANCH   8  26
TORSDOF 6
ENDMDL
MODEL 7
REMARK VINA RESULT:    -7.668      3.360      5.683
REMARK INTER + INTRA:          -9.216
REMARK INTER:                  -8.887
REMARK INTRA:                  -0.330
REMARK UNBOUND:                 0.021
REMARK SMILES O=c1c(O)c(-c2ccc(O)c(O)c2)oc2cc(O)cc(O)c12
REMARK SMILES IDX 5 1 3 2 2 3 1 4 22 5 20 6 19 7 17 8 16 9 15 10 14 11 6 12
REMARK SMILES IDX 7 13 8 14 9 15 13 16 11 17 10 18 12 20 4 22 21 24 18 26
REMARK H PARENT 10 19 12 21 4 23 21 25 18 27
REMARK Flexibility Score: inf
ROOT
ATOM      1  C   UNL     1      17.803  -5.228 -15.479  1.00  0.00     0.180 A 
ATOM      2  C   UNL     1      18.567  -4.076 -15.749  1.00  0.00     0.208 A 
ATOM      3  C   UNL     1      19.546  -4.131 -16.753  1.00  0.00     0.238 A 
ATOM      4  O   UNL     1      20.229  -3.103 -17.010  1.00  0.00    -0.285 OA
ATOM      5  C   UNL     1      19.760  -5.336 -17.453  1.00  0.00     0.111 A 
ATOM      6  C   UNL     1      20.729  -5.476 -18.476  1.00  0.00     0.134 A 
ATOM      7  C   UNL     1      20.887  -6.713 -19.120  1.00  0.00     0.093 A 
ATOM      8  C   UNL     1      20.095  -7.809 -18.761  1.00  0.00     0.123 A 
ATOM      9  C   UNL     1      19.138  -7.675 -17.754  1.00  0.00     0.094 A 
ATOM     10  C   UNL     1      18.964  -6.451 -17.101  1.00  0.00     0.146 A 
ATOM     11  O   UNL     1      18.042  -6.351 -16.151  1.00  0.00    -0.452 OA
ENDROOT
BRANCH   1  12
ATOM     12  C   UNL     1      16.739  -5.243 -14.450  1.00  0.00     0.025 A 
ATOM     13  C   UNL     1      15.432  -4.816 -14.741  1.00  0.00     0.016 A 
ATOM     14  C   UNL     1      14.438  -4.863 -13.760  1.00  0.00     0.051 A 
ATOM     15  C   UNL     1      14.731  -5.348 -12.479  1.00  0.00     0.157 A 
ATOM     16  C   UNL     1      17.022  -5.749 -13.171  1.00  0.00     0.062 A 
ATOM     17  C   UNL     1      16.030  -5.796 -12.185  1.00  0.00     0.158 A 
BRANCH  15  18
ATOM     18  O   UNL     1      13.738  -5.391 -11.501  1.00  0.00    -0.504 OA
ATOM     19  H   UNL     1      13.724  -4.732 -10.731  1.00  0.00     0.293 HD
ENDBRANCH  15  18
BRANCH  17  20
ATOM     20  O   UNL     1      16.352  -6.291 -10.922  1.00  0.00    -0.504 OA
ATOM     21  H   UNL     1      17.310  -6.457 -10.636  1.00  0.00     0.293 HD
ENDBRANCH  17  20
ENDBRANCH   1  12
BRANCH   2  22
ATOM     22  O   UNL     1      18.370  -2.909 -15.007  1.00  0.00    -0.502 OA
ATOM     23  H   UNL     1      17.718  -2.188 -15.292  1.00  0.00     0.293 HD
ENDBRANCH   2  22
BRANCH   6  24
ATOM     24  O   UNL     1      21.534  -4.401 -18.855  1.00  0.00    -0.507 OA
ATOM     25  H   UNL     1      22.410  -4.199 -18.387  1.00  0.00     0.293 HD
ENDBRANCH   6  24
BRANCH   8  26
ATOM     26  O   UNL     1      20.252  -9.038 -19.400  1.00  0.00    -0.508 OA
ATOM     27  H   UNL     1      21.158  -9.352 -19.727  1.00  0.00     0.293 HD
ENDBRANCH   8  26
TORSDOF 6
ENDMDL
MODEL 8
REMARK VINA RESULT:    -7.641      2.248      7.576
REMARK INTER + INTRA:          -9.183
REMARK INTER:                  -8.884
REMARK INTRA:                  -0.299
REMARK UNBOUND:                 0.021
REMARK SMILES O=c1c(O)c(-c2ccc(O)c(O)c2)oc2cc(O)cc(O)c12
REMARK SMILES IDX 5 1 3 2 2 3 1 4 22 5 20 6 19 7 17 8 16 9 15 10 14 11 6 12
REMARK SMILES IDX 7 13 8 14 9 15 13 16 11 17 10 18 12 20 4 22 21 24 18 26
REMARK H PARENT 10 19 12 21 4 23 21 25 18 27
REMARK Flexibility Score: inf
ROOT
ATOM      1  C   UNL     1      19.085  -6.232 -15.915  1.00  0.00     0.180 A 
ATOM      2  C   UNL     1      19.252  -6.561 -17.274  1.00  0.00     0.208 A 
ATOM      3  C   UNL     1      18.552  -5.824 -18.241  1.00  0.00     0.238 A 
ATOM      4  O   UNL     1      18.701  -6.103 -19.462  1.00  0.00    -0.285 OA
ATOM      5  C   UNL     1      17.684  -4.789 -17.836  1.00  0.00     0.111 A 
ATOM      6  C   UNL     1      16.939  -4.002 -18.746  1.00  0.00     0.134 A 
ATOM      7  C   UNL     1      16.089  -2.996 -18.263  1.00  0.00     0.093 A 
ATOM      8  C   UNL     1      15.971  -2.763 -16.889  1.00  0.00     0.123 A 
ATOM      9  C   UNL     1      16.704  -3.535 -15.987  1.00  0.00     0.094 A 
ATOM     10  C   UNL     1      17.557  -4.542 -16.449  1.00  0.00     0.146 A 
ATOM     11  O   UNL     1      18.248  -5.258 -15.569  1.00  0.00    -0.452 OA
ENDROOT
BRANCH   1  12
ATOM     12  C   UNL     1      19.804  -6.949 -14.837  1.00  0.00     0.025 A 
ATOM     13  C   UNL     1      20.945  -6.400 -14.226  1.00  0.00     0.016 A 
ATOM     14  C   UNL     1      21.592  -7.084 -13.194  1.00  0.00     0.051 A 
ATOM     15  C   UNL     1      21.104  -8.320 -12.749  1.00  0.00     0.157 A 
ATOM     16  C   UNL     1      19.306  -8.177 -14.373  1.00  0.00     0.062 A 
ATOM     17  C   UNL     1      19.952  -8.867 -13.341  1.00  0.00     0.158 A 
BRANCH  15  18
ATOM     18  O   UNL     1      21.753  -9.002 -11.722  1.00  0.00    -0.504 OA
ATOM     19  H   UNL     1      22.685  -8.742 -11.419  1.00  0.00     0.293 HD
ENDBRANCH  15  18
BRANCH  17  20
ATOM     20  O   UNL     1      19.437 -10.091 -12.916  1.00  0.00    -0.504 OA
ATOM     21  H   UNL     1      20.033 -10.877 -12.687  1.00  0.00     0.293 HD
ENDBRANCH  17  20
ENDBRANCH   1  12
BRANCH   2  22
ATOM     22  O   UNL     1      20.079  -7.623 -17.646  1.00  0.00    -0.502 OA
ATOM     23  H   UNL     1      20.482  -8.261 -16.970  1.00  0.00     0.293 HD
ENDBRANCH   2  22
BRANCH   6  24
ATOM     24  O   UNL     1      17.035  -4.212 -20.123  1.00  0.00    -0.507 OA
ATOM     25  H   UNL     1      16.671  -3.542 -20.792  1.00  0.00     0.293 HD
ENDBRANCH   6  24
BRANCH   8  26
ATOM     26  O   UNL     1      15.126  -1.763 -16.408  1.00  0.00    -0.508 OA
ATOM     27  H   UNL     1      14.670  -1.845 -15.507  1.00  0.00     0.293 HD
ENDBRANCH   8  26
TORSDOF 6
ENDMDL
MODEL 9
REMARK VINA RESULT:    -7.578      1.555      3.013
REMARK INTER + INTRA:          -9.108
REMARK INTER:                  -8.786
REMARK INTRA:                  -0.322
REMARK UNBOUND:                 0.021
REMARK SMILES O=c1c(O)c(-c2ccc(O)c(O)c2)oc2cc(O)cc(O)c12
REMARK SMILES IDX 5 1 3 2 2 3 1 4 22 5 20 6 19 7 17 8 16 9 15 10 14 11 6 12
REMARK SMILES IDX 7 13 8 14 9 15 13 16 11 17 10 18 12 20 4 22 21 24 18 26
REMARK H PARENT 10 19 12 21 4 23 21 25 18 27
REMARK Flexibility Score: inf
ROOT
ATOM      1  C   UNL     1      17.996  -4.368 -16.189  1.00  0.00     0.180 A 
ATOM      2  C   UNL     1      19.365  -4.064 -16.324  1.00  0.00     0.208 A 
ATOM      3  C   UNL     1      20.304  -4.837 -15.625  1.00  0.00     0.238 A 
ATOM      4  O   UNL     1      21.533  -4.580 -15.746  1.00  0.00    -0.285 OA
ATOM      5  C   UNL     1      19.862  -5.883 -14.789  1.00  0.00     0.111 A 
ATOM      6  C   UNL     1      20.743  -6.706 -14.047  1.00  0.00     0.134 A 
ATOM      7  C   UNL     1      20.224  -7.722 -13.230  1.00  0.00     0.093 A 
ATOM      8  C   UNL     1      18.843  -7.929 -13.141  1.00  0.00     0.123 A 
ATOM      9  C   UNL     1      17.970  -7.120 -13.871  1.00  0.00     0.094 A 
ATOM     10  C   UNL     1      18.468  -6.104 -14.692  1.00  0.00     0.146 A 
ATOM     11  O   UNL     1      17.615  -5.354 -15.381  1.00  0.00    -0.452 OA
ENDROOT
BRANCH   1  12
ATOM     12  C   UNL     1      16.947  -3.612 -16.910  1.00  0.00     0.025 A 
ATOM     13  C   UNL     1      16.430  -4.064 -18.136  1.00  0.00     0.016 A 
ATOM     14  C   UNL     1      15.422  -3.347 -18.786  1.00  0.00     0.051 A 
ATOM     15  C   UNL     1      14.908  -2.175 -18.214  1.00  0.00     0.157 A 
ATOM     16  C   UNL     1      16.413  -2.449 -16.331  1.00  0.00     0.062 A 
ATOM     17  C   UNL     1      15.405  -1.727 -16.979  1.00  0.00     0.158 A 
BRANCH  15  18
ATOM     18  O   UNL     1      13.904  -1.459 -18.866  1.00  0.00    -0.504 OA
ATOM     19  H   UNL     1      13.624  -1.683 -19.814  1.00  0.00     0.293 HD
ENDBRANCH  15  18
BRANCH  17  20
ATOM     20  O   UNL     1      14.909  -0.568 -16.381  1.00  0.00    -0.504 OA
ATOM     21  H   UNL     1      14.568   0.215 -16.925  1.00  0.00     0.293 HD
ENDBRANCH  17  20
ENDBRANCH   1  12
BRANCH   2  22
ATOM     22  O   UNL     1      19.773  -2.991 -17.120  1.00  0.00    -0.502 OA
ATOM     23  H   UNL     1      20.734  -2.871 -17.418  1.00  0.00     0.293 HD
ENDBRANCH   2  22
BRANCH   6  24
ATOM     24  O   UNL     1      22.125  -6.523 -14.113  1.00  0.00    -0.507 OA
ATOM     25  H   UNL     1      22.757  -6.998 -13.480  1.00  0.00     0.293 HD
ENDBRANCH   6  24
BRANCH   8  26
ATOM     26  O   UNL     1      18.326  -8.937 -12.329  1.00  0.00    -0.508 OA
ATOM     27  H   UNL     1      18.498  -8.951 -11.330  1.00  0.00     0.293 HD
ENDBRANCH   8  26
TORSDOF 6
ENDMDL
