MODEL 1
REMARK VINA RESULT:    -3.923      0.000      0.000
REMARK INTER + INTRA:         -11.543
REMARK INTER:                  -8.509
REMARK INTRA:                  -3.034
REMARK UNBOUND:                -3.034
REMARK SMILES CCCCCCCCCCCCCCCCCCCCCC(=O)[O-]
REMARK SMILES IDX 12 1 11 2 10 3 9 4 8 5 7 6 6 7 5 8 4 9 3 10 2 11 1 12 13 13
REMARK SMILES IDX 14 14 15 15 16 16 17 17 18 18 19 19 20 20 21 21 22 22 23 23
REMARK SMILES IDX 24 24
REMARK H PARENT
REMARK Flexibility Score: inf
ROOT
ATOM      1  C   UNL     1     -43.200   9.514   7.346  1.00  0.00     0.000 C 
ENDROOT
BRANCH   1   2
ATOM      2  C   UNL     1     -44.093   9.934   8.519  1.00  0.00     0.000 C 
BRANCH   2   3
ATOM      3  C   UNL     1     -45.509   9.358   8.369  1.00  0.00     0.000 C 
BRANCH   3   4
ATOM      4  C   UNL     1     -45.585   7.872   8.753  1.00  0.00    -0.000 C 
BRANCH   4   5
ATOM      5  C   UNL     1     -45.472   7.653  10.272  1.00  0.00    -0.000 C 
BRANCH   5   6
ATOM      6  C   UNL     1     -46.228   6.402  10.745  1.00  0.00    -0.000 C 
BRANCH   6   7
ATOM      7  C   UNL     1     -46.113   5.224   9.764  1.00  0.00    -0.000 C 
BRANCH   7   8
ATOM      8  C   UNL     1     -47.494   4.720   9.297  1.00  0.00    -0.000 C 
BRANCH   8   9
ATOM      9  C   UNL     1     -47.484   4.100   7.888  1.00  0.00    -0.000 C 
BRANCH   9  10
ATOM     10  C   UNL     1     -48.716   3.221   7.612  1.00  0.00    -0.000 C 
BRANCH  10  11
ATOM     11  C   UNL     1     -48.398   1.720   7.701  1.00  0.00    -0.003 C 
ATOM     12  C   UNL     1     -49.627   0.839   7.474  1.00  0.00     0.004 C 
ENDBRANCH  10  11
ENDBRANCH   9  10
ENDBRANCH   8   9
ENDBRANCH   7   8
ENDBRANCH   6   7
ENDBRANCH   5   6
ENDBRANCH   4   5
ENDBRANCH   3   4
ENDBRANCH   2   3
ENDBRANCH   1   2
BRANCH   1  13
ATOM     13  C   UNL     1     -41.848   8.982   7.848  1.00  0.00     0.000 C 
BRANCH  13  14
ATOM     14  C   UNL     1     -41.748   8.947   9.385  1.00  0.00     0.000 C 
BRANCH  14  15
ATOM     15  C   UNL     1     -41.235   7.618   9.969  1.00  0.00     0.000 C 
BRANCH  15  16
ATOM     16  C   UNL     1     -42.324   6.836  10.725  1.00  0.00     0.000 C 
BRANCH  16  17
ATOM     17  C   UNL     1     -42.566   5.439  10.131  1.00  0.00     0.000 C 
BRANCH  17  18
ATOM     18  C   UNL     1     -41.581   5.101   8.999  1.00  0.00     0.000 C 
BRANCH  18  19
ATOM     19  C   UNL     1     -42.283   4.871   7.652  1.00  0.00     0.000 C 
BRANCH  19  20
ATOM     20  C   UNL     1     -43.560   5.713   7.499  1.00  0.00     0.006 C 
BRANCH  20  21
ATOM     21  C   UNL     1     -44.362   5.275   6.269  1.00  0.00     0.053 C 
BRANCH  21  22
ATOM     22  C   UNL     1     -43.745   5.810   5.013  1.00  0.00     0.041 C 
ATOM     23  O   UNL     1     -43.691   7.057   4.813  1.00  0.00    -0.550 OA
ATOM     24  O   UNL     1     -43.224   4.938   4.067  1.00  0.00    -0.550 OA
ENDBRANCH  21  22
ENDBRANCH  20  21
ENDBRANCH  19  20
ENDBRANCH  18  19
ENDBRANCH  17  18
ENDBRANCH  16  17
ENDBRANCH  15  16
ENDBRANCH  14  15
ENDBRANCH  13  14
ENDBRANCH   1  13
TORSDOF 20
ENDMDL
MODEL 2
REMARK VINA RESULT:    -3.632      1.912      3.550
REMARK INTER + INTRA:         -10.913
REMARK INTER:                  -7.933
REMARK INTRA:                  -2.981
REMARK UNBOUND:                -3.034
REMARK SMILES CCCCCCCCCCCCCCCCCCCCCC(=O)[O-]
REMARK SMILES IDX 12 1 11 2 10 3 9 4 8 5 7 6 6 7 5 8 4 9 3 10 2 11 1 12 13 13
REMARK SMILES IDX 14 14 15 15 16 16 17 17 18 18 19 19 20 20 21 21 22 22 23 23
REMARK SMILES IDX 24 24
REMARK H PARENT
REMARK Flexibility Score: inf
ROOT
ATOM      1  C   UNL     1     -43.196   9.362   6.160  1.00  0.00     0.000 C 
ENDROOT
BRANCH   1   2
ATOM      2  C   UNL     1     -44.458   9.091   6.988  1.00  0.00     0.000 C 
BRANCH   2   3
ATOM      3  C   UNL     1     -44.610  10.121   8.116  1.00  0.00     0.000 C 
BRANCH   3   4
ATOM      4  C   UNL     1     -44.916   9.469   9.474  1.00  0.00    -0.000 C 
BRANCH   4   5
ATOM      5  C   UNL     1     -45.263   7.976   9.341  1.00  0.00    -0.000 C 
BRANCH   5   6
ATOM      6  C   UNL     1     -45.251   7.246  10.692  1.00  0.00    -0.000 C 
BRANCH   6   7
ATOM      7  C   UNL     1     -46.131   5.985  10.703  1.00  0.00    -0.000 C 
BRANCH   7   8
ATOM      8  C   UNL     1     -46.831   5.754   9.348  1.00  0.00    -0.000 C 
BRANCH   8   9
ATOM      9  C   UNL     1     -47.675   4.468   9.297  1.00  0.00    -0.000 C 
BRANCH   9  10
ATOM     10  C   UNL     1     -47.536   3.712   7.966  1.00  0.00    -0.000 C 
BRANCH  10  11
ATOM     11  C   UNL     1     -48.870   3.118   7.484  1.00  0.00    -0.003 C 
ATOM     12  C   UNL     1     -48.866   1.589   7.470  1.00  0.00     0.004 C 
ENDBRANCH  10  11
ENDBRANCH   9  10
ENDBRANCH   8   9
ENDBRANCH   7   8
ENDBRANCH   6   7
ENDBRANCH   5   6
ENDBRANCH   4   5
ENDBRANCH   3   4
ENDBRANCH   2   3
ENDBRANCH   1   2
BRANCH   1  13
ATOM     13  C   UNL     1     -42.912   8.200   5.195  1.00  0.00     0.000 C 
BRANCH  13  14
ATOM     14  C   UNL     1     -44.094   7.221   5.067  1.00  0.00     0.000 C 
BRANCH  14  15
ATOM     15  C   UNL     1     -43.716   5.733   5.182  1.00  0.00     0.000 C 
BRANCH  15  16
ATOM     16  C   UNL     1     -44.354   5.045   6.402  1.00  0.00     0.000 C 
BRANCH  16  17
ATOM     17  C   UNL     1     -43.792   5.566   7.733  1.00  0.00     0.000 C 
BRANCH  17  18
ATOM     18  C   UNL     1     -42.846   4.558   8.408  1.00  0.00     0.000 C 
BRANCH  18  19
ATOM     19  C   UNL     1     -42.674   4.823   9.912  1.00  0.00     0.000 C 
BRANCH  19  20
ATOM     20  C   UNL     1     -41.347   5.525  10.242  1.00  0.00     0.006 C 
BRANCH  20  21
ATOM     21  C   UNL     1     -41.586   6.790  11.071  1.00  0.00     0.053 C 
BRANCH  21  22
ATOM     22  C   UNL     1     -41.579   8.008  10.199  1.00  0.00     0.041 C 
ATOM     23  O   UNL     1     -41.540   7.889   8.941  1.00  0.00    -0.550 OA
ATOM     24  O   UNL     1     -41.624   9.274  10.769  1.00  0.00    -0.550 OA
ENDBRANCH  21  22
ENDBRANCH  20  21
ENDBRANCH  19  20
ENDBRANCH  18  19
ENDBRANCH  17  18
ENDBRANCH  16  17
ENDBRANCH  15  16
ENDBRANCH  14  15
ENDBRANCH  13  14
ENDBRANCH   1  13
TORSDOF 20
ENDMDL
MODEL 3
REMARK VINA RESULT:    -3.515      1.969      5.458
REMARK INTER + INTRA:         -10.658
REMARK INTER:                  -7.249
REMARK INTRA:                  -3.409
REMARK UNBOUND:                -3.034
REMARK SMILES CCCCCCCCCCCCCCCCCCCCCC(=O)[O-]
REMARK SMILES IDX 12 1 11 2 10 3 9 4 8 5 7 6 6 7 5 8 4 9 3 10 2 11 1 12 13 13
REMARK SMILES IDX 14 14 15 15 16 16 17 17 18 18 19 19 20 20 21 21 22 22 23 23
REMARK SMILES IDX 24 24
REMARK H PARENT
REMARK Flexibility Score: inf
ROOT
ATOM      1  C   UNL     1     -44.499   7.180   6.100  1.00  0.00     0.000 C 
ENDROOT
BRANCH   1   2
ATOM      2  C   UNL     1     -43.447   7.944   5.286  1.00  0.00     0.000 C 
BRANCH   2   3
ATOM      3  C   UNL     1     -43.214   9.347   5.865  1.00  0.00     0.000 C 
BRANCH   3   4
ATOM      4  C   UNL     1     -41.723   9.717   5.932  1.00  0.00    -0.000 C 
BRANCH   4   5
ATOM      5  C   UNL     1     -41.275  10.084   7.357  1.00  0.00    -0.000 C 
BRANCH   5   6
ATOM      6  C   UNL     1     -41.521   8.950   8.363  1.00  0.00    -0.000 C 
BRANCH   6   7
ATOM      7  C   UNL     1     -41.340   9.391   9.824  1.00  0.00    -0.000 C 
BRANCH   7   8
ATOM      8  C   UNL     1     -41.433   8.206  10.806  1.00  0.00    -0.000 C 
BRANCH   8   9
ATOM      9  C   UNL     1     -41.090   6.846  10.172  1.00  0.00    -0.000 C 
BRANCH   9  10
ATOM     10  C   UNL     1     -41.677   5.657  10.951  1.00  0.00    -0.000 C 
BRANCH  10  11
ATOM     11  C   UNL     1     -42.485   4.707  10.052  1.00  0.00    -0.003 C 
ATOM     12  C   UNL     1     -42.445   5.108   8.577  1.00  0.00     0.004 C 
ENDBRANCH  10  11
ENDBRANCH   9  10
ENDBRANCH   8   9
ENDBRANCH   7   8
ENDBRANCH   6   7
ENDBRANCH   5   6
ENDBRANCH   4   5
ENDBRANCH   3   4
ENDBRANCH   2   3
ENDBRANCH   1   2
BRANCH   1  13
ATOM     13  C   UNL     1     -44.591   7.729   7.533  1.00  0.00     0.000 C 
BRANCH  13  14
ATOM     14  C   UNL     1     -45.889   8.514   7.794  1.00  0.00     0.000 C 
BRANCH  14  15
ATOM     15  C   UNL     1     -45.729   9.741   8.711  1.00  0.00     0.000 C 
BRANCH  15  16
ATOM     16  C   UNL     1     -44.667   9.536   9.806  1.00  0.00     0.000 C 
BRANCH  16  17
ATOM     17  C   UNL     1     -45.237   8.856  11.060  1.00  0.00     0.000 C 
BRANCH  17  18
ATOM     18  C   UNL     1     -44.916   7.352  11.113  1.00  0.00     0.000 C 
BRANCH  18  19
ATOM     19  C   UNL     1     -46.168   6.474  10.966  1.00  0.00     0.000 C 
BRANCH  19  20
ATOM     20  C   UNL     1     -46.030   5.428   9.848  1.00  0.00     0.006 C 
BRANCH  20  21
ATOM     21  C   UNL     1     -47.394   4.845   9.469  1.00  0.00     0.053 C 
BRANCH  21  22
ATOM     22  C   UNL     1     -47.378   4.319   8.067  1.00  0.00     0.041 C 
ATOM     23  O   UNL     1     -46.418   4.600   7.293  1.00  0.00    -0.550 OA
ATOM     24  O   UNL     1     -48.414   3.513   7.613  1.00  0.00    -0.550 OA
ENDBRANCH  21  22
ENDBRANCH  20  21
ENDBRANCH  19  20
ENDBRANCH  18  19
ENDBRANCH  17  18
ENDBRANCH  16  17
ENDBRANCH  15  16
ENDBRANCH  14  15
ENDBRANCH  13  14
ENDBRANCH   1  13
TORSDOF 20
ENDMDL
MODEL 4
REMARK VINA RESULT:    -3.341      1.540      2.506
REMARK INTER + INTRA:         -10.282
REMARK INTER:                  -7.641
REMARK INTRA:                  -2.641
REMARK UNBOUND:                -3.034
REMARK SMILES CCCCCCCCCCCCCCCCCCCCCC(=O)[O-]
REMARK SMILES IDX 12 1 11 2 10 3 9 4 8 5 7 6 6 7 5 8 4 9 3 10 2 11 1 12 13 13
REMARK SMILES IDX 14 14 15 15 16 16 17 17 18 18 19 19 20 20 21 21 22 22 23 23
REMARK SMILES IDX 24 24
REMARK H PARENT
REMARK Flexibility Score: inf
ROOT
ATOM      1  C   UNL     1     -41.854   8.497  10.060  1.00  0.00     0.000 C 
ENDROOT
BRANCH   1   2
ATOM      2  C   UNL     1     -42.730   9.542  10.761  1.00  0.00     0.000 C 
BRANCH   2   3
ATOM      3  C   UNL     1     -43.835  10.054   9.825  1.00  0.00     0.000 C 
BRANCH   3   4
ATOM      4  C   UNL     1     -45.218   9.483  10.178  1.00  0.00    -0.000 C 
BRANCH   4   5
ATOM      5  C   UNL     1     -45.360   8.004   9.781  1.00  0.00    -0.000 C 
BRANCH   5   6
ATOM      6  C   UNL     1     -45.400   7.068  10.999  1.00  0.00    -0.000 C 
BRANCH   6   7
ATOM      7  C   UNL     1     -45.905   5.657  10.656  1.00  0.00    -0.000 C 
BRANCH   7   8
ATOM      8  C   UNL     1     -46.366   5.544   9.189  1.00  0.00    -0.000 C 
BRANCH   8   9
ATOM      9  C   UNL     1     -47.694   4.788   9.012  1.00  0.00    -0.000 C 
BRANCH   9  10
ATOM     10  C   UNL     1     -47.541   3.489   8.202  1.00  0.00    -0.000 C 
BRANCH  10  11
ATOM     11  C   UNL     1     -48.868   3.021   7.583  1.00  0.00    -0.003 C 
ATOM     12  C   UNL     1     -48.916   1.511   7.355  1.00  0.00     0.004 C 
ENDBRANCH  10  11
ENDBRANCH   9  10
ENDBRANCH   8   9
ENDBRANCH   7   8
ENDBRANCH   6   7
ENDBRANCH   5   6
ENDBRANCH   4   5
ENDBRANCH   3   4
ENDBRANCH   2   3
ENDBRANCH   1   2
BRANCH   1  13
ATOM     13  C   UNL     1     -41.322   7.463  11.065  1.00  0.00     0.000 C 
BRANCH  13  14
ATOM     14  C   UNL     1     -41.016   6.099  10.418  1.00  0.00     0.000 C 
BRANCH  14  15
ATOM     15  C   UNL     1     -42.053   4.999  10.708  1.00  0.00     0.000 C 
BRANCH  15  16
ATOM     16  C   UNL     1     -42.880   4.613   9.469  1.00  0.00     0.000 C 
BRANCH  16  17
ATOM     17  C   UNL     1     -42.800   5.668   8.355  1.00  0.00     0.000 C 
BRANCH  17  18
ATOM     18  C   UNL     1     -43.016   5.065   6.956  1.00  0.00     0.000 C 
BRANCH  18  19
ATOM     19  C   UNL     1     -44.280   5.602   6.268  1.00  0.00     0.000 C 
BRANCH  19  20
ATOM     20  C   UNL     1     -43.996   6.815   5.368  1.00  0.00     0.006 C 
BRANCH  20  21
ATOM     21  C   UNL     1     -43.982   8.112   6.183  1.00  0.00     0.053 C 
BRANCH  21  22
ATOM     22  C   UNL     1     -42.796   8.954   5.824  1.00  0.00     0.041 C 
ATOM     23  O   UNL     1     -42.777   9.593   4.733  1.00  0.00    -0.550 OA
ATOM     24  O   UNL     1     -41.715   9.041   6.692  1.00  0.00    -0.550 OA
ENDBRANCH  21  22
ENDBRANCH  20  21
ENDBRANCH  19  20
ENDBRANCH  18  19
ENDBRANCH  17  18
ENDBRANCH  16  17
ENDBRANCH  15  16
ENDBRANCH  14  15
ENDBRANCH  13  14
ENDBRANCH   1  13
TORSDOF 20
ENDMDL
MODEL 5
REMARK VINA RESULT:    -3.337      2.265      3.533
REMARK INTER + INTRA:         -10.274
REMARK INTER:                  -7.685
REMARK INTRA:                  -2.589
REMARK UNBOUND:                -3.034
REMARK SMILES CCCCCCCCCCCCCCCCCCCCCC(=O)[O-]
REMARK SMILES IDX 12 1 11 2 10 3 9 4 8 5 7 6 6 7 5 8 4 9 3 10 2 11 1 12 13 13
REMARK SMILES IDX 14 14 15 15 16 16 17 17 18 18 19 19 20 20 21 21 22 22 23 23
REMARK SMILES IDX 24 24
REMARK H PARENT
REMARK Flexibility Score: inf
ROOT
ATOM      1  C   UNL     1     -41.742   8.959   7.677  1.00  0.00     0.000 C 
ENDROOT
BRANCH   1   2
ATOM      2  C   UNL     1     -41.885   9.760   8.977  1.00  0.00     0.000 C 
BRANCH   2   3
ATOM      3  C   UNL     1     -43.353  10.123   9.243  1.00  0.00     0.000 C 
BRANCH   3   4
ATOM      4  C   UNL     1     -44.270   8.890   9.275  1.00  0.00    -0.000 C 
BRANCH   4   5
ATOM      5  C   UNL     1     -44.881   8.651  10.666  1.00  0.00    -0.000 C 
BRANCH   5   6
ATOM      6  C   UNL     1     -45.331   7.196  10.871  1.00  0.00    -0.000 C 
BRANCH   6   7
ATOM      7  C   UNL     1     -46.142   6.646   9.686  1.00  0.00    -0.000 C 
BRANCH   7   8
ATOM      8  C   UNL     1     -46.396   5.130   9.810  1.00  0.00    -0.000 C 
BRANCH   8   9
ATOM      9  C   UNL     1     -47.684   4.657   9.113  1.00  0.00    -0.000 C 
BRANCH   9  10
ATOM     10  C   UNL     1     -47.419   3.653   7.980  1.00  0.00    -0.000 C 
BRANCH  10  11
ATOM     11  C   UNL     1     -48.711   3.198   7.282  1.00  0.00    -0.003 C 
ATOM     12  C   UNL     1     -49.055   1.736   7.565  1.00  0.00     0.004 C 
ENDBRANCH  10  11
ENDBRANCH   9  10
ENDBRANCH   8   9
ENDBRANCH   7   8
ENDBRANCH   6   7
ENDBRANCH   5   6
ENDBRANCH   4   5
ENDBRANCH   3   4
ENDBRANCH   2   3
ENDBRANCH   1   2
BRANCH   1  13
ATOM     13  C   UNL     1     -41.206   9.847   6.542  1.00  0.00     0.000 C 
BRANCH  13  14
ATOM     14  C   UNL     1     -42.216  10.029   5.394  1.00  0.00     0.000 C 
BRANCH  14  15
ATOM     15  C   UNL     1     -43.594   9.387   5.637  1.00  0.00     0.000 C 
BRANCH  15  16
ATOM     16  C   UNL     1     -43.724   7.990   5.006  1.00  0.00     0.000 C 
BRANCH  16  17
ATOM     17  C   UNL     1     -44.350   6.965   5.966  1.00  0.00     0.000 C 
BRANCH  17  18
ATOM     18  C   UNL     1     -43.310   5.990   6.546  1.00  0.00     0.000 C 
BRANCH  18  19
ATOM     19  C   UNL     1     -43.941   4.927   7.458  1.00  0.00     0.000 C 
BRANCH  19  20
ATOM     20  C   UNL     1     -43.272   4.861   8.840  1.00  0.00     0.006 C 
BRANCH  20  21
ATOM     21  C   UNL     1     -41.938   5.614   8.842  1.00  0.00     0.053 C 
BRANCH  21  22
ATOM     22  C   UNL     1     -41.419   5.776  10.238  1.00  0.00     0.041 C 
ATOM     23  O   UNL     1     -41.464   4.807  11.049  1.00  0.00    -0.550 OA
ATOM     24  O   UNL     1     -40.880   6.989  10.645  1.00  0.00    -0.550 OA
ENDBRANCH  21  22
ENDBRANCH  20  21
ENDBRANCH  19  20
ENDBRANCH  18  19
ENDBRANCH  17  18
ENDBRANCH  16  17
ENDBRANCH  15  16
ENDBRANCH  14  15
ENDBRANCH  13  14
ENDBRANCH   1  13
TORSDOF 20
ENDMDL
MODEL 6
REMARK VINA RESULT:    -3.235      1.960      4.745
REMARK INTER + INTRA:         -10.051
REMARK INTER:                  -7.417
REMARK INTRA:                  -2.634
REMARK UNBOUND:                -3.034
REMARK SMILES CCCCCCCCCCCCCCCCCCCCCC(=O)[O-]
REMARK SMILES IDX 12 1 11 2 10 3 9 4 8 5 7 6 6 7 5 8 4 9 3 10 2 11 1 12 13 13
REMARK SMILES IDX 14 14 15 15 16 16 17 17 18 18 19 19 20 20 21 21 22 22 23 23
REMARK SMILES IDX 24 24
REMARK H PARENT
REMARK Flexibility Score: inf
ROOT
ATOM      1  C   UNL     1     -42.673   9.295   6.506  1.00  0.00     0.000 C 
ENDROOT
BRANCH   1   2
ATOM      2  C   UNL     1     -41.550  10.018   7.259  1.00  0.00     0.000 C 
BRANCH   2   3
ATOM      3  C   UNL     1     -41.405   9.475   8.688  1.00  0.00     0.000 C 
BRANCH   3   4
ATOM      4  C   UNL     1     -41.613   7.953   8.765  1.00  0.00    -0.000 C 
BRANCH   4   5
ATOM      5  C   UNL     1     -41.491   7.417  10.202  1.00  0.00    -0.000 C 
BRANCH   5   6
ATOM      6  C   UNL     1     -41.409   5.884  10.254  1.00  0.00    -0.000 C 
BRANCH   6   7
ATOM      7  C   UNL     1     -41.594   5.225   8.877  1.00  0.00    -0.000 C 
BRANCH   7   8
ATOM      8  C   UNL     1     -43.074   4.914   8.575  1.00  0.00    -0.000 C 
BRANCH   8   9
ATOM      9  C   UNL     1     -43.686   5.806   7.481  1.00  0.00    -0.000 C 
BRANCH   9  10
ATOM     10  C   UNL     1     -44.272   5.000   6.310  1.00  0.00    -0.000 C 
BRANCH  10  11
ATOM     11  C   UNL     1     -43.607   5.345   4.967  1.00  0.00    -0.003 C 
ATOM     12  C   UNL     1     -43.782   6.812   4.577  1.00  0.00     0.004 C 
ENDBRANCH  10  11
ENDBRANCH   9  10
ENDBRANCH   8   9
ENDBRANCH   7   8
ENDBRANCH   6   7
ENDBRANCH   5   6
ENDBRANCH   4   5
ENDBRANCH   3   4
ENDBRANCH   2   3
ENDBRANCH   1   2
BRANCH   1  13
ATOM     13  C   UNL     1     -44.035   9.948   6.791  1.00  0.00     0.000 C 
BRANCH  13  14
ATOM     14  C   UNL     1     -44.954   9.067   7.658  1.00  0.00     0.000 C 
BRANCH  14  15
ATOM     15  C   UNL     1     -45.470   9.740   8.943  1.00  0.00     0.000 C 
BRANCH  15  16
ATOM     16  C   UNL     1     -44.661   9.348  10.192  1.00  0.00     0.000 C 
BRANCH  16  17
ATOM     17  C   UNL     1     -45.390   8.317  11.068  1.00  0.00     0.000 C 
BRANCH  17  18
ATOM     18  C   UNL     1     -45.088   6.868  10.648  1.00  0.00     0.000 C 
BRANCH  18  19
ATOM     19  C   UNL     1     -46.351   5.996  10.578  1.00  0.00     0.000 C 
BRANCH  19  20
ATOM     20  C   UNL     1     -46.615   5.449   9.166  1.00  0.00     0.006 C 
BRANCH  20  21
ATOM     21  C   UNL     1     -47.752   4.423   9.179  1.00  0.00     0.053 C 
BRANCH  21  22
ATOM     22  C   UNL     1     -47.919   3.796   7.828  1.00  0.00     0.041 C 
ATOM     23  O   UNL     1     -47.173   4.146   6.869  1.00  0.00    -0.550 OA
ATOM     24  O   UNL     1     -48.888   2.822   7.627  1.00  0.00    -0.550 OA
ENDBRANCH  21  22
ENDBRANCH  20  21
ENDBRANCH  19  20
ENDBRANCH  18  19
ENDBRANCH  17  18
ENDBRANCH  16  17
ENDBRANCH  15  16
ENDBRANCH  14  15
ENDBRANCH  13  14
ENDBRANCH   1  13
TORSDOF 20
ENDMDL
MODEL 7
REMARK VINA RESULT:    -3.130      2.173      4.612
REMARK INTER + INTRA:          -9.824
REMARK INTER:                  -6.811
REMARK INTRA:                  -3.013
REMARK UNBOUND:                -3.034
REMARK SMILES CCCCCCCCCCCCCCCCCCCCCC(=O)[O-]
REMARK SMILES IDX 12 1 11 2 10 3 9 4 8 5 7 6 6 7 5 8 4 9 3 10 2 11 1 12 13 13
REMARK SMILES IDX 14 14 15 15 16 16 17 17 18 18 19 19 20 20 21 21 22 22 23 23
REMARK SMILES IDX 24 24
REMARK H PARENT
REMARK Flexibility Score: inf
ROOT
ATOM      1  C   UNL     1     -43.956   5.470   5.281  1.00  0.00     0.000 C 
ENDROOT
BRANCH   1   2
ATOM      2  C   UNL     1     -42.909   4.892   6.241  1.00  0.00     0.000 C 
BRANCH   2   3
ATOM      3  C   UNL     1     -42.905   5.651   7.576  1.00  0.00     0.000 C 
BRANCH   3   4
ATOM      4  C   UNL     1     -42.064   4.947   8.653  1.00  0.00    -0.000 C 
BRANCH   4   5
ATOM      5  C   UNL     1     -42.766   4.921  10.021  1.00  0.00    -0.000 C 
BRANCH   5   6
ATOM      6  C   UNL     1     -43.937   5.912  10.101  1.00  0.00    -0.000 C 
BRANCH   6   7
ATOM      7  C   UNL     1     -45.135   5.365  10.894  1.00  0.00    -0.000 C 
BRANCH   7   8
ATOM      8  C   UNL     1     -46.428   5.341  10.053  1.00  0.00    -0.000 C 
BRANCH   8   9
ATOM      9  C   UNL     1     -46.198   5.602   8.555  1.00  0.00    -0.000 C 
BRANCH   9  10
ATOM     10  C   UNL     1     -46.831   4.527   7.655  1.00  0.00    -0.000 C 
BRANCH  10  11
ATOM     11  C   UNL     1     -48.063   3.871   8.300  1.00  0.00    -0.003 C 
ATOM     12  C   UNL     1     -48.725   2.833   7.394  1.00  0.00     0.004 C 
ENDBRANCH  10  11
ENDBRANCH   9  10
ENDBRANCH   8   9
ENDBRANCH   7   8
ENDBRANCH   6   7
ENDBRANCH   5   6
ENDBRANCH   4   5
ENDBRANCH   3   4
ENDBRANCH   2   3
ENDBRANCH   1   2
BRANCH   1  13
ATOM     13  C   UNL     1     -44.358   6.893   5.699  1.00  0.00     0.000 C 
BRANCH  13  14
ATOM     14  C   UNL     1     -43.563   7.985   4.959  1.00  0.00     0.000 C 
BRANCH  14  15
ATOM     15  C   UNL     1     -43.399   9.304   5.737  1.00  0.00     0.000 C 
BRANCH  15  16
ATOM     16  C   UNL     1     -42.005   9.932   5.564  1.00  0.00     0.000 C 
BRANCH  16  17
ATOM     17  C   UNL     1     -41.123   9.762   6.810  1.00  0.00     0.000 C 
BRANCH  17  18
ATOM     18  C   UNL     1     -41.899   9.997   8.118  1.00  0.00     0.000 C 
BRANCH  18  19
ATOM     19  C   UNL     1     -41.720   8.852   9.127  1.00  0.00     0.000 C 
BRANCH  19  20
ATOM     20  C   UNL     1     -42.515   9.076  10.423  1.00  0.00     0.006 C 
BRANCH  20  21
ATOM     21  C   UNL     1     -43.614  10.123  10.220  1.00  0.00     0.053 C 
BRANCH  21  22
ATOM     22  C   UNL     1     -44.949   9.467  10.045  1.00  0.00     0.041 C 
ATOM     23  O   UNL     1     -45.505   8.888  11.022  1.00  0.00    -0.550 OA
ATOM     24  O   UNL     1     -45.585   9.498   8.811  1.00  0.00    -0.550 OA
ENDBRANCH  21  22
ENDBRANCH  20  21
ENDBRANCH  19  20
ENDBRANCH  18  19
ENDBRANCH  17  18
ENDBRANCH  16  17
ENDBRANCH  15  16
ENDBRANCH  14  15
ENDBRANCH  13  14
ENDBRANCH   1  13
TORSDOF 20
ENDMDL
MODEL 8
REMARK VINA RESULT:    -3.069      2.365      4.981
REMARK INTER + INTRA:          -9.692
REMARK INTER:                  -6.514
REMARK INTRA:                  -3.178
REMARK UNBOUND:                -3.034
REMARK SMILES CCCCCCCCCCCCCCCCCCCCCC(=O)[O-]
REMARK SMILES IDX 12 1 11 2 10 3 9 4 8 5 7 6 6 7 5 8 4 9 3 10 2 11 1 12 13 13
REMARK SMILES IDX 14 14 15 15 16 16 17 17 18 18 19 19 20 20 21 21 22 22 23 23
REMARK SMILES IDX 24 24
REMARK H PARENT
REMARK Flexibility Score: inf
ROOT
ATOM      1  C   UNL     1     -41.332   7.423   8.989  1.00  0.00     0.000 C 
ENDROOT
BRANCH   1   2
ATOM      2  C   UNL     1     -41.374   8.109  10.360  1.00  0.00     0.000 C 
BRANCH   2   3
ATOM      3  C   UNL     1     -41.508   9.632  10.211  1.00  0.00     0.000 C 
BRANCH   3   4
ATOM      4  C   UNL     1     -42.954  10.119  10.398  1.00  0.00    -0.000 C 
BRANCH   4   5
ATOM      5  C   UNL     1     -43.944   8.955  10.577  1.00  0.00    -0.000 C 
BRANCH   5   6
ATOM      6  C   UNL     1     -45.390   9.356  10.246  1.00  0.00    -0.000 C 
BRANCH   6   7
ATOM      7  C   UNL     1     -45.545   9.934   8.829  1.00  0.00    -0.000 C 
BRANCH   7   8
ATOM      8  C   UNL     1     -45.164   8.911   7.740  1.00  0.00    -0.000 C 
BRANCH   8   9
ATOM      9  C   UNL     1     -44.014   9.374   6.828  1.00  0.00    -0.000 C 
BRANCH   9  10
ATOM     10  C   UNL     1     -43.380   8.221   6.031  1.00  0.00    -0.000 C 
BRANCH  10  11
ATOM     11  C   UNL     1     -44.293   6.986   5.956  1.00  0.00    -0.003 C 
ATOM     12  C   UNL     1     -43.703   5.864   5.102  1.00  0.00     0.004 C 
ENDBRANCH  10  11
ENDBRANCH   9  10
ENDBRANCH   8   9
ENDBRANCH   7   8
ENDBRANCH   6   7
ENDBRANCH   5   6
ENDBRANCH   4   5
ENDBRANCH   3   4
ENDBRANCH   2   3
ENDBRANCH   1   2
BRANCH   1  13
ATOM     13  C   UNL     1     -41.428   5.896   9.136  1.00  0.00     0.000 C 
BRANCH  13  14
ATOM     14  C   UNL     1     -41.430   5.432  10.604  1.00  0.00     0.000 C 
BRANCH  14  15
ATOM     15  C   UNL     1     -42.783   4.902  11.112  1.00  0.00     0.000 C 
BRANCH  15  16
ATOM     16  C   UNL     1     -43.952   5.244  10.173  1.00  0.00     0.000 C 
BRANCH  16  17
ATOM     17  C   UNL     1     -45.266   5.489  10.931  1.00  0.00     0.000 C 
BRANCH  17  18
ATOM     18  C   UNL     1     -46.472   5.635   9.987  1.00  0.00     0.000 C 
BRANCH  18  19
ATOM     19  C   UNL     1     -46.065   5.666   8.506  1.00  0.00     0.000 C 
BRANCH  19  20
ATOM     20  C   UNL     1     -46.734   4.554   7.683  1.00  0.00     0.006 C 
BRANCH  20  21
ATOM     21  C   UNL     1     -47.876   3.902   8.469  1.00  0.00     0.053 C 
BRANCH  21  22
ATOM     22  C   UNL     1     -48.576   2.873   7.634  1.00  0.00     0.041 C 
ATOM     23  O   UNL     1     -49.228   3.222   6.609  1.00  0.00    -0.550 OA
ATOM     24  O   UNL     1     -48.505   1.530   7.980  1.00  0.00    -0.550 OA
ENDBRANCH  21  22
ENDBRANCH  20  21
ENDBRANCH  19  20
ENDBRANCH  18  19
ENDBRANCH  17  18
ENDBRANCH  16  17
ENDBRANCH  15  16
ENDBRANCH  14  15
ENDBRANCH  13  14
ENDBRANCH   1  13
TORSDOF 20
ENDMDL
MODEL 9
REMARK VINA RESULT:    -3.011      1.300      3.218
REMARK INTER + INTRA:          -9.567
REMARK INTER:                  -6.920
REMARK INTRA:                  -2.646
REMARK UNBOUND:                -3.034
REMARK SMILES CCCCCCCCCCCCCCCCCCCCCC(=O)[O-]
REMARK SMILES IDX 12 1 11 2 10 3 9 4 8 5 7 6 6 7 5 8 4 9 3 10 2 11 1 12 13 13
REMARK SMILES IDX 14 14 15 15 16 16 17 17 18 18 19 19 20 20 21 21 22 22 23 23
REMARK SMILES IDX 24 24
REMARK H PARENT
REMARK Flexibility Score: inf
ROOT
ATOM      1  C   UNL     1     -41.394   7.453   8.977  1.00  0.00     0.000 C 
ENDROOT
BRANCH   1   2
ATOM      2  C   UNL     1     -40.995   5.973   9.023  1.00  0.00     0.000 C 
BRANCH   2   3
ATOM      3  C   UNL     1     -41.650   5.261  10.216  1.00  0.00     0.000 C 
BRANCH   3   4
ATOM      4  C   UNL     1     -43.115   4.884   9.946  1.00  0.00    -0.000 C 
BRANCH   4   5
ATOM      5  C   UNL     1     -44.103   5.814  10.672  1.00  0.00    -0.000 C 
BRANCH   5   6
ATOM      6  C   UNL     1     -45.496   5.187  10.828  1.00  0.00    -0.000 C 
BRANCH   6   7
ATOM      7  C   UNL     1     -46.582   5.927  10.030  1.00  0.00    -0.000 C 
BRANCH   7   8
ATOM      8  C   UNL     1     -46.280   5.946   8.517  1.00  0.00    -0.000 C 
BRANCH   8   9
ATOM      9  C   UNL     1     -46.546   4.604   7.814  1.00  0.00    -0.000 C 
BRANCH   9  10
ATOM     10  C   UNL     1     -47.774   3.866   8.375  1.00  0.00    -0.000 C 
BRANCH  10  11
ATOM     11  C   UNL     1     -48.581   3.151   7.279  1.00  0.00    -0.003 C 
ATOM     12  C   UNL     1     -48.934   1.710   7.648  1.00  0.00     0.004 C 
ENDBRANCH  10  11
ENDBRANCH   9  10
ENDBRANCH   8   9
ENDBRANCH   7   8
ENDBRANCH   6   7
ENDBRANCH   5   6
ENDBRANCH   4   5
ENDBRANCH   3   4
ENDBRANCH   2   3
ENDBRANCH   1   2
BRANCH   1  13
ATOM     13  C   UNL     1     -41.434   8.056  10.390  1.00  0.00     0.000 C 
BRANCH  13  14
ATOM     14  C   UNL     1     -41.575   9.589  10.385  1.00  0.00     0.000 C 
BRANCH  14  15
ATOM     15  C   UNL     1     -42.890  10.119  10.986  1.00  0.00     0.000 C 
BRANCH  15  16
ATOM     16  C   UNL     1     -44.107   9.250  10.625  1.00  0.00     0.000 C 
BRANCH  16  17
ATOM     17  C   UNL     1     -45.122   9.993   9.743  1.00  0.00     0.000 C 
BRANCH  17  18
ATOM     18  C   UNL     1     -45.140   9.468   8.296  1.00  0.00     0.000 C 
BRANCH  18  19
ATOM     19  C   UNL     1     -43.945   9.968   7.470  1.00  0.00     0.000 C 
BRANCH  19  20
ATOM     20  C   UNL     1     -43.353   8.876   6.564  1.00  0.00     0.006 C 
BRANCH  20  21
ATOM     21  C   UNL     1     -44.071   7.539   6.774  1.00  0.00     0.053 C 
BRANCH  21  22
ATOM     22  C   UNL     1     -43.875   6.638   5.594  1.00  0.00     0.041 C 
ATOM     23  O   UNL     1     -43.813   5.386   5.753  1.00  0.00    -0.550 OA
ATOM     24  O   UNL     1     -43.769   7.176   4.317  1.00  0.00    -0.550 OA
ENDBRANCH  21  22
ENDBRANCH  20  21
ENDBRANCH  19  20
ENDBRANCH  18  19
ENDBRANCH  17  18
ENDBRANCH  16  17
ENDBRANCH  15  16
ENDBRANCH  14  15
ENDBRANCH  13  14
ENDBRANCH   1  13
TORSDOF 20
ENDMDL
