MODEL 1
REMARK VINA RESULT:    -3.934      0.000      0.000
REMARK INTER + INTRA:          -7.347
REMARK INTER:                  -6.233
REMARK INTRA:                  -1.113
REMARK UNBOUND:                -1.113
REMARK SMILES CCCCCCCCCCCC(=O)[O-]
REMARK SMILES IDX 7 1 8 2 9 3 10 4 11 5 12 6 13 7 14 8 6 9 5 10 4 11 3 12 2 13
REMARK SMILES IDX 1 14
REMARK H PARENT
REMARK Flexibility Score: inf
ROOT
ATOM      1  C   UNL     1     -13.871  18.244 -16.949  1.00  0.00     0.000 C 
ENDROOT
BRANCH   1   2
ATOM      2  C   UNL     1     -15.026  19.149 -16.492  1.00  0.00     0.000 C 
BRANCH   2   3
ATOM      3  C   UNL     1     -15.626  19.915 -17.680  1.00  0.00     0.000 C 
BRANCH   3   4
ATOM      4  C   UNL     1     -15.751  21.428 -17.423  1.00  0.00     0.006 C 
BRANCH   4   5
ATOM      5  C   UNL     1     -14.500  22.233 -17.815  1.00  0.00     0.053 C 
BRANCH   5   6
ATOM      6  C   UNL     1     -13.703  22.674 -16.624  1.00  0.00     0.041 C 
ATOM      7  O   UNL     1     -13.737  23.876 -16.250  1.00  0.00    -0.550 OA
ATOM      8  O   UNL     1     -12.952  21.753 -15.906  1.00  0.00    -0.550 OA
ENDBRANCH   5   6
ENDBRANCH   4   5
ENDBRANCH   3   4
ENDBRANCH   2   3
ENDBRANCH   1   2
BRANCH   1   9
ATOM      9  C   UNL     1     -13.066  18.848 -18.111  1.00  0.00     0.000 C 
BRANCH   9  10
ATOM     10  C   UNL     1     -12.887  17.865 -19.281  1.00  0.00    -0.000 C 
BRANCH  10  11
ATOM     11  C   UNL     1     -14.201  17.170 -19.672  1.00  0.00    -0.000 C 
BRANCH  11  12
ATOM     12  C   UNL     1     -14.121  15.640 -19.553  1.00  0.00    -0.000 C 
BRANCH  12  13
ATOM     13  C   UNL     1     -12.774  15.206 -18.962  1.00  0.00    -0.003 C 
ATOM     14  C   UNL     1     -12.967  14.427 -17.663  1.00  0.00     0.004 C 
ENDBRANCH  12  13
ENDBRANCH  11  12
ENDBRANCH  10  11
ENDBRANCH   9  10
ENDBRANCH   1   9
TORSDOF 10
ENDMDL
MODEL 2
REMARK VINA RESULT:    -3.905      6.975      8.866
REMARK INTER + INTRA:          -7.302
REMARK INTER:                  -6.272
REMARK INTRA:                  -1.030
REMARK UNBOUND:                -1.113
REMARK SMILES CCCCCCCCCCCC(=O)[O-]
REMARK SMILES IDX 7 1 8 2 9 3 10 4 11 5 12 6 13 7 14 8 6 9 5 10 4 11 3 12 2 13
REMARK SMILES IDX 1 14
REMARK H PARENT
REMARK Flexibility Score: inf
ROOT
ATOM      1  C   UNL     1     -16.632  15.585 -12.871  1.00  0.00     0.000 C 
ENDROOT
BRANCH   1   2
ATOM      2  C   UNL     1     -16.730  14.654 -14.089  1.00  0.00     0.000 C 
BRANCH   2   3
ATOM      3  C   UNL     1     -16.998  13.206 -13.654  1.00  0.00     0.000 C 
BRANCH   3   4
ATOM      4  C   UNL     1     -16.507  12.166 -14.677  1.00  0.00     0.006 C 
BRANCH   4   5
ATOM      5  C   UNL     1     -16.823  12.528 -16.138  1.00  0.00     0.053 C 
BRANCH   5   6
ATOM      6  C   UNL     1     -17.979  11.750 -16.688  1.00  0.00     0.041 C 
ATOM      7  O   UNL     1     -17.901  10.499 -16.803  1.00  0.00    -0.550 OA
ATOM      8  O   UNL     1     -19.155  12.399 -17.040  1.00  0.00    -0.550 OA
ENDBRANCH   5   6
ENDBRANCH   4   5
ENDBRANCH   3   4
ENDBRANCH   2   3
ENDBRANCH   1   2
BRANCH   1   9
ATOM      9  C   UNL     1     -16.902  17.057 -13.224  1.00  0.00     0.000 C 
BRANCH   9  10
ATOM     10  C   UNL     1     -18.201  17.587 -12.594  1.00  0.00    -0.000 C 
BRANCH  10  11
ATOM     11  C   UNL     1     -19.369  17.622 -13.592  1.00  0.00    -0.000 C 
BRANCH  11  12
ATOM     12  C   UNL     1     -18.900  17.611 -15.055  1.00  0.00    -0.000 C 
BRANCH  12  13
ATOM     13  C   UNL     1     -19.612  16.511 -15.851  1.00  0.00    -0.003 C 
ATOM     14  C   UNL     1     -18.693  15.915 -16.914  1.00  0.00     0.004 C 
ENDBRANCH  12  13
ENDBRANCH  11  12
ENDBRANCH  10  11
ENDBRANCH   9  10
ENDBRANCH   1   9
TORSDOF 10
ENDMDL
MODEL 3
REMARK VINA RESULT:    -3.865      1.422      2.202
REMARK INTER + INTRA:          -7.237
REMARK INTER:                  -6.116
REMARK INTRA:                  -1.121
REMARK UNBOUND:                -1.113
REMARK SMILES CCCCCCCCCCCC(=O)[O-]
REMARK SMILES IDX 7 1 8 2 9 3 10 4 11 5 12 6 13 7 14 8 6 9 5 10 4 11 3 12 2 13
REMARK SMILES IDX 1 14
REMARK H PARENT
REMARK Flexibility Score: inf
ROOT
ATOM      1  C   UNL     1     -14.435  18.143 -17.066  1.00  0.00     0.000 C 
ENDROOT
BRANCH   1   2
ATOM      2  C   UNL     1     -15.819  18.058 -17.728  1.00  0.00     0.000 C 
BRANCH   2   3
ATOM      3  C   UNL     1     -16.275  19.438 -18.225  1.00  0.00     0.000 C 
BRANCH   3   4
ATOM      4  C   UNL     1     -16.070  20.554 -17.185  1.00  0.00     0.006 C 
BRANCH   4   5
ATOM      5  C   UNL     1     -15.410  21.823 -17.752  1.00  0.00     0.053 C 
BRANCH   5   6
ATOM      6  C   UNL     1     -13.996  21.994 -17.286  1.00  0.00     0.041 C 
ATOM      7  O   UNL     1     -13.077  21.292 -17.783  1.00  0.00    -0.550 OA
ATOM      8  O   UNL     1     -13.686  22.952 -16.329  1.00  0.00    -0.550 OA
ENDBRANCH   5   6
ENDBRANCH   4   5
ENDBRANCH   3   4
ENDBRANCH   2   3
ENDBRANCH   1   2
BRANCH   1   9
ATOM      9  C   UNL     1     -13.367  17.328 -17.815  1.00  0.00     0.000 C 
BRANCH   9  10
ATOM     10  C   UNL     1     -13.226  17.751 -19.288  1.00  0.00    -0.000 C 
BRANCH  10  11
ATOM     11  C   UNL     1     -13.068  16.550 -20.233  1.00  0.00    -0.000 C 
BRANCH  11  12
ATOM     12  C   UNL     1     -14.346  15.703 -20.338  1.00  0.00    -0.000 C 
BRANCH  12  13
ATOM     13  C   UNL     1     -15.178  16.116 -21.559  1.00  0.00    -0.003 C 
ATOM     14  C   UNL     1     -16.434  16.875 -21.139  1.00  0.00     0.004 C 
ENDBRANCH  12  13
ENDBRANCH  11  12
ENDBRANCH  10  11
ENDBRANCH   9  10
ENDBRANCH   1   9
TORSDOF 10
ENDMDL
MODEL 4
REMARK VINA RESULT:    -3.863      3.711      5.775
REMARK INTER + INTRA:          -7.235
REMARK INTER:                  -5.880
REMARK INTRA:                  -1.355
REMARK UNBOUND:                -1.113
REMARK SMILES CCCCCCCCCCCC(=O)[O-]
REMARK SMILES IDX 7 1 8 2 9 3 10 4 11 5 12 6 13 7 14 8 6 9 5 10 4 11 3 12 2 13
REMARK SMILES IDX 1 14
REMARK H PARENT
REMARK Flexibility Score: inf
ROOT
ATOM      1  C   UNL     1     -16.902  19.868 -18.746  1.00  0.00     0.000 C 
ENDROOT
BRANCH   1   2
ATOM      2  C   UNL     1     -16.751  18.344 -18.876  1.00  0.00     0.000 C 
BRANCH   2   3
ATOM      3  C   UNL     1     -15.864  17.783 -17.756  1.00  0.00     0.000 C 
BRANCH   3   4
ATOM      4  C   UNL     1     -14.553  17.164 -18.274  1.00  0.00     0.006 C 
BRANCH   4   5
ATOM      5  C   UNL     1     -14.396  17.221 -19.803  1.00  0.00     0.053 C 
BRANCH   5   6
ATOM      6  C   UNL     1     -14.600  15.887 -20.453  1.00  0.00     0.041 C 
ATOM      7  O   UNL     1     -14.504  14.831 -19.774  1.00  0.00    -0.550 OA
ATOM      8  O   UNL     1     -14.931  15.808 -21.800  1.00  0.00    -0.550 OA
ENDBRANCH   5   6
ENDBRANCH   4   5
ENDBRANCH   3   4
ENDBRANCH   2   3
ENDBRANCH   1   2
BRANCH   1   9
ATOM      9  C   UNL     1     -16.262  20.422 -17.462  1.00  0.00     0.000 C 
BRANCH   9  10
ATOM     10  C   UNL     1     -15.562  21.773 -17.686  1.00  0.00    -0.000 C 
BRANCH  10  11
ATOM     11  C   UNL     1     -14.102  21.767 -17.206  1.00  0.00    -0.000 C 
BRANCH  11  12
ATOM     12  C   UNL     1     -13.708  20.450 -16.521  1.00  0.00    -0.000 C 
BRANCH  12  13
ATOM     13  C   UNL     1     -12.294  20.019 -16.933  1.00  0.00    -0.003 C 
ATOM     14  C   UNL     1     -12.133  20.038 -18.451  1.00  0.00     0.004 C 
ENDBRANCH  12  13
ENDBRANCH  11  12
ENDBRANCH  10  11
ENDBRANCH   9  10
ENDBRANCH   1   9
TORSDOF 10
ENDMDL
MODEL 5
REMARK VINA RESULT:    -3.846      2.741      4.225
REMARK INTER + INTRA:          -7.207
REMARK INTER:                  -6.558
REMARK INTRA:                  -0.649
REMARK UNBOUND:                -1.113
REMARK SMILES CCCCCCCCCCCC(=O)[O-]
REMARK SMILES IDX 7 1 8 2 9 3 10 4 11 5 12 6 13 7 14 8 6 9 5 10 4 11 3 12 2 13
REMARK SMILES IDX 1 14
REMARK H PARENT
REMARK Flexibility Score: inf
ROOT
ATOM      1  C   UNL     1     -13.180  16.044 -19.608  1.00  0.00     0.000 C 
ENDROOT
BRANCH   1   2
ATOM      2  C   UNL     1     -13.084  17.570 -19.757  1.00  0.00     0.000 C 
BRANCH   2   3
ATOM      3  C   UNL     1     -13.018  18.253 -18.384  1.00  0.00     0.000 C 
BRANCH   3   4
ATOM      4  C   UNL     1     -14.366  18.851 -17.940  1.00  0.00     0.006 C 
BRANCH   4   5
ATOM      5  C   UNL     1     -14.276  19.726 -16.678  1.00  0.00     0.053 C 
BRANCH   5   6
ATOM      6  C   UNL     1     -14.416  21.187 -16.979  1.00  0.00     0.041 C 
ATOM      7  O   UNL     1     -15.417  21.609 -17.614  1.00  0.00    -0.550 OA
ATOM      8  O   UNL     1     -13.460  22.088 -16.528  1.00  0.00    -0.550 OA
ENDBRANCH   5   6
ENDBRANCH   4   5
ENDBRANCH   3   4
ENDBRANCH   2   3
ENDBRANCH   1   2
BRANCH   1   9
ATOM      9  C   UNL     1     -14.577  15.500 -19.948  1.00  0.00     0.000 C 
BRANCH   9  10
ATOM     10  C   UNL     1     -15.309  16.359 -20.994  1.00  0.00    -0.000 C 
BRANCH  10  11
ATOM     11  C   UNL     1     -16.608  16.972 -20.448  1.00  0.00    -0.000 C 
BRANCH  11  12
ATOM     12  C   UNL     1     -17.450  17.648 -21.542  1.00  0.00    -0.000 C 
BRANCH  12  13
ATOM     13  C   UNL     1     -18.941  17.336 -21.357  1.00  0.00    -0.003 C 
ATOM     14  C   UNL     1     -19.678  17.351 -22.694  1.00  0.00     0.004 C 
ENDBRANCH  12  13
ENDBRANCH  11  12
ENDBRANCH  10  11
ENDBRANCH   9  10
ENDBRANCH   1   9
TORSDOF 10
ENDMDL
MODEL 6
REMARK VINA RESULT:    -3.823      3.916      5.999
REMARK INTER + INTRA:          -7.171
REMARK INTER:                  -6.257
REMARK INTRA:                  -0.914
REMARK UNBOUND:                -1.113
REMARK SMILES CCCCCCCCCCCC(=O)[O-]
REMARK SMILES IDX 7 1 8 2 9 3 10 4 11 5 12 6 13 7 14 8 6 9 5 10 4 11 3 12 2 13
REMARK SMILES IDX 1 14
REMARK H PARENT
REMARK Flexibility Score: inf
ROOT
ATOM      1  C   UNL     1     -13.251  18.305 -18.593  1.00  0.00     0.000 C 
ENDROOT
BRANCH   1   2
ATOM      2  C   UNL     1     -14.425  17.315 -18.572  1.00  0.00     0.000 C 
BRANCH   2   3
ATOM      3  C   UNL     1     -15.089  17.221 -19.953  1.00  0.00     0.000 C 
BRANCH   3   4
ATOM      4  C   UNL     1     -16.422  17.987 -20.037  1.00  0.00     0.006 C 
BRANCH   4   5
ATOM      5  C   UNL     1     -17.350  17.506 -21.166  1.00  0.00     0.053 C 
BRANCH   5   6
ATOM      6  C   UNL     1     -18.794  17.791 -20.886  1.00  0.00     0.041 C 
ATOM      7  O   UNL     1     -19.659  16.892 -21.051  1.00  0.00    -0.550 OA
ATOM      8  O   UNL     1     -19.181  19.037 -20.410  1.00  0.00    -0.550 OA
ENDBRANCH   5   6
ENDBRANCH   4   5
ENDBRANCH   3   4
ENDBRANCH   2   3
ENDBRANCH   1   2
BRANCH   1   9
ATOM      9  C   UNL     1     -12.937  18.887 -17.205  1.00  0.00     0.000 C 
BRANCH   9  10
ATOM     10  C   UNL     1     -12.180  20.224 -17.281  1.00  0.00    -0.000 C 
BRANCH  10  11
ATOM     11  C   UNL     1     -13.030  21.349 -17.892  1.00  0.00    -0.000 C 
BRANCH  11  12
ATOM     12  C   UNL     1     -14.197  21.770 -16.986  1.00  0.00    -0.000 C 
BRANCH  12  13
ATOM     13  C   UNL     1     -15.523  21.755 -17.756  1.00  0.00    -0.003 C 
ATOM     14  C   UNL     1     -16.359  20.531 -17.392  1.00  0.00     0.004 C 
ENDBRANCH  12  13
ENDBRANCH  11  12
ENDBRANCH  10  11
ENDBRANCH   9  10
ENDBRANCH   1   9
TORSDOF 10
ENDMDL
MODEL 7
REMARK VINA RESULT:    -3.793     13.378     15.800
REMARK INTER + INTRA:          -7.124
REMARK INTER:                  -6.496
REMARK INTRA:                  -0.628
REMARK UNBOUND:                -1.113
REMARK SMILES CCCCCCCCCCCC(=O)[O-]
REMARK SMILES IDX 7 1 8 2 9 3 10 4 11 5 12 6 13 7 14 8 6 9 5 10 4 11 3 12 2 13
REMARK SMILES IDX 1 14
REMARK H PARENT
REMARK Flexibility Score: inf
ROOT
ATOM      1  C   UNL     1      -4.219  10.831 -12.301  1.00  0.00     0.000 C 
ENDROOT
BRANCH   1   2
ATOM      2  C   UNL     1      -2.838  10.477 -12.873  1.00  0.00     0.000 C 
BRANCH   2   3
ATOM      3  C   UNL     1      -2.652  11.082 -14.272  1.00  0.00     0.000 C 
BRANCH   3   4
ATOM      4  C   UNL     1      -2.101  10.075 -15.298  1.00  0.00     0.006 C 
BRANCH   4   5
ATOM      5  C   UNL     1      -2.304  10.500 -16.763  1.00  0.00     0.053 C 
BRANCH   5   6
ATOM      6  C   UNL     1      -3.724  10.876 -17.062  1.00  0.00     0.041 C 
ATOM      7  O   UNL     1      -4.606   9.983 -17.162  1.00  0.00    -0.550 OA
ATOM      8  O   UNL     1      -4.081  12.211 -17.195  1.00  0.00    -0.550 OA
ENDBRANCH   5   6
ENDBRANCH   4   5
ENDBRANCH   3   4
ENDBRANCH   2   3
ENDBRANCH   1   2
BRANCH   1   9
ATOM      9  C   UNL     1      -4.259  10.777 -10.765  1.00  0.00     0.000 C 
BRANCH   9  10
ATOM     10  C   UNL     1      -4.490   9.353 -10.229  1.00  0.00    -0.000 C 
BRANCH  10  11
ATOM     11  C   UNL     1      -3.486   8.966  -9.132  1.00  0.00    -0.000 C 
BRANCH  11  12
ATOM     12  C   UNL     1      -2.079   9.529  -9.390  1.00  0.00    -0.000 C 
BRANCH  12  13
ATOM     13  C   UNL     1      -1.063   8.396  -9.581  1.00  0.00    -0.003 C 
ATOM     14  C   UNL     1      -1.476   7.147  -8.807  1.00  0.00     0.004 C 
ENDBRANCH  12  13
ENDBRANCH  11  12
ENDBRANCH  10  11
ENDBRANCH   9  10
ENDBRANCH   1   9
TORSDOF 10
ENDMDL
MODEL 8
REMARK VINA RESULT:    -3.787      5.030      6.477
REMARK INTER + INTRA:          -7.115
REMARK INTER:                  -5.744
REMARK INTRA:                  -1.370
REMARK UNBOUND:                -1.113
REMARK SMILES CCCCCCCCCCCC(=O)[O-]
REMARK SMILES IDX 7 1 8 2 9 3 10 4 11 5 12 6 13 7 14 8 6 9 5 10 4 11 3 12 2 13
REMARK SMILES IDX 1 14
REMARK H PARENT
REMARK Flexibility Score: inf
ROOT
ATOM      1  C   UNL     1     -16.358  13.365 -14.359  1.00  0.00     0.000 C 
ENDROOT
BRANCH   1   2
ATOM      2  C   UNL     1     -17.099  14.175 -15.434  1.00  0.00     0.000 C 
BRANCH   2   3
ATOM      3  C   UNL     1     -16.499  15.581 -15.572  1.00  0.00     0.000 C 
BRANCH   3   4
ATOM      4  C   UNL     1     -15.556  15.953 -14.413  1.00  0.00     0.006 C 
BRANCH   4   5
ATOM      5  C   UNL     1     -16.005  17.188 -13.614  1.00  0.00     0.053 C 
BRANCH   5   6
ATOM      6  C   UNL     1     -17.153  16.895 -12.697  1.00  0.00     0.041 C 
ATOM      7  O   UNL     1     -17.053  15.991 -11.827  1.00  0.00    -0.550 OA
ATOM      8  O   UNL     1     -18.321  17.642 -12.778  1.00  0.00    -0.550 OA
ENDBRANCH   5   6
ENDBRANCH   4   5
ENDBRANCH   3   4
ENDBRANCH   2   3
ENDBRANCH   1   2
BRANCH   1   9
ATOM      9  C   UNL     1     -16.246  11.872 -14.711  1.00  0.00     0.000 C 
BRANCH   9  10
ATOM     10  C   UNL     1     -15.775  11.639 -16.157  1.00  0.00    -0.000 C 
BRANCH  10  11
ATOM     11  C   UNL     1     -14.304  11.203 -16.235  1.00  0.00    -0.000 C 
BRANCH  11  12
ATOM     12  C   UNL     1     -13.339  12.391 -16.375  1.00  0.00    -0.000 C 
BRANCH  12  13
ATOM     13  C   UNL     1     -13.814  13.357 -17.467  1.00  0.00    -0.003 C 
ATOM     14  C   UNL     1     -13.284  14.767 -17.225  1.00  0.00     0.004 C 
ENDBRANCH  12  13
ENDBRANCH  11  12
ENDBRANCH  10  11
ENDBRANCH   9  10
ENDBRANCH   1   9
TORSDOF 10
ENDMDL
MODEL 9
REMARK VINA RESULT:    -3.742      3.992      5.867
REMARK INTER + INTRA:          -7.042
REMARK INTER:                  -5.576
REMARK INTRA:                  -1.467
REMARK UNBOUND:                -1.113
REMARK SMILES CCCCCCCCCCCC(=O)[O-]
REMARK SMILES IDX 7 1 8 2 9 3 10 4 11 5 12 6 13 7 14 8 6 9 5 10 4 11 3 12 2 13
REMARK SMILES IDX 1 14
REMARK H PARENT
REMARK Flexibility Score: inf
ROOT
ATOM      1  C   UNL     1     -17.927  18.935 -20.398  1.00  0.00     0.000 C 
ENDROOT
BRANCH   1   2
ATOM      2  C   UNL     1     -17.683  17.597 -21.112  1.00  0.00     0.000 C 
BRANCH   2   3
ATOM      3  C   UNL     1     -16.341  16.984 -20.687  1.00  0.00     0.000 C 
BRANCH   3   4
ATOM      4  C   UNL     1     -15.705  17.697 -19.480  1.00  0.00     0.006 C 
BRANCH   4   5
ATOM      5  C   UNL     1     -14.461  16.987 -18.919  1.00  0.00     0.053 C 
BRANCH   5   6
ATOM      6  C   UNL     1     -13.188  17.484 -19.534  1.00  0.00     0.041 C 
ATOM      7  O   UNL     1     -12.651  18.541 -19.110  1.00  0.00    -0.550 OA
ATOM      8  O   UNL     1     -12.574  16.764 -20.551  1.00  0.00    -0.550 OA
ENDBRANCH   5   6
ENDBRANCH   4   5
ENDBRANCH   3   4
ENDBRANCH   2   3
ENDBRANCH   1   2
BRANCH   1   9
ATOM      9  C   UNL     1     -19.393  19.127 -19.975  1.00  0.00     0.000 C 
BRANCH   9  10
ATOM     10  C   UNL     1     -20.085  17.799 -19.623  1.00  0.00    -0.000 C 
BRANCH  10  11
ATOM     11  C   UNL     1     -20.023  17.481 -18.121  1.00  0.00    -0.000 C 
BRANCH  11  12
ATOM     12  C   UNL     1     -18.915  16.475 -17.772  1.00  0.00    -0.000 C 
BRANCH  12  13
ATOM     13  C   UNL     1     -18.082  16.967 -16.582  1.00  0.00    -0.003 C 
ATOM     14  C   UNL     1     -17.866  18.477 -16.646  1.00  0.00     0.004 C 
ENDBRANCH  12  13
ENDBRANCH  11  12
ENDBRANCH  10  11
ENDBRANCH   9  10
ENDBRANCH   1   9
TORSDOF 10
ENDMDL
