MODEL 1
REMARK VINA RESULT:    -5.347      0.000      0.000
REMARK INTER + INTRA:          -5.716
REMARK INTER:                  -5.816
REMARK INTRA:                   0.100
REMARK UNBOUND:                 0.100
REMARK SMILES COc1cc2ccc(=O)oc2cc1O
REMARK SMILES IDX 3 1 13 2 12 3 11 4 5 5 4 6 6 7 7 8 8 9 9 10 10 11 2 12 1 13
REMARK SMILES IDX 14 14
REMARK H PARENT 14 15
REMARK Flexibility Score: inf
ROOT
ATOM      1  C   UNL     1      19.673  -0.621 -17.922  1.00  0.00     0.161 A 
ATOM      2  C   UNL     1      20.479   0.505 -17.665  1.00  0.00     0.161 A 
ATOM      3  C   UNL     1      21.218   1.094 -18.697  1.00  0.00     0.098 A 
ATOM      4  C   UNL     1      21.164   0.573 -19.993  1.00  0.00     0.142 A 
ATOM      5  C   UNL     1      20.360  -0.554 -20.261  1.00  0.00     0.022 A 
ATOM      6  C   UNL     1      19.619  -1.147 -19.230  1.00  0.00     0.062 A 
ATOM      7  C   UNL     1      20.327  -1.053 -21.566  1.00  0.00     0.019 A 
ATOM      8  C   UNL     1      21.083  -0.428 -22.558  1.00  0.00     0.094 A 
ATOM      9  C   UNL     1      21.857   0.687 -22.218  1.00  0.00     0.336 A 
ATOM     10  O   UNL     1      22.547   1.265 -23.098  1.00  0.00    -0.246 OA
ATOM     11  O   UNL     1      21.871   1.141 -20.967  1.00  0.00    -0.423 OA
ENDROOT
BRANCH   1  12
ATOM     12  O   UNL     1      18.944  -1.187 -16.864  1.00  0.00    -0.493 OA
ATOM     13  C   UNL     1      17.829  -0.571 -16.230  1.00  0.00     0.278 C 
ENDBRANCH   1  12
BRANCH   2  14
ATOM     14  O   UNL     1      20.558   1.055 -16.386  1.00  0.00    -0.504 OA
ATOM     15  H   UNL     1      20.564   0.482 -15.550  1.00  0.00     0.293 HD
ENDBRANCH   2  14
TORSDOF 2
ENDMDL
MODEL 2
REMARK VINA RESULT:    -5.339      1.282      5.374
REMARK INTER + INTRA:          -5.707
REMARK INTER:                  -5.650
REMARK INTRA:                  -0.057
REMARK UNBOUND:                 0.100
REMARK SMILES COc1cc2ccc(=O)oc2cc1O
REMARK SMILES IDX 3 1 13 2 12 3 11 4 5 5 4 6 6 7 7 8 8 9 9 10 10 11 2 12 1 13
REMARK SMILES IDX 14 14
REMARK H PARENT 14 15
REMARK Flexibility Score: inf
ROOT
ATOM      1  C   UNL     1      21.592   0.602 -21.471  1.00  0.00     0.161 A 
ATOM      2  C   UNL     1      20.878  -0.565 -21.805  1.00  0.00     0.161 A 
ATOM      3  C   UNL     1      20.089  -1.208 -20.845  1.00  0.00     0.098 A 
ATOM      4  C   UNL     1      20.001  -0.701 -19.546  1.00  0.00     0.142 A 
ATOM      5  C   UNL     1      20.712   0.467 -19.201  1.00  0.00     0.022 A 
ATOM      6  C   UNL     1      21.503   1.114 -20.160  1.00  0.00     0.062 A 
ATOM      7  C   UNL     1      20.604   0.951 -17.894  1.00  0.00     0.019 A 
ATOM      8  C   UNL     1      19.804   0.271 -16.976  1.00  0.00     0.094 A 
ATOM      9  C   UNL     1      19.127  -0.881 -17.390  1.00  0.00     0.336 A 
ATOM     10  O   UNL     1      18.401  -1.510 -16.577  1.00  0.00    -0.246 OA
ATOM     11  O   UNL     1      19.248  -1.320 -18.641  1.00  0.00    -0.423 OA
ENDROOT
BRANCH   1  12
ATOM     12  O   UNL     1      22.374   1.223 -22.459  1.00  0.00    -0.493 OA
ATOM     13  C   UNL     1      22.195   2.561 -22.908  1.00  0.00     0.278 C 
ENDBRANCH   1  12
BRANCH   2  14
ATOM     14  O   UNL     1      20.940  -1.102 -23.091  1.00  0.00    -0.504 OA
ATOM     15  H   UNL     1      20.299  -0.824 -23.825  1.00  0.00     0.293 HD
ENDBRANCH   2  14
TORSDOF 2
ENDMDL
MODEL 3
REMARK VINA RESULT:    -5.309      1.776      5.028
REMARK INTER + INTRA:          -5.675
REMARK INTER:                  -5.627
REMARK INTRA:                  -0.048
REMARK UNBOUND:                 0.100
REMARK SMILES COc1cc2ccc(=O)oc2cc1O
REMARK SMILES IDX 3 1 13 2 12 3 11 4 5 5 4 6 6 7 7 8 8 9 9 10 10 11 2 12 1 13
REMARK SMILES IDX 14 14
REMARK H PARENT 14 15
REMARK Flexibility Score: inf
ROOT
ATOM      1  C   UNL     1      20.272   0.049 -19.904  1.00  0.00     0.161 A 
ATOM      2  C   UNL     1      19.300  -0.321 -18.955  1.00  0.00     0.161 A 
ATOM      3  C   UNL     1      19.476  -0.003 -17.604  1.00  0.00     0.098 A 
ATOM      4  C   UNL     1      20.616   0.686 -17.182  1.00  0.00     0.142 A 
ATOM      5  C   UNL     1      21.596   1.061 -18.124  1.00  0.00     0.022 A 
ATOM      6  C   UNL     1      21.423   0.744 -19.478  1.00  0.00     0.062 A 
ATOM      7  C   UNL     1      22.726   1.749 -17.673  1.00  0.00     0.019 A 
ATOM      8  C   UNL     1      22.852   2.042 -16.315  1.00  0.00     0.094 A 
ATOM      9  C   UNL     1      21.840   1.638 -15.437  1.00  0.00     0.336 A 
ATOM     10  O   UNL     1      21.935   1.891 -14.208  1.00  0.00    -0.246 OA
ATOM     11  O   UNL     1      20.774   0.984 -15.895  1.00  0.00    -0.423 OA
ENDROOT
BRANCH   1  12
ATOM     12  O   UNL     1      20.063  -0.286 -21.252  1.00  0.00    -0.493 OA
ATOM     13  C   UNL     1      21.079  -0.743 -22.137  1.00  0.00     0.278 C 
ENDBRANCH   1  12
BRANCH   2  14
ATOM     14  O   UNL     1      18.147  -1.009 -19.336  1.00  0.00    -0.504 OA
ATOM     15  H   UNL     1      17.601  -0.741 -20.147  1.00  0.00     0.293 HD
ENDBRANCH   2  14
TORSDOF 2
ENDMDL
MODEL 4
REMARK VINA RESULT:    -5.250     15.669     17.497
REMARK INTER + INTRA:          -5.611
REMARK INTER:                  -5.580
REMARK INTRA:                  -0.031
REMARK UNBOUND:                 0.100
REMARK SMILES COc1cc2ccc(=O)oc2cc1O
REMARK SMILES IDX 3 1 13 2 12 3 11 4 5 5 4 6 6 7 7 8 8 9 9 10 10 11 2 12 1 13
REMARK SMILES IDX 14 14
REMARK H PARENT 14 15
REMARK Flexibility Score: inf
ROOT
ATOM      1  C   UNL     1       8.033  -7.036  -7.606  1.00  0.00     0.161 A 
ATOM      2  C   UNL     1       7.786  -5.663  -7.408  1.00  0.00     0.161 A 
ATOM      3  C   UNL     1       7.659  -4.803  -8.504  1.00  0.00     0.098 A 
ATOM      4  C   UNL     1       7.774  -5.296  -9.807  1.00  0.00     0.142 A 
ATOM      5  C   UNL     1       8.021  -6.668 -10.017  1.00  0.00     0.022 A 
ATOM      6  C   UNL     1       8.149  -7.532  -8.921  1.00  0.00     0.062 A 
ATOM      7  C   UNL     1       8.131  -7.132 -11.331  1.00  0.00     0.019 A 
ATOM      8  C   UNL     1       7.996  -6.232 -12.388  1.00  0.00     0.094 A 
ATOM      9  C   UNL     1       7.752  -4.884 -12.104  1.00  0.00     0.336 A 
ATOM     10  O   UNL     1       7.627  -4.056 -13.043  1.00  0.00    -0.246 OA
ATOM     11  O   UNL     1       7.651  -4.470 -10.843  1.00  0.00    -0.423 OA
ENDROOT
BRANCH   1  12
ATOM     12  O   UNL     1       8.155  -7.871  -6.484  1.00  0.00    -0.493 OA
ATOM     13  C   UNL     1       7.061  -8.475  -5.804  1.00  0.00     0.278 C 
ENDBRANCH   1  12
BRANCH   2  14
ATOM     14  O   UNL     1       7.664  -5.134  -6.123  1.00  0.00    -0.504 OA
ATOM     15  H   UNL     1       8.127  -5.546  -5.322  1.00  0.00     0.293 HD
ENDBRANCH   2  14
TORSDOF 2
ENDMDL
MODEL 5
REMARK VINA RESULT:    -5.116     15.865     17.512
REMARK INTER + INTRA:          -5.465
REMARK INTER:                  -5.419
REMARK INTRA:                  -0.045
REMARK UNBOUND:                 0.100
REMARK SMILES COc1cc2ccc(=O)oc2cc1O
REMARK SMILES IDX 3 1 13 2 12 3 11 4 5 5 4 6 6 7 7 8 8 9 9 10 10 11 2 12 1 13
REMARK SMILES IDX 14 14
REMARK H PARENT 14 15
REMARK Flexibility Score: inf
ROOT
ATOM      1  C   UNL     1       8.478  -5.997  -6.545  1.00  0.00     0.161 A 
ATOM      2  C   UNL     1       9.799  -5.599  -6.831  1.00  0.00     0.161 A 
ATOM      3  C   UNL     1      10.396  -5.954  -8.045  1.00  0.00     0.098 A 
ATOM      4  C   UNL     1       9.689  -6.705  -8.988  1.00  0.00     0.142 A 
ATOM      5  C   UNL     1       8.366  -7.108  -8.712  1.00  0.00     0.022 A 
ATOM      6  C   UNL     1       7.765  -6.755  -7.497  1.00  0.00     0.062 A 
ATOM      7  C   UNL     1       7.684  -7.859  -9.675  1.00  0.00     0.019 A 
ATOM      8  C   UNL     1       8.326  -8.186 -10.869  1.00  0.00     0.094 A 
ATOM      9  C   UNL     1       9.640  -7.752 -11.073  1.00  0.00     0.336 A 
ATOM     10  O   UNL     1      10.237  -8.036 -12.144  1.00  0.00    -0.246 OA
ATOM     11  O   UNL     1      10.266  -7.038 -10.140  1.00  0.00    -0.423 OA
ENDROOT
BRANCH   1  12
ATOM     12  O   UNL     1       7.910  -5.623  -5.317  1.00  0.00    -0.493 OA
ATOM     13  C   UNL     1       8.014  -6.378  -4.115  1.00  0.00     0.278 C 
ENDBRANCH   1  12
BRANCH   2  14
ATOM     14  O   UNL     1      10.537  -4.848  -5.915  1.00  0.00    -0.504 OA
ATOM     15  H   UNL     1      10.575  -3.836  -5.951  1.00  0.00     0.293 HD
ENDBRANCH   2  14
TORSDOF 2
ENDMDL
MODEL 6
REMARK VINA RESULT:    -5.043     15.123     17.738
REMARK INTER + INTRA:          -5.385
REMARK INTER:                  -5.326
REMARK INTRA:                  -0.059
REMARK UNBOUND:                 0.100
REMARK SMILES COc1cc2ccc(=O)oc2cc1O
REMARK SMILES IDX 3 1 13 2 12 3 11 4 5 5 4 6 6 7 7 8 8 9 9 10 10 11 2 12 1 13
REMARK SMILES IDX 14 14
REMARK H PARENT 14 15
REMARK Flexibility Score: inf
ROOT
ATOM      1  C   UNL     1       8.379  -6.506  -6.670  1.00  0.00     0.161 A 
ATOM      2  C   UNL     1       7.974  -7.830  -6.929  1.00  0.00     0.161 A 
ATOM      3  C   UNL     1       8.649  -8.602  -7.880  1.00  0.00     0.098 A 
ATOM      4  C   UNL     1       9.735  -8.070  -8.582  1.00  0.00     0.142 A 
ATOM      5  C   UNL     1      10.150  -6.746  -8.330  1.00  0.00     0.022 A 
ATOM      6  C   UNL     1       9.475  -5.969  -7.379  1.00  0.00     0.062 A 
ATOM      7  C   UNL     1      11.238  -6.241  -9.048  1.00  0.00     0.019 A 
ATOM      8  C   UNL     1      11.877  -7.054  -9.984  1.00  0.00     0.094 A 
ATOM      9  C   UNL     1      11.410  -8.358 -10.181  1.00  0.00     0.336 A 
ATOM     10  O   UNL     1      11.972  -9.107 -11.022  1.00  0.00    -0.246 OA
ATOM     11  O   UNL     1      10.371  -8.813  -9.484  1.00  0.00    -0.423 OA
ENDROOT
BRANCH   1  12
ATOM     12  O   UNL     1       7.679  -5.759  -5.709  1.00  0.00    -0.493 OA
ATOM     13  C   UNL     1       8.251  -5.244  -4.512  1.00  0.00     0.278 C 
ENDBRANCH   1  12
BRANCH   2  14
ATOM     14  O   UNL     1       6.896  -8.397  -6.249  1.00  0.00    -0.504 OA
ATOM     15  H   UNL     1       6.437  -9.241  -6.570  1.00  0.00     0.293 HD
ENDBRANCH   2  14
TORSDOF 2
ENDMDL
MODEL 7
REMARK VINA RESULT:    -5.035     14.940     17.155
REMARK INTER + INTRA:          -5.376
REMARK INTER:                  -5.332
REMARK INTRA:                  -0.044
REMARK UNBOUND:                 0.100
REMARK SMILES COc1cc2ccc(=O)oc2cc1O
REMARK SMILES IDX 3 1 13 2 12 3 11 4 5 5 4 6 6 7 7 8 8 9 9 10 10 11 2 12 1 13
REMARK SMILES IDX 14 14
REMARK H PARENT 14 15
REMARK Flexibility Score: inf
ROOT
ATOM      1  C   UNL     1       8.067  -5.645  -7.070  1.00  0.00     0.161 A 
ATOM      2  C   UNL     1       7.355  -5.255  -8.220  1.00  0.00     0.161 A 
ATOM      3  C   UNL     1       7.850  -5.556  -9.494  1.00  0.00     0.098 A 
ATOM      4  C   UNL     1       9.055  -6.248  -9.638  1.00  0.00     0.142 A 
ATOM      5  C   UNL     1       9.776  -6.645  -8.493  1.00  0.00     0.022 A 
ATOM      6  C   UNL     1       9.284  -6.344  -7.216  1.00  0.00     0.062 A 
ATOM      7  C   UNL     1      10.979  -7.336  -8.669  1.00  0.00     0.019 A 
ATOM      8  C   UNL     1      11.427  -7.611  -9.961  1.00  0.00     0.094 A 
ATOM      9  C   UNL     1      10.659  -7.187 -11.050  1.00  0.00     0.336 A 
ATOM     10  O   UNL     1      11.046  -7.425 -12.224  1.00  0.00    -0.246 OA
ATOM     11  O   UNL     1       9.518  -6.531 -10.854  1.00  0.00    -0.423 OA
ENDROOT
BRANCH   1  12
ATOM     12  O   UNL     1       7.541  -5.327  -5.807  1.00  0.00    -0.493 OA
ATOM     13  C   UNL     1       8.296  -5.300  -4.601  1.00  0.00     0.278 C 
ENDBRANCH   1  12
BRANCH   2  14
ATOM     14  O   UNL     1       6.148  -4.562  -8.117  1.00  0.00    -0.504 OA
ATOM     15  H   UNL     1       6.102  -3.550  -8.133  1.00  0.00     0.293 HD
ENDBRANCH   2  14
TORSDOF 2
ENDMDL
MODEL 8
REMARK VINA RESULT:    -5.017     15.843     17.881
REMARK INTER + INTRA:          -5.357
REMARK INTER:                  -5.303
REMARK INTRA:                  -0.054
REMARK UNBOUND:                 0.100
REMARK SMILES COc1cc2ccc(=O)oc2cc1O
REMARK SMILES IDX 3 1 13 2 12 3 11 4 5 5 4 6 6 7 7 8 8 9 9 10 10 11 2 12 1 13
REMARK SMILES IDX 14 14
REMARK H PARENT 14 15
REMARK Flexibility Score: inf
ROOT
ATOM      1  C   UNL     1       7.793  -6.463  -6.851  1.00  0.00     0.161 A 
ATOM      2  C   UNL     1       8.024  -7.802  -7.222  1.00  0.00     0.161 A 
ATOM      3  C   UNL     1       8.220  -8.139  -8.565  1.00  0.00     0.098 A 
ATOM      4  C   UNL     1       8.190  -7.152  -9.554  1.00  0.00     0.142 A 
ATOM      5  C   UNL     1       7.961  -5.808  -9.194  1.00  0.00     0.022 A 
ATOM      6  C   UNL     1       7.763  -5.467  -7.849  1.00  0.00     0.062 A 
ATOM      7  C   UNL     1       7.936  -4.842 -10.204  1.00  0.00     0.019 A 
ATOM      8  C   UNL     1       8.138  -5.232 -11.528  1.00  0.00     0.094 A 
ATOM      9  C   UNL     1       8.360  -6.583 -11.811  1.00  0.00     0.336 A 
ATOM     10  O   UNL     1       8.543  -6.956 -12.999  1.00  0.00    -0.246 OA
ATOM     11  O   UNL     1       8.378  -7.482 -10.829  1.00  0.00    -0.423 OA
ENDROOT
BRANCH   1  12
ATOM     12  O   UNL     1       7.601  -6.160  -5.493  1.00  0.00    -0.493 OA
ATOM     13  C   UNL     1       8.339  -5.181  -4.772  1.00  0.00     0.278 C 
ENDBRANCH   1  12
BRANCH   2  14
ATOM     14  O   UNL     1       8.062  -8.816  -6.264  1.00  0.00    -0.504 OA
ATOM     15  H   UNL     1       8.098  -8.621  -5.271  1.00  0.00     0.293 HD
ENDBRANCH   2  14
TORSDOF 2
ENDMDL
MODEL 9
REMARK VINA RESULT:    -4.952     15.449     17.914
REMARK INTER + INTRA:          -5.287
REMARK INTER:                  -5.239
REMARK INTRA:                  -0.048
REMARK UNBOUND:                 0.100
REMARK SMILES COc1cc2ccc(=O)oc2cc1O
REMARK SMILES IDX 3 1 13 2 12 3 11 4 5 5 4 6 6 7 7 8 8 9 9 10 10 11 2 12 1 13
REMARK SMILES IDX 14 14
REMARK H PARENT 14 15
REMARK Flexibility Score: inf
ROOT
ATOM      1  C   UNL     1       8.007  -5.468 -11.579  1.00  0.00     0.161 A 
ATOM      2  C   UNL     1       8.019  -6.867 -11.739  1.00  0.00     0.161 A 
ATOM      3  C   UNL     1       8.020  -7.706 -10.619  1.00  0.00     0.098 A 
ATOM      4  C   UNL     1       8.009  -7.165  -9.330  1.00  0.00     0.142 A 
ATOM      5  C   UNL     1       7.997  -5.765  -9.159  1.00  0.00     0.022 A 
ATOM      6  C   UNL     1       7.996  -4.922 -10.278  1.00  0.00     0.062 A 
ATOM      7  C   UNL     1       7.987  -5.253  -7.858  1.00  0.00     0.019 A 
ATOM      8  C   UNL     1       7.989  -6.133  -6.776  1.00  0.00     0.094 A 
ATOM      9  C   UNL     1       8.001  -7.510  -7.022  1.00  0.00     0.336 A 
ATOM     10  O   UNL     1       8.003  -8.321  -6.060  1.00  0.00    -0.246 OA
ATOM     11  O   UNL     1       8.011  -7.970  -8.271  1.00  0.00    -0.423 OA
ENDROOT
BRANCH   1  12
ATOM     12  O   UNL     1       8.006  -4.656 -12.724  1.00  0.00    -0.493 OA
ATOM     13  C   UNL     1       7.256  -3.454 -12.862  1.00  0.00     0.278 C 
ENDBRANCH   1  12
BRANCH   2  14
ATOM     14  O   UNL     1       8.029  -7.446 -13.008  1.00  0.00    -0.504 OA
ATOM     15  H   UNL     1       8.870  -7.501 -13.571  1.00  0.00     0.293 HD
ENDBRANCH   2  14
TORSDOF 2
ENDMDL
