MODEL 1
REMARK VINA RESULT:    -7.043      0.000      0.000
REMARK INTER + INTRA:          -8.586
REMARK INTER:                  -8.278
REMARK INTRA:                  -0.307
REMARK UNBOUND:                -0.307
REMARK SMILES O=c1cc(-c2ccc(O)c(O)c2)oc2cc(O)cc(O)c12
REMARK SMILES IDX 4 1 3 2 2 3 1 4 21 5 19 6 18 7 16 8 15 9 14 10 13 11 5 12
REMARK SMILES IDX 6 13 7 14 8 15 12 16 10 17 9 18 11 20 20 22 17 24
REMARK H PARENT 9 19 11 21 20 23 17 25
REMARK Flexibility Score: inf
ROOT
ATOM      1  C   UNL     1     -17.102  22.062  13.891  1.00  0.00     0.138 A 
ATOM      2  C   UNL     1     -16.005  22.113  13.022  1.00  0.00     0.100 A 
ATOM      3  C   UNL     1     -16.215  22.299  11.654  1.00  0.00     0.197 A 
ATOM      4  O   UNL     1     -15.208  22.402  10.907  1.00  0.00    -0.289 OA
ATOM      5  C   UNL     1     -17.535  22.402  11.153  1.00  0.00     0.107 A 
ATOM      6  C   UNL     1     -17.870  22.551   9.775  1.00  0.00     0.134 A 
ATOM      7  C   UNL     1     -19.207  22.760   9.409  1.00  0.00     0.093 A 
ATOM      8  C   UNL     1     -20.223  22.764  10.364  1.00  0.00     0.123 A 
ATOM      9  C   UNL     1     -19.911  22.565  11.709  1.00  0.00     0.094 A 
ATOM     10  C   UNL     1     -18.585  22.389  12.109  1.00  0.00     0.146 A 
ATOM     11  O   UNL     1     -18.328  22.217  13.402  1.00  0.00    -0.456 OA
ENDROOT
BRANCH   1  12
ATOM     12  C   UNL     1     -16.936  21.866  15.354  1.00  0.00     0.021 A 
ATOM     13  C   UNL     1     -15.816  21.168  15.835  1.00  0.00     0.016 A 
ATOM     14  C   UNL     1     -15.632  20.978  17.208  1.00  0.00     0.051 A 
ATOM     15  C   UNL     1     -16.561  21.490  18.121  1.00  0.00     0.157 A 
ATOM     16  C   UNL     1     -17.860  22.390  16.280  1.00  0.00     0.062 A 
ATOM     17  C   UNL     1     -17.674  22.201  17.657  1.00  0.00     0.158 A 
BRANCH  15  18
ATOM     18  O   UNL     1     -16.383  21.301  19.490  1.00  0.00    -0.504 OA
ATOM     19  H   UNL     1     -16.372  20.374  19.900  1.00  0.00     0.293 HD
ENDBRANCH  15  18
BRANCH  17  20
ATOM     20  O   UNL     1     -18.592  22.719  18.570  1.00  0.00    -0.504 OA
ATOM     21  H   UNL     1     -18.740  22.289  19.475  1.00  0.00     0.293 HD
ENDBRANCH  17  20
ENDBRANCH   1  12
BRANCH   6  22
ATOM     22  O   UNL     1     -16.943  22.478   8.731  1.00  0.00    -0.507 OA
ATOM     23  H   UNL     1     -17.124  22.070   7.827  1.00  0.00     0.293 HD
ENDBRANCH   6  22
BRANCH   8  24
ATOM     24  O   UNL     1     -21.542  22.960   9.961  1.00  0.00    -0.508 OA
ATOM     25  H   UNL     1     -22.002  22.319   9.324  1.00  0.00     0.293 HD
ENDBRANCH   8  24
TORSDOF 5
ENDMDL
MODEL 2
REMARK VINA RESULT:    -6.924      1.547      3.517
REMARK INTER + INTRA:          -8.445
REMARK INTER:                  -8.131
REMARK INTRA:                  -0.314
REMARK UNBOUND:                -0.307
REMARK SMILES O=c1cc(-c2ccc(O)c(O)c2)oc2cc(O)cc(O)c12
REMARK SMILES IDX 4 1 3 2 2 3 1 4 21 5 19 6 18 7 16 8 15 9 14 10 13 11 5 12
REMARK SMILES IDX 6 13 7 14 8 15 12 16 10 17 9 18 11 20 20 22 17 24
REMARK H PARENT 9 19 11 21 20 23 17 25
REMARK Flexibility Score: inf
ROOT
ATOM      1  C   UNL     1     -18.442  22.267  13.665  1.00  0.00     0.138 A 
ATOM      2  C   UNL     1     -19.362  22.325  12.610  1.00  0.00     0.100 A 
ATOM      3  C   UNL     1     -18.900  22.402  11.295  1.00  0.00     0.197 A 
ATOM      4  O   UNL     1     -19.748  22.391  10.366  1.00  0.00    -0.289 OA
ATOM      5  C   UNL     1     -17.509  22.452  11.040  1.00  0.00     0.107 A 
ATOM      6  C   UNL     1     -16.925  22.573   9.744  1.00  0.00     0.134 A 
ATOM      7  C   UNL     1     -15.533  22.495   9.605  1.00  0.00     0.093 A 
ATOM      8  C   UNL     1     -14.704  22.363  10.718  1.00  0.00     0.123 A 
ATOM      9  C   UNL     1     -15.262  22.299  11.994  1.00  0.00     0.094 A 
ATOM     10  C   UNL     1     -16.648  22.338  12.163  1.00  0.00     0.146 A 
ATOM     11  O   UNL     1     -17.141  22.260  13.395  1.00  0.00    -0.456 OA
ENDROOT
BRANCH   1  12
ATOM     12  C   UNL     1     -18.878  22.185  15.082  1.00  0.00     0.021 A 
ATOM     13  C   UNL     1     -20.204  21.823  15.378  1.00  0.00     0.016 A 
ATOM     14  C   UNL     1     -20.636  21.730  16.704  1.00  0.00     0.051 A 
ATOM     15  C   UNL     1     -19.749  21.989  17.755  1.00  0.00     0.157 A 
ATOM     16  C   UNL     1     -17.988  22.431  16.146  1.00  0.00     0.062 A 
ATOM     17  C   UNL     1     -18.422  22.336  17.476  1.00  0.00     0.158 A 
BRANCH  15  18
ATOM     18  O   UNL     1     -20.177  21.900  19.078  1.00  0.00    -0.504 OA
ATOM     19  H   UNL     1     -20.369  21.006  19.514  1.00  0.00     0.293 HD
ENDBRANCH  15  18
BRANCH  17  20
ATOM     20  O   UNL     1     -17.538  22.583  18.526  1.00  0.00    -0.504 OA
ATOM     21  H   UNL     1     -16.558  22.780  18.359  1.00  0.00     0.293 HD
ENDBRANCH  17  20
ENDBRANCH   1  12
BRANCH   6  22
ATOM     22  O   UNL     1     -17.657  22.793   8.573  1.00  0.00    -0.507 OA
ATOM     23  H   UNL     1     -17.385  22.476   7.655  1.00  0.00     0.293 HD
ENDBRANCH   6  22
BRANCH   8  24
ATOM     24  O   UNL     1     -13.323  22.303  10.542  1.00  0.00    -0.508 OA
ATOM     25  H   UNL     1     -12.908  21.766   9.789  1.00  0.00     0.293 HD
ENDBRANCH   8  24
TORSDOF 5
ENDMDL
MODEL 3
REMARK VINA RESULT:    -6.797      1.723      2.804
REMARK INTER + INTRA:          -8.296
REMARK INTER:                  -8.033
REMARK INTRA:                  -0.263
REMARK UNBOUND:                -0.307
REMARK SMILES O=c1cc(-c2ccc(O)c(O)c2)oc2cc(O)cc(O)c12
REMARK SMILES IDX 4 1 3 2 2 3 1 4 21 5 19 6 18 7 16 8 15 9 14 10 13 11 5 12
REMARK SMILES IDX 6 13 7 14 8 15 12 16 10 17 9 18 11 20 20 22 17 24
REMARK H PARENT 9 19 11 21 20 23 17 25
REMARK Flexibility Score: inf
ROOT
ATOM      1  C   UNL     1     -18.661  22.827  14.418  1.00  0.00     0.138 A 
ATOM      2  C   UNL     1     -19.638  23.828  14.331  1.00  0.00     0.100 A 
ATOM      3  C   UNL     1     -20.251  24.090  13.104  1.00  0.00     0.197 A 
ATOM      4  O   UNL     1     -21.167  24.951  13.070  1.00  0.00    -0.289 OA
ATOM      5  C   UNL     1     -19.859  23.365  11.954  1.00  0.00     0.107 A 
ATOM      6  C   UNL     1     -20.385  23.574  10.644  1.00  0.00     0.134 A 
ATOM      7  C   UNL     1     -20.006  22.717   9.603  1.00  0.00     0.093 A 
ATOM      8  C   UNL     1     -19.076  21.699   9.811  1.00  0.00     0.123 A 
ATOM      9  C   UNL     1     -18.515  21.520  11.075  1.00  0.00     0.094 A 
ATOM     10  C   UNL     1     -18.899  22.336  12.141  1.00  0.00     0.146 A 
ATOM     11  O   UNL     1     -18.351  22.123  13.334  1.00  0.00    -0.456 OA
ENDROOT
BRANCH   1  12
ATOM     12  C   UNL     1     -17.977  22.507  15.697  1.00  0.00     0.021 A 
ATOM     13  C   UNL     1     -16.646  22.916  15.890  1.00  0.00     0.016 A 
ATOM     14  C   UNL     1     -15.983  22.634  17.088  1.00  0.00     0.051 A 
ATOM     15  C   UNL     1     -16.642  21.948  18.115  1.00  0.00     0.157 A 
ATOM     16  C   UNL     1     -18.638  21.829  16.740  1.00  0.00     0.062 A 
ATOM     17  C   UNL     1     -17.972  21.549  17.942  1.00  0.00     0.158 A 
BRANCH  15  18
ATOM     18  O   UNL     1     -15.984  21.664  19.309  1.00  0.00    -0.504 OA
ATOM     19  H   UNL     1     -15.060  21.248  19.320  1.00  0.00     0.293 HD
ENDBRANCH  15  18
BRANCH  17  20
ATOM     20  O   UNL     1     -18.629  20.875  18.971  1.00  0.00    -0.504 OA
ATOM     21  H   UNL     1     -18.596  19.865  19.050  1.00  0.00     0.293 HD
ENDBRANCH  17  20
ENDBRANCH   1  12
BRANCH   6  22
ATOM     22  O   UNL     1     -21.256  24.615  10.308  1.00  0.00    -0.507 OA
ATOM     23  H   UNL     1     -21.241  25.535  10.722  1.00  0.00     0.293 HD
ENDBRANCH   6  22
BRANCH   8  24
ATOM     24  O   UNL     1     -18.712  20.875   8.747  1.00  0.00    -0.508 OA
ATOM     25  H   UNL     1     -18.663  21.227   7.798  1.00  0.00     0.293 HD
ENDBRANCH   8  24
TORSDOF 5
ENDMDL
MODEL 4
REMARK VINA RESULT:    -6.767      2.144      6.161
REMARK INTER + INTRA:          -8.261
REMARK INTER:                  -7.979
REMARK INTRA:                  -0.282
REMARK UNBOUND:                -0.307
REMARK SMILES O=c1cc(-c2ccc(O)c(O)c2)oc2cc(O)cc(O)c12
REMARK SMILES IDX 4 1 3 2 2 3 1 4 21 5 19 6 18 7 16 8 15 9 14 10 13 11 5 12
REMARK SMILES IDX 6 13 7 14 8 15 12 16 10 17 9 18 11 20 20 22 17 24
REMARK H PARENT 9 19 11 21 20 23 17 25
REMARK Flexibility Score: inf
ROOT
ATOM      1  C   UNL     1     -16.915  22.140  12.918  1.00  0.00     0.138 A 
ATOM      2  C   UNL     1     -18.115  22.231  12.201  1.00  0.00     0.100 A 
ATOM      3  C   UNL     1     -19.321  22.373  12.889  1.00  0.00     0.197 A 
ATOM      4  O   UNL     1     -20.375  22.514  12.217  1.00  0.00    -0.289 OA
ATOM      5  C   UNL     1     -19.325  22.392  14.304  1.00  0.00     0.107 A 
ATOM      6  C   UNL     1     -20.497  22.490  15.111  1.00  0.00     0.134 A 
ATOM      7  C   UNL     1     -20.369  22.618  16.501  1.00  0.00     0.093 A 
ATOM      8  C   UNL     1     -19.118  22.588  17.115  1.00  0.00     0.123 A 
ATOM      9  C   UNL     1     -17.969  22.438  16.339  1.00  0.00     0.094 A 
ATOM     10  C   UNL     1     -18.061  22.344  14.948  1.00  0.00     0.146 A 
ATOM     11  O   UNL     1     -16.941  22.216  14.244  1.00  0.00    -0.456 OA
ENDROOT
BRANCH   1  12
ATOM     12  C   UNL     1     -15.604  21.988  12.237  1.00  0.00     0.021 A 
ATOM     13  C   UNL     1     -14.626  21.148  12.797  1.00  0.00     0.016 A 
ATOM     14  C   UNL     1     -13.388  20.981  12.171  1.00  0.00     0.051 A 
ATOM     15  C   UNL     1     -13.110  21.644  10.970  1.00  0.00     0.157 A 
ATOM     16  C   UNL     1     -15.321  22.641  11.021  1.00  0.00     0.062 A 
ATOM     17  C   UNL     1     -14.079  22.472  10.392  1.00  0.00     0.158 A 
BRANCH  15  18
ATOM     18  O   UNL     1     -11.876  21.483  10.344  1.00  0.00    -0.504 OA
ATOM     19  H   UNL     1     -11.067  21.135  10.847  1.00  0.00     0.293 HD
ENDBRANCH  15  18
BRANCH  17  20
ATOM     20  O   UNL     1     -13.802  23.123   9.190  1.00  0.00    -0.504 OA
ATOM     21  H   UNL     1     -13.994  22.688   8.295  1.00  0.00     0.293 HD
ENDBRANCH  17  20
ENDBRANCH   1  12
BRANCH   6  22
ATOM     22  O   UNL     1     -21.800  22.444  14.607  1.00  0.00    -0.507 OA
ATOM     23  H   UNL     1     -22.105  21.850  13.850  1.00  0.00     0.293 HD
ENDBRANCH   6  22
BRANCH   8  24
ATOM     24  O   UNL     1     -19.031  22.702  18.501  1.00  0.00    -0.508 OA
ATOM     25  H   UNL     1     -19.500  22.048  19.116  1.00  0.00     0.293 HD
ENDBRANCH   8  24
TORSDOF 5
ENDMDL
MODEL 5
REMARK VINA RESULT:    -6.654      1.724      7.058
REMARK INTER + INTRA:          -8.128
REMARK INTER:                  -7.813
REMARK INTRA:                  -0.314
REMARK UNBOUND:                -0.307
REMARK SMILES O=c1cc(-c2ccc(O)c(O)c2)oc2cc(O)cc(O)c12
REMARK SMILES IDX 4 1 3 2 2 3 1 4 21 5 19 6 18 7 16 8 15 9 14 10 13 11 5 12
REMARK SMILES IDX 6 13 7 14 8 15 12 16 10 17 9 18 11 20 20 22 17 24
REMARK H PARENT 9 19 11 21 20 23 17 25
REMARK Flexibility Score: inf
ROOT
ATOM      1  C   UNL     1     -18.060  22.286  13.083  1.00  0.00     0.138 A 
ATOM      2  C   UNL     1     -19.453  22.210  13.210  1.00  0.00     0.100 A 
ATOM      3  C   UNL     1     -20.028  22.161  14.481  1.00  0.00     0.197 A 
ATOM      4  O   UNL     1     -21.283  22.156  14.565  1.00  0.00    -0.289 OA
ATOM      5  C   UNL     1     -19.200  22.158  15.629  1.00  0.00     0.107 A 
ATOM      6  C   UNL     1     -19.673  22.069  16.971  1.00  0.00     0.134 A 
ATOM      7  C   UNL     1     -18.766  22.192  18.032  1.00  0.00     0.093 A 
ATOM      8  C   UNL     1     -17.399  22.338  17.798  1.00  0.00     0.123 A 
ATOM      9  C   UNL     1     -16.920  22.371  16.488  1.00  0.00     0.094 A 
ATOM     10  C   UNL     1     -17.803  22.286  15.409  1.00  0.00     0.146 A 
ATOM     11  O   UNL     1     -17.307  22.337  14.177  1.00  0.00    -0.456 OA
ENDROOT
BRANCH   1  12
ATOM     12  C   UNL     1     -17.395  22.340  11.756  1.00  0.00     0.021 A 
ATOM     13  C   UNL     1     -18.119  21.985  10.605  1.00  0.00     0.016 A 
ATOM     14  C   UNL     1     -17.519  22.035   9.343  1.00  0.00     0.051 A 
ATOM     15  C   UNL     1     -16.188  22.449   9.212  1.00  0.00     0.157 A 
ATOM     16  C   UNL     1     -16.060  22.767  11.614  1.00  0.00     0.062 A 
ATOM     17  C   UNL     1     -15.459  22.819  10.348  1.00  0.00     0.158 A 
BRANCH  15  18
ATOM     18  O   UNL     1     -15.585  22.498   7.956  1.00  0.00    -0.504 OA
ATOM     19  H   UNL     1     -16.121  22.374   7.105  1.00  0.00     0.293 HD
ENDBRANCH  15  18
BRANCH  17  20
ATOM     20  O   UNL     1     -14.137  23.240  10.212  1.00  0.00    -0.504 OA
ATOM     21  H   UNL     1     -13.896  24.070   9.681  1.00  0.00     0.293 HD
ENDBRANCH  17  20
ENDBRANCH   1  12
BRANCH   6  22
ATOM     22  O   UNL     1     -21.008  21.838  17.317  1.00  0.00    -0.507 OA
ATOM     23  H   UNL     1     -21.455  22.182  18.153  1.00  0.00     0.293 HD
ENDBRANCH   6  22
BRANCH   8  24
ATOM     24  O   UNL     1     -16.526  22.442  18.878  1.00  0.00    -0.508 OA
ATOM     25  H   UNL     1     -15.563  22.132  18.812  1.00  0.00     0.293 HD
ENDBRANCH   8  24
TORSDOF 5
ENDMDL
MODEL 6
REMARK VINA RESULT:    -6.635      1.446      7.306
REMARK INTER + INTRA:          -8.106
REMARK INTER:                  -7.810
REMARK INTRA:                  -0.296
REMARK UNBOUND:                -0.307
REMARK SMILES O=c1cc(-c2ccc(O)c(O)c2)oc2cc(O)cc(O)c12
REMARK SMILES IDX 4 1 3 2 2 3 1 4 21 5 19 6 18 7 16 8 15 9 14 10 13 11 5 12
REMARK SMILES IDX 6 13 7 14 8 15 12 16 10 17 9 18 11 20 20 22 17 24
REMARK H PARENT 9 19 11 21 20 23 17 25
REMARK Flexibility Score: inf
ROOT
ATOM      1  C   UNL     1     -18.604  22.284  13.709  1.00  0.00     0.138 A 
ATOM      2  C   UNL     1     -19.627  22.896  14.444  1.00  0.00     0.100 A 
ATOM      3  C   UNL     1     -19.528  22.970  15.835  1.00  0.00     0.197 A 
ATOM      4  O   UNL     1     -20.431  23.580  16.463  1.00  0.00    -0.289 OA
ATOM      5  C   UNL     1     -18.411  22.401  16.492  1.00  0.00     0.107 A 
ATOM      6  C   UNL     1     -18.224  22.380  17.906  1.00  0.00     0.134 A 
ATOM      7  C   UNL     1     -17.023  21.892  18.436  1.00  0.00     0.093 A 
ATOM      8  C   UNL     1     -16.031  21.367  17.609  1.00  0.00     0.123 A 
ATOM      9  C   UNL     1     -16.227  21.332  16.228  1.00  0.00     0.094 A 
ATOM     10  C   UNL     1     -17.399  21.844  15.666  1.00  0.00     0.146 A 
ATOM     11  O   UNL     1     -17.540  21.805  14.345  1.00  0.00    -0.456 OA
ENDROOT
BRANCH   1  12
ATOM     12  C   UNL     1     -18.659  22.177  12.228  1.00  0.00     0.021 A 
ATOM     13  C   UNL     1     -17.556  21.654  11.531  1.00  0.00     0.016 A 
ATOM     14  C   UNL     1     -17.586  21.535  10.139  1.00  0.00     0.051 A 
ATOM     15  C   UNL     1     -18.722  21.928   9.422  1.00  0.00     0.157 A 
ATOM     16  C   UNL     1     -19.803  22.558  11.501  1.00  0.00     0.062 A 
ATOM     17  C   UNL     1     -19.834  22.437  10.104  1.00  0.00     0.158 A 
BRANCH  15  18
ATOM     18  O   UNL     1     -18.755  21.813   8.034  1.00  0.00    -0.504 OA
ATOM     19  H   UNL     1     -19.373  21.157   7.571  1.00  0.00     0.293 HD
ENDBRANCH  15  18
BRANCH  17  20
ATOM     20  O   UNL     1     -20.967  22.818   9.387  1.00  0.00    -0.504 OA
ATOM     21  H   UNL     1     -21.871  22.913   9.835  1.00  0.00     0.293 HD
ENDBRANCH  17  20
ENDBRANCH   1  12
BRANCH   6  22
ATOM     22  O   UNL     1     -19.187  22.802  18.828  1.00  0.00    -0.507 OA
ATOM     23  H   UNL     1     -19.305  22.418  19.754  1.00  0.00     0.293 HD
ENDBRANCH   6  22
BRANCH   8  24
ATOM     24  O   UNL     1     -14.856  20.876  18.173  1.00  0.00    -0.508 OA
ATOM     25  H   UNL     1     -14.828  19.976  18.638  1.00  0.00     0.293 HD
ENDBRANCH   8  24
TORSDOF 5
ENDMDL
MODEL 7
REMARK VINA RESULT:    -6.350      1.649      6.777
REMARK INTER + INTRA:          -7.771
REMARK INTER:                  -7.458
REMARK INTRA:                  -0.313
REMARK UNBOUND:                -0.307
REMARK SMILES O=c1cc(-c2ccc(O)c(O)c2)oc2cc(O)cc(O)c12
REMARK SMILES IDX 4 1 3 2 2 3 1 4 21 5 19 6 18 7 16 8 15 9 14 10 13 11 5 12
REMARK SMILES IDX 6 13 7 14 8 15 12 16 10 17 9 18 11 20 20 22 17 24
REMARK H PARENT 9 19 11 21 20 23 17 25
REMARK Flexibility Score: inf
ROOT
ATOM      1  C   UNL     1     -18.028  21.966  13.471  1.00  0.00     0.138 A 
ATOM      2  C   UNL     1     -16.737  21.932  14.014  1.00  0.00     0.100 A 
ATOM      3  C   UNL     1     -16.567  22.029  15.396  1.00  0.00     0.197 A 
ATOM      4  O   UNL     1     -15.401  21.934  15.859  1.00  0.00    -0.289 OA
ATOM      5  C   UNL     1     -17.695  22.192  16.234  1.00  0.00     0.107 A 
ATOM      6  C   UNL     1     -17.639  22.344  17.651  1.00  0.00     0.134 A 
ATOM      7  C   UNL     1     -18.830  22.381  18.389  1.00  0.00     0.093 A 
ATOM      8  C   UNL     1     -20.071  22.335  17.756  1.00  0.00     0.123 A 
ATOM      9  C   UNL     1     -20.137  22.242  16.366  1.00  0.00     0.094 A 
ATOM     10  C   UNL     1     -18.968  22.167  15.605  1.00  0.00     0.146 A 
ATOM     11  O   UNL     1     -19.075  22.065  14.284  1.00  0.00    -0.456 OA
ENDROOT
BRANCH   1  12
ATOM     12  C   UNL     1     -18.267  21.867  12.008  1.00  0.00     0.021 A 
ATOM     13  C   UNL     1     -17.258  21.353  11.176  1.00  0.00     0.016 A 
ATOM     14  C   UNL     1     -17.462  21.242   9.797  1.00  0.00     0.051 A 
ATOM     15  C   UNL     1     -18.680  21.635   9.230  1.00  0.00     0.157 A 
ATOM     16  C   UNL     1     -19.495  22.248  11.432  1.00  0.00     0.062 A 
ATOM     17  C   UNL     1     -19.699  22.135  10.049  1.00  0.00     0.158 A 
BRANCH  15  18
ATOM     18  O   UNL     1     -18.886  21.528   7.857  1.00  0.00    -0.504 OA
ATOM     19  H   UNL     1     -18.274  21.986   7.191  1.00  0.00     0.293 HD
ENDBRANCH  15  18
BRANCH  17  20
ATOM     20  O   UNL     1     -20.915  22.515   9.482  1.00  0.00    -0.504 OA
ATOM     21  H   UNL     1     -21.026  23.406   9.013  1.00  0.00     0.293 HD
ENDBRANCH  17  20
ENDBRANCH   1  12
BRANCH   6  22
ATOM     22  O   UNL     1     -16.452  22.485  18.376  1.00  0.00    -0.507 OA
ATOM     23  H   UNL     1     -16.261  23.231  19.028  1.00  0.00     0.293 HD
ENDBRANCH   6  22
BRANCH   8  24
ATOM     24  O   UNL     1     -21.234  22.390  18.522  1.00  0.00    -0.508 OA
ATOM     25  H   UNL     1     -21.987  21.725  18.388  1.00  0.00     0.293 HD
ENDBRANCH   8  24
TORSDOF 5
ENDMDL
MODEL 8
REMARK VINA RESULT:    -6.320      1.245      2.752
REMARK INTER + INTRA:          -7.735
REMARK INTER:                  -7.448
REMARK INTRA:                  -0.287
REMARK UNBOUND:                -0.307
REMARK SMILES O=c1cc(-c2ccc(O)c(O)c2)oc2cc(O)cc(O)c12
REMARK SMILES IDX 4 1 3 2 2 3 1 4 21 5 19 6 18 7 16 8 15 9 14 10 13 11 5 12
REMARK SMILES IDX 6 13 7 14 8 15 12 16 10 17 9 18 11 20 20 22 17 24
REMARK H PARENT 9 19 11 21 20 23 17 25
REMARK Flexibility Score: inf
ROOT
ATOM      1  C   UNL     1     -17.616  22.284  13.738  1.00  0.00     0.138 A 
ATOM      2  C   UNL     1     -18.910  22.355  13.206  1.00  0.00     0.100 A 
ATOM      3  C   UNL     1     -19.083  22.604  11.843  1.00  0.00     0.197 A 
ATOM      4  O   UNL     1     -20.254  22.601  11.384  1.00  0.00    -0.289 OA
ATOM      5  C   UNL     1     -17.953  22.813  11.017  1.00  0.00     0.107 A 
ATOM      6  C   UNL     1     -18.011  23.115   9.624  1.00  0.00     0.134 A 
ATOM      7  C   UNL     1     -16.823  23.185   8.885  1.00  0.00     0.093 A 
ATOM      8  C   UNL     1     -15.581  23.027   9.498  1.00  0.00     0.123 A 
ATOM      9  C   UNL     1     -15.512  22.785  10.870  1.00  0.00     0.094 A 
ATOM     10  C   UNL     1     -16.679  22.674  11.629  1.00  0.00     0.146 A 
ATOM     11  O   UNL     1     -16.570  22.429  12.931  1.00  0.00    -0.456 OA
ENDROOT
BRANCH   1  12
ATOM     12  C   UNL     1     -17.374  22.023  15.180  1.00  0.00     0.021 A 
ATOM     13  C   UNL     1     -16.220  21.322  15.572  1.00  0.00     0.016 A 
ATOM     14  C   UNL     1     -15.966  21.071  16.923  1.00  0.00     0.051 A 
ATOM     15  C   UNL     1     -16.855  21.523  17.905  1.00  0.00     0.157 A 
ATOM     16  C   UNL     1     -18.258  22.486  16.174  1.00  0.00     0.062 A 
ATOM     17  C   UNL     1     -18.001  22.235  17.530  1.00  0.00     0.158 A 
BRANCH  15  18
ATOM     18  O   UNL     1     -16.606  21.273  19.253  1.00  0.00    -0.504 OA
ATOM     19  H   UNL     1     -17.348  20.998  19.887  1.00  0.00     0.293 HD
ENDBRANCH  15  18
BRANCH  17  20
ATOM     20  O   UNL     1     -18.879  22.694  18.511  1.00  0.00    -0.504 OA
ATOM     21  H   UNL     1     -19.681  23.269  18.279  1.00  0.00     0.293 HD
ENDBRANCH  17  20
ENDBRANCH   1  12
BRANCH   6  22
ATOM     22  O   UNL     1     -19.195  23.376   8.929  1.00  0.00    -0.507 OA
ATOM     23  H   UNL     1     -19.967  23.916   9.288  1.00  0.00     0.293 HD
ENDBRANCH   6  22
BRANCH   8  24
ATOM     24  O   UNL     1     -14.421  23.119   8.732  1.00  0.00    -0.508 OA
ATOM     25  H   UNL     1     -14.453  23.106   7.719  1.00  0.00     0.293 HD
ENDBRANCH   8  24
TORSDOF 5
ENDMDL
MODEL 9
REMARK VINA RESULT:    -6.124      1.689      2.579
REMARK INTER + INTRA:          -7.506
REMARK INTER:                  -7.214
REMARK INTRA:                  -0.291
REMARK UNBOUND:                -0.307
REMARK SMILES O=c1cc(-c2ccc(O)c(O)c2)oc2cc(O)cc(O)c12
REMARK SMILES IDX 4 1 3 2 2 3 1 4 21 5 19 6 18 7 16 8 15 9 14 10 13 11 5 12
REMARK SMILES IDX 6 13 7 14 8 15 12 16 10 17 9 18 11 20 20 22 17 24
REMARK H PARENT 9 19 11 21 20 23 17 25
REMARK Flexibility Score: inf
ROOT
ATOM      1  C   UNL     1     -16.817  22.049  13.907  1.00  0.00     0.138 A 
ATOM      2  C   UNL     1     -15.481  21.635  13.833  1.00  0.00     0.100 A 
ATOM      3  C   UNL     1     -14.855  21.545  12.588  1.00  0.00     0.197 A 
ATOM      4  O   UNL     1     -13.637  21.229  12.558  1.00  0.00    -0.289 OA
ATOM      5  C   UNL     1     -15.582  21.842  11.412  1.00  0.00     0.107 A 
ATOM      6  C   UNL     1     -15.060  21.744  10.088  1.00  0.00     0.134 A 
ATOM      7  C   UNL     1     -15.838  22.177   9.006  1.00  0.00     0.093 A 
ATOM      8  C   UNL     1     -17.138  22.644   9.194  1.00  0.00     0.123 A 
ATOM      9  C   UNL     1     -17.678  22.692  10.479  1.00  0.00     0.094 A 
ATOM     10  C   UNL     1     -16.915  22.301  11.582  1.00  0.00     0.146 A 
ATOM     11  O   UNL     1     -17.462  22.376  12.792  1.00  0.00    -0.456 OA
ENDROOT
BRANCH   1  12
ATOM     12  C   UNL     1     -17.532  22.163  15.204  1.00  0.00     0.021 A 
ATOM     13  C   UNL     1     -18.937  22.126  15.225  1.00  0.00     0.016 A 
ATOM     14  C   UNL     1     -19.633  22.222  16.434  1.00  0.00     0.051 A 
ATOM     15  C   UNL     1     -18.936  22.348  17.641  1.00  0.00     0.157 A 
ATOM     16  C   UNL     1     -16.837  22.276  16.424  1.00  0.00     0.062 A 
ATOM     17  C   UNL     1     -17.536  22.370  17.637  1.00  0.00     0.158 A 
BRANCH  15  18
ATOM     18  O   UNL     1     -19.626  22.446  18.847  1.00  0.00    -0.504 OA
ATOM     19  H   UNL     1     -19.461  21.796  19.607  1.00  0.00     0.293 HD
ENDBRANCH  15  18
BRANCH  17  20
ATOM     20  O   UNL     1     -16.845  22.485  18.843  1.00  0.00    -0.504 OA
ATOM     21  H   UNL     1     -16.119  21.827  19.102  1.00  0.00     0.293 HD
ENDBRANCH  17  20
ENDBRANCH   1  12
BRANCH   6  22
ATOM     22  O   UNL     1     -13.804  21.213   9.780  1.00  0.00    -0.507 OA
ATOM     23  H   UNL     1     -13.624  20.241   9.576  1.00  0.00     0.293 HD
ENDBRANCH   6  22
BRANCH   8  24
ATOM     24  O   UNL     1     -17.887  23.051   8.092  1.00  0.00    -0.508 OA
ATOM     25  H   UNL     1     -18.126  24.025   7.946  1.00  0.00     0.293 HD
ENDBRANCH   8  24
TORSDOF 5
ENDMDL
