MODEL 1
REMARK VINA RESULT:    -3.919      0.000      0.000
REMARK INTER + INTRA:         -15.552
REMARK INTER:                  -9.876
REMARK INTRA:                  -5.676
REMARK UNBOUND:                -5.676
REMARK SMILES CCCCCCCCCCCCCCCCCCCCCCCCCCCC(=O)[O-]
REMARK SMILES IDX 15 1 16 2 17 3 18 4 19 5 20 6 21 7 22 8 23 9 24 10 25 11
REMARK SMILES IDX 26 12 27 13 28 14 29 15 30 16 14 17 13 18 12 19 11 20 10 21
REMARK SMILES IDX 9 22 8 23 7 24 6 25 5 26 4 27 3 28 2 29 1 30
REMARK H PARENT
REMARK Flexibility Score: inf
ROOT
ATOM      1  C   UNL     1      10.014 -22.678  40.627  1.00  0.00     0.000 C 
ENDROOT
BRANCH   1   2
ATOM      2  C   UNL     1       9.670 -24.128  40.267  1.00  0.00     0.000 C 
BRANCH   2   3
ATOM      3  C   UNL     1      10.575 -25.110  41.026  1.00  0.00     0.000 C 
BRANCH   3   4
ATOM      4  C   UNL     1       9.780 -26.190  41.777  1.00  0.00     0.000 C 
BRANCH   4   5
ATOM      5  C   UNL     1       8.366 -26.390  41.202  1.00  0.00     0.000 C 
BRANCH   5   6
ATOM      6  C   UNL     1       7.792 -27.782  41.517  1.00  0.00     0.000 C 
BRANCH   6   7
ATOM      7  C   UNL     1       8.781 -28.664  42.297  1.00  0.00     0.000 C 
BRANCH   7   8
ATOM      8  C   UNL     1       8.688 -30.152  41.912  1.00  0.00     0.000 C 
BRANCH   8   9
ATOM      9  C   UNL     1       8.620 -30.433  40.401  1.00  0.00     0.000 C 
BRANCH   9  10
ATOM     10  C   UNL     1      10.000 -30.692  39.777  1.00  0.00     0.000 C 
BRANCH  10  11
ATOM     11  C   UNL     1      10.201 -29.848  38.512  1.00  0.00     0.000 C 
BRANCH  11  12
ATOM     12  C   UNL     1      10.352 -28.361  38.864  1.00  0.00     0.006 C 
BRANCH  12  13
ATOM     13  C   UNL     1      10.148 -27.452  37.646  1.00  0.00     0.053 C 
BRANCH  13  14
ATOM     14  C   UNL     1       8.750 -26.918  37.580  1.00  0.00     0.041 C 
ATOM     15  O   UNL     1       8.543 -25.717  37.261  1.00  0.00    -0.550 OA
ATOM     16  O   UNL     1       7.674 -27.744  37.882  1.00  0.00    -0.550 OA
ENDBRANCH  13  14
ENDBRANCH  12  13
ENDBRANCH  11  12
ENDBRANCH  10  11
ENDBRANCH   9  10
ENDBRANCH   8   9
ENDBRANCH   7   8
ENDBRANCH   6   7
ENDBRANCH   5   6
ENDBRANCH   4   5
ENDBRANCH   3   4
ENDBRANCH   2   3
ENDBRANCH   1   2
BRANCH   1  17
ATOM     17  C   UNL     1      10.979 -22.619  41.819  1.00  0.00     0.000 C 
BRANCH  17  18
ATOM     18  C   UNL     1      12.213 -21.742  41.549  1.00  0.00     0.000 C 
BRANCH  18  19
ATOM     19  C   UNL     1      12.688 -21.765  40.081  1.00  0.00     0.000 C 
BRANCH  19  20
ATOM     20  C   UNL     1      13.584 -22.978  39.775  1.00  0.00     0.000 C 
BRANCH  20  21
ATOM     21  C   UNL     1      13.188 -23.682  38.458  1.00  0.00     0.000 C 
BRANCH  21  22
ATOM     22  C   UNL     1      13.089 -25.213  38.585  1.00  0.00    -0.000 C 
BRANCH  22  23
ATOM     23  C   UNL     1      14.127 -25.846  39.531  1.00  0.00    -0.000 C 
BRANCH  23  24
ATOM     24  C   UNL     1      15.340 -26.489  38.830  1.00  0.00    -0.000 C 
BRANCH  24  25
ATOM     25  C   UNL     1      15.376 -28.031  38.862  1.00  0.00    -0.000 C 
BRANCH  25  26
ATOM     26  C   UNL     1      14.065 -28.728  38.455  1.00  0.00    -0.000 C 
BRANCH  26  27
ATOM     27  C   UNL     1      13.791 -30.005  39.266  1.00  0.00    -0.000 C 
BRANCH  27  28
ATOM     28  C   UNL     1      13.863 -29.773  40.787  1.00  0.00    -0.000 C 
BRANCH  28  29
ATOM     29  C   UNL     1      12.768 -28.852  41.356  1.00  0.00    -0.003 C 
ATOM     30  C   UNL     1      12.400 -29.181  42.803  1.00  0.00     0.004 C 
ENDBRANCH  28  29
ENDBRANCH  27  28
ENDBRANCH  26  27
ENDBRANCH  25  26
ENDBRANCH  24  25
ENDBRANCH  23  24
ENDBRANCH  22  23
ENDBRANCH  21  22
ENDBRANCH  20  21
ENDBRANCH  19  20
ENDBRANCH  18  19
ENDBRANCH  17  18
ENDBRANCH   1  17
TORSDOF 26
ENDMDL
MODEL 2
REMARK VINA RESULT:    -3.860      1.821      5.653
REMARK INTER + INTRA:         -15.403
REMARK INTER:                 -10.152
REMARK INTRA:                  -5.251
REMARK UNBOUND:                -5.676
REMARK SMILES CCCCCCCCCCCCCCCCCCCCCCCCCCCC(=O)[O-]
REMARK SMILES IDX 15 1 16 2 17 3 18 4 19 5 20 6 21 7 22 8 23 9 24 10 25 11
REMARK SMILES IDX 26 12 27 13 28 14 29 15 30 16 14 17 13 18 12 19 11 20 10 21
REMARK SMILES IDX 9 22 8 23 7 24 6 25 5 26 4 27 3 28 2 29 1 30
REMARK H PARENT
REMARK Flexibility Score: inf
ROOT
ATOM      1  C   UNL     1       8.420 -28.547  42.101  1.00  0.00     0.000 C 
ENDROOT
BRANCH   1   2
ATOM      2  C   UNL     1       7.602 -27.548  41.274  1.00  0.00     0.000 C 
BRANCH   2   3
ATOM      3  C   UNL     1       8.249 -26.155  41.302  1.00  0.00     0.000 C 
BRANCH   3   4
ATOM      4  C   UNL     1       9.733 -26.199  41.697  1.00  0.00     0.000 C 
BRANCH   4   5
ATOM      5  C   UNL     1      10.580 -25.169  40.928  1.00  0.00     0.000 C 
BRANCH   5   6
ATOM      6  C   UNL     1       9.720 -24.162  40.147  1.00  0.00     0.000 C 
BRANCH   6   7
ATOM      7  C   UNL     1       9.861 -22.727  40.683  1.00  0.00     0.000 C 
BRANCH   7   8
ATOM      8  C   UNL     1      11.298 -22.185  40.571  1.00  0.00     0.000 C 
BRANCH   8   9
ATOM      9  C   UNL     1      11.989 -21.884  41.913  1.00  0.00     0.000 C 
BRANCH   9  10
ATOM     10  C   UNL     1      13.207 -22.782  42.176  1.00  0.00     0.000 C 
BRANCH  10  11
ATOM     11  C   UNL     1      14.021 -22.996  40.893  1.00  0.00     0.000 C 
BRANCH  11  12
ATOM     12  C   UNL     1      14.053 -24.482  40.506  1.00  0.00     0.006 C 
BRANCH  12  13
ATOM     13  C   UNL     1      14.767 -24.718  39.170  1.00  0.00     0.053 C 
BRANCH  13  14
ATOM     14  C   UNL     1      13.795 -24.902  38.046  1.00  0.00     0.041 C 
ATOM     15  O   UNL     1      12.631 -24.427  38.129  1.00  0.00    -0.550 OA
ATOM     16  O   UNL     1      14.170 -25.609  36.910  1.00  0.00    -0.550 OA
ENDBRANCH  13  14
ENDBRANCH  12  13
ENDBRANCH  11  12
ENDBRANCH  10  11
ENDBRANCH   9  10
ENDBRANCH   8   9
ENDBRANCH   7   8
ENDBRANCH   6   7
ENDBRANCH   5   6
ENDBRANCH   4   5
ENDBRANCH   3   4
ENDBRANCH   2   3
ENDBRANCH   1   2
BRANCH   1  17
ATOM     17  C   UNL     1       8.713 -29.820  41.297  1.00  0.00     0.000 C 
BRANCH  17  18
ATOM     18  C   UNL     1       8.665 -29.595  39.776  1.00  0.00     0.000 C 
BRANCH  18  19
ATOM     19  C   UNL     1      10.056 -29.461  39.120  1.00  0.00     0.000 C 
BRANCH  19  20
ATOM     20  C   UNL     1      10.309 -28.046  38.569  1.00  0.00     0.000 C 
BRANCH  20  21
ATOM     21  C   UNL     1      11.685 -27.923  37.879  1.00  0.00     0.000 C 
BRANCH  21  22
ATOM     22  C   UNL     1      12.668 -29.046  38.263  1.00  0.00    -0.000 C 
BRANCH  22  23
ATOM     23  C   UNL     1      13.989 -28.556  38.886  1.00  0.00    -0.000 C 
BRANCH  23  24
ATOM     24  C   UNL     1      14.089 -28.726  40.415  1.00  0.00    -0.000 C 
BRANCH  24  25
ATOM     25  C   UNL     1      12.995 -28.006  41.230  1.00  0.00    -0.000 C 
BRANCH  25  26
ATOM     26  C   UNL     1      12.183 -28.907  42.178  1.00  0.00    -0.000 C 
BRANCH  26  27
ATOM     27  C   UNL     1      12.318 -30.401  41.844  1.00  0.00    -0.000 C 
BRANCH  27  28
ATOM     28  C   UNL     1      12.030 -31.312  43.052  1.00  0.00    -0.000 C 
BRANCH  28  29
ATOM     29  C   UNL     1      12.634 -30.834  44.385  1.00  0.00    -0.003 C 
ATOM     30  C   UNL     1      12.363 -31.792  45.545  1.00  0.00     0.004 C 
ENDBRANCH  28  29
ENDBRANCH  27  28
ENDBRANCH  26  27
ENDBRANCH  25  26
ENDBRANCH  24  25
ENDBRANCH  23  24
ENDBRANCH  22  23
ENDBRANCH  21  22
ENDBRANCH  20  21
ENDBRANCH  19  20
ENDBRANCH  18  19
ENDBRANCH  17  18
ENDBRANCH   1  17
TORSDOF 26
ENDMDL
MODEL 3
REMARK VINA RESULT:    -3.751      2.933      5.907
REMARK INTER + INTRA:         -15.127
REMARK INTER:                 -10.306
REMARK INTRA:                  -4.821
REMARK UNBOUND:                -5.676
REMARK SMILES CCCCCCCCCCCCCCCCCCCCCCCCCCCC(=O)[O-]
REMARK SMILES IDX 15 1 16 2 17 3 18 4 19 5 20 6 21 7 22 8 23 9 24 10 25 11
REMARK SMILES IDX 26 12 27 13 28 14 29 15 30 16 14 17 13 18 12 19 11 20 10 21
REMARK SMILES IDX 9 22 8 23 7 24 6 25 5 26 4 27 3 28 2 29 1 30
REMARK H PARENT
REMARK Flexibility Score: inf
ROOT
ATOM      1  C   UNL     1      11.634 -25.687  39.206  1.00  0.00     0.000 C 
ENDROOT
BRANCH   1   2
ATOM      2  C   UNL     1      11.089 -26.084  40.583  1.00  0.00     0.000 C 
BRANCH   2   3
ATOM      3  C   UNL     1       9.668 -25.536  40.787  1.00  0.00     0.000 C 
BRANCH   3   4
ATOM      4  C   UNL     1       9.362 -24.330  39.885  1.00  0.00     0.000 C 
BRANCH   4   5
ATOM      5  C   UNL     1       9.330 -23.003  40.663  1.00  0.00     0.000 C 
BRANCH   5   6
ATOM      6  C   UNL     1      10.730 -22.395  40.851  1.00  0.00     0.000 C 
BRANCH   6   7
ATOM      7  C   UNL     1      11.287 -22.624  42.266  1.00  0.00     0.000 C 
BRANCH   7   8
ATOM      8  C   UNL     1      12.722 -22.095  42.438  1.00  0.00     0.000 C 
BRANCH   8   9
ATOM      9  C   UNL     1      13.143 -21.009  41.431  1.00  0.00     0.000 C 
BRANCH   9  10
ATOM     10  C   UNL     1      14.667 -20.887  41.282  1.00  0.00     0.000 C 
BRANCH  10  11
ATOM     11  C   UNL     1      15.091 -21.020  39.814  1.00  0.00     0.000 C 
BRANCH  11  12
ATOM     12  C   UNL     1      13.867 -21.197  38.904  1.00  0.00     0.006 C 
BRANCH  12  13
ATOM     13  C   UNL     1      13.963 -20.348  37.631  1.00  0.00     0.053 C 
BRANCH  13  14
ATOM     14  C   UNL     1      14.327 -21.177  36.438  1.00  0.00     0.041 C 
ATOM     15  O   UNL     1      15.403 -21.833  36.425  1.00  0.00    -0.550 OA
ATOM     16  O   UNL     1      13.485 -21.217  35.334  1.00  0.00    -0.550 OA
ENDBRANCH  13  14
ENDBRANCH  12  13
ENDBRANCH  11  12
ENDBRANCH  10  11
ENDBRANCH   9  10
ENDBRANCH   8   9
ENDBRANCH   7   8
ENDBRANCH   6   7
ENDBRANCH   5   6
ENDBRANCH   4   5
ENDBRANCH   3   4
ENDBRANCH   2   3
ENDBRANCH   1   2
BRANCH   1  17
ATOM     17  C   UNL     1      12.915 -24.852  39.338  1.00  0.00     0.000 C 
BRANCH  17  18
ATOM     18  C   UNL     1      13.701 -25.158  40.624  1.00  0.00     0.000 C 
BRANCH  18  19
ATOM     19  C   UNL     1      15.143 -24.610  40.620  1.00  0.00     0.000 C 
BRANCH  19  20
ATOM     20  C   UNL     1      16.051 -25.361  39.629  1.00  0.00     0.000 C 
BRANCH  20  21
ATOM     21  C   UNL     1      15.930 -26.894  39.768  1.00  0.00     0.000 C 
BRANCH  21  22
ATOM     22  C   UNL     1      15.467 -27.593  38.476  1.00  0.00    -0.000 C 
BRANCH  22  23
ATOM     23  C   UNL     1      14.813 -28.972  38.693  1.00  0.00    -0.000 C 
BRANCH  23  24
ATOM     24  C   UNL     1      13.272 -28.976  38.644  1.00  0.00    -0.000 C 
BRANCH  24  25
ATOM     25  C   UNL     1      12.575 -29.413  39.949  1.00  0.00    -0.000 C 
BRANCH  25  26
ATOM     26  C   UNL     1      13.201 -28.863  41.244  1.00  0.00    -0.000 C 
BRANCH  26  27
ATOM     27  C   UNL     1      13.036 -29.818  42.438  1.00  0.00    -0.000 C 
BRANCH  27  28
ATOM     28  C   UNL     1      14.061 -30.968  42.428  1.00  0.00    -0.000 C 
BRANCH  28  29
ATOM     29  C   UNL     1      13.468 -32.368  42.670  1.00  0.00    -0.003 C 
ATOM     30  C   UNL     1      12.248 -32.663  41.798  1.00  0.00     0.004 C 
ENDBRANCH  28  29
ENDBRANCH  27  28
ENDBRANCH  26  27
ENDBRANCH  25  26
ENDBRANCH  24  25
ENDBRANCH  23  24
ENDBRANCH  22  23
ENDBRANCH  21  22
ENDBRANCH  20  21
ENDBRANCH  19  20
ENDBRANCH  18  19
ENDBRANCH  17  18
ENDBRANCH   1  17
TORSDOF 26
ENDMDL
MODEL 4
REMARK VINA RESULT:    -3.729      1.753      4.476
REMARK INTER + INTRA:         -15.073
REMARK INTER:                  -9.791
REMARK INTRA:                  -5.283
REMARK UNBOUND:                -5.676
REMARK SMILES CCCCCCCCCCCCCCCCCCCCCCCCCCCC(=O)[O-]
REMARK SMILES IDX 15 1 16 2 17 3 18 4 19 5 20 6 21 7 22 8 23 9 24 10 25 11
REMARK SMILES IDX 26 12 27 13 28 14 29 15 30 16 14 17 13 18 12 19 11 20 10 21
REMARK SMILES IDX 9 22 8 23 7 24 6 25 5 26 4 27 3 28 2 29 1 30
REMARK H PARENT
REMARK Flexibility Score: inf
ROOT
ATOM      1  C   UNL     1       7.853 -28.174  40.073  1.00  0.00     0.000 C 
ENDROOT
BRANCH   1   2
ATOM      2  C   UNL     1       8.590 -29.414  40.592  1.00  0.00     0.000 C 
BRANCH   2   3
ATOM      3  C   UNL     1       8.987 -29.237  42.066  1.00  0.00     0.000 C 
BRANCH   3   4
ATOM      4  C   UNL     1      10.409 -29.740  42.361  1.00  0.00     0.000 C 
BRANCH   4   5
ATOM      5  C   UNL     1      11.490 -28.716  41.977  1.00  0.00     0.000 C 
BRANCH   5   6
ATOM      6  C   UNL     1      12.847 -29.012  42.638  1.00  0.00     0.000 C 
BRANCH   6   7
ATOM      7  C   UNL     1      13.099 -30.519  42.815  1.00  0.00     0.000 C 
BRANCH   7   8
ATOM      8  C   UNL     1      14.086 -31.086  41.777  1.00  0.00     0.000 C 
BRANCH   8   9
ATOM      9  C   UNL     1      13.547 -32.255  40.934  1.00  0.00     0.000 C 
BRANCH   9  10
ATOM     10  C   UNL     1      12.368 -31.853  40.036  1.00  0.00     0.000 C 
BRANCH  10  11
ATOM     11  C   UNL     1      12.763 -30.721  39.080  1.00  0.00     0.000 C 
BRANCH  11  12
ATOM     12  C   UNL     1      11.548 -30.230  38.279  1.00  0.00     0.006 C 
BRANCH  12  13
ATOM     13  C   UNL     1      11.575 -28.713  38.056  1.00  0.00     0.053 C 
BRANCH  13  14
ATOM     14  C   UNL     1      11.962 -28.365  36.652  1.00  0.00     0.041 C 
ATOM     15  O   UNL     1      11.895 -29.234  35.741  1.00  0.00    -0.550 OA
ATOM     16  O   UNL     1      12.407 -27.085  36.349  1.00  0.00    -0.550 OA
ENDBRANCH  13  14
ENDBRANCH  12  13
ENDBRANCH  11  12
ENDBRANCH  10  11
ENDBRANCH   9  10
ENDBRANCH   8   9
ENDBRANCH   7   8
ENDBRANCH   6   7
ENDBRANCH   5   6
ENDBRANCH   4   5
ENDBRANCH   3   4
ENDBRANCH   2   3
ENDBRANCH   1   2
BRANCH   1  17
ATOM     17  C   UNL     1       8.540 -26.885  40.543  1.00  0.00     0.000 C 
BRANCH  17  18
ATOM     18  C   UNL     1       9.403 -26.231  39.451  1.00  0.00     0.000 C 
BRANCH  18  19
ATOM     19  C   UNL     1       9.359 -24.689  39.460  1.00  0.00     0.000 C 
BRANCH  19  20
ATOM     20  C   UNL     1       9.611 -24.104  40.861  1.00  0.00     0.000 C 
BRANCH  20  21
ATOM     21  C   UNL     1       9.877 -22.583  40.823  1.00  0.00     0.000 C 
BRANCH  21  22
ATOM     22  C   UNL     1      11.163 -22.166  41.562  1.00  0.00    -0.000 C 
BRANCH  22  23
ATOM     23  C   UNL     1      12.298 -21.673  40.644  1.00  0.00    -0.000 C 
BRANCH  23  24
ATOM     24  C   UNL     1      13.296 -22.762  40.202  1.00  0.00    -0.000 C 
BRANCH  24  25
ATOM     25  C   UNL     1      12.896 -23.544  38.934  1.00  0.00    -0.000 C 
BRANCH  25  26
ATOM     26  C   UNL     1      12.962 -25.077  39.059  1.00  0.00    -0.000 C 
BRANCH  26  27
ATOM     27  C   UNL     1      13.424 -25.543  40.450  1.00  0.00    -0.000 C 
BRANCH  27  28
ATOM     28  C   UNL     1      14.769 -26.292  40.412  1.00  0.00    -0.000 C 
BRANCH  28  29
ATOM     29  C   UNL     1      14.698 -27.726  39.857  1.00  0.00    -0.003 C 
ATOM     30  C   UNL     1      15.385 -27.879  38.499  1.00  0.00     0.004 C 
ENDBRANCH  28  29
ENDBRANCH  27  28
ENDBRANCH  26  27
ENDBRANCH  25  26
ENDBRANCH  24  25
ENDBRANCH  23  24
ENDBRANCH  22  23
ENDBRANCH  21  22
ENDBRANCH  20  21
ENDBRANCH  19  20
ENDBRANCH  18  19
ENDBRANCH  17  18
ENDBRANCH   1  17
TORSDOF 26
ENDMDL
MODEL 5
REMARK VINA RESULT:    -3.725      1.983      5.451
REMARK INTER + INTRA:         -15.063
REMARK INTER:                  -9.171
REMARK INTRA:                  -5.892
REMARK UNBOUND:                -5.676
REMARK SMILES CCCCCCCCCCCCCCCCCCCCCCCCCCCC(=O)[O-]
REMARK SMILES IDX 15 1 16 2 17 3 18 4 19 5 20 6 21 7 22 8 23 9 24 10 25 11
REMARK SMILES IDX 26 12 27 13 28 14 29 15 30 16 14 17 13 18 12 19 11 20 10 21
REMARK SMILES IDX 9 22 8 23 7 24 6 25 5 26 4 27 3 28 2 29 1 30
REMARK H PARENT
REMARK Flexibility Score: inf
ROOT
ATOM      1  C   UNL     1       9.094 -27.445  37.813  1.00  0.00     0.000 C 
ENDROOT
BRANCH   1   2
ATOM      2  C   UNL     1       7.949 -28.438  37.583  1.00  0.00     0.000 C 
BRANCH   2   3
ATOM      3  C   UNL     1       8.439 -29.886  37.741  1.00  0.00     0.000 C 
BRANCH   3   4
ATOM      4  C   UNL     1       7.604 -30.687  38.753  1.00  0.00     0.000 C 
BRANCH   4   5
ATOM      5  C   UNL     1       8.450 -31.230  39.918  1.00  0.00     0.000 C 
BRANCH   5   6
ATOM      6  C   UNL     1       9.293 -30.137  40.596  1.00  0.00     0.000 C 
BRANCH   6   7
ATOM      7  C   UNL     1       8.950 -29.967  42.085  1.00  0.00     0.000 C 
BRANCH   7   8
ATOM      8  C   UNL     1       8.492 -28.539  42.435  1.00  0.00     0.000 C 
BRANCH   8   9
ATOM      9  C   UNL     1       7.865 -27.751  41.271  1.00  0.00     0.000 C 
BRANCH   9  10
ATOM     10  C   UNL     1       8.328 -26.288  41.219  1.00  0.00     0.000 C 
BRANCH  10  11
ATOM     11  C   UNL     1       9.814 -26.166  41.582  1.00  0.00     0.000 C 
BRANCH  11  12
ATOM     12  C   UNL     1      10.586 -25.417  40.486  1.00  0.00     0.006 C 
BRANCH  12  13
ATOM     13  C   UNL     1      11.343 -24.202  41.037  1.00  0.00     0.053 C 
BRANCH  13  14
ATOM     14  C   UNL     1      10.563 -22.935  40.859  1.00  0.00     0.041 C 
ATOM     15  O   UNL     1       9.468 -22.945  40.237  1.00  0.00    -0.550 OA
ATOM     16  O   UNL     1      11.052 -21.740  41.372  1.00  0.00    -0.550 OA
ENDBRANCH  13  14
ENDBRANCH  12  13
ENDBRANCH  11  12
ENDBRANCH  10  11
ENDBRANCH   9  10
ENDBRANCH   8   9
ENDBRANCH   7   8
ENDBRANCH   6   7
ENDBRANCH   5   6
ENDBRANCH   4   5
ENDBRANCH   3   4
ENDBRANCH   2   3
ENDBRANCH   1   2
BRANCH   1  17
ATOM     17  C   UNL     1      10.352 -27.865  37.042  1.00  0.00     0.000 C 
BRANCH  17  18
ATOM     18  C   UNL     1      11.572 -28.080  37.953  1.00  0.00     0.000 C 
BRANCH  18  19
ATOM     19  C   UNL     1      12.437 -29.297  37.562  1.00  0.00     0.000 C 
BRANCH  19  20
ATOM     20  C   UNL     1      12.790 -30.177  38.774  1.00  0.00     0.000 C 
BRANCH  20  21
ATOM     21  C   UNL     1      11.989 -31.498  38.793  1.00  0.00     0.000 C 
BRANCH  21  22
ATOM     22  C   UNL     1      12.478 -32.498  39.857  1.00  0.00    -0.000 C 
BRANCH  22  23
ATOM     23  C   UNL     1      13.768 -32.078  40.587  1.00  0.00    -0.000 C 
BRANCH  23  24
ATOM     24  C   UNL     1      13.652 -32.004  42.123  1.00  0.00    -0.000 C 
BRANCH  24  25
ATOM     25  C   UNL     1      12.355 -31.358  42.654  1.00  0.00    -0.000 C 
BRANCH  25  26
ATOM     26  C   UNL     1      12.518 -29.942  43.238  1.00  0.00    -0.000 C 
BRANCH  26  27
ATOM     27  C   UNL     1      12.478 -28.845  42.162  1.00  0.00    -0.000 C 
BRANCH  27  28
ATOM     28  C   UNL     1      13.872 -28.282  41.831  1.00  0.00    -0.000 C 
BRANCH  28  29
ATOM     29  C   UNL     1      13.894 -27.206  40.729  1.00  0.00    -0.003 C 
ATOM     30  C   UNL     1      15.090 -27.336  39.786  1.00  0.00     0.004 C 
ENDBRANCH  28  29
ENDBRANCH  27  28
ENDBRANCH  26  27
ENDBRANCH  25  26
ENDBRANCH  24  25
ENDBRANCH  23  24
ENDBRANCH  22  23
ENDBRANCH  21  22
ENDBRANCH  20  21
ENDBRANCH  19  20
ENDBRANCH  18  19
ENDBRANCH  17  18
ENDBRANCH   1  17
TORSDOF 26
ENDMDL
MODEL 6
REMARK VINA RESULT:    -3.710      2.328      6.930
REMARK INTER + INTRA:         -15.026
REMARK INTER:                 -10.437
REMARK INTRA:                  -4.589
REMARK UNBOUND:                -5.676
REMARK SMILES CCCCCCCCCCCCCCCCCCCCCCCCCCCC(=O)[O-]
REMARK SMILES IDX 15 1 16 2 17 3 18 4 19 5 20 6 21 7 22 8 23 9 24 10 25 11
REMARK SMILES IDX 26 12 27 13 28 14 29 15 30 16 14 17 13 18 12 19 11 20 10 21
REMARK SMILES IDX 9 22 8 23 7 24 6 25 5 26 4 27 3 28 2 29 1 30
REMARK H PARENT
REMARK Flexibility Score: inf
ROOT
ATOM      1  C   UNL     1      13.643 -31.206  39.952  1.00  0.00     0.000 C 
ENDROOT
BRANCH   1   2
ATOM      2  C   UNL     1      12.934 -32.412  40.582  1.00  0.00     0.000 C 
BRANCH   2   3
ATOM      3  C   UNL     1      13.255 -32.514  42.080  1.00  0.00     0.000 C 
BRANCH   3   4
ATOM      4  C   UNL     1      12.003 -32.403  42.964  1.00  0.00     0.000 C 
BRANCH   4   5
ATOM      5  C   UNL     1      11.712 -30.956  43.398  1.00  0.00     0.000 C 
BRANCH   5   6
ATOM      6  C   UNL     1      12.973 -30.218  43.877  1.00  0.00     0.000 C 
BRANCH   6   7
ATOM      7  C   UNL     1      13.305 -28.994  43.007  1.00  0.00     0.000 C 
BRANCH   7   8
ATOM      8  C   UNL     1      14.793 -28.923  42.617  1.00  0.00     0.000 C 
BRANCH   8   9
ATOM      9  C   UNL     1      15.199 -27.676  41.812  1.00  0.00     0.000 C 
BRANCH   9  10
ATOM     10  C   UNL     1      14.162 -27.287  40.747  1.00  0.00     0.000 C 
BRANCH  10  11
ATOM     11  C   UNL     1      13.986 -25.765  40.678  1.00  0.00     0.000 C 
BRANCH  11  12
ATOM     12  C   UNL     1      13.129 -25.367  39.467  1.00  0.00     0.006 C 
BRANCH  12  13
ATOM     13  C   UNL     1      13.110 -26.456  38.387  1.00  0.00     0.053 C 
BRANCH  13  14
ATOM     14  C   UNL     1      13.975 -26.095  37.219  1.00  0.00     0.041 C 
ATOM     15  O   UNL     1      13.462 -25.905  36.084  1.00  0.00    -0.550 OA
ATOM     16  O   UNL     1      15.350 -25.980  37.380  1.00  0.00    -0.550 OA
ENDBRANCH  13  14
ENDBRANCH  12  13
ENDBRANCH  11  12
ENDBRANCH  10  11
ENDBRANCH   9  10
ENDBRANCH   8   9
ENDBRANCH   7   8
ENDBRANCH   6   7
ENDBRANCH   5   6
ENDBRANCH   4   5
ENDBRANCH   3   4
ENDBRANCH   2   3
ENDBRANCH   1   2
BRANCH   1  17
ATOM     17  C   UNL     1      12.650 -30.318  39.190  1.00  0.00     0.000 C 
BRANCH  17  18
ATOM     18  C   UNL     1      11.189 -30.767  39.359  1.00  0.00     0.000 C 
BRANCH  18  19
ATOM     19  C   UNL     1      10.213 -29.612  39.666  1.00  0.00     0.000 C 
BRANCH  19  20
ATOM     20  C   UNL     1      10.816 -28.575  40.629  1.00  0.00     0.000 C 
BRANCH  20  21
ATOM     21  C   UNL     1       9.847 -28.201  41.771  1.00  0.00     0.000 C 
BRANCH  21  22
ATOM     22  C   UNL     1       9.129 -26.855  41.552  1.00  0.00    -0.000 C 
BRANCH  22  23
ATOM     23  C   UNL     1      10.034 -25.725  41.027  1.00  0.00    -0.000 C 
BRANCH  23  24
ATOM     24  C   UNL     1       9.300 -24.417  40.668  1.00  0.00    -0.000 C 
BRANCH  24  25
ATOM     25  C   UNL     1      10.213 -23.203  40.398  1.00  0.00    -0.000 C 
BRANCH  25  26
ATOM     26  C   UNL     1      10.890 -22.601  41.643  1.00  0.00    -0.000 C 
BRANCH  26  27
ATOM     27  C   UNL     1      12.077 -21.689  41.294  1.00  0.00    -0.000 C 
BRANCH  27  28
ATOM     28  C   UNL     1      13.337 -22.004  42.123  1.00  0.00    -0.000 C 
BRANCH  28  29
ATOM     29  C   UNL     1      13.570 -21.074  43.328  1.00  0.00    -0.003 C 
ATOM     30  C   UNL     1      13.559 -21.812  44.667  1.00  0.00     0.004 C 
ENDBRANCH  28  29
ENDBRANCH  27  28
ENDBRANCH  26  27
ENDBRANCH  25  26
ENDBRANCH  24  25
ENDBRANCH  23  24
ENDBRANCH  22  23
ENDBRANCH  21  22
ENDBRANCH  20  21
ENDBRANCH  19  20
ENDBRANCH  18  19
ENDBRANCH  17  18
ENDBRANCH   1  17
TORSDOF 26
ENDMDL
MODEL 7
REMARK VINA RESULT:    -3.691      1.869      5.017
REMARK INTER + INTRA:         -14.978
REMARK INTER:                  -9.776
REMARK INTRA:                  -5.202
REMARK UNBOUND:                -5.676
REMARK SMILES CCCCCCCCCCCCCCCCCCCCCCCCCCCC(=O)[O-]
REMARK SMILES IDX 15 1 16 2 17 3 18 4 19 5 20 6 21 7 22 8 23 9 24 10 25 11
REMARK SMILES IDX 26 12 27 13 28 14 29 15 30 16 14 17 13 18 12 19 11 20 10 21
REMARK SMILES IDX 9 22 8 23 7 24 6 25 5 26 4 27 3 28 2 29 1 30
REMARK H PARENT
REMARK Flexibility Score: inf
ROOT
ATOM      1  C   UNL     1       9.815 -22.879  40.899  1.00  0.00     0.000 C 
ENDROOT
BRANCH   1   2
ATOM      2  C   UNL     1      11.028 -22.779  41.832  1.00  0.00     0.000 C 
BRANCH   2   3
ATOM      3  C   UNL     1      11.942 -21.616  41.417  1.00  0.00     0.000 C 
BRANCH   3   4
ATOM      4  C   UNL     1      13.302 -22.092  40.882  1.00  0.00     0.000 C 
BRANCH   4   5
ATOM      5  C   UNL     1      13.216 -22.623  39.440  1.00  0.00     0.000 C 
BRANCH   5   6
ATOM      6  C   UNL     1      13.614 -24.104  39.331  1.00  0.00     0.000 C 
BRANCH   6   7
ATOM      7  C   UNL     1      14.028 -24.704  40.686  1.00  0.00     0.000 C 
BRANCH   7   8
ATOM      8  C   UNL     1      14.105 -26.242  40.661  1.00  0.00     0.000 C 
BRANCH   8   9
ATOM      9  C   UNL     1      15.363 -26.822  39.991  1.00  0.00     0.000 C 
BRANCH   9  10
ATOM     10  C   UNL     1      15.150 -28.241  39.442  1.00  0.00     0.000 C 
BRANCH  10  11
ATOM     11  C   UNL     1      13.656 -28.575  39.343  1.00  0.00     0.000 C 
BRANCH  11  12
ATOM     12  C   UNL     1      13.347 -29.321  38.036  1.00  0.00     0.006 C 
BRANCH  12  13
ATOM     13  C   UNL     1      12.234 -28.642  37.230  1.00  0.00     0.053 C 
BRANCH  13  14
ATOM     14  C   UNL     1      12.322 -27.149  37.311  1.00  0.00     0.041 C 
ATOM     15  O   UNL     1      11.461 -26.496  37.959  1.00  0.00    -0.550 OA
ATOM     16  O   UNL     1      13.349 -26.476  36.661  1.00  0.00    -0.550 OA
ENDBRANCH  13  14
ENDBRANCH  12  13
ENDBRANCH  11  12
ENDBRANCH  10  11
ENDBRANCH   9  10
ENDBRANCH   8   9
ENDBRANCH   7   8
ENDBRANCH   6   7
ENDBRANCH   5   6
ENDBRANCH   4   5
ENDBRANCH   3   4
ENDBRANCH   2   3
ENDBRANCH   1   2
BRANCH   1  17
ATOM     17  C   UNL     1       9.669 -24.297  40.332  1.00  0.00     0.000 C 
BRANCH  17  18
ATOM     18  C   UNL     1      10.516 -25.336  41.087  1.00  0.00     0.000 C 
BRANCH  18  19
ATOM     19  C   UNL     1       9.686 -26.446  41.764  1.00  0.00     0.000 C 
BRANCH  19  20
ATOM     20  C   UNL     1      10.376 -27.820  41.691  1.00  0.00     0.000 C 
BRANCH  20  21
ATOM     21  C   UNL     1      10.084 -28.553  40.363  1.00  0.00     0.000 C 
BRANCH  21  22
ATOM     22  C   UNL     1       9.803 -30.057  40.540  1.00  0.00    -0.000 C 
BRANCH  22  23
ATOM     23  C   UNL     1      10.349 -30.661  41.847  1.00  0.00    -0.000 C 
BRANCH  23  24
ATOM     24  C   UNL     1      11.221 -31.920  41.668  1.00  0.00    -0.000 C 
BRANCH  24  25
ATOM     25  C   UNL     1      12.186 -31.885  40.465  1.00  0.00    -0.000 C 
BRANCH  25  26
ATOM     26  C   UNL     1      13.682 -31.821  40.825  1.00  0.00    -0.000 C 
BRANCH  26  27
ATOM     27  C   UNL     1      13.983 -32.385  42.223  1.00  0.00    -0.000 C 
BRANCH  27  28
ATOM     28  C   UNL     1      14.699 -31.370  43.134  1.00  0.00    -0.000 C 
BRANCH  28  29
ATOM     29  C   UNL     1      14.408 -29.892  42.815  1.00  0.00    -0.003 C 
ATOM     30  C   UNL     1      13.230 -29.327  43.609  1.00  0.00     0.004 C 
ENDBRANCH  28  29
ENDBRANCH  27  28
ENDBRANCH  26  27
ENDBRANCH  25  26
ENDBRANCH  24  25
ENDBRANCH  23  24
ENDBRANCH  22  23
ENDBRANCH  21  22
ENDBRANCH  20  21
ENDBRANCH  19  20
ENDBRANCH  18  19
ENDBRANCH  17  18
ENDBRANCH   1  17
TORSDOF 26
ENDMDL
MODEL 8
REMARK VINA RESULT:    -3.688      2.482      6.586
REMARK INTER + INTRA:         -14.970
REMARK INTER:                  -9.864
REMARK INTRA:                  -5.107
REMARK UNBOUND:                -5.676
REMARK SMILES CCCCCCCCCCCCCCCCCCCCCCCCCCCC(=O)[O-]
REMARK SMILES IDX 15 1 16 2 17 3 18 4 19 5 20 6 21 7 22 8 23 9 24 10 25 11
REMARK SMILES IDX 26 12 27 13 28 14 29 15 30 16 14 17 13 18 12 19 11 20 10 21
REMARK SMILES IDX 9 22 8 23 7 24 6 25 5 26 4 27 3 28 2 29 1 30
REMARK H PARENT
REMARK Flexibility Score: inf
ROOT
ATOM      1  C   UNL     1       9.214 -26.076  41.367  1.00  0.00     0.000 C 
ENDROOT
BRANCH   1   2
ATOM      2  C   UNL     1       8.956 -25.608  39.930  1.00  0.00     0.000 C 
BRANCH   2   3
ATOM      3  C   UNL     1       9.898 -24.453  39.554  1.00  0.00     0.000 C 
BRANCH   3   4
ATOM      4  C   UNL     1      10.003 -23.390  40.659  1.00  0.00     0.000 C 
BRANCH   4   5
ATOM      5  C   UNL     1      11.441 -23.220  41.180  1.00  0.00     0.000 C 
BRANCH   5   6
ATOM      6  C   UNL     1      11.591 -22.007  42.113  1.00  0.00     0.000 C 
BRANCH   6   7
ATOM      7  C   UNL     1      12.571 -22.271  43.268  1.00  0.00     0.000 C 
BRANCH   7   8
ATOM      8  C   UNL     1      13.941 -21.600  43.056  1.00  0.00     0.000 C 
BRANCH   8   9
ATOM      9  C   UNL     1      13.885 -20.133  42.595  1.00  0.00     0.000 C 
BRANCH   9  10
ATOM     10  C   UNL     1      14.897 -19.815  41.484  1.00  0.00     0.000 C 
BRANCH  10  11
ATOM     11  C   UNL     1      14.268 -19.994  40.097  1.00  0.00     0.000 C 
BRANCH  11  12
ATOM     12  C   UNL     1      14.561 -21.395  39.540  1.00  0.00     0.006 C 
BRANCH  12  13
ATOM     13  C   UNL     1      13.523 -21.834  38.500  1.00  0.00     0.053 C 
BRANCH  13  14
ATOM     14  C   UNL     1      14.163 -22.515  37.329  1.00  0.00     0.041 C 
ATOM     15  O   UNL     1      15.017 -23.424  37.512  1.00  0.00    -0.550 OA
ATOM     16  O   UNL     1      13.827 -22.138  36.035  1.00  0.00    -0.550 OA
ENDBRANCH  13  14
ENDBRANCH  12  13
ENDBRANCH  11  12
ENDBRANCH  10  11
ENDBRANCH   9  10
ENDBRANCH   8   9
ENDBRANCH   7   8
ENDBRANCH   6   7
ENDBRANCH   5   6
ENDBRANCH   4   5
ENDBRANCH   3   4
ENDBRANCH   2   3
ENDBRANCH   1   2
BRANCH   1  17
ATOM     17  C   UNL     1      10.423 -27.019  41.432  1.00  0.00     0.000 C 
BRANCH  17  18
ATOM     18  C   UNL     1      10.024 -28.504  41.489  1.00  0.00     0.000 C 
BRANCH  18  19
ATOM     19  C   UNL     1      11.195 -29.453  41.821  1.00  0.00     0.000 C 
BRANCH  19  20
ATOM     20  C   UNL     1      12.513 -28.695  42.060  1.00  0.00     0.000 C 
BRANCH  20  21
ATOM     21  C   UNL     1      13.737 -29.458  41.508  1.00  0.00     0.000 C 
BRANCH  21  22
ATOM     22  C   UNL     1      13.435 -30.259  40.227  1.00  0.00    -0.000 C 
BRANCH  22  23
ATOM     23  C   UNL     1      14.157 -29.747  38.966  1.00  0.00    -0.000 C 
BRANCH  23  24
ATOM     24  C   UNL     1      13.227 -29.268  37.833  1.00  0.00    -0.000 C 
BRANCH  24  25
ATOM     25  C   UNL     1      11.929 -28.576  38.297  1.00  0.00    -0.000 C 
BRANCH  25  26
ATOM     26  C   UNL     1      11.822 -27.080  37.949  1.00  0.00    -0.000 C 
BRANCH  26  27
ATOM     27  C   UNL     1      13.116 -26.304  38.245  1.00  0.00    -0.000 C 
BRANCH  27  28
ATOM     28  C   UNL     1      13.262 -25.934  39.733  1.00  0.00    -0.000 C 
BRANCH  28  29
ATOM     29  C   UNL     1      14.698 -25.604  40.182  1.00  0.00    -0.003 C 
ATOM     30  C   UNL     1      15.727 -26.630  39.706  1.00  0.00     0.004 C 
ENDBRANCH  28  29
ENDBRANCH  27  28
ENDBRANCH  26  27
ENDBRANCH  25  26
ENDBRANCH  24  25
ENDBRANCH  23  24
ENDBRANCH  22  23
ENDBRANCH  21  22
ENDBRANCH  20  21
ENDBRANCH  19  20
ENDBRANCH  18  19
ENDBRANCH  17  18
ENDBRANCH   1  17
TORSDOF 26
ENDMDL
MODEL 9
REMARK VINA RESULT:    -3.686      1.912      4.953
REMARK INTER + INTRA:         -14.965
REMARK INTER:                  -9.888
REMARK INTRA:                  -5.077
REMARK UNBOUND:                -5.676
REMARK SMILES CCCCCCCCCCCCCCCCCCCCCCCCCCCC(=O)[O-]
REMARK SMILES IDX 15 1 16 2 17 3 18 4 19 5 20 6 21 7 22 8 23 9 24 10 25 11
REMARK SMILES IDX 26 12 27 13 28 14 29 15 30 16 14 17 13 18 12 19 11 20 10 21
REMARK SMILES IDX 9 22 8 23 7 24 6 25 5 26 4 27 3 28 2 29 1 30
REMARK H PARENT
REMARK Flexibility Score: inf
ROOT
ATOM      1  C   UNL     1       9.564 -29.036  42.115  1.00  0.00     0.000 C 
ENDROOT
BRANCH   1   2
ATOM      2  C   UNL     1      11.080 -28.997  42.339  1.00  0.00     0.000 C 
BRANCH   2   3
ATOM      3  C   UNL     1      11.517 -30.096  43.320  1.00  0.00     0.000 C 
BRANCH   3   4
ATOM      4  C   UNL     1      12.898 -29.826  43.937  1.00  0.00     0.000 C 
BRANCH   4   5
ATOM      5  C   UNL     1      13.980 -30.783  43.407  1.00  0.00     0.000 C 
BRANCH   5   6
ATOM      6  C   UNL     1      13.391 -31.953  42.603  1.00  0.00     0.000 C 
BRANCH   6   7
ATOM      7  C   UNL     1      14.298 -32.381  41.436  1.00  0.00     0.000 C 
BRANCH   7   8
ATOM      8  C   UNL     1      13.643 -32.164  40.059  1.00  0.00     0.000 C 
BRANCH   8   9
ATOM      9  C   UNL     1      12.155 -31.772  40.097  1.00  0.00     0.000 C 
BRANCH   9  10
ATOM     10  C   UNL     1      11.692 -31.051  38.822  1.00  0.00     0.000 C 
BRANCH  10  11
ATOM     11  C   UNL     1      11.929 -29.539  38.926  1.00  0.00     0.000 C 
BRANCH  11  12
ATOM     12  C   UNL     1      13.107 -29.107  38.040  1.00  0.00     0.006 C 
BRANCH  12  13
ATOM     13  C   UNL     1      12.753 -27.912  37.147  1.00  0.00     0.053 C 
BRANCH  13  14
ATOM     14  C   UNL     1      11.608 -28.223  36.232  1.00  0.00     0.041 C 
ATOM     15  O   UNL     1      11.696 -29.169  35.404  1.00  0.00    -0.550 OA
ATOM     16  O   UNL     1      10.448 -27.461  36.285  1.00  0.00    -0.550 OA
ENDBRANCH  13  14
ENDBRANCH  12  13
ENDBRANCH  11  12
ENDBRANCH  10  11
ENDBRANCH   9  10
ENDBRANCH   8   9
ENDBRANCH   7   8
ENDBRANCH   6   7
ENDBRANCH   5   6
ENDBRANCH   4   5
ENDBRANCH   3   4
ENDBRANCH   2   3
ENDBRANCH   1   2
BRANCH   1  17
ATOM     17  C   UNL     1       9.034 -27.662  41.684  1.00  0.00     0.000 C 
BRANCH  17  18
ATOM     18  C   UNL     1      10.150 -26.695  41.254  1.00  0.00     0.000 C 
BRANCH  18  19
ATOM     19  C   UNL     1      10.188 -26.420  39.736  1.00  0.00     0.000 C 
BRANCH  19  20
ATOM     20  C   UNL     1       9.801 -24.970  39.394  1.00  0.00     0.000 C 
BRANCH  20  21
ATOM     21  C   UNL     1       9.383 -24.164  40.644  1.00  0.00     0.000 C 
BRANCH  21  22
ATOM     22  C   UNL     1       9.820 -22.689  40.598  1.00  0.00    -0.000 C 
BRANCH  22  23
ATOM     23  C   UNL     1      10.903 -22.309  41.626  1.00  0.00    -0.000 C 
BRANCH  23  24
ATOM     24  C   UNL     1      12.251 -21.870  41.020  1.00  0.00    -0.000 C 
BRANCH  24  25
ATOM     25  C   UNL     1      12.560 -22.443  39.621  1.00  0.00    -0.000 C 
BRANCH  25  26
ATOM     26  C   UNL     1      13.665 -23.515  39.580  1.00  0.00    -0.000 C 
BRANCH  26  27
ATOM     27  C   UNL     1      13.385 -24.696  40.522  1.00  0.00    -0.000 C 
BRANCH  27  28
ATOM     28  C   UNL     1      14.037 -26.008  40.046  1.00  0.00    -0.000 C 
BRANCH  28  29
ATOM     29  C   UNL     1      13.876 -27.200  41.006  1.00  0.00    -0.003 C 
ATOM     30  C   UNL     1      15.199 -27.897  41.325  1.00  0.00     0.004 C 
ENDBRANCH  28  29
ENDBRANCH  27  28
ENDBRANCH  26  27
ENDBRANCH  25  26
ENDBRANCH  24  25
ENDBRANCH  23  24
ENDBRANCH  22  23
ENDBRANCH  21  22
ENDBRANCH  20  21
ENDBRANCH  19  20
ENDBRANCH  18  19
ENDBRANCH  17  18
ENDBRANCH   1  17
TORSDOF 26
ENDMDL
