MODEL 1
REMARK VINA RESULT:    -4.718      0.000      0.000
REMARK INTER + INTRA:         -16.454
REMARK INTER:                 -11.889
REMARK INTRA:                  -4.565
REMARK UNBOUND:                -4.565
REMARK SMILES CCCCCCCCCCCCCCCCCCCCCCCCCCCC(=O)[O-]
REMARK SMILES IDX 15 1 16 2 17 3 18 4 19 5 20 6 21 7 22 8 23 9 24 10 25 11
REMARK SMILES IDX 26 12 27 13 28 14 29 15 30 16 14 17 13 18 12 19 11 20 10 21
REMARK SMILES IDX 9 22 8 23 7 24 6 25 5 26 4 27 3 28 2 29 1 30
REMARK H PARENT
REMARK Flexibility Score: inf
ROOT
ATOM      1  C   UNL     1     188.116 193.993 193.292  1.00  0.00     0.000 C 
ENDROOT
BRANCH   1   2
ATOM      2  C   UNL     1     189.331 193.222 193.833  1.00  0.00     0.000 C 
BRANCH   2   3
ATOM      3  C   UNL     1     189.963 192.301 192.779  1.00  0.00     0.000 C 
BRANCH   3   4
ATOM      4  C   UNL     1     189.887 192.932 191.382  1.00  0.00     0.000 C 
BRANCH   4   5
ATOM      5  C   UNL     1     189.151 192.044 190.362  1.00  0.00     0.000 C 
BRANCH   5   6
ATOM      6  C   UNL     1     187.778 192.575 189.899  1.00  0.00     0.000 C 
BRANCH   6   7
ATOM      7  C   UNL     1     186.820 191.514 189.327  1.00  0.00     0.000 C 
BRANCH   7   8
ATOM      8  C   UNL     1     186.711 190.263 190.213  1.00  0.00     0.000 C 
BRANCH   8   9
ATOM      9  C   UNL     1     185.738 190.451 191.390  1.00  0.00     0.000 C 
BRANCH   9  10
ATOM     10  C   UNL     1     186.273 189.909 192.732  1.00  0.00     0.000 C 
BRANCH  10  11
ATOM     11  C   UNL     1     187.715 189.391 192.613  1.00  0.00     0.000 C 
BRANCH  11  12
ATOM     12  C   UNL     1     187.753 187.855 192.640  1.00  0.00     0.006 C 
BRANCH  12  13
ATOM     13  C   UNL     1     186.352 187.239 192.532  1.00  0.00     0.053 C 
BRANCH  13  14
ATOM     14  C   UNL     1     186.065 186.750 191.146  1.00  0.00     0.041 C 
ATOM     15  O   UNL     1     186.981 186.238 190.451  1.00  0.00    -0.550 OA
ATOM     16  O   UNL     1     184.776 186.833 190.632  1.00  0.00    -0.550 OA
ENDBRANCH  13  14
ENDBRANCH  12  13
ENDBRANCH  11  12
ENDBRANCH  10  11
ENDBRANCH   9  10
ENDBRANCH   8   9
ENDBRANCH   7   8
ENDBRANCH   6   7
ENDBRANCH   5   6
ENDBRANCH   4   5
ENDBRANCH   3   4
ENDBRANCH   2   3
ENDBRANCH   1   2
BRANCH   1  17
ATOM     17  C   UNL     1     186.789 193.251 193.532  1.00  0.00     0.000 C 
BRANCH  17  18
ATOM     18  C   UNL     1     185.572 194.189 193.512  1.00  0.00     0.000 C 
BRANCH  18  19
ATOM     19  C   UNL     1     185.694 195.335 194.532  1.00  0.00     0.000 C 
BRANCH  19  20
ATOM     20  C   UNL     1     185.159 194.946 195.919  1.00  0.00     0.000 C 
BRANCH  20  21
ATOM     21  C   UNL     1     186.132 195.316 197.053  1.00  0.00     0.000 C 
BRANCH  21  22
ATOM     22  C   UNL     1     187.576 194.874 196.763  1.00  0.00    -0.000 C 
BRANCH  22  23
ATOM     23  C   UNL     1     188.596 196.002 196.993  1.00  0.00    -0.000 C 
BRANCH  23  24
ATOM     24  C   UNL     1     188.132 197.344 196.407  1.00  0.00    -0.000 C 
BRANCH  24  25
ATOM     25  C   UNL     1     188.657 197.583 194.980  1.00  0.00    -0.000 C 
BRANCH  25  26
ATOM     26  C   UNL     1     190.004 196.885 194.719  1.00  0.00    -0.000 C 
BRANCH  26  27
ATOM     27  C   UNL     1     190.669 197.240 193.374  1.00  0.00    -0.000 C 
BRANCH  27  28
ATOM     28  C   UNL     1     191.354 196.063 192.650  1.00  0.00    -0.000 C 
BRANCH  28  29
ATOM     29  C   UNL     1     191.571 196.272 191.140  1.00  0.00    -0.003 C 
ATOM     30  C   UNL     1     191.281 197.704 190.691  1.00  0.00     0.004 C 
ENDBRANCH  28  29
ENDBRANCH  27  28
ENDBRANCH  26  27
ENDBRANCH  25  26
ENDBRANCH  24  25
ENDBRANCH  23  24
ENDBRANCH  22  23
ENDBRANCH  21  22
ENDBRANCH  20  21
ENDBRANCH  19  20
ENDBRANCH  18  19
ENDBRANCH  17  18
ENDBRANCH   1  17
TORSDOF 26
ENDMDL
MODEL 2
REMARK VINA RESULT:    -4.672      3.488      7.348
REMARK INTER + INTRA:         -16.337
REMARK INTER:                 -12.310
REMARK INTRA:                  -4.027
REMARK UNBOUND:                -4.565
REMARK SMILES CCCCCCCCCCCCCCCCCCCCCCCCCCCC(=O)[O-]
REMARK SMILES IDX 15 1 16 2 17 3 18 4 19 5 20 6 21 7 22 8 23 9 24 10 25 11
REMARK SMILES IDX 26 12 27 13 28 14 29 15 30 16 14 17 13 18 12 19 11 20 10 21
REMARK SMILES IDX 9 22 8 23 7 24 6 25 5 26 4 27 3 28 2 29 1 30
REMARK H PARENT
REMARK Flexibility Score: inf
ROOT
ATOM      1  C   UNL     1     185.031 191.867 194.065  1.00  0.00     0.000 C 
ENDROOT
BRANCH   1   2
ATOM      2  C   UNL     1     186.156 192.724 193.461  1.00  0.00     0.000 C 
BRANCH   2   3
ATOM      3  C   UNL     1     185.678 194.124 193.051  1.00  0.00     0.000 C 
BRANCH   3   4
ATOM      4  C   UNL     1     184.221 194.353 193.477  1.00  0.00     0.000 C 
BRANCH   4   5
ATOM      5  C   UNL     1     184.071 195.472 194.523  1.00  0.00     0.000 C 
BRANCH   5   6
ATOM      6  C   UNL     1     185.396 196.051 195.062  1.00  0.00     0.000 C 
BRANCH   6   7
ATOM      7  C   UNL     1     185.819 195.545 196.454  1.00  0.00     0.000 C 
BRANCH   7   8
ATOM      8  C   UNL     1     186.969 194.528 196.398  1.00  0.00     0.000 C 
BRANCH   8   9
ATOM      9  C   UNL     1     188.238 195.025 197.111  1.00  0.00     0.000 C 
BRANCH   9  10
ATOM     10  C   UNL     1     189.494 195.032 196.214  1.00  0.00     0.000 C 
BRANCH  10  11
ATOM     11  C   UNL     1     189.153 195.323 194.745  1.00  0.00     0.000 C 
BRANCH  11  12
ATOM     12  C   UNL     1     189.929 196.546 194.230  1.00  0.00     0.006 C 
BRANCH  12  13
ATOM     13  C   UNL     1     191.035 196.156 193.240  1.00  0.00     0.053 C 
BRANCH  13  14
ATOM     14  C   UNL     1     191.088 197.090 192.071  1.00  0.00     0.041 C 
ATOM     15  O   UNL     1     190.807 198.309 192.218  1.00  0.00    -0.550 OA
ATOM     16  O   UNL     1     191.479 196.621 190.822  1.00  0.00    -0.550 OA
ENDBRANCH  13  14
ENDBRANCH  12  13
ENDBRANCH  11  12
ENDBRANCH  10  11
ENDBRANCH   9  10
ENDBRANCH   8   9
ENDBRANCH   7   8
ENDBRANCH   6   7
ENDBRANCH   5   6
ENDBRANCH   4   5
ENDBRANCH   3   4
ENDBRANCH   2   3
ENDBRANCH   1   2
BRANCH   1  17
ATOM     17  C   UNL     1     184.894 190.498 193.374  1.00  0.00     0.000 C 
BRANCH  17  18
ATOM     18  C   UNL     1     186.251 189.821 193.124  1.00  0.00     0.000 C 
BRANCH  18  19
ATOM     19  C   UNL     1     186.360 189.225 191.709  1.00  0.00     0.000 C 
BRANCH  19  20
ATOM     20  C   UNL     1     185.678 190.102 190.647  1.00  0.00     0.000 C 
BRANCH  20  21
ATOM     21  C   UNL     1     186.674 190.672 189.621  1.00  0.00     0.000 C 
BRANCH  21  22
ATOM     22  C   UNL     1     187.039 192.139 189.902  1.00  0.00    -0.000 C 
BRANCH  22  23
ATOM     23  C   UNL     1     188.552 192.343 190.094  1.00  0.00    -0.000 C 
BRANCH  23  24
ATOM     24  C   UNL     1     188.945 192.474 191.574  1.00  0.00    -0.000 C 
BRANCH  24  25
ATOM     25  C   UNL     1     189.529 191.173 192.151  1.00  0.00    -0.000 C 
BRANCH  25  26
ATOM     26  C   UNL     1     190.984 191.335 192.627  1.00  0.00    -0.000 C 
BRANCH  26  27
ATOM     27  C   UNL     1     191.965 191.847 191.554  1.00  0.00    -0.000 C 
BRANCH  27  28
ATOM     28  C   UNL     1     192.442 193.301 191.741  1.00  0.00    -0.000 C 
BRANCH  28  29
ATOM     29  C   UNL     1     193.697 193.678 190.932  1.00  0.00    -0.003 C 
ATOM     30  C   UNL     1     194.904 193.985 191.816  1.00  0.00     0.004 C 
ENDBRANCH  28  29
ENDBRANCH  27  28
ENDBRANCH  26  27
ENDBRANCH  25  26
ENDBRANCH  24  25
ENDBRANCH  23  24
ENDBRANCH  22  23
ENDBRANCH  21  22
ENDBRANCH  20  21
ENDBRANCH  19  20
ENDBRANCH  18  19
ENDBRANCH  17  18
ENDBRANCH   1  17
TORSDOF 26
ENDMDL
MODEL 3
REMARK VINA RESULT:    -4.653      3.416      8.484
REMARK INTER + INTRA:         -16.291
REMARK INTER:                 -12.178
REMARK INTRA:                  -4.113
REMARK UNBOUND:                -4.565
REMARK SMILES CCCCCCCCCCCCCCCCCCCCCCCCCCCC(=O)[O-]
REMARK SMILES IDX 15 1 16 2 17 3 18 4 19 5 20 6 21 7 22 8 23 9 24 10 25 11
REMARK SMILES IDX 26 12 27 13 28 14 29 15 30 16 14 17 13 18 12 19 11 20 10 21
REMARK SMILES IDX 9 22 8 23 7 24 6 25 5 26 4 27 3 28 2 29 1 30
REMARK H PARENT
REMARK Flexibility Score: inf
ROOT
ATOM      1  C   UNL     1     185.899 193.900 192.775  1.00  0.00     0.000 C 
ENDROOT
BRANCH   1   2
ATOM      2  C   UNL     1     184.543 194.258 193.404  1.00  0.00     0.000 C 
BRANCH   2   3
ATOM      3  C   UNL     1     184.643 195.424 194.398  1.00  0.00     0.000 C 
BRANCH   3   4
ATOM      4  C   UNL     1     183.422 195.459 195.328  1.00  0.00     0.000 C 
BRANCH   4   5
ATOM      5  C   UNL     1     183.762 195.075 196.779  1.00  0.00     0.000 C 
BRANCH   5   6
ATOM      6  C   UNL     1     185.002 194.172 196.947  1.00  0.00     0.000 C 
BRANCH   6   7
ATOM      7  C   UNL     1     186.088 194.710 197.897  1.00  0.00     0.000 C 
BRANCH   7   8
ATOM      8  C   UNL     1     187.354 195.174 197.160  1.00  0.00     0.000 C 
BRANCH   8   9
ATOM      9  C   UNL     1     187.158 196.512 196.425  1.00  0.00     0.000 C 
BRANCH   9  10
ATOM     10  C   UNL     1     188.429 197.387 196.377  1.00  0.00     0.000 C 
BRANCH  10  11
ATOM     11  C   UNL     1     188.843 197.726 194.937  1.00  0.00     0.000 C 
BRANCH  11  12
ATOM     12  C   UNL     1     190.288 197.283 194.660  1.00  0.00     0.006 C 
BRANCH  12  13
ATOM     13  C   UNL     1     190.669 197.440 193.182  1.00  0.00     0.053 C 
BRANCH  13  14
ATOM     14  C   UNL     1     192.140 197.253 192.965  1.00  0.00     0.041 C 
ATOM     15  O   UNL     1     192.591 196.136 192.601  1.00  0.00    -0.550 OA
ATOM     16  O   UNL     1     193.010 198.324 193.134  1.00  0.00    -0.550 OA
ENDBRANCH  13  14
ENDBRANCH  12  13
ENDBRANCH  11  12
ENDBRANCH  10  11
ENDBRANCH   9  10
ENDBRANCH   8   9
ENDBRANCH   7   8
ENDBRANCH   6   7
ENDBRANCH   5   6
ENDBRANCH   4   5
ENDBRANCH   3   4
ENDBRANCH   2   3
ENDBRANCH   1   2
BRANCH   1  17
ATOM     17  C   UNL     1     186.946 193.481 193.822  1.00  0.00     0.000 C 
BRANCH  17  18
ATOM     18  C   UNL     1     188.225 194.331 193.756  1.00  0.00     0.000 C 
BRANCH  18  19
ATOM     19  C   UNL     1     189.501 193.492 193.949  1.00  0.00     0.000 C 
BRANCH  19  20
ATOM     20  C   UNL     1     190.363 193.431 192.678  1.00  0.00     0.000 C 
BRANCH  20  21
ATOM     21  C   UNL     1     190.310 192.053 191.993  1.00  0.00     0.000 C 
BRANCH  21  22
ATOM     22  C   UNL     1     189.790 192.131 190.549  1.00  0.00    -0.000 C 
BRANCH  22  23
ATOM     23  C   UNL     1     188.317 192.570 190.476  1.00  0.00    -0.000 C 
BRANCH  23  24
ATOM     24  C   UNL     1     187.601 192.024 189.230  1.00  0.00    -0.000 C 
BRANCH  24  25
ATOM     25  C   UNL     1     186.648 190.861 189.554  1.00  0.00    -0.000 C 
BRANCH  25  26
ATOM     26  C   UNL     1     186.430 190.676 191.067  1.00  0.00    -0.000 C 
BRANCH  26  27
ATOM     27  C   UNL     1     186.932 189.333 191.635  1.00  0.00    -0.000 C 
BRANCH  27  28
ATOM     28  C   UNL     1     187.971 189.447 192.769  1.00  0.00    -0.000 C 
BRANCH  28  29
ATOM     29  C   UNL     1     188.197 188.152 193.570  1.00  0.00    -0.003 C 
ATOM     30  C   UNL     1     187.396 186.970 193.027  1.00  0.00     0.004 C 
ENDBRANCH  28  29
ENDBRANCH  27  28
ENDBRANCH  26  27
ENDBRANCH  25  26
ENDBRANCH  24  25
ENDBRANCH  23  24
ENDBRANCH  22  23
ENDBRANCH  21  22
ENDBRANCH  20  21
ENDBRANCH  19  20
ENDBRANCH  18  19
ENDBRANCH  17  18
ENDBRANCH   1  17
TORSDOF 26
ENDMDL
MODEL 4
REMARK VINA RESULT:    -4.644      1.197      3.952
REMARK INTER + INTRA:         -16.266
REMARK INTER:                 -12.476
REMARK INTRA:                  -3.790
REMARK UNBOUND:                -4.565
REMARK SMILES CCCCCCCCCCCCCCCCCCCCCCCCCCCC(=O)[O-]
REMARK SMILES IDX 15 1 16 2 17 3 18 4 19 5 20 6 21 7 22 8 23 9 24 10 25 11
REMARK SMILES IDX 26 12 27 13 28 14 29 15 30 16 14 17 13 18 12 19 11 20 10 21
REMARK SMILES IDX 9 22 8 23 7 24 6 25 5 26 4 27 3 28 2 29 1 30
REMARK H PARENT
REMARK Flexibility Score: inf
ROOT
ATOM      1  C   UNL     1     192.306 192.774 191.707  1.00  0.00     0.000 C 
ENDROOT
BRANCH   1   2
ATOM      2  C   UNL     1     191.370 191.661 191.209  1.00  0.00     0.000 C 
BRANCH   2   3
ATOM      3  C   UNL     1     189.891 192.074 191.240  1.00  0.00     0.000 C 
BRANCH   3   4
ATOM      4  C   UNL     1     189.266 191.983 189.841  1.00  0.00     0.000 C 
BRANCH   4   5
ATOM      5  C   UNL     1     187.886 192.657 189.756  1.00  0.00     0.000 C 
BRANCH   5   6
ATOM      6  C   UNL     1     186.722 191.726 189.354  1.00  0.00     0.000 C 
BRANCH   6   7
ATOM      7  C   UNL     1     186.685 190.367 190.077  1.00  0.00     0.000 C 
BRANCH   7   8
ATOM      8  C   UNL     1     185.887 190.407 191.389  1.00  0.00     0.000 C 
BRANCH   8   9
ATOM      9  C   UNL     1     186.790 190.444 192.634  1.00  0.00     0.000 C 
BRANCH   9  10
ATOM     10  C   UNL     1     187.907 189.379 192.624  1.00  0.00     0.000 C 
BRANCH  10  11
ATOM     11  C   UNL     1     187.618 188.228 193.600  1.00  0.00     0.000 C 
BRANCH  11  12
ATOM     12  C   UNL     1     187.731 186.867 192.896  1.00  0.00     0.006 C 
BRANCH  12  13
ATOM     13  C   UNL     1     187.140 186.896 191.480  1.00  0.00     0.053 C 
BRANCH  13  14
ATOM     14  C   UNL     1     185.666 186.630 191.488  1.00  0.00     0.041 C 
ATOM     15  O   UNL     1     185.085 186.301 192.555  1.00  0.00    -0.550 OA
ATOM     16  O   UNL     1     184.927 186.775 190.319  1.00  0.00    -0.550 OA
ENDBRANCH  13  14
ENDBRANCH  12  13
ENDBRANCH  11  12
ENDBRANCH  10  11
ENDBRANCH   9  10
ENDBRANCH   8   9
ENDBRANCH   7   8
ENDBRANCH   6   7
ENDBRANCH   5   6
ENDBRANCH   4   5
ENDBRANCH   3   4
ENDBRANCH   2   3
ENDBRANCH   1   2
BRANCH   1  17
ATOM     17  C   UNL     1     191.892 194.167 191.198  1.00  0.00     0.000 C 
BRANCH  17  18
ATOM     18  C   UNL     1     192.260 195.291 192.180  1.00  0.00     0.000 C 
BRANCH  18  19
ATOM     19  C   UNL     1     191.090 196.258 192.433  1.00  0.00     0.000 C 
BRANCH  19  20
ATOM     20  C   UNL     1     190.357 195.962 193.750  1.00  0.00     0.000 C 
BRANCH  20  21
ATOM     21  C   UNL     1     189.439 194.730 193.653  1.00  0.00     0.000 C 
BRANCH  21  22
ATOM     22  C   UNL     1     189.443 193.886 194.938  1.00  0.00    -0.000 C 
BRANCH  22  23
ATOM     23  C   UNL     1     189.474 194.750 196.211  1.00  0.00    -0.000 C 
BRANCH  23  24
ATOM     24  C   UNL     1     188.066 195.093 196.723  1.00  0.00    -0.000 C 
BRANCH  24  25
ATOM     25  C   UNL     1     187.625 196.516 196.338  1.00  0.00    -0.000 C 
BRANCH  25  26
ATOM     26  C   UNL     1     186.538 196.527 195.248  1.00  0.00    -0.000 C 
BRANCH  26  27
ATOM     27  C   UNL     1     185.354 195.572 195.504  1.00  0.00    -0.000 C 
BRANCH  27  28
ATOM     28  C   UNL     1     184.272 195.561 194.405  1.00  0.00    -0.000 C 
BRANCH  28  29
ATOM     29  C   UNL     1     184.403 194.419 193.381  1.00  0.00    -0.003 C 
ATOM     30  C   UNL     1     185.856 194.059 193.075  1.00  0.00     0.004 C 
ENDBRANCH  28  29
ENDBRANCH  27  28
ENDBRANCH  26  27
ENDBRANCH  25  26
ENDBRANCH  24  25
ENDBRANCH  23  24
ENDBRANCH  22  23
ENDBRANCH  21  22
ENDBRANCH  20  21
ENDBRANCH  19  20
ENDBRANCH  18  19
ENDBRANCH  17  18
ENDBRANCH   1  17
TORSDOF 26
ENDMDL
MODEL 5
REMARK VINA RESULT:    -4.581      3.764      6.514
REMARK INTER + INTRA:         -16.108
REMARK INTER:                 -12.782
REMARK INTRA:                  -3.325
REMARK UNBOUND:                -4.565
REMARK SMILES CCCCCCCCCCCCCCCCCCCCCCCCCCCC(=O)[O-]
REMARK SMILES IDX 15 1 16 2 17 3 18 4 19 5 20 6 21 7 22 8 23 9 24 10 25 11
REMARK SMILES IDX 26 12 27 13 28 14 29 15 30 16 14 17 13 18 12 19 11 20 10 21
REMARK SMILES IDX 9 22 8 23 7 24 6 25 5 26 4 27 3 28 2 29 1 30
REMARK H PARENT
REMARK Flexibility Score: inf
ROOT
ATOM      1  C   UNL     1     192.399 199.422 191.875  1.00  0.00     0.000 C 
ENDROOT
BRANCH   1   2
ATOM      2  C   UNL     1     191.378 198.337 192.256  1.00  0.00     0.000 C 
BRANCH   2   3
ATOM      3  C   UNL     1     191.259 197.239 191.190  1.00  0.00     0.000 C 
BRANCH   3   4
ATOM      4  C   UNL     1     191.282 195.845 191.833  1.00  0.00     0.000 C 
BRANCH   4   5
ATOM      5  C   UNL     1     192.205 194.859 191.096  1.00  0.00     0.000 C 
BRANCH   5   6
ATOM      6  C   UNL     1     192.352 193.473 191.760  1.00  0.00     0.000 C 
BRANCH   6   7
ATOM      7  C   UNL     1     191.566 192.332 191.087  1.00  0.00     0.000 C 
BRANCH   7   8
ATOM      8  C   UNL     1     190.545 191.672 192.026  1.00  0.00     0.000 C 
BRANCH   8   9
ATOM      9  C   UNL     1     189.130 191.618 191.423  1.00  0.00     0.000 C 
BRANCH   9  10
ATOM     10  C   UNL     1     188.003 191.749 192.469  1.00  0.00     0.000 C 
BRANCH  10  11
ATOM     11  C   UNL     1     187.130 192.990 192.226  1.00  0.00     0.000 C 
BRANCH  11  12
ATOM     12  C   UNL     1     186.137 193.200 193.379  1.00  0.00     0.006 C 
BRANCH  12  13
ATOM     13  C   UNL     1     185.299 194.473 193.199  1.00  0.00     0.053 C 
BRANCH  13  14
ATOM     14  C   UNL     1     184.971 195.114 194.512  1.00  0.00     0.041 C 
ATOM     15  O   UNL     1     185.524 196.194 194.848  1.00  0.00    -0.550 OA
ATOM     16  O   UNL     1     184.031 194.532 195.355  1.00  0.00    -0.550 OA
ENDBRANCH  13  14
ENDBRANCH  12  13
ENDBRANCH  11  12
ENDBRANCH  10  11
ENDBRANCH   9  10
ENDBRANCH   8   9
ENDBRANCH   7   8
ENDBRANCH   6   7
ENDBRANCH   5   6
ENDBRANCH   4   5
ENDBRANCH   3   4
ENDBRANCH   2   3
ENDBRANCH   1   2
BRANCH   1  17
ATOM     17  C   UNL     1     193.357 199.764 193.031  1.00  0.00     0.000 C 
BRANCH  17  18
ATOM     18  C   UNL     1     193.205 198.815 194.230  1.00  0.00     0.000 C 
BRANCH  18  19
ATOM     19  C   UNL     1     193.692 199.445 195.546  1.00  0.00     0.000 C 
BRANCH  19  20
ATOM     20  C   UNL     1     193.691 200.981 195.498  1.00  0.00     0.000 C 
BRANCH  20  21
ATOM     21  C   UNL     1     193.497 201.616 196.887  1.00  0.00     0.000 C 
BRANCH  21  22
ATOM     22  C   UNL     1     192.019 201.880 197.216  1.00  0.00    -0.000 C 
BRANCH  22  23
ATOM     23  C   UNL     1     191.442 200.852 198.205  1.00  0.00    -0.000 C 
BRANCH  23  24
ATOM     24  C   UNL     1     190.396 199.932 197.555  1.00  0.00    -0.000 C 
BRANCH  24  25
ATOM     25  C   UNL     1     190.688 198.440 197.790  1.00  0.00    -0.000 C 
BRANCH  25  26
ATOM     26  C   UNL     1     189.681 197.518 197.080  1.00  0.00    -0.000 C 
BRANCH  26  27
ATOM     27  C   UNL     1     189.977 197.262 195.589  1.00  0.00    -0.000 C 
BRANCH  27  28
ATOM     28  C   UNL     1     188.855 196.542 194.812  1.00  0.00    -0.000 C 
BRANCH  28  29
ATOM     29  C   UNL     1     189.214 195.127 194.323  1.00  0.00    -0.003 C 
ATOM     30  C   UNL     1     189.375 194.127 195.466  1.00  0.00     0.004 C 
ENDBRANCH  28  29
ENDBRANCH  27  28
ENDBRANCH  26  27
ENDBRANCH  25  26
ENDBRANCH  24  25
ENDBRANCH  23  24
ENDBRANCH  22  23
ENDBRANCH  21  22
ENDBRANCH  20  21
ENDBRANCH  19  20
ENDBRANCH  18  19
ENDBRANCH  17  18
ENDBRANCH   1  17
TORSDOF 26
ENDMDL
MODEL 6
REMARK VINA RESULT:    -4.567      1.688      4.965
REMARK INTER + INTRA:         -16.075
REMARK INTER:                 -11.691
REMARK INTRA:                  -4.384
REMARK UNBOUND:                -4.565
REMARK SMILES CCCCCCCCCCCCCCCCCCCCCCCCCCCC(=O)[O-]
REMARK SMILES IDX 15 1 16 2 17 3 18 4 19 5 20 6 21 7 22 8 23 9 24 10 25 11
REMARK SMILES IDX 26 12 27 13 28 14 29 15 30 16 14 17 13 18 12 19 11 20 10 21
REMARK SMILES IDX 9 22 8 23 7 24 6 25 5 26 4 27 3 28 2 29 1 30
REMARK H PARENT
REMARK Flexibility Score: inf
ROOT
ATOM      1  C   UNL     1     186.633 196.381 195.582  1.00  0.00     0.000 C 
ENDROOT
BRANCH   1   2
ATOM      2  C   UNL     1     185.767 195.459 196.456  1.00  0.00     0.000 C 
BRANCH   2   3
ATOM      3  C   UNL     1     184.337 195.309 195.918  1.00  0.00     0.000 C 
BRANCH   3   4
ATOM      4  C   UNL     1     184.318 195.361 194.384  1.00  0.00     0.000 C 
BRANCH   4   5
ATOM      5  C   UNL     1     184.425 193.970 193.735  1.00  0.00     0.000 C 
BRANCH   5   6
ATOM      6  C   UNL     1     185.838 193.574 193.255  1.00  0.00     0.000 C 
BRANCH   6   7
ATOM      7  C   UNL     1     186.187 192.081 193.392  1.00  0.00     0.000 C 
BRANCH   7   8
ATOM      8  C   UNL     1     185.388 191.188 192.430  1.00  0.00     0.000 C 
BRANCH   8   9
ATOM      9  C   UNL     1     186.142 189.901 192.049  1.00  0.00     0.000 C 
BRANCH   9  10
ATOM     10  C   UNL     1     186.394 188.952 193.239  1.00  0.00     0.000 C 
BRANCH  10  11
ATOM     11  C   UNL     1     187.847 188.455 193.284  1.00  0.00     0.000 C 
BRANCH  11  12
ATOM     12  C   UNL     1     187.957 187.022 192.740  1.00  0.00     0.006 C 
BRANCH  12  13
ATOM     13  C   UNL     1     186.583 186.358 192.576  1.00  0.00     0.053 C 
BRANCH  13  14
ATOM     14  C   UNL     1     186.456 185.127 193.420  1.00  0.00     0.041 C 
ATOM     15  O   UNL     1     185.320 184.685 193.732  1.00  0.00    -0.550 OA
ATOM     16  O   UNL     1     187.596 184.450 193.838  1.00  0.00    -0.550 OA
ENDBRANCH  13  14
ENDBRANCH  12  13
ENDBRANCH  11  12
ENDBRANCH  10  11
ENDBRANCH   9  10
ENDBRANCH   8   9
ENDBRANCH   7   8
ENDBRANCH   6   7
ENDBRANCH   5   6
ENDBRANCH   4   5
ENDBRANCH   3   4
ENDBRANCH   2   3
ENDBRANCH   1   2
BRANCH   1  17
ATOM     17  C   UNL     1     188.137 196.074 195.708  1.00  0.00     0.000 C 
BRANCH  17  18
ATOM     18  C   UNL     1     188.425 194.574 195.874  1.00  0.00     0.000 C 
BRANCH  18  19
ATOM     19  C   UNL     1     189.552 194.084 194.949  1.00  0.00     0.000 C 
BRANCH  19  20
ATOM     20  C   UNL     1     189.404 194.610 193.512  1.00  0.00     0.000 C 
BRANCH  20  21
ATOM     21  C   UNL     1     190.592 195.487 193.077  1.00  0.00     0.000 C 
BRANCH  21  22
ATOM     22  C   UNL     1     191.165 195.073 191.712  1.00  0.00    -0.000 C 
BRANCH  22  23
ATOM     23  C   UNL     1     192.690 194.867 191.751  1.00  0.00    -0.000 C 
BRANCH  23  24
ATOM     24  C   UNL     1     193.095 193.416 191.447  1.00  0.00    -0.000 C 
BRANCH  24  25
ATOM     25  C   UNL     1     191.894 192.528 191.079  1.00  0.00    -0.000 C 
BRANCH  25  26
ATOM     26  C   UNL     1     191.412 191.662 192.257  1.00  0.00    -0.000 C 
BRANCH  26  27
ATOM     27  C   UNL     1     189.909 191.321 192.240  1.00  0.00    -0.000 C 
BRANCH  27  28
ATOM     28  C   UNL     1     189.240 191.372 190.851  1.00  0.00    -0.000 C 
BRANCH  28  29
ATOM     29  C   UNL     1     188.373 192.619 190.596  1.00  0.00    -0.003 C 
ATOM     30  C   UNL     1     187.443 192.460 189.395  1.00  0.00     0.004 C 
ENDBRANCH  28  29
ENDBRANCH  27  28
ENDBRANCH  26  27
ENDBRANCH  25  26
ENDBRANCH  24  25
ENDBRANCH  23  24
ENDBRANCH  22  23
ENDBRANCH  21  22
ENDBRANCH  20  21
ENDBRANCH  19  20
ENDBRANCH  18  19
ENDBRANCH  17  18
ENDBRANCH   1  17
TORSDOF 26
ENDMDL
MODEL 7
REMARK VINA RESULT:    -4.567      3.897      8.677
REMARK INTER + INTRA:         -16.073
REMARK INTER:                 -11.748
REMARK INTRA:                  -4.326
REMARK UNBOUND:                -4.565
REMARK SMILES CCCCCCCCCCCCCCCCCCCCCCCCCCCC(=O)[O-]
REMARK SMILES IDX 15 1 16 2 17 3 18 4 19 5 20 6 21 7 22 8 23 9 24 10 25 11
REMARK SMILES IDX 26 12 27 13 28 14 29 15 30 16 14 17 13 18 12 19 11 20 10 21
REMARK SMILES IDX 9 22 8 23 7 24 6 25 5 26 4 27 3 28 2 29 1 30
REMARK H PARENT
REMARK Flexibility Score: inf
ROOT
ATOM      1  C   UNL     1     188.573 194.078 193.544  1.00  0.00     0.000 C 
ENDROOT
BRANCH   1   2
ATOM      2  C   UNL     1     187.184 193.481 193.824  1.00  0.00     0.000 C 
BRANCH   2   3
ATOM      3  C   UNL     1     186.168 193.807 192.720  1.00  0.00     0.000 C 
BRANCH   3   4
ATOM      4  C   UNL     1     184.749 193.915 193.295  1.00  0.00     0.000 C 
BRANCH   4   5
ATOM      5  C   UNL     1     184.374 195.352 193.701  1.00  0.00     0.000 C 
BRANCH   5   6
ATOM      6  C   UNL     1     183.647 195.484 195.056  1.00  0.00     0.000 C 
BRANCH   6   7
ATOM      7  C   UNL     1     184.153 194.550 196.170  1.00  0.00     0.000 C 
BRANCH   7   8
ATOM      8  C   UNL     1     184.915 195.294 197.277  1.00  0.00     0.000 C 
BRANCH   8   9
ATOM      9  C   UNL     1     186.230 194.597 197.666  1.00  0.00     0.000 C 
BRANCH   9  10
ATOM     10  C   UNL     1     187.467 195.138 196.918  1.00  0.00     0.000 C 
BRANCH  10  11
ATOM     11  C   UNL     1     187.179 196.474 196.215  1.00  0.00     0.000 C 
BRANCH  11  12
ATOM     12  C   UNL     1     188.481 197.147 195.756  1.00  0.00     0.006 C 
BRANCH  12  13
ATOM     13  C   UNL     1     188.969 198.207 196.753  1.00  0.00     0.053 C 
BRANCH  13  14
ATOM     14  C   UNL     1     190.248 197.799 197.416  1.00  0.00     0.041 C 
ATOM     15  O   UNL     1     190.276 196.799 198.181  1.00  0.00    -0.550 OA
ATOM     16  O   UNL     1     191.419 198.506 197.165  1.00  0.00    -0.550 OA
ENDBRANCH  13  14
ENDBRANCH  12  13
ENDBRANCH  11  12
ENDBRANCH  10  11
ENDBRANCH   9  10
ENDBRANCH   8   9
ENDBRANCH   7   8
ENDBRANCH   6   7
ENDBRANCH   5   6
ENDBRANCH   4   5
ENDBRANCH   3   4
ENDBRANCH   2   3
ENDBRANCH   1   2
BRANCH   1  17
ATOM     17  C   UNL     1     189.713 193.227 194.132  1.00  0.00     0.000 C 
BRANCH  17  18
ATOM     18  C   UNL     1     190.199 192.136 193.165  1.00  0.00     0.000 C 
BRANCH  18  19
ATOM     19  C   UNL     1     190.939 192.716 191.947  1.00  0.00     0.000 C 
BRANCH  19  20
ATOM     20  C   UNL     1     190.365 192.211 190.614  1.00  0.00     0.000 C 
BRANCH  20  21
ATOM     21  C   UNL     1     188.898 192.628 190.405  1.00  0.00     0.000 C 
BRANCH  21  22
ATOM     22  C   UNL     1     188.265 191.967 189.169  1.00  0.00    -0.000 C 
BRANCH  22  23
ATOM     23  C   UNL     1     186.792 191.586 189.394  1.00  0.00    -0.000 C 
BRANCH  23  24
ATOM     24  C   UNL     1     186.636 190.284 190.196  1.00  0.00    -0.000 C 
BRANCH  24  25
ATOM     25  C   UNL     1     185.760 190.458 191.448  1.00  0.00    -0.000 C 
BRANCH  25  26
ATOM     26  C   UNL     1     186.491 190.065 192.745  1.00  0.00    -0.000 C 
BRANCH  26  27
ATOM     27  C   UNL     1     187.841 189.351 192.537  1.00  0.00    -0.000 C 
BRANCH  27  28
ATOM     28  C   UNL     1     188.223 188.336 193.634  1.00  0.00    -0.000 C 
BRANCH  28  29
ATOM     29  C   UNL     1     187.129 187.306 193.968  1.00  0.00    -0.003 C 
ATOM     30  C   UNL     1     187.066 186.158 192.961  1.00  0.00     0.004 C 
ENDBRANCH  28  29
ENDBRANCH  27  28
ENDBRANCH  26  27
ENDBRANCH  25  26
ENDBRANCH  24  25
ENDBRANCH  23  24
ENDBRANCH  22  23
ENDBRANCH  21  22
ENDBRANCH  20  21
ENDBRANCH  19  20
ENDBRANCH  18  19
ENDBRANCH  17  18
ENDBRANCH   1  17
TORSDOF 26
ENDMDL
MODEL 8
REMARK VINA RESULT:    -4.543      1.714      4.217
REMARK INTER + INTRA:         -16.012
REMARK INTER:                 -11.929
REMARK INTRA:                  -4.084
REMARK UNBOUND:                -4.565
REMARK SMILES CCCCCCCCCCCCCCCCCCCCCCCCCCCC(=O)[O-]
REMARK SMILES IDX 15 1 16 2 17 3 18 4 19 5 20 6 21 7 22 8 23 9 24 10 25 11
REMARK SMILES IDX 26 12 27 13 28 14 29 15 30 16 14 17 13 18 12 19 11 20 10 21
REMARK SMILES IDX 9 22 8 23 7 24 6 25 5 26 4 27 3 28 2 29 1 30
REMARK H PARENT
REMARK Flexibility Score: inf
ROOT
ATOM      1  C   UNL     1     184.189 195.543 194.526  1.00  0.00     0.000 C 
ENDROOT
BRANCH   1   2
ATOM      2  C   UNL     1     183.499 194.714 195.622  1.00  0.00     0.000 C 
BRANCH   2   3
ATOM      3  C   UNL     1     183.374 193.230 195.250  1.00  0.00     0.000 C 
BRANCH   3   4
ATOM      4  C   UNL     1     183.659 193.012 193.758  1.00  0.00     0.000 C 
BRANCH   4   5
ATOM      5  C   UNL     1     184.654 191.867 193.497  1.00  0.00     0.000 C 
BRANCH   5   6
ATOM      6  C   UNL     1     186.143 192.272 193.511  1.00  0.00     0.000 C 
BRANCH   6   7
ATOM      7  C   UNL     1     186.525 193.413 192.550  1.00  0.00     0.000 C 
BRANCH   7   8
ATOM      8  C   UNL     1     187.342 192.932 191.341  1.00  0.00     0.000 C 
BRANCH   8   9
ATOM      9  C   UNL     1     187.502 191.402 191.303  1.00  0.00     0.000 C 
BRANCH   9  10
ATOM     10  C   UNL     1     186.702 190.721 190.172  1.00  0.00     0.000 C 
BRANCH  10  11
ATOM     11  C   UNL     1     186.255 189.301 190.553  1.00  0.00     0.000 C 
BRANCH  11  12
ATOM     12  C   UNL     1     186.605 188.987 192.016  1.00  0.00     0.006 C 
BRANCH  12  13
ATOM     13  C   UNL     1     187.407 187.686 192.153  1.00  0.00     0.053 C 
BRANCH  13  14
ATOM     14  C   UNL     1     186.674 186.665 192.968  1.00  0.00     0.041 C 
ATOM     15  O   UNL     1     186.582 185.476 192.562  1.00  0.00    -0.550 OA
ATOM     16  O   UNL     1     186.118 187.020 194.191  1.00  0.00    -0.550 OA
ENDBRANCH  13  14
ENDBRANCH  12  13
ENDBRANCH  11  12
ENDBRANCH  10  11
ENDBRANCH   9  10
ENDBRANCH   8   9
ENDBRANCH   7   8
ENDBRANCH   6   7
ENDBRANCH   5   6
ENDBRANCH   4   5
ENDBRANCH   3   4
ENDBRANCH   2   3
ENDBRANCH   1   2
BRANCH   1  17
ATOM     17  C   UNL     1     185.630 195.934 194.900  1.00  0.00     0.000 C 
BRANCH  17  18
ATOM     18  C   UNL     1     186.034 195.447 196.301  1.00  0.00     0.000 C 
BRANCH  18  19
ATOM     19  C   UNL     1     187.385 196.024 196.758  1.00  0.00     0.000 C 
BRANCH  19  20
ATOM     20  C   UNL     1     187.948 197.058 195.770  1.00  0.00     0.000 C 
BRANCH  20  21
ATOM     21  C   UNL     1     189.204 196.553 195.037  1.00  0.00     0.000 C 
BRANCH  21  22
ATOM     22  C   UNL     1     189.310 195.020 195.033  1.00  0.00    -0.000 C 
BRANCH  22  23
ATOM     23  C   UNL     1     189.956 194.477 193.746  1.00  0.00    -0.000 C 
BRANCH  23  24
ATOM     24  C   UNL     1     190.767 195.547 192.998  1.00  0.00    -0.000 C 
BRANCH  24  25
ATOM     25  C   UNL     1     191.049 195.164 191.535  1.00  0.00    -0.000 C 
BRANCH  25  26
ATOM     26  C   UNL     1     192.498 194.697 191.311  1.00  0.00    -0.000 C 
BRANCH  26  27
ATOM     27  C   UNL     1     192.642 193.253 190.788  1.00  0.00    -0.000 C 
BRANCH  27  28
ATOM     28  C   UNL     1     191.455 192.320 191.104  1.00  0.00    -0.000 C 
BRANCH  28  29
ATOM     29  C   UNL     1     191.732 191.271 192.196  1.00  0.00    -0.003 C 
ATOM     30  C   UNL     1     190.485 190.905 192.999  1.00  0.00     0.004 C 
ENDBRANCH  28  29
ENDBRANCH  27  28
ENDBRANCH  26  27
ENDBRANCH  25  26
ENDBRANCH  24  25
ENDBRANCH  23  24
ENDBRANCH  22  23
ENDBRANCH  21  22
ENDBRANCH  20  21
ENDBRANCH  19  20
ENDBRANCH  18  19
ENDBRANCH  17  18
ENDBRANCH   1  17
TORSDOF 26
ENDMDL
MODEL 9
REMARK VINA RESULT:    -4.534      1.653      5.858
REMARK INTER + INTRA:         -15.991
REMARK INTER:                 -11.678
REMARK INTRA:                  -4.312
REMARK UNBOUND:                -4.565
REMARK SMILES CCCCCCCCCCCCCCCCCCCCCCCCCCCC(=O)[O-]
REMARK SMILES IDX 15 1 16 2 17 3 18 4 19 5 20 6 21 7 22 8 23 9 24 10 25 11
REMARK SMILES IDX 26 12 27 13 28 14 29 15 30 16 14 17 13 18 12 19 11 20 10 21
REMARK SMILES IDX 9 22 8 23 7 24 6 25 5 26 4 27 3 28 2 29 1 30
REMARK H PARENT
REMARK Flexibility Score: inf
ROOT
ATOM      1  C   UNL     1     190.022 197.471 195.693  1.00  0.00     0.000 C 
ENDROOT
BRANCH   1   2
ATOM      2  C   UNL     1     188.764 196.901 196.370  1.00  0.00     0.000 C 
BRANCH   2   3
ATOM      3  C   UNL     1     187.468 197.496 195.803  1.00  0.00     0.000 C 
BRANCH   3   4
ATOM      4  C   UNL     1     186.558 196.394 195.241  1.00  0.00     0.000 C 
BRANCH   4   5
ATOM      5  C   UNL     1     185.957 195.496 196.337  1.00  0.00     0.000 C 
BRANCH   5   6
ATOM      6  C   UNL     1     184.582 194.879 196.001  1.00  0.00     0.000 C 
BRANCH   6   7
ATOM      7  C   UNL     1     183.785 195.604 194.901  1.00  0.00     0.000 C 
BRANCH   7   8
ATOM      8  C   UNL     1     183.404 194.682 193.731  1.00  0.00     0.000 C 
BRANCH   8   9
ATOM      9  C   UNL     1     184.432 193.562 193.497  1.00  0.00     0.000 C 
BRANCH   9  10
ATOM     10  C   UNL     1     183.812 192.149 193.448  1.00  0.00     0.000 C 
BRANCH  10  11
ATOM     11  C   UNL     1     184.775 191.077 193.980  1.00  0.00     0.000 C 
BRANCH  11  12
ATOM     12  C   UNL     1     184.997 189.969 192.938  1.00  0.00     0.006 C 
BRANCH  12  13
ATOM     13  C   UNL     1     186.487 189.708 192.679  1.00  0.00     0.053 C 
BRANCH  13  14
ATOM     14  C   UNL     1     186.876 188.306 193.038  1.00  0.00     0.041 C 
ATOM     15  O   UNL     1     187.704 187.676 192.330  1.00  0.00    -0.550 OA
ATOM     16  O   UNL     1     186.344 187.706 194.174  1.00  0.00    -0.550 OA
ENDBRANCH  13  14
ENDBRANCH  12  13
ENDBRANCH  11  12
ENDBRANCH  10  11
ENDBRANCH   9  10
ENDBRANCH   8   9
ENDBRANCH   7   8
ENDBRANCH   6   7
ENDBRANCH   5   6
ENDBRANCH   4   5
ENDBRANCH   3   4
ENDBRANCH   2   3
ENDBRANCH   1   2
BRANCH   1  17
ATOM     17  C   UNL     1     189.891 197.537 194.161  1.00  0.00     0.000 C 
BRANCH  17  18
ATOM     18  C   UNL     1     191.051 196.835 193.435  1.00  0.00     0.000 C 
BRANCH  18  19
ATOM     19  C   UNL     1     191.187 197.284 191.970  1.00  0.00     0.000 C 
BRANCH  19  20
ATOM     20  C   UNL     1     191.513 196.117 191.025  1.00  0.00     0.000 C 
BRANCH  20  21
ATOM     21  C   UNL     1     191.470 194.751 191.734  1.00  0.00     0.000 C 
BRANCH  21  22
ATOM     22  C   UNL     1     192.469 193.744 191.141  1.00  0.00    -0.000 C 
BRANCH  22  23
ATOM     23  C   UNL     1     191.816 192.389 190.814  1.00  0.00    -0.000 C 
BRANCH  23  24
ATOM     24  C   UNL     1     191.530 191.556 192.073  1.00  0.00    -0.000 C 
BRANCH  24  25
ATOM     25  C   UNL     1     190.048 191.159 192.198  1.00  0.00    -0.000 C 
BRANCH  25  26
ATOM     26  C   UNL     1     189.177 191.755 191.078  1.00  0.00    -0.000 C 
BRANCH  26  27
ATOM     27  C   UNL     1     188.165 192.822 191.542  1.00  0.00    -0.000 C 
BRANCH  27  28
ATOM     28  C   UNL     1     187.933 192.888 193.065  1.00  0.00    -0.000 C 
BRANCH  28  29
ATOM     29  C   UNL     1     188.553 194.114 193.759  1.00  0.00    -0.003 C 
ATOM     30  C   UNL     1     189.593 193.738 194.813  1.00  0.00     0.004 C 
ENDBRANCH  28  29
ENDBRANCH  27  28
ENDBRANCH  26  27
ENDBRANCH  25  26
ENDBRANCH  24  25
ENDBRANCH  23  24
ENDBRANCH  22  23
ENDBRANCH  21  22
ENDBRANCH  20  21
ENDBRANCH  19  20
ENDBRANCH  18  19
ENDBRANCH  17  18
ENDBRANCH   1  17
TORSDOF 26
ENDMDL
