MODEL 1
REMARK VINA RESULT:     4.471      0.000      0.000
REMARK INTER + INTRA:           8.622
REMARK INTER:                   9.700
REMARK INTRA:                  -1.078
REMARK UNBOUND:                -1.078
REMARK SMILES CCCCCCCCCCCCCCCCCCCCCC(=O)[O-]
REMARK SMILES IDX 12 1 11 2 10 3 9 4 8 5 7 6 6 7 5 8 4 9 3 10 2 11 1 12 13 13
REMARK SMILES IDX 14 14 15 15 16 16 17 17 18 18 19 19 20 20 21 21 22 22 23 23
REMARK SMILES IDX 24 24
REMARK H PARENT
REMARK Flexibility Score: inf
ROOT
ATOM      1  C   UNL     1     -25.408  -2.758 -26.612  1.00  0.00     0.000 C 
ENDROOT
BRANCH   1   2
ATOM      2  C   UNL     1     -23.905  -2.465 -26.776  1.00  0.00     0.000 C 
BRANCH   2   3
ATOM      3  C   UNL     1     -23.509  -0.978 -26.683  1.00  0.00     0.000 C 
BRANCH   3   4
ATOM      4  C   UNL     1     -23.307  -0.296 -28.052  1.00  0.00    -0.000 C 
BRANCH   4   5
ATOM      5  C   UNL     1     -22.588   1.060 -27.940  1.00  0.00    -0.000 C 
BRANCH   5   6
ATOM      6  C   UNL     1     -21.868   1.227 -26.583  1.00  0.00    -0.000 C 
BRANCH   6   7
ATOM      7  C   UNL     1     -21.259   2.626 -26.382  1.00  0.00    -0.000 C 
BRANCH   7   8
ATOM      8  C   UNL     1     -21.535   3.569 -27.565  1.00  0.00    -0.000 C 
BRANCH   8   9
ATOM      9  C   UNL     1     -21.076   5.010 -27.287  1.00  0.00    -0.000 C 
BRANCH   9  10
ATOM     10  C   UNL     1     -20.705   5.768 -28.573  1.00  0.00    -0.000 C 
BRANCH  10  11
ATOM     11  C   UNL     1     -19.191   5.998 -28.705  1.00  0.00    -0.003 C 
ATOM     12  C   UNL     1     -18.425   5.622 -27.438  1.00  0.00     0.004 C 
ENDBRANCH  10  11
ENDBRANCH   9  10
ENDBRANCH   8   9
ENDBRANCH   7   8
ENDBRANCH   6   7
ENDBRANCH   5   6
ENDBRANCH   4   5
ENDBRANCH   3   4
ENDBRANCH   2   3
ENDBRANCH   1   2
BRANCH   1  13
ATOM     13  C   UNL     1     -26.141  -3.177 -27.901  1.00  0.00     0.000 C 
BRANCH  13  14
ATOM     14  C   UNL     1     -27.239  -2.185 -28.315  1.00  0.00     0.000 C 
BRANCH  14  15
ATOM     15  C   UNL     1     -28.549  -2.377 -27.528  1.00  0.00     0.000 C 
BRANCH  15  16
ATOM     16  C   UNL     1     -29.782  -2.726 -28.381  1.00  0.00     0.000 C 
BRANCH  16  17
ATOM     17  C   UNL     1     -31.094  -2.688 -27.586  1.00  0.00     0.000 C 
BRANCH  17  18
ATOM     18  C   UNL     1     -31.530  -1.241 -27.313  1.00  0.00     0.000 C 
BRANCH  18  19
ATOM     19  C   UNL     1     -31.317  -0.815 -25.849  1.00  0.00     0.000 C 
BRANCH  19  20
ATOM     20  C   UNL     1     -31.012   0.681 -25.646  1.00  0.00     0.006 C 
BRANCH  20  21
ATOM     21  C   UNL     1     -32.117   1.596 -26.189  1.00  0.00     0.053 C 
BRANCH  21  22
ATOM     22  C   UNL     1     -31.664   3.021 -26.184  1.00  0.00     0.041 C 
ATOM     23  O   UNL     1     -31.767   3.716 -25.140  1.00  0.00    -0.550 OA
ATOM     24  O   UNL     1     -31.168   3.596 -27.347  1.00  0.00    -0.550 OA
ENDBRANCH  21  22
ENDBRANCH  20  21
ENDBRANCH  19  20
ENDBRANCH  18  19
ENDBRANCH  17  18
ENDBRANCH  16  17
ENDBRANCH  15  16
ENDBRANCH  14  15
ENDBRANCH  13  14
ENDBRANCH   1  13
TORSDOF 20
ENDMDL
MODEL 2
REMARK VINA RESULT:     4.782     15.646     19.126
REMARK INTER + INTRA:           9.295
REMARK INTER:                  10.304
REMARK INTRA:                  -1.009
REMARK UNBOUND:                -1.078
REMARK SMILES CCCCCCCCCCCCCCCCCCCCCC(=O)[O-]
REMARK SMILES IDX 12 1 11 2 10 3 9 4 8 5 7 6 6 7 5 8 4 9 3 10 2 11 1 12 13 13
REMARK SMILES IDX 14 14 15 15 16 16 17 17 18 18 19 19 20 20 21 21 22 22 23 23
REMARK SMILES IDX 24 24
REMARK H PARENT
REMARK Flexibility Score: inf
ROOT
ATOM      1  C   UNL     1     -14.277  -4.079 -16.456  1.00  0.00     0.000 C 
ENDROOT
BRANCH   1   2
ATOM      2  C   UNL     1     -14.295  -4.514 -17.934  1.00  0.00     0.000 C 
BRANCH   2   3
ATOM      3  C   UNL     1     -15.443  -5.463 -18.328  1.00  0.00     0.000 C 
BRANCH   3   4
ATOM      4  C   UNL     1     -16.289  -4.963 -19.517  1.00  0.00    -0.000 C 
BRANCH   4   5
ATOM      5  C   UNL     1     -16.830  -6.112 -20.387  1.00  0.00    -0.000 C 
BRANCH   5   6
ATOM      6  C   UNL     1     -17.925  -5.634 -21.366  1.00  0.00    -0.000 C 
BRANCH   6   7
ATOM      7  C   UNL     1     -17.395  -5.343 -22.781  1.00  0.00    -0.000 C 
BRANCH   7   8
ATOM      8  C   UNL     1     -17.393  -6.589 -23.682  1.00  0.00    -0.000 C 
BRANCH   8   9
ATOM      9  C   UNL     1     -16.750  -6.322 -25.053  1.00  0.00    -0.000 C 
BRANCH   9  10
ATOM     10  C   UNL     1     -16.484  -7.616 -25.841  1.00  0.00    -0.000 C 
BRANCH  10  11
ATOM     11  C   UNL     1     -17.572  -7.901 -26.888  1.00  0.00    -0.003 C 
ATOM     12  C   UNL     1     -17.224  -9.082 -27.793  1.00  0.00     0.004 C 
ENDBRANCH  10  11
ENDBRANCH   9  10
ENDBRANCH   8   9
ENDBRANCH   7   8
ENDBRANCH   6   7
ENDBRANCH   5   6
ENDBRANCH   4   5
ENDBRANCH   3   4
ENDBRANCH   2   3
ENDBRANCH   1   2
BRANCH   1  13
ATOM     13  C   UNL     1     -14.124  -2.564 -16.219  1.00  0.00     0.000 C 
BRANCH  13  14
ATOM     14  C   UNL     1     -13.828  -2.215 -14.752  1.00  0.00     0.000 C 
BRANCH  14  15
ATOM     15  C   UNL     1     -14.638  -3.065 -13.756  1.00  0.00     0.000 C 
BRANCH  15  16
ATOM     16  C   UNL     1     -13.806  -4.009 -12.870  1.00  0.00     0.000 C 
BRANCH  16  17
ATOM     17  C   UNL     1     -12.375  -3.507 -12.634  1.00  0.00     0.000 C 
BRANCH  17  18
ATOM     18  C   UNL     1     -12.169  -3.108 -11.165  1.00  0.00     0.000 C 
BRANCH  18  19
ATOM     19  C   UNL     1     -13.485  -3.050 -10.368  1.00  0.00     0.000 C 
BRANCH  19  20
ATOM     20  C   UNL     1     -13.427  -3.697  -8.972  1.00  0.00     0.006 C 
BRANCH  20  21
ATOM     21  C   UNL     1     -12.384  -4.817  -8.875  1.00  0.00     0.053 C 
BRANCH  21  22
ATOM     22  C   UNL     1     -13.045  -6.155  -8.971  1.00  0.00     0.041 C 
ATOM     23  O   UNL     1     -14.294  -6.238  -9.099  1.00  0.00    -0.550 OA
ATOM     24  O   UNL     1     -12.285  -7.314  -8.875  1.00  0.00    -0.550 OA
ENDBRANCH  21  22
ENDBRANCH  20  21
ENDBRANCH  19  20
ENDBRANCH  18  19
ENDBRANCH  17  18
ENDBRANCH  16  17
ENDBRANCH  15  16
ENDBRANCH  14  15
ENDBRANCH  13  14
ENDBRANCH   1  13
TORSDOF 20
ENDMDL
MODEL 3
REMARK VINA RESULT:     5.215      3.221      9.145
REMARK INTER + INTRA:          10.235
REMARK INTER:                  11.272
REMARK INTRA:                  -1.038
REMARK UNBOUND:                -1.078
REMARK SMILES CCCCCCCCCCCCCCCCCCCCCC(=O)[O-]
REMARK SMILES IDX 12 1 11 2 10 3 9 4 8 5 7 6 6 7 5 8 4 9 3 10 2 11 1 12 13 13
REMARK SMILES IDX 14 14 15 15 16 16 17 17 18 18 19 19 20 20 21 21 22 22 23 23
REMARK SMILES IDX 24 24
REMARK H PARENT
REMARK Flexibility Score: inf
ROOT
ATOM      1  C   UNL     1     -29.362  -2.185 -28.802  1.00  0.00     0.000 C 
ENDROOT
BRANCH   1   2
ATOM      2  C   UNL     1     -30.230  -3.435 -28.562  1.00  0.00     0.000 C 
BRANCH   2   3
ATOM      3  C   UNL     1     -31.665  -3.157 -28.075  1.00  0.00     0.000 C 
BRANCH   3   4
ATOM      4  C   UNL     1     -32.052  -1.663 -28.082  1.00  0.00    -0.000 C 
BRANCH   4   5
ATOM      5  C   UNL     1     -32.125  -1.060 -26.668  1.00  0.00    -0.000 C 
BRANCH   5   6
ATOM      6  C   UNL     1     -32.123   0.484 -26.694  1.00  0.00    -0.000 C 
BRANCH   6   7
ATOM      7  C   UNL     1     -31.068   1.110 -25.765  1.00  0.00    -0.000 C 
BRANCH   7   8
ATOM      8  C   UNL     1     -31.666   2.151 -24.803  1.00  0.00    -0.000 C 
BRANCH   8   9
ATOM      9  C   UNL     1     -31.905   3.509 -25.481  1.00  0.00    -0.000 C 
BRANCH   9  10
ATOM     10  C   UNL     1     -30.826   3.845 -26.524  1.00  0.00    -0.000 C 
BRANCH  10  11
ATOM     11  C   UNL     1     -31.424   4.281 -27.871  1.00  0.00    -0.003 C 
ATOM     12  C   UNL     1     -30.410   4.997 -28.761  1.00  0.00     0.004 C 
ENDBRANCH  10  11
ENDBRANCH   9  10
ENDBRANCH   8   9
ENDBRANCH   7   8
ENDBRANCH   6   7
ENDBRANCH   5   6
ENDBRANCH   4   5
ENDBRANCH   3   4
ENDBRANCH   2   3
ENDBRANCH   1   2
BRANCH   1  13
ATOM     13  C   UNL     1     -28.053  -2.128 -27.992  1.00  0.00     0.000 C 
BRANCH  13  14
ATOM     14  C   UNL     1     -26.856  -2.728 -28.746  1.00  0.00     0.000 C 
BRANCH  14  15
ATOM     15  C   UNL     1     -25.499  -2.299 -28.158  1.00  0.00     0.000 C 
BRANCH  15  16
ATOM     16  C   UNL     1     -25.160  -0.806 -28.309  1.00  0.00     0.000 C 
BRANCH  16  17
ATOM     17  C   UNL     1     -23.923  -0.384 -27.502  1.00  0.00     0.000 C 
BRANCH  17  18
ATOM     18  C   UNL     1     -22.898   0.324 -28.400  1.00  0.00     0.000 C 
BRANCH  18  19
ATOM     19  C   UNL     1     -21.696   0.881 -27.615  1.00  0.00     0.000 C 
BRANCH  19  20
ATOM     20  C   UNL     1     -21.917   2.271 -26.991  1.00  0.00     0.006 C 
BRANCH  20  21
ATOM     21  C   UNL     1     -20.638   3.118 -26.949  1.00  0.00     0.053 C 
BRANCH  21  22
ATOM     22  C   UNL     1     -20.895   4.478 -27.515  1.00  0.00     0.041 C 
ATOM     23  O   UNL     1     -20.049   5.398 -27.362  1.00  0.00    -0.550 OA
ATOM     24  O   UNL     1     -22.089   4.744 -28.173  1.00  0.00    -0.550 OA
ENDBRANCH  21  22
ENDBRANCH  20  21
ENDBRANCH  19  20
ENDBRANCH  18  19
ENDBRANCH  17  18
ENDBRANCH  16  17
ENDBRANCH  15  16
ENDBRANCH  14  15
ENDBRANCH  13  14
ENDBRANCH   1  13
TORSDOF 20
ENDMDL
MODEL 4
REMARK VINA RESULT:     6.001     15.252     18.759
REMARK INTER + INTRA:          11.939
REMARK INTER:                  12.772
REMARK INTRA:                  -0.833
REMARK UNBOUND:                -1.078
REMARK SMILES CCCCCCCCCCCCCCCCCCCCCC(=O)[O-]
REMARK SMILES IDX 12 1 11 2 10 3 9 4 8 5 7 6 6 7 5 8 4 9 3 10 2 11 1 12 13 13
REMARK SMILES IDX 14 14 15 15 16 16 17 17 18 18 19 19 20 20 21 21 22 22 23 23
REMARK SMILES IDX 24 24
REMARK H PARENT
REMARK Flexibility Score: inf
ROOT
ATOM      1  C   UNL     1     -14.029  -4.979 -16.994  1.00  0.00     0.000 C 
ENDROOT
BRANCH   1   2
ATOM      2  C   UNL     1     -14.876  -5.768 -18.010  1.00  0.00     0.000 C 
BRANCH   2   3
ATOM      3  C   UNL     1     -15.620  -4.912 -19.053  1.00  0.00     0.000 C 
BRANCH   3   4
ATOM      4  C   UNL     1     -16.524  -5.726 -20.003  1.00  0.00    -0.000 C 
BRANCH   4   5
ATOM      5  C   UNL     1     -16.717  -5.046 -21.370  1.00  0.00    -0.000 C 
BRANCH   5   6
ATOM      6  C   UNL     1     -17.276  -6.020 -22.430  1.00  0.00    -0.000 C 
BRANCH   6   7
ATOM      7  C   UNL     1     -17.268  -5.442 -23.856  1.00  0.00    -0.000 C 
BRANCH   7   8
ATOM      8  C   UNL     1     -17.470  -6.520 -24.935  1.00  0.00    -0.000 C 
BRANCH   8   9
ATOM      9  C   UNL     1     -16.155  -6.914 -25.626  1.00  0.00    -0.000 C 
BRANCH   9  10
ATOM     10  C   UNL     1     -16.167  -8.366 -26.132  1.00  0.00    -0.000 C 
BRANCH  10  11
ATOM     11  C   UNL     1     -16.730  -8.487 -27.557  1.00  0.00    -0.003 C 
ATOM     12  C   UNL     1     -18.208  -8.109 -27.641  1.00  0.00     0.004 C 
ENDBRANCH  10  11
ENDBRANCH   9  10
ENDBRANCH   8   9
ENDBRANCH   7   8
ENDBRANCH   6   7
ENDBRANCH   5   6
ENDBRANCH   4   5
ENDBRANCH   3   4
ENDBRANCH   2   3
ENDBRANCH   1   2
BRANCH   1  13
ATOM     13  C   UNL     1     -14.137  -5.460 -15.534  1.00  0.00     0.000 C 
BRANCH  13  14
ATOM     14  C   UNL     1     -14.452  -4.321 -14.551  1.00  0.00     0.000 C 
BRANCH  14  15
ATOM     15  C   UNL     1     -14.143  -2.927 -15.128  1.00  0.00     0.000 C 
BRANCH  15  16
ATOM     16  C   UNL     1     -13.414  -1.967 -14.170  1.00  0.00     0.000 C 
BRANCH  16  17
ATOM     17  C   UNL     1     -12.045  -2.493 -13.717  1.00  0.00     0.000 C 
BRANCH  17  18
ATOM     18  C   UNL     1     -11.986  -2.624 -12.187  1.00  0.00     0.000 C 
BRANCH  18  19
ATOM     19  C   UNL     1     -12.555  -3.959 -11.676  1.00  0.00     0.000 C 
BRANCH  19  20
ATOM     20  C   UNL     1     -13.847  -3.840 -10.847  1.00  0.00     0.006 C 
BRANCH  20  21
ATOM     21  C   UNL     1     -13.614  -4.039  -9.344  1.00  0.00     0.053 C 
BRANCH  21  22
ATOM     22  C   UNL     1     -13.528  -5.496  -9.019  1.00  0.00     0.041 C 
ATOM     23  O   UNL     1     -12.405  -6.053  -8.894  1.00  0.00    -0.550 OA
ATOM     24  O   UNL     1     -14.687  -6.251  -8.897  1.00  0.00    -0.550 OA
ENDBRANCH  21  22
ENDBRANCH  20  21
ENDBRANCH  19  20
ENDBRANCH  18  19
ENDBRANCH  17  18
ENDBRANCH  16  17
ENDBRANCH  15  16
ENDBRANCH  14  15
ENDBRANCH  13  14
ENDBRANCH   1  13
TORSDOF 20
ENDMDL
MODEL 5
REMARK VINA RESULT:     6.018      4.160     10.341
REMARK INTER + INTRA:          11.977
REMARK INTER:                  12.720
REMARK INTRA:                  -0.743
REMARK UNBOUND:                -1.078
REMARK SMILES CCCCCCCCCCCCCCCCCCCCCC(=O)[O-]
REMARK SMILES IDX 12 1 11 2 10 3 9 4 8 5 7 6 6 7 5 8 4 9 3 10 2 11 1 12 13 13
REMARK SMILES IDX 14 14 15 15 16 16 17 17 18 18 19 19 20 20 21 21 22 22 23 23
REMARK SMILES IDX 24 24
REMARK H PARENT
REMARK Flexibility Score: inf
ROOT
ATOM      1  C   UNL     1     -24.314  -2.972 -26.088  1.00  0.00     0.000 C 
ENDROOT
BRANCH   1   2
ATOM      2  C   UNL     1     -25.349  -3.743 -26.928  1.00  0.00     0.000 C 
BRANCH   2   3
ATOM      3  C   UNL     1     -26.806  -3.261 -26.785  1.00  0.00     0.000 C 
BRANCH   3   4
ATOM      4  C   UNL     1     -27.379  -2.611 -28.062  1.00  0.00    -0.000 C 
BRANCH   4   5
ATOM      5  C   UNL     1     -28.842  -2.163 -27.896  1.00  0.00    -0.000 C 
BRANCH   5   6
ATOM      6  C   UNL     1     -29.755  -2.734 -29.005  1.00  0.00    -0.000 C 
BRANCH   6   7
ATOM      7  C   UNL     1     -31.253  -2.497 -28.746  1.00  0.00    -0.000 C 
BRANCH   7   8
ATOM      8  C   UNL     1     -31.676  -2.876 -27.317  1.00  0.00    -0.000 C 
BRANCH   8   9
ATOM      9  C   UNL     1     -32.100  -1.654 -26.487  1.00  0.00    -0.000 C 
BRANCH   9  10
ATOM     10  C   UNL     1     -30.913  -0.987 -25.772  1.00  0.00    -0.000 C 
BRANCH  10  11
ATOM     11  C   UNL     1     -30.853   0.529 -26.021  1.00  0.00    -0.003 C 
ATOM     12  C   UNL     1     -31.414   1.340 -24.853  1.00  0.00     0.004 C 
ENDBRANCH  10  11
ENDBRANCH   9  10
ENDBRANCH   8   9
ENDBRANCH   7   8
ENDBRANCH   6   7
ENDBRANCH   5   6
ENDBRANCH   4   5
ENDBRANCH   3   4
ENDBRANCH   2   3
ENDBRANCH   1   2
BRANCH   1  13
ATOM     13  C   UNL     1     -23.277  -2.170 -26.898  1.00  0.00     0.000 C 
BRANCH  13  14
ATOM     14  C   UNL     1     -23.169  -0.705 -26.448  1.00  0.00     0.000 C 
BRANCH  14  15
ATOM     15  C   UNL     1     -22.751   0.245 -27.585  1.00  0.00     0.000 C 
BRANCH  15  16
ATOM     16  C   UNL     1     -21.871   1.433 -27.158  1.00  0.00     0.000 C 
BRANCH  16  17
ATOM     17  C   UNL     1     -22.561   2.792 -27.350  1.00  0.00     0.000 C 
BRANCH  17  18
ATOM     18  C   UNL     1     -21.547   3.941 -27.246  1.00  0.00     0.000 C 
BRANCH  18  19
ATOM     19  C   UNL     1     -21.633   4.926 -28.426  1.00  0.00     0.000 C 
BRANCH  19  20
ATOM     20  C   UNL     1     -20.670   6.125 -28.342  1.00  0.00     0.006 C 
BRANCH  20  21
ATOM     21  C   UNL     1     -19.625   5.975 -27.229  1.00  0.00     0.053 C 
BRANCH  21  22
ATOM     22  C   UNL     1     -18.274   5.709 -27.814  1.00  0.00     0.041 C 
ATOM     23  O   UNL     1     -17.371   5.186 -27.112  1.00  0.00    -0.550 OA
ATOM     24  O   UNL     1     -17.999   6.079 -29.125  1.00  0.00    -0.550 OA
ENDBRANCH  21  22
ENDBRANCH  20  21
ENDBRANCH  19  20
ENDBRANCH  18  19
ENDBRANCH  17  18
ENDBRANCH  16  17
ENDBRANCH  15  16
ENDBRANCH  14  15
ENDBRANCH  13  14
ENDBRANCH   1  13
TORSDOF 20
ENDMDL
MODEL 6
REMARK VINA RESULT:     6.146     15.182     18.075
REMARK INTER + INTRA:          12.254
REMARK INTER:                  10.174
REMARK INTRA:                   2.080
REMARK UNBOUND:                -1.078
REMARK SMILES CCCCCCCCCCCCCCCCCCCCCC(=O)[O-]
REMARK SMILES IDX 12 1 11 2 10 3 9 4 8 5 7 6 6 7 5 8 4 9 3 10 2 11 1 12 13 13
REMARK SMILES IDX 14 14 15 15 16 16 17 17 18 18 19 19 20 20 21 21 22 22 23 23
REMARK SMILES IDX 24 24
REMARK H PARENT
REMARK Flexibility Score: inf
ROOT
ATOM      1  C   UNL     1     -13.791  -2.406 -16.860  1.00  0.00     0.000 C 
ENDROOT
BRANCH   1   2
ATOM      2  C   UNL     1     -13.092  -1.742 -15.659  1.00  0.00     0.000 C 
BRANCH   2   3
ATOM      3  C   UNL     1     -13.913  -1.708 -14.355  1.00  0.00     0.000 C 
BRANCH   3   4
ATOM      4  C   UNL     1     -14.518  -3.072 -13.960  1.00  0.00    -0.000 C 
BRANCH   4   5
ATOM      5  C   UNL     1     -13.521  -3.967 -13.201  1.00  0.00    -0.000 C 
BRANCH   5   6
ATOM      6  C   UNL     1     -13.439  -3.605 -11.702  1.00  0.00    -0.000 C 
BRANCH   6   7
ATOM      7  C   UNL     1     -12.046  -3.117 -11.266  1.00  0.00    -0.000 C 
BRANCH   7   8
ATOM      8  C   UNL     1     -12.088  -2.272  -9.982  1.00  0.00    -0.000 C 
BRANCH   8   9
ATOM      9  C   UNL     1     -13.126  -2.787  -8.972  1.00  0.00    -0.000 C 
BRANCH   9  10
ATOM     10  C   UNL     1     -14.209  -3.655  -9.633  1.00  0.00    -0.000 C 
BRANCH  10  11
ATOM     11  C   UNL     1     -14.453  -4.970  -8.875  1.00  0.00    -0.003 C 
ATOM     12  C   UNL     1     -13.696  -6.150  -9.482  1.00  0.00     0.004 C 
ENDBRANCH  10  11
ENDBRANCH   9  10
ENDBRANCH   8   9
ENDBRANCH   7   8
ENDBRANCH   6   7
ENDBRANCH   5   6
ENDBRANCH   4   5
ENDBRANCH   3   4
ENDBRANCH   2   3
ENDBRANCH   1   2
BRANCH   1  13
ATOM     13  C   UNL     1     -14.527  -3.722 -16.546  1.00  0.00     0.000 C 
BRANCH  13  14
ATOM     14  C   UNL     1     -14.076  -4.888 -17.440  1.00  0.00     0.000 C 
BRANCH  14  15
ATOM     15  C   UNL     1     -14.720  -4.858 -18.839  1.00  0.00     0.000 C 
BRANCH  15  16
ATOM     16  C   UNL     1     -15.905  -5.820 -19.038  1.00  0.00     0.000 C 
BRANCH  16  17
ATOM     17  C   UNL     1     -17.078  -5.181 -19.794  1.00  0.00     0.000 C 
BRANCH  17  18
ATOM     18  C   UNL     1     -17.529  -6.073 -20.961  1.00  0.00     0.000 C 
BRANCH  18  19
ATOM     19  C   UNL     1     -17.220  -5.461 -22.339  1.00  0.00     0.000 C 
BRANCH  19  20
ATOM     20  C   UNL     1     -16.641  -6.445 -23.371  1.00  0.00     0.006 C 
BRANCH  20  21
ATOM     21  C   UNL     1     -17.580  -6.687 -24.560  1.00  0.00     0.053 C 
BRANCH  21  22
ATOM     22  C   UNL     1     -16.830  -7.290 -25.704  1.00  0.00     0.041 C 
ATOM     23  O   UNL     1     -15.583  -7.144 -25.792  1.00  0.00    -0.550 OA
ATOM     24  O   UNL     1     -17.514  -7.977 -26.699  1.00  0.00    -0.550 OA
ENDBRANCH  21  22
ENDBRANCH  20  21
ENDBRANCH  19  20
ENDBRANCH  18  19
ENDBRANCH  17  18
ENDBRANCH  16  17
ENDBRANCH  15  16
ENDBRANCH  14  15
ENDBRANCH  13  14
ENDBRANCH   1  13
TORSDOF 20
ENDMDL
MODEL 7
REMARK VINA RESULT:     6.427     15.388     18.100
REMARK INTER + INTRA:          12.863
REMARK INTER:                  13.721
REMARK INTRA:                  -0.857
REMARK UNBOUND:                -1.078
REMARK SMILES CCCCCCCCCCCCCCCCCCCCCC(=O)[O-]
REMARK SMILES IDX 12 1 11 2 10 3 9 4 8 5 7 6 6 7 5 8 4 9 3 10 2 11 1 12 13 13
REMARK SMILES IDX 14 14 15 15 16 16 17 17 18 18 19 19 20 20 21 21 22 22 23 23
REMARK SMILES IDX 24 24
REMARK H PARENT
REMARK Flexibility Score: inf
ROOT
ATOM      1  C   UNL     1     -13.521  -7.546 -15.873  1.00  0.00     0.000 C 
ENDROOT
BRANCH   1   2
ATOM      2  C   UNL     1     -14.384  -7.003 -14.719  1.00  0.00     0.000 C 
BRANCH   2   3
ATOM      3  C   UNL     1     -13.797  -5.789 -13.972  1.00  0.00     0.000 C 
BRANCH   3   4
ATOM      4  C   UNL     1     -14.241  -4.427 -14.544  1.00  0.00    -0.000 C 
BRANCH   4   5
ATOM      5  C   UNL     1     -14.037  -3.269 -13.550  1.00  0.00    -0.000 C 
BRANCH   5   6
ATOM      6  C   UNL     1     -12.541  -2.954 -13.323  1.00  0.00    -0.000 C 
BRANCH   6   7
ATOM      7  C   UNL     1     -11.982  -3.549 -12.020  1.00  0.00    -0.000 C 
BRANCH   7   8
ATOM      8  C   UNL     1     -12.677  -2.992 -10.766  1.00  0.00    -0.000 C 
BRANCH   8   9
ATOM      9  C   UNL     1     -13.994  -3.718 -10.453  1.00  0.00    -0.000 C 
BRANCH   9  10
ATOM     10  C   UNL     1     -14.073  -4.192  -8.992  1.00  0.00    -0.000 C 
BRANCH  10  11
ATOM     11  C   UNL     1     -14.221  -5.718  -8.875  1.00  0.00    -0.003 C 
ATOM     12  C   UNL     1     -12.888  -6.451  -9.007  1.00  0.00     0.004 C 
ENDBRANCH  10  11
ENDBRANCH   9  10
ENDBRANCH   8   9
ENDBRANCH   7   8
ENDBRANCH   6   7
ENDBRANCH   5   6
ENDBRANCH   4   5
ENDBRANCH   3   4
ENDBRANCH   2   3
ENDBRANCH   1   2
BRANCH   1  13
ATOM     13  C   UNL     1     -13.460  -6.651 -17.126  1.00  0.00     0.000 C 
BRANCH  13  14
ATOM     14  C   UNL     1     -14.831  -6.462 -17.793  1.00  0.00     0.000 C 
BRANCH  14  15
ATOM     15  C   UNL     1     -14.904  -5.196 -18.667  1.00  0.00     0.000 C 
BRANCH  15  16
ATOM     16  C   UNL     1     -15.712  -5.343 -19.970  1.00  0.00     0.000 C 
BRANCH  16  17
ATOM     17  C   UNL     1     -17.211  -5.563 -19.727  1.00  0.00     0.000 C 
BRANCH  17  18
ATOM     18  C   UNL     1     -17.868  -6.251 -20.933  1.00  0.00     0.000 C 
BRANCH  18  19
ATOM     19  C   UNL     1     -17.267  -5.806 -22.279  1.00  0.00     0.000 C 
BRANCH  19  20
ATOM     20  C   UNL     1     -17.552  -6.751 -23.460  1.00  0.00     0.006 C 
BRANCH  20  21
ATOM     21  C   UNL     1     -17.109  -6.171 -24.810  1.00  0.00     0.053 C 
BRANCH  21  22
ATOM     22  C   UNL     1     -16.637  -7.262 -25.717  1.00  0.00     0.041 C 
ATOM     23  O   UNL     1     -15.433  -7.627 -25.698  1.00  0.00    -0.550 OA
ATOM     24  O   UNL     1     -17.520  -7.848 -26.617  1.00  0.00    -0.550 OA
ENDBRANCH  21  22
ENDBRANCH  20  21
ENDBRANCH  19  20
ENDBRANCH  18  19
ENDBRANCH  17  18
ENDBRANCH  16  17
ENDBRANCH  15  16
ENDBRANCH  14  15
ENDBRANCH  13  14
ENDBRANCH   1  13
TORSDOF 20
ENDMDL
MODEL 8
REMARK VINA RESULT:     6.604     14.089     17.009
REMARK INTER + INTRA:          13.248
REMARK INTER:                  14.153
REMARK INTRA:                  -0.905
REMARK UNBOUND:                -1.078
REMARK SMILES CCCCCCCCCCCCCCCCCCCCCC(=O)[O-]
REMARK SMILES IDX 12 1 11 2 10 3 9 4 8 5 7 6 6 7 5 8 4 9 3 10 2 11 1 12 13 13
REMARK SMILES IDX 14 14 15 15 16 16 17 17 18 18 19 19 20 20 21 21 22 22 23 23
REMARK SMILES IDX 24 24
REMARK H PARENT
REMARK Flexibility Score: inf
ROOT
ATOM      1  C   UNL     1     -14.529  -5.342 -17.977  1.00  0.00     0.000 C 
ENDROOT
BRANCH   1   2
ATOM      2  C   UNL     1     -13.775  -4.426 -16.995  1.00  0.00     0.000 C 
BRANCH   2   3
ATOM      3  C   UNL     1     -14.529  -3.149 -16.573  1.00  0.00     0.000 C 
BRANCH   3   4
ATOM      4  C   UNL     1     -13.669  -1.869 -16.622  1.00  0.00    -0.000 C 
BRANCH   4   5
ATOM      5  C   UNL     1     -13.448  -1.247 -15.232  1.00  0.00    -0.000 C 
BRANCH   5   6
ATOM      6  C   UNL     1     -13.765  -2.242 -14.093  1.00  0.00    -0.000 C 
BRANCH   6   7
ATOM      7  C   UNL     1     -12.531  -3.015 -13.595  1.00  0.00    -0.000 C 
BRANCH   7   8
ATOM      8  C   UNL     1     -12.485  -3.137 -12.063  1.00  0.00    -0.000 C 
BRANCH   8   9
ATOM      9  C   UNL     1     -13.737  -3.821 -11.490  1.00  0.00    -0.000 C 
BRANCH   9  10
ATOM     10  C   UNL     1     -13.994  -3.443 -10.021  1.00  0.00    -0.000 C 
BRANCH  10  11
ATOM     11  C   UNL     1     -13.397  -4.462  -9.038  1.00  0.00    -0.003 C 
ATOM     12  C   UNL     1     -13.958  -5.869  -9.234  1.00  0.00     0.004 C 
ENDBRANCH  10  11
ENDBRANCH   9  10
ENDBRANCH   8   9
ENDBRANCH   7   8
ENDBRANCH   6   7
ENDBRANCH   5   6
ENDBRANCH   4   5
ENDBRANCH   3   4
ENDBRANCH   2   3
ENDBRANCH   1   2
BRANCH   1  13
ATOM     13  C   UNL     1     -15.810  -4.740 -18.585  1.00  0.00     0.000 C 
BRANCH  13  14
ATOM     14  C   UNL     1     -16.043  -5.174 -20.041  1.00  0.00     0.000 C 
BRANCH  14  15
ATOM     15  C   UNL     1     -17.335  -5.990 -20.226  1.00  0.00     0.000 C 
BRANCH  15  16
ATOM     16  C   UNL     1     -17.766  -6.215 -21.687  1.00  0.00     0.000 C 
BRANCH  16  17
ATOM     17  C   UNL     1     -16.970  -5.365 -22.687  1.00  0.00     0.000 C 
BRANCH  17  18
ATOM     18  C   UNL     1     -17.468  -5.595 -24.122  1.00  0.00     0.000 C 
BRANCH  18  19
ATOM     19  C   UNL     1     -17.177  -7.015 -24.638  1.00  0.00     0.000 C 
BRANCH  19  20
ATOM     20  C   UNL     1     -16.266  -7.081 -25.878  1.00  0.00     0.006 C 
BRANCH  20  21
ATOM     21  C   UNL     1     -16.274  -8.459 -26.553  1.00  0.00     0.053 C 
BRANCH  21  22
ATOM     22  C   UNL     1     -17.451  -8.586 -27.466  1.00  0.00     0.041 C 
ATOM     23  O   UNL     1     -18.134  -7.572 -27.765  1.00  0.00    -0.550 OA
ATOM     24  O   UNL     1     -17.822  -9.833 -27.952  1.00  0.00    -0.550 OA
ENDBRANCH  21  22
ENDBRANCH  20  21
ENDBRANCH  19  20
ENDBRANCH  18  19
ENDBRANCH  17  18
ENDBRANCH  16  17
ENDBRANCH  15  16
ENDBRANCH  14  15
ENDBRANCH  13  14
ENDBRANCH   1  13
TORSDOF 20
ENDMDL
