MODEL 1
REMARK VINA RESULT:    11.973      0.000      0.000
REMARK INTER + INTRA:          18.492
REMARK INTER:                  19.673
REMARK INTRA:                  -1.181
REMARK UNBOUND:                -1.181
REMARK SMILES C[C@H]1O[C@@H](OC[C@@H]2O[C@H](Oc3c(-c4ccc(O)c(O)c4)oc4cc(O)cc(O)c4c3=O)[C@H](O)[C@@H](O)[C@H]2O)[C@@H](O)[C@H](O)[C@H]1O
REMARK SMILES IDX 7 1 36 2 34 3 32 4 9 5 8 6 6 7 5 8 4 9 1 10 2 11 42 12 3 13
REMARK SMILES IDX 40 14 38 15 43 16 41 18 39 20 37 22 35 24 10 26 11 27 12 28
REMARK SMILES IDX 30 29 21 30 29 31 31 32 22 33 27 34 23 35 26 36 24 37 13 38
REMARK SMILES IDX 20 39 14 40 18 41 15 42 16 43 19 44 17 46 28 48 25 50 33 52
REMARK H PARENT 43 17 41 19 39 21 37 23 35 25 19 45 17 47 28 49 25 51 33 53
REMARK Flexibility Score: inf
ROOT
ATOM      1  C   UNL     1       2.652  21.308  25.451  1.00  0.00     0.180 C 
ATOM      2  C   UNL     1       1.661  21.746  26.583  1.00  0.00     0.177 C 
ATOM      3  C   UNL     1       0.980  23.097  26.289  1.00  0.00     0.180 C 
ATOM      4  C   UNL     1       0.625  23.118  24.740  1.00  0.00     0.214 C 
ATOM      5  C   UNL     1       1.773  22.662  23.793  1.00  0.00     0.339 C 
ATOM      6  O   UNL     1       2.923  22.367  24.576  1.00  0.00    -0.332 OA
ENDROOT
BRANCH   1   7
ATOM      7  C   UNL     1       3.979  20.725  26.002  1.00  0.00     0.198 C 
BRANCH   7   8
ATOM      8  O   UNL     1       4.075  19.311  25.892  1.00  0.00    -0.347 OA
BRANCH   8   9
ATOM      9  C   UNL     1       4.614  18.697  27.044  1.00  0.00     0.281 C 
ATOM     10  C   UNL     1       6.652  18.128  24.518  1.00  0.00     0.041 C 
ATOM     11  C   UNL     1       6.373  17.432  25.861  1.00  0.00     0.150 C 
ATOM     12  C   UNL     1       5.425  16.168  25.824  1.00  0.00     0.174 C 
ATOM     13  O   UNL     1       6.053  18.429  26.823  1.00  0.00    -0.344 OA
ATOM     14  C   UNL     1       3.945  16.586  25.917  1.00  0.00     0.179 C 
ATOM     15  C   UNL     1       3.696  17.460  27.125  1.00  0.00     0.202 C 
BRANCH  12  16
ATOM     16  O   UNL     1       5.693  15.435  24.673  1.00  0.00    -0.388 OA
ATOM     17  H   UNL     1       6.516  14.863  24.841  1.00  0.00     0.211 HD
ENDBRANCH  12  16
BRANCH  14  18
ATOM     18  O   UNL     1       3.182  15.399  26.025  1.00  0.00    -0.387 OA
ATOM     19  H   UNL     1       3.011  15.271  26.993  1.00  0.00     0.211 HD
ENDBRANCH  14  18
BRANCH  15  20
ATOM     20  O   UNL     1       2.332  17.876  27.064  1.00  0.00    -0.385 OA
ATOM     21  H   UNL     1       1.796  17.046  27.100  1.00  0.00     0.211 HD
ENDBRANCH  15  20
ENDBRANCH   8   9
ENDBRANCH   7   8
ENDBRANCH   1   7
BRANCH   2  22
ATOM     22  O   UNL     1       0.789  20.675  26.868  1.00  0.00    -0.387 OA
ATOM     23  H   UNL     1      -0.128  21.047  26.915  1.00  0.00     0.211 HD
ENDBRANCH   2  22
BRANCH   3  24
ATOM     24  O   UNL     1      -0.167  23.272  27.125  1.00  0.00    -0.387 OA
ATOM     25  H   UNL     1      -0.948  22.934  26.578  1.00  0.00     0.211 HD
ENDBRANCH   3  24
BRANCH   5  26
ATOM     26  O   UNL     1       2.055  23.445  22.674  1.00  0.00    -0.454 OA
BRANCH  26  27
ATOM     27  C   UNL     1       2.180  24.870  22.590  1.00  0.00     0.214 A 
ATOM     28  C   UNL     1       3.280  25.521  23.124  1.00  0.00     0.180 A 
ATOM     29  C   UNL     1       1.298  25.616  21.803  1.00  0.00     0.239 A 
ATOM     30  O   UNL     1       3.345  26.839  22.889  1.00  0.00    -0.452 OA
ATOM     31  C   UNL     1       1.335  26.982  21.729  1.00  0.00     0.111 A 
ATOM     32  O   UNL     1       0.542  25.019  20.924  1.00  0.00    -0.285 OA
ATOM     33  C   UNL     1       2.479  27.567  22.192  1.00  0.00     0.146 A 
ATOM     34  C   UNL     1       0.437  27.662  20.893  1.00  0.00     0.134 A 
ATOM     35  C   UNL     1       2.720  28.951  21.906  1.00  0.00     0.094 A 
ATOM     36  C   UNL     1       0.875  28.855  20.280  1.00  0.00     0.093 A 
ATOM     37  C   UNL     1       2.044  29.456  20.736  1.00  0.00     0.123 A 
BRANCH  28  38
ATOM     38  C   UNL     1       4.387  25.027  23.835  1.00  0.00     0.025 A 
ATOM     39  C   UNL     1       4.335  24.964  25.222  1.00  0.00     0.062 A 
ATOM     40  C   UNL     1       5.415  24.198  23.144  1.00  0.00     0.016 A 
ATOM     41  C   UNL     1       5.303  24.263  25.840  1.00  0.00     0.158 A 
ATOM     42  C   UNL     1       6.533  23.691  23.800  1.00  0.00     0.051 A 
ATOM     43  C   UNL     1       6.432  23.627  25.199  1.00  0.00     0.157 A 
BRANCH  41  44
ATOM     44  O   UNL     1       4.921  23.721  27.041  1.00  0.00    -0.504 OA
ATOM     45  H   UNL     1       5.286  22.714  26.958  1.00  0.00     0.293 HD
ENDBRANCH  41  44
BRANCH  43  46
ATOM     46  O   UNL     1       7.125  22.639  25.840  1.00  0.00    -0.504 OA
ATOM     47  H   UNL     1       7.900  22.867  26.425  1.00  0.00     0.293 HD
ENDBRANCH  43  46
ENDBRANCH  28  38
BRANCH  34  48
ATOM     48  O   UNL     1      -0.820  27.219  20.886  1.00  0.00    -0.507 OA
ATOM     49  H   UNL     1      -1.254  27.123  21.840  1.00  0.00     0.293 HD
ENDBRANCH  34  48
BRANCH  37  50
ATOM     50  O   UNL     1       2.404  30.694  20.241  1.00  0.00    -0.508 OA
ATOM     51  H   UNL     1       2.271  30.847  19.293  1.00  0.00     0.293 HD
ENDBRANCH  37  50
ENDBRANCH  26  27
ENDBRANCH   5  26
BRANCH   4  52
ATOM     52  O   UNL     1       0.130  24.413  24.370  1.00  0.00    -0.384 OA
ATOM     53  H   UNL     1      -0.293  24.770  25.182  1.00  0.00     0.211 HD
ENDBRANCH   4  52
TORSDOF 16
ENDMDL
MODEL 2
REMARK VINA RESULT:    13.288      2.375      8.378
REMARK INTER + INTRA:          20.651
REMARK INTER:                  19.742
REMARK INTRA:                   0.909
REMARK UNBOUND:                -1.181
REMARK SMILES C[C@H]1O[C@@H](OC[C@@H]2O[C@H](Oc3c(-c4ccc(O)c(O)c4)oc4cc(O)cc(O)c4c3=O)[C@H](O)[C@@H](O)[C@H]2O)[C@@H](O)[C@H](O)[C@H]1O
REMARK SMILES IDX 7 1 36 2 34 3 32 4 9 5 8 6 6 7 5 8 4 9 1 10 2 11 42 12 3 13
REMARK SMILES IDX 40 14 38 15 43 16 41 18 39 20 37 22 35 24 10 26 11 27 12 28
REMARK SMILES IDX 30 29 21 30 29 31 31 32 22 33 27 34 23 35 26 36 24 37 13 38
REMARK SMILES IDX 20 39 14 40 18 41 15 42 16 43 19 44 17 46 28 48 25 50 33 52
REMARK H PARENT 43 17 41 19 39 21 37 23 35 25 19 45 17 47 28 49 25 51 33 53
REMARK Flexibility Score: inf
ROOT
ATOM      1  C   UNL     1       3.964  24.743  24.223  1.00  0.00     0.180 C 
ATOM      2  C   UNL     1       5.042  25.877  24.164  1.00  0.00     0.177 C 
ATOM      3  C   UNL     1       5.948  25.905  25.411  1.00  0.00     0.180 C 
ATOM      4  C   UNL     1       6.266  24.396  25.794  1.00  0.00     0.214 C 
ATOM      5  C   UNL     1       5.034  23.444  25.811  1.00  0.00     0.339 C 
ATOM      6  O   UNL     1       3.867  24.200  25.510  1.00  0.00    -0.332 OA
ENDROOT
BRANCH   1   7
ATOM      7  C   UNL     1       2.566  25.211  23.741  1.00  0.00     0.198 C 
BRANCH   7   8
ATOM      8  O   UNL     1       1.944  24.317  22.826  1.00  0.00    -0.347 OA
BRANCH   8   9
ATOM      9  C   UNL     1       2.843  23.395  22.249  1.00  0.00     0.281 C 
ATOM     10  C   UNL     1       0.599  24.209  19.979  1.00  0.00     0.041 C 
ATOM     11  C   UNL     1       1.528  23.004  20.198  1.00  0.00     0.150 C 
ATOM     12  C   UNL     1       0.888  21.722  20.864  1.00  0.00     0.174 C 
ATOM     13  O   UNL     1       2.741  23.472  20.775  1.00  0.00    -0.344 OA
ATOM     14  C   UNL     1       0.925  21.823  22.401  1.00  0.00     0.179 C 
ATOM     15  C   UNL     1       2.326  22.096  22.900  1.00  0.00     0.202 C 
BRANCH  12  16
ATOM     16  O   UNL     1      -0.405  21.557  20.378  1.00  0.00    -0.388 OA
ATOM     17  H   UNL     1      -0.513  20.594  20.075  1.00  0.00     0.211 HD
ENDBRANCH  12  16
BRANCH  14  18
ATOM     18  O   UNL     1       0.471  20.584  22.912  1.00  0.00    -0.387 OA
ATOM     19  H   UNL     1       0.402  20.702  23.894  1.00  0.00     0.211 HD
ENDBRANCH  14  18
BRANCH  15  20
ATOM     20  O   UNL     1       2.237  22.274  24.313  1.00  0.00    -0.385 OA
ATOM     21  H   UNL     1       1.478  22.891  24.459  1.00  0.00     0.211 HD
ENDBRANCH  15  20
ENDBRANCH   8   9
ENDBRANCH   7   8
ENDBRANCH   1   7
BRANCH   2  22
ATOM     22  O   UNL     1       5.713  25.807  22.926  1.00  0.00    -0.387 OA
ATOM     23  H   UNL     1       5.936  24.855  22.767  1.00  0.00     0.211 HD
ENDBRANCH   2  22
BRANCH   3  24
ATOM     24  O   UNL     1       7.125  26.675  25.158  1.00  0.00    -0.387 OA
ATOM     25  H   UNL     1       7.734  26.495  25.945  1.00  0.00     0.211 HD
ENDBRANCH   3  24
BRANCH   5  26
ATOM     26  O   UNL     1       4.872  22.595  26.906  1.00  0.00    -0.454 OA
BRANCH  26  27
ATOM     27  C   UNL     1       4.411  21.239  26.925  1.00  0.00     0.214 A 
ATOM     28  C   UNL     1       3.059  20.947  27.001  1.00  0.00     0.180 A 
ATOM     29  C   UNL     1       5.295  20.185  26.673  1.00  0.00     0.239 A 
ATOM     30  O   UNL     1       2.739  19.649  26.899  1.00  0.00    -0.452 OA
ATOM     31  C   UNL     1       4.923  18.868  26.733  1.00  0.00     0.111 A 
ATOM     32  O   UNL     1       6.463  20.422  26.147  1.00  0.00    -0.285 OA
ATOM     33  C   UNL     1       3.578  18.634  26.720  1.00  0.00     0.146 A 
ATOM     34  C   UNL     1       5.856  17.865  26.438  1.00  0.00     0.134 A 
ATOM     35  C   UNL     1       3.105  17.298  26.503  1.00  0.00     0.094 A 
ATOM     36  C   UNL     1       5.388  16.683  25.824  1.00  0.00     0.093 A 
ATOM     37  C   UNL     1       4.020  16.437  25.795  1.00  0.00     0.123 A 
BRANCH  28  38
ATOM     38  C   UNL     1       1.940  21.790  27.114  1.00  0.00     0.025 A 
ATOM     39  C   UNL     1       2.117  23.167  27.086  1.00  0.00     0.062 A 
ATOM     40  C   UNL     1       0.573  21.262  26.844  1.00  0.00     0.016 A 
ATOM     41  C   UNL     1       1.013  23.923  26.947  1.00  0.00     0.158 A 
ATOM     42  C   UNL     1      -0.569  22.053  26.949  1.00  0.00     0.051 A 
ATOM     43  C   UNL     1      -0.348  23.438  26.897  1.00  0.00     0.157 A 
BRANCH  41  44
ATOM     44  O   UNL     1       1.235  25.130  26.334  1.00  0.00    -0.504 OA
ATOM     45  H   UNL     1       2.308  25.171  26.302  1.00  0.00     0.293 HD
ENDBRANCH  41  44
BRANCH  43  46
ATOM     46  O   UNL     1      -1.341  24.219  26.377  1.00  0.00    -0.504 OA
ATOM     47  H   UNL     1      -2.191  23.804  26.057  1.00  0.00     0.293 HD
ENDBRANCH  43  46
ENDBRANCH  28  38
BRANCH  34  48
ATOM     48  O   UNL     1       7.086  18.035  26.924  1.00  0.00    -0.507 OA
ATOM     49  H   UNL     1       7.133  18.623  27.795  1.00  0.00     0.293 HD
ENDBRANCH  34  48
BRANCH  37  50
ATOM     50  O   UNL     1       3.562  15.222  25.325  1.00  0.00    -0.508 OA
ATOM     51  H   UNL     1       2.634  15.174  25.052  1.00  0.00     0.293 HD
ENDBRANCH  37  50
ENDBRANCH  26  27
ENDBRANCH   5  26
BRANCH   4  52
ATOM     52  O   UNL     1       6.977  24.348  27.040  1.00  0.00    -0.384 OA
ATOM     53  H   UNL     1       7.916  24.199  26.797  1.00  0.00     0.211 HD
ENDBRANCH   4  52
TORSDOF 16
ENDMDL
MODEL 3
REMARK VINA RESULT:    14.622      3.008      5.873
REMARK INTER + INTRA:          22.843
REMARK INTER:                  21.814
REMARK INTRA:                   1.029
REMARK UNBOUND:                -1.181
REMARK SMILES C[C@H]1O[C@@H](OC[C@@H]2O[C@H](Oc3c(-c4ccc(O)c(O)c4)oc4cc(O)cc(O)c4c3=O)[C@H](O)[C@@H](O)[C@H]2O)[C@@H](O)[C@H](O)[C@H]1O
REMARK SMILES IDX 7 1 36 2 34 3 32 4 9 5 8 6 6 7 5 8 4 9 1 10 2 11 42 12 3 13
REMARK SMILES IDX 40 14 38 15 43 16 41 18 39 20 37 22 35 24 10 26 11 27 12 28
REMARK SMILES IDX 30 29 21 30 29 31 31 32 22 33 27 34 23 35 26 36 24 37 13 38
REMARK SMILES IDX 20 39 14 40 18 41 15 42 16 43 19 44 17 46 28 48 25 50 33 52
REMARK H PARENT 43 17 41 19 39 21 37 23 35 25 19 45 17 47 28 49 25 51 33 53
REMARK Flexibility Score: inf
ROOT
ATOM      1  C   UNL     1       4.179  25.071  25.967  1.00  0.00     0.180 C 
ATOM      2  C   UNL     1       5.326  24.109  26.430  1.00  0.00     0.177 C 
ATOM      3  C   UNL     1       5.860  23.224  25.287  1.00  0.00     0.180 C 
ATOM      4  C   UNL     1       5.933  24.132  23.984  1.00  0.00     0.214 C 
ATOM      5  C   UNL     1       4.665  24.992  23.706  1.00  0.00     0.339 C 
ATOM      6  O   UNL     1       3.692  24.710  24.705  1.00  0.00    -0.332 OA
ENDROOT
BRANCH   1   7
ATOM      7  C   UNL     1       3.009  25.149  26.981  1.00  0.00     0.198 C 
BRANCH   7   8
ATOM      8  O   UNL     1       2.148  24.017  26.954  1.00  0.00    -0.347 OA
BRANCH   8   9
ATOM      9  C   UNL     1       1.659  23.719  25.664  1.00  0.00     0.281 C 
ATOM     10  C   UNL     1      -0.126  26.197  26.902  1.00  0.00     0.041 C 
ATOM     11  C   UNL     1      -0.365  25.122  25.828  1.00  0.00     0.150 C 
ATOM     12  C   UNL     1      -1.198  23.852  26.265  1.00  0.00     0.174 C 
ATOM     13  O   UNL     1       0.868  24.867  25.167  1.00  0.00    -0.344 OA
ATOM     14  C   UNL     1      -0.285  22.785  26.898  1.00  0.00     0.179 C 
ATOM     15  C   UNL     1       0.867  22.434  25.984  1.00  0.00     0.202 C 
BRANCH  12  16
ATOM     16  O   UNL     1      -2.216  24.252  27.124  1.00  0.00    -0.388 OA
ATOM     17  H   UNL     1      -1.906  25.078  27.626  1.00  0.00     0.211 HD
ENDBRANCH  12  16
BRANCH  14  18
ATOM     18  O   UNL     1      -1.080  21.636  27.123  1.00  0.00    -0.387 OA
ATOM     19  H   UNL     1      -0.604  20.884  26.685  1.00  0.00     0.211 HD
ENDBRANCH  14  18
BRANCH  15  20
ATOM     20  O   UNL     1       1.703  21.525  26.698  1.00  0.00    -0.385 OA
ATOM     21  H   UNL     1       1.097  20.992  27.268  1.00  0.00     0.211 HD
ENDBRANCH  15  20
ENDBRANCH   8   9
ENDBRANCH   7   8
ENDBRANCH   1   7
BRANCH   2  22
ATOM     22  O   UNL     1       6.298  24.858  27.124  1.00  0.00    -0.387 OA
ATOM     23  H   UNL     1       5.816  25.450  27.756  1.00  0.00     0.211 HD
ENDBRANCH   2  22
BRANCH   3  24
ATOM     24  O   UNL     1       7.123  22.656  25.641  1.00  0.00    -0.387 OA
ATOM     25  H   UNL     1       7.313  22.993  26.576  1.00  0.00     0.211 HD
ENDBRANCH   3  24
BRANCH   5  26
ATOM     26  O   UNL     1       4.142  24.995  22.413  1.00  0.00    -0.454 OA
BRANCH  26  27
ATOM     27  C   UNL     1       2.972  25.663  21.925  1.00  0.00     0.214 A 
ATOM     28  C   UNL     1       1.777  24.980  21.764  1.00  0.00     0.180 A 
ATOM     29  C   UNL     1       2.955  27.053  21.783  1.00  0.00     0.239 A 
ATOM     30  O   UNL     1       0.724  25.730  21.407  1.00  0.00    -0.452 OA
ATOM     31  C   UNL     1       1.886  27.738  21.269  1.00  0.00     0.111 A 
ATOM     32  O   UNL     1       3.877  27.780  22.348  1.00  0.00    -0.285 OA
ATOM     33  C   UNL     1       0.712  27.043  21.212  1.00  0.00     0.146 A 
ATOM     34  C   UNL     1       1.928  29.137  21.185  1.00  0.00     0.134 A 
ATOM     35  C   UNL     1      -0.506  27.753  20.951  1.00  0.00     0.094 A 
ATOM     36  C   UNL     1       0.720  29.849  21.351  1.00  0.00     0.093 A 
ATOM     37  C   UNL     1      -0.482  29.151  21.304  1.00  0.00     0.123 A 
BRANCH  28  38
ATOM     38  C   UNL     1       1.456  23.626  21.963  1.00  0.00     0.025 A 
ATOM     39  C   UNL     1       0.716  22.951  21.001  1.00  0.00     0.062 A 
ATOM     40  C   UNL     1       2.225  22.809  22.944  1.00  0.00     0.016 A 
ATOM     41  C   UNL     1       0.645  21.612  21.111  1.00  0.00     0.158 A 
ATOM     42  C   UNL     1       1.943  21.467  23.184  1.00  0.00     0.051 A 
ATOM     43  C   UNL     1       1.209  20.817  22.179  1.00  0.00     0.157 A 
BRANCH  41  44
ATOM     44  O   UNL     1       0.470  20.961  19.917  1.00  0.00    -0.504 OA
ATOM     45  H   UNL     1      -0.414  20.379  20.107  1.00  0.00     0.293 HD
ENDBRANCH  41  44
BRANCH  43  46
ATOM     46  O   UNL     1       1.420  19.478  22.007  1.00  0.00    -0.504 OA
ATOM     47  H   UNL     1       2.091  18.999  22.568  1.00  0.00     0.293 HD
ENDBRANCH  43  46
ENDBRANCH  28  38
BRANCH  34  48
ATOM     48  O   UNL     1       3.078  29.674  20.778  1.00  0.00    -0.507 OA
ATOM     49  H   UNL     1       3.567  30.260  21.504  1.00  0.00     0.293 HD
ENDBRANCH  34  48
BRANCH  37  50
ATOM     50  O   UNL     1      -1.671  29.854  21.322  1.00  0.00    -0.508 OA
ATOM     51  H   UNL     1      -2.471  29.363  21.561  1.00  0.00     0.293 HD
ENDBRANCH  37  50
ENDBRANCH  26  27
ENDBRANCH   5  26
BRANCH   4  52
ATOM     52  O   UNL     1       6.274  23.325  22.847  1.00  0.00    -0.384 OA
ATOM     53  H   UNL     1       6.881  23.879  22.309  1.00  0.00     0.211 HD
ENDBRANCH   4  52
TORSDOF 16
ENDMDL
