MODEL 1
REMARK VINA RESULT:    -2.289      0.000      0.000
REMARK INTER + INTRA:         -11.040
REMARK INTER:                  -5.769
REMARK INTRA:                  -5.270
REMARK UNBOUND:                -5.270
REMARK SMILES CCCCCCCCCCCCCCCCCCCCCCCCCCCC(=O)[O-]
REMARK SMILES IDX 15 1 16 2 17 3 18 4 19 5 20 6 21 7 22 8 23 9 24 10 25 11
REMARK SMILES IDX 26 12 27 13 28 14 29 15 30 16 14 17 13 18 12 19 11 20 10 21
REMARK SMILES IDX 9 22 8 23 7 24 6 25 5 26 4 27 3 28 2 29 1 30
REMARK H PARENT
REMARK Flexibility Score: inf
ROOT
ATOM      1  C   UNL     1      74.436  84.435  75.926  1.00  0.00     0.000 C 
ENDROOT
BRANCH   1   2
ATOM      2  C   UNL     1      73.606  85.294  76.897  1.00  0.00     0.000 C 
BRANCH   2   3
ATOM      3  C   UNL     1      73.098  84.478  78.098  1.00  0.00     0.000 C 
BRANCH   3   4
ATOM      4  C   UNL     1      72.222  85.295  79.069  1.00  0.00     0.000 C 
BRANCH   4   5
ATOM      5  C   UNL     1      72.948  86.467  79.763  1.00  0.00     0.000 C 
BRANCH   5   6
ATOM      6  C   UNL     1      74.103  86.084  80.704  1.00  0.00     0.000 C 
BRANCH   6   7
ATOM      7  C   UNL     1      75.479  86.535  80.188  1.00  0.00     0.000 C 
BRANCH   7   8
ATOM      8  C   UNL     1      75.376  87.853  79.406  1.00  0.00     0.000 C 
BRANCH   8   9
ATOM      9  C   UNL     1      76.212  87.835  78.113  1.00  0.00     0.000 C 
BRANCH   9  10
ATOM     10  C   UNL     1      77.013  86.532  77.949  1.00  0.00     0.000 C 
BRANCH  10  11
ATOM     11  C   UNL     1      77.639  86.395  76.551  1.00  0.00     0.000 C 
BRANCH  11  12
ATOM     12  C   UNL     1      77.882  87.758  75.882  1.00  0.00     0.006 C 
BRANCH  12  13
ATOM     13  C   UNL     1      78.374  87.615  74.433  1.00  0.00     0.053 C 
BRANCH  13  14
ATOM     14  C   UNL     1      79.274  88.741  74.025  1.00  0.00     0.041 C 
ATOM     15  O   UNL     1      79.055  89.380  72.960  1.00  0.00    -0.550 OA
ATOM     16  O   UNL     1      80.356  89.091  74.828  1.00  0.00    -0.550 OA
ENDBRANCH  13  14
ENDBRANCH  12  13
ENDBRANCH  11  12
ENDBRANCH  10  11
ENDBRANCH   9  10
ENDBRANCH   8   9
ENDBRANCH   7   8
ENDBRANCH   6   7
ENDBRANCH   5   6
ENDBRANCH   4   5
ENDBRANCH   3   4
ENDBRANCH   2   3
ENDBRANCH   1   2
BRANCH   1  17
ATOM     17  C   UNL     1      74.730  85.178  74.609  1.00  0.00     0.000 C 
BRANCH  17  18
ATOM     18  C   UNL     1      74.493  86.699  74.714  1.00  0.00     0.000 C 
BRANCH  18  19
ATOM     19  C   UNL     1      74.767  87.473  73.408  1.00  0.00     0.000 C 
BRANCH  19  20
ATOM     20  C   UNL     1      74.442  88.976  73.452  1.00  0.00     0.000 C 
BRANCH  20  21
ATOM     21  C   UNL     1      75.561  89.875  74.013  1.00  0.00     0.000 C 
BRANCH  21  22
ATOM     22  C   UNL     1      75.067  90.936  75.020  1.00  0.00    -0.000 C 
BRANCH  22  23
ATOM     23  C   UNL     1      75.986  91.064  76.244  1.00  0.00    -0.000 C 
BRANCH  23  24
ATOM     24  C   UNL     1      75.460  92.119  77.226  1.00  0.00    -0.000 C 
BRANCH  24  25
ATOM     25  C   UNL     1      75.091  91.478  78.574  1.00  0.00    -0.000 C 
BRANCH  25  26
ATOM     26  C   UNL     1      75.859  92.094  79.759  1.00  0.00    -0.000 C 
BRANCH  26  27
ATOM     27  C   UNL     1      76.810  91.126  80.494  1.00  0.00    -0.000 C 
BRANCH  27  28
ATOM     28  C   UNL     1      78.299  91.515  80.452  1.00  0.00    -0.000 C 
BRANCH  28  29
ATOM     29  C   UNL     1      78.832  91.682  79.022  1.00  0.00    -0.003 C 
ATOM     30  C   UNL     1      78.989  90.330  78.332  1.00  0.00     0.004 C 
ENDBRANCH  28  29
ENDBRANCH  27  28
ENDBRANCH  26  27
ENDBRANCH  25  26
ENDBRANCH  24  25
ENDBRANCH  23  24
ENDBRANCH  22  23
ENDBRANCH  21  22
ENDBRANCH  20  21
ENDBRANCH  19  20
ENDBRANCH  18  19
ENDBRANCH  17  18
ENDBRANCH   1  17
TORSDOF 26
ENDMDL
MODEL 2
REMARK VINA RESULT:    -2.053      7.750     12.305
REMARK INTER + INTRA:         -10.445
REMARK INTER:                  -4.603
REMARK INTRA:                  -5.841
REMARK UNBOUND:                -5.270
REMARK SMILES CCCCCCCCCCCCCCCCCCCCCCCCCCCC(=O)[O-]
REMARK SMILES IDX 15 1 16 2 17 3 18 4 19 5 20 6 21 7 22 8 23 9 24 10 25 11
REMARK SMILES IDX 26 12 27 13 28 14 29 15 30 16 14 17 13 18 12 19 11 20 10 21
REMARK SMILES IDX 9 22 8 23 7 24 6 25 5 26 4 27 3 28 2 29 1 30
REMARK H PARENT
REMARK Flexibility Score: inf
ROOT
ATOM      1  C   UNL     1      74.592  78.032  79.267  1.00  0.00     0.000 C 
ENDROOT
BRANCH   1   2
ATOM      2  C   UNL     1      73.375  78.973  79.320  1.00  0.00     0.000 C 
BRANCH   2   3
ATOM      3  C   UNL     1      72.555  78.927  78.019  1.00  0.00     0.000 C 
BRANCH   3   4
ATOM      4  C   UNL     1      73.010  77.820  77.046  1.00  0.00     0.000 C 
BRANCH   4   5
ATOM      5  C   UNL     1      72.002  77.487  75.927  1.00  0.00     0.000 C 
BRANCH   5   6
ATOM      6  C   UNL     1      72.530  77.600  74.487  1.00  0.00     0.000 C 
BRANCH   6   7
ATOM      7  C   UNL     1      72.285  78.981  73.858  1.00  0.00     0.000 C 
BRANCH   7   8
ATOM      8  C   UNL     1      73.595  79.772  73.724  1.00  0.00     0.000 C 
BRANCH   8   9
ATOM      9  C   UNL     1      73.769  80.815  74.843  1.00  0.00     0.000 C 
BRANCH   9  10
ATOM     10  C   UNL     1      75.243  81.010  75.241  1.00  0.00     0.000 C 
BRANCH  10  11
ATOM     11  C   UNL     1      75.503  80.683  76.720  1.00  0.00     0.000 C 
BRANCH  11  12
ATOM     12  C   UNL     1      75.936  81.920  77.525  1.00  0.00     0.006 C 
BRANCH  12  13
ATOM     13  C   UNL     1      74.951  82.250  78.657  1.00  0.00     0.053 C 
BRANCH  13  14
ATOM     14  C   UNL     1      73.681  82.858  78.145  1.00  0.00     0.041 C 
ATOM     15  O   UNL     1      72.563  82.440  78.552  1.00  0.00    -0.550 OA
ATOM     16  O   UNL     1      73.732  83.896  77.219  1.00  0.00    -0.550 OA
ENDBRANCH  13  14
ENDBRANCH  12  13
ENDBRANCH  11  12
ENDBRANCH  10  11
ENDBRANCH   9  10
ENDBRANCH   8   9
ENDBRANCH   7   8
ENDBRANCH   6   7
ENDBRANCH   5   6
ENDBRANCH   4   5
ENDBRANCH   3   4
ENDBRANCH   2   3
ENDBRANCH   1   2
BRANCH   1  17
ATOM     17  C   UNL     1      74.699  77.161  80.533  1.00  0.00     0.000 C 
BRANCH  17  18
ATOM     18  C   UNL     1      73.327  76.679  81.047  1.00  0.00     0.000 C 
BRANCH  18  19
ATOM     19  C   UNL     1      73.009  75.206  80.718  1.00  0.00     0.000 C 
BRANCH  19  20
ATOM     20  C   UNL     1      72.466  74.950  79.301  1.00  0.00     0.000 C 
BRANCH  20  21
ATOM     21  C   UNL     1      73.357  74.068  78.404  1.00  0.00     0.000 C 
BRANCH  21  22
ATOM     22  C   UNL     1      74.643  73.568  79.097  1.00  0.00    -0.000 C 
BRANCH  22  23
ATOM     23  C   UNL     1      75.911  74.234  78.544  1.00  0.00    -0.000 C 
BRANCH  23  24
ATOM     24  C   UNL     1      75.591  75.116  77.330  1.00  0.00    -0.000 C 
BRANCH  24  25
ATOM     25  C   UNL     1      76.793  76.000  76.961  1.00  0.00    -0.000 C 
BRANCH  25  26
ATOM     26  C   UNL     1      76.390  77.263  76.177  1.00  0.00    -0.000 C 
BRANCH  26  27
ATOM     27  C   UNL     1      76.903  77.320  74.723  1.00  0.00    -0.000 C 
BRANCH  27  28
ATOM     28  C   UNL     1      75.954  76.721  73.670  1.00  0.00    -0.000 C 
BRANCH  28  29
ATOM     29  C   UNL     1      76.586  75.560  72.888  1.00  0.00    -0.003 C 
ATOM     30  C   UNL     1      76.695  74.309  73.754  1.00  0.00     0.004 C 
ENDBRANCH  28  29
ENDBRANCH  27  28
ENDBRANCH  26  27
ENDBRANCH  25  26
ENDBRANCH  24  25
ENDBRANCH  23  24
ENDBRANCH  22  23
ENDBRANCH  21  22
ENDBRANCH  20  21
ENDBRANCH  19  20
ENDBRANCH  18  19
ENDBRANCH  17  18
ENDBRANCH   1  17
TORSDOF 26
ENDMDL
MODEL 3
REMARK VINA RESULT:    -2.049     12.015     15.449
REMARK INTER + INTRA:         -10.435
REMARK INTER:                  -5.434
REMARK INTRA:                  -5.000
REMARK UNBOUND:                -5.270
REMARK SMILES CCCCCCCCCCCCCCCCCCCCCCCCCCCC(=O)[O-]
REMARK SMILES IDX 15 1 16 2 17 3 18 4 19 5 20 6 21 7 22 8 23 9 24 10 25 11
REMARK SMILES IDX 26 12 27 13 28 14 29 15 30 16 14 17 13 18 12 19 11 20 10 21
REMARK SMILES IDX 9 22 8 23 7 24 6 25 5 26 4 27 3 28 2 29 1 30
REMARK H PARENT
REMARK Flexibility Score: inf
ROOT
ATOM      1  C   UNL     1      77.837  87.059  88.594  1.00  0.00     0.000 C 
ENDROOT
BRANCH   1   2
ATOM      2  C   UNL     1      78.365  88.296  89.343  1.00  0.00     0.000 C 
BRANCH   2   3
ATOM      3  C   UNL     1      77.224  89.135  89.945  1.00  0.00     0.000 C 
BRANCH   3   4
ATOM      4  C   UNL     1      77.567  89.739  91.321  1.00  0.00     0.000 C 
BRANCH   4   5
ATOM      5  C   UNL     1      76.526  89.463  92.426  1.00  0.00     0.000 C 
BRANCH   5   6
ATOM      6  C   UNL     1      75.564  90.618  92.751  1.00  0.00     0.000 C 
BRANCH   6   7
ATOM      7  C   UNL     1      74.090  90.185  92.795  1.00  0.00     0.000 C 
BRANCH   7   8
ATOM      8  C   UNL     1      73.904  88.778  92.204  1.00  0.00     0.000 C 
BRANCH   8   9
ATOM      9  C   UNL     1      73.031  87.877  93.095  1.00  0.00     0.000 C 
BRANCH   9  10
ATOM     10  C   UNL     1      72.252  86.827  92.285  1.00  0.00     0.000 C 
BRANCH  10  11
ATOM     11  C   UNL     1      73.176  85.867  91.518  1.00  0.00     0.000 C 
BRANCH  11  12
ATOM     12  C   UNL     1      72.752  85.694  90.050  1.00  0.00     0.006 C 
BRANCH  12  13
ATOM     13  C   UNL     1      72.609  87.040  89.324  1.00  0.00     0.053 C 
BRANCH  13  14
ATOM     14  C   UNL     1      72.117  86.878  87.917  1.00  0.00     0.041 C 
ATOM     15  O   UNL     1      71.876  85.730  87.454  1.00  0.00    -0.550 OA
ATOM     16  O   UNL     1      71.919  87.999  87.117  1.00  0.00    -0.550 OA
ENDBRANCH  13  14
ENDBRANCH  12  13
ENDBRANCH  11  12
ENDBRANCH  10  11
ENDBRANCH   9  10
ENDBRANCH   8   9
ENDBRANCH   7   8
ENDBRANCH   6   7
ENDBRANCH   5   6
ENDBRANCH   4   5
ENDBRANCH   3   4
ENDBRANCH   2   3
ENDBRANCH   1   2
BRANCH   1  17
ATOM     17  C   UNL     1      76.507  86.554  89.186  1.00  0.00     0.000 C 
BRANCH  17  18
ATOM     18  C   UNL     1      76.698  85.394  90.185  1.00  0.00     0.000 C 
BRANCH  18  19
ATOM     19  C   UNL     1      76.712  85.828  91.664  1.00  0.00     0.000 C 
BRANCH  19  20
ATOM     20  C   UNL     1      77.970  85.430  92.456  1.00  0.00     0.000 C 
BRANCH  20  21
ATOM     21  C   UNL     1      78.899  86.597  92.845  1.00  0.00     0.000 C 
BRANCH  21  22
ATOM     22  C   UNL     1      80.229  86.626  92.061  1.00  0.00    -0.000 C 
BRANCH  22  23
ATOM     23  C   UNL     1      80.285  85.568  90.950  1.00  0.00    -0.000 C 
BRANCH  23  24
ATOM     24  C   UNL     1      81.454  84.598  91.164  1.00  0.00    -0.000 C 
BRANCH  24  25
ATOM     25  C   UNL     1      81.156  83.230  90.530  1.00  0.00    -0.000 C 
BRANCH  25  26
ATOM     26  C   UNL     1      79.786  83.181  89.828  1.00  0.00    -0.000 C 
BRANCH  26  27
ATOM     27  C   UNL     1      79.008  81.861  90.008  1.00  0.00    -0.000 C 
BRANCH  27  28
ATOM     28  C   UNL     1      78.091  81.804  91.244  1.00  0.00    -0.000 C 
BRANCH  28  29
ATOM     29  C   UNL     1      76.693  81.256  90.924  1.00  0.00    -0.003 C 
ATOM     30  C   UNL     1      75.613  82.288  91.237  1.00  0.00     0.004 C 
ENDBRANCH  28  29
ENDBRANCH  27  28
ENDBRANCH  26  27
ENDBRANCH  25  26
ENDBRANCH  24  25
ENDBRANCH  23  24
ENDBRANCH  22  23
ENDBRANCH  21  22
ENDBRANCH  20  21
ENDBRANCH  19  20
ENDBRANCH  18  19
ENDBRANCH  17  18
ENDBRANCH   1  17
TORSDOF 26
ENDMDL
MODEL 4
REMARK VINA RESULT:    -2.031     11.529     14.101
REMARK INTER + INTRA:         -10.388
REMARK INTER:                  -4.908
REMARK INTRA:                  -5.480
REMARK UNBOUND:                -5.270
REMARK SMILES CCCCCCCCCCCCCCCCCCCCCCCCCCCC(=O)[O-]
REMARK SMILES IDX 15 1 16 2 17 3 18 4 19 5 20 6 21 7 22 8 23 9 24 10 25 11
REMARK SMILES IDX 26 12 27 13 28 14 29 15 30 16 14 17 13 18 12 19 11 20 10 21
REMARK SMILES IDX 9 22 8 23 7 24 6 25 5 26 4 27 3 28 2 29 1 30
REMARK H PARENT
REMARK Flexibility Score: inf
ROOT
ATOM      1  C   UNL     1      75.493  86.519  87.559  1.00  0.00     0.000 C 
ENDROOT
BRANCH   1   2
ATOM      2  C   UNL     1      75.140  85.033  87.751  1.00  0.00     0.000 C 
BRANCH   2   3
ATOM      3  C   UNL     1      76.026  84.364  88.817  1.00  0.00     0.000 C 
BRANCH   3   4
ATOM      4  C   UNL     1      75.225  83.770  89.994  1.00  0.00     0.000 C 
BRANCH   4   5
ATOM      5  C   UNL     1      75.278  84.597  91.295  1.00  0.00     0.000 C 
BRANCH   5   6
ATOM      6  C   UNL     1      76.291  85.754  91.319  1.00  0.00     0.000 C 
BRANCH   6   7
ATOM      7  C   UNL     1      77.299  85.653  92.475  1.00  0.00     0.000 C 
BRANCH   7   8
ATOM      8  C   UNL     1      78.724  85.411  91.953  1.00  0.00     0.000 C 
BRANCH   8   9
ATOM      9  C   UNL     1      78.811  84.181  91.031  1.00  0.00     0.000 C 
BRANCH   9  10
ATOM     10  C   UNL     1      79.782  84.394  89.857  1.00  0.00     0.000 C 
BRANCH  10  11
ATOM     11  C   UNL     1      81.239  84.564  90.318  1.00  0.00     0.000 C 
BRANCH  11  12
ATOM     12  C   UNL     1      81.846  85.900  89.858  1.00  0.00     0.006 C 
BRANCH  12  13
ATOM     13  C   UNL     1      82.605  86.613  90.988  1.00  0.00     0.053 C 
BRANCH  13  14
ATOM     14  C   UNL     1      82.035  87.967  91.289  1.00  0.00     0.041 C 
ATOM     15  O   UNL     1      81.253  88.128  92.265  1.00  0.00    -0.550 OA
ATOM     16  O   UNL     1      82.374  89.055  90.491  1.00  0.00    -0.550 OA
ENDBRANCH  13  14
ENDBRANCH  12  13
ENDBRANCH  11  12
ENDBRANCH  10  11
ENDBRANCH   9  10
ENDBRANCH   8   9
ENDBRANCH   7   8
ENDBRANCH   6   7
ENDBRANCH   5   6
ENDBRANCH   4   5
ENDBRANCH   3   4
ENDBRANCH   2   3
ENDBRANCH   1   2
BRANCH   1  17
ATOM     17  C   UNL     1      74.385  87.446  88.095  1.00  0.00     0.000 C 
BRANCH  17  18
ATOM     18  C   UNL     1      73.081  86.691  88.427  1.00  0.00     0.000 C 
BRANCH  18  19
ATOM     19  C   UNL     1      72.759  86.619  89.934  1.00  0.00     0.000 C 
BRANCH  19  20
ATOM     20  C   UNL     1      73.114  87.877  90.745  1.00  0.00     0.000 C 
BRANCH  20  21
ATOM     21  C   UNL     1      73.070  87.707  92.276  1.00  0.00     0.000 C 
BRANCH  21  22
ATOM     22  C   UNL     1      74.238  88.394  93.016  1.00  0.00    -0.000 C 
BRANCH  22  23
ATOM     23  C   UNL     1      74.137  89.927  92.986  1.00  0.00    -0.000 C 
BRANCH  23  24
ATOM     24  C   UNL     1      75.494  90.567  92.668  1.00  0.00    -0.000 C 
BRANCH  24  25
ATOM     25  C   UNL     1      76.538  89.494  92.316  1.00  0.00    -0.000 C 
BRANCH  25  26
ATOM     26  C   UNL     1      77.395  89.871  91.093  1.00  0.00    -0.000 C 
BRANCH  26  27
ATOM     27  C   UNL     1      77.340  88.867  89.923  1.00  0.00    -0.000 C 
BRANCH  27  28
ATOM     28  C   UNL     1      78.639  88.080  89.673  1.00  0.00    -0.000 C 
BRANCH  28  29
ATOM     29  C   UNL     1      78.886  87.794  88.184  1.00  0.00    -0.003 C 
ATOM     30  C   UNL     1      80.174  88.454  87.703  1.00  0.00     0.004 C 
ENDBRANCH  28  29
ENDBRANCH  27  28
ENDBRANCH  26  27
ENDBRANCH  25  26
ENDBRANCH  24  25
ENDBRANCH  23  24
ENDBRANCH  22  23
ENDBRANCH  21  22
ENDBRANCH  20  21
ENDBRANCH  19  20
ENDBRANCH  18  19
ENDBRANCH  17  18
ENDBRANCH   1  17
TORSDOF 26
ENDMDL
MODEL 5
REMARK VINA RESULT:    -2.030      6.284     10.272
REMARK INTER + INTRA:         -10.386
REMARK INTER:                  -5.244
REMARK INTRA:                  -5.142
REMARK UNBOUND:                -5.270
REMARK SMILES CCCCCCCCCCCCCCCCCCCCCCCCCCCC(=O)[O-]
REMARK SMILES IDX 15 1 16 2 17 3 18 4 19 5 20 6 21 7 22 8 23 9 24 10 25 11
REMARK SMILES IDX 26 12 27 13 28 14 29 15 30 16 14 17 13 18 12 19 11 20 10 21
REMARK SMILES IDX 9 22 8 23 7 24 6 25 5 26 4 27 3 28 2 29 1 30
REMARK H PARENT
REMARK Flexibility Score: inf
ROOT
ATOM      1  C   UNL     1      81.845  88.803  73.003  1.00  0.00     0.000 C 
ENDROOT
BRANCH   1   2
ATOM      2  C   UNL     1      82.159  90.197  73.575  1.00  0.00     0.000 C 
BRANCH   2   3
ATOM      3  C   UNL     1      83.472  90.768  73.011  1.00  0.00     0.000 C 
BRANCH   3   4
ATOM      4  C   UNL     1      84.415  91.325  74.097  1.00  0.00     0.000 C 
BRANCH   4   5
ATOM      5  C   UNL     1      83.828  91.329  75.523  1.00  0.00     0.000 C 
BRANCH   5   6
ATOM      6  C   UNL     1      84.640  90.574  76.589  1.00  0.00     0.000 C 
BRANCH   6   7
ATOM      7  C   UNL     1      84.352  91.052  78.021  1.00  0.00     0.000 C 
BRANCH   7   8
ATOM      8  C   UNL     1      83.146  90.315  78.624  1.00  0.00     0.000 C 
BRANCH   8   9
ATOM      9  C   UNL     1      82.974  88.899  78.045  1.00  0.00     0.000 C 
BRANCH   9  10
ATOM     10  C   UNL     1      81.499  88.542  77.793  1.00  0.00     0.000 C 
BRANCH  10  11
ATOM     11  C   UNL     1      80.809  89.524  76.834  1.00  0.00     0.000 C 
BRANCH  11  12
ATOM     12  C   UNL     1      79.329  89.175  76.602  1.00  0.00     0.006 C 
BRANCH  12  13
ATOM     13  C   UNL     1      79.050  88.761  75.149  1.00  0.00     0.053 C 
BRANCH  13  14
ATOM     14  C   UNL     1      77.654  89.096  74.721  1.00  0.00     0.041 C 
ATOM     15  O   UNL     1      76.973  88.266  74.058  1.00  0.00    -0.550 OA
ATOM     16  O   UNL     1      77.100  90.326  75.061  1.00  0.00    -0.550 OA
ENDBRANCH  13  14
ENDBRANCH  12  13
ENDBRANCH  11  12
ENDBRANCH  10  11
ENDBRANCH   9  10
ENDBRANCH   8   9
ENDBRANCH   7   8
ENDBRANCH   6   7
ENDBRANCH   5   6
ENDBRANCH   4   5
ENDBRANCH   3   4
ENDBRANCH   2   3
ENDBRANCH   1   2
BRANCH   1  17
ATOM     17  C   UNL     1      83.006  87.816  73.226  1.00  0.00     0.000 C 
BRANCH  17  18
ATOM     18  C   UNL     1      83.125  87.351  74.692  1.00  0.00     0.000 C 
BRANCH  18  19
ATOM     19  C   UNL     1      84.569  87.064  75.150  1.00  0.00     0.000 C 
BRANCH  19  20
ATOM     20  C   UNL     1      85.664  87.845  74.403  1.00  0.00     0.000 C 
BRANCH  20  21
ATOM     21  C   UNL     1      86.374  87.068  73.277  1.00  0.00     0.000 C 
BRANCH  21  22
ATOM     22  C   UNL     1      86.436  85.543  73.511  1.00  0.00    -0.000 C 
BRANCH  22  23
ATOM     23  C   UNL     1      87.732  84.915  72.978  1.00  0.00    -0.000 C 
BRANCH  23  24
ATOM     24  C   UNL     1      88.372  83.991  74.022  1.00  0.00    -0.000 C 
BRANCH  24  25
ATOM     25  C   UNL     1      88.083  84.490  75.447  1.00  0.00    -0.000 C 
BRANCH  25  26
ATOM     26  C   UNL     1      89.159  85.459  75.972  1.00  0.00    -0.000 C 
BRANCH  26  27
ATOM     27  C   UNL     1      88.629  86.823  76.459  1.00  0.00    -0.000 C 
BRANCH  27  28
ATOM     28  C   UNL     1      87.742  86.770  77.716  1.00  0.00    -0.000 C 
BRANCH  28  29
ATOM     29  C   UNL     1      86.935  88.059  77.931  1.00  0.00    -0.003 C 
ATOM     30  C   UNL     1      86.428  88.157  79.367  1.00  0.00     0.004 C 
ENDBRANCH  28  29
ENDBRANCH  27  28
ENDBRANCH  26  27
ENDBRANCH  25  26
ENDBRANCH  24  25
ENDBRANCH  23  24
ENDBRANCH  22  23
ENDBRANCH  21  22
ENDBRANCH  20  21
ENDBRANCH  19  20
ENDBRANCH  18  19
ENDBRANCH  17  18
ENDBRANCH   1  17
TORSDOF 26
ENDMDL
MODEL 6
REMARK VINA RESULT:    -2.013     14.581     17.559
REMARK INTER + INTRA:         -10.342
REMARK INTER:                  -4.839
REMARK INTRA:                  -5.503
REMARK UNBOUND:                -5.270
REMARK SMILES CCCCCCCCCCCCCCCCCCCCCCCCCCCC(=O)[O-]
REMARK SMILES IDX 15 1 16 2 17 3 18 4 19 5 20 6 21 7 22 8 23 9 24 10 25 11
REMARK SMILES IDX 26 12 27 13 28 14 29 15 30 16 14 17 13 18 12 19 11 20 10 21
REMARK SMILES IDX 9 22 8 23 7 24 6 25 5 26 4 27 3 28 2 29 1 30
REMARK H PARENT
REMARK Flexibility Score: inf
ROOT
ATOM      1  C   UNL     1      87.048  76.116  73.181  1.00  0.00     0.000 C 
ENDROOT
BRANCH   1   2
ATOM      2  C   UNL     1      87.016  77.647  73.021  1.00  0.00     0.000 C 
BRANCH   2   3
ATOM      3  C   UNL     1      88.178  78.328  73.765  1.00  0.00     0.000 C 
BRANCH   3   4
ATOM      4  C   UNL     1      87.716  79.241  74.918  1.00  0.00     0.000 C 
BRANCH   4   5
ATOM      5  C   UNL     1      88.120  78.758  76.327  1.00  0.00     0.000 C 
BRANCH   5   6
ATOM      6  C   UNL     1      86.964  78.496  77.307  1.00  0.00     0.000 C 
BRANCH   6   7
ATOM      7  C   UNL     1      85.601  78.351  76.612  1.00  0.00     0.000 C 
BRANCH   7   8
ATOM      8  C   UNL     1      85.079  76.909  76.701  1.00  0.00     0.000 C 
BRANCH   8   9
ATOM      9  C   UNL     1      84.297  76.488  75.444  1.00  0.00     0.000 C 
BRANCH   9  10
ATOM     10  C   UNL     1      84.183  74.960  75.307  1.00  0.00     0.000 C 
BRANCH  10  11
ATOM     11  C   UNL     1      82.851  74.520  74.677  1.00  0.00     0.000 C 
BRANCH  11  12
ATOM     12  C   UNL     1      82.172  73.391  75.470  1.00  0.00     0.006 C 
BRANCH  12  13
ATOM     13  C   UNL     1      81.398  73.920  76.687  1.00  0.00     0.053 C 
BRANCH  13  14
ATOM     14  C   UNL     1      82.142  73.707  77.970  1.00  0.00     0.041 C 
ATOM     15  O   UNL     1      82.572  72.562  78.276  1.00  0.00    -0.550 OA
ATOM     16  O   UNL     1      82.367  74.779  78.828  1.00  0.00    -0.550 OA
ENDBRANCH  13  14
ENDBRANCH  12  13
ENDBRANCH  11  12
ENDBRANCH  10  11
ENDBRANCH   9  10
ENDBRANCH   8   9
ENDBRANCH   7   8
ENDBRANCH   6   7
ENDBRANCH   5   6
ENDBRANCH   4   5
ENDBRANCH   3   4
ENDBRANCH   2   3
ENDBRANCH   1   2
BRANCH   1  17
ATOM     17  C   UNL     1      88.487  75.566  73.151  1.00  0.00     0.000 C 
BRANCH  17  18
ATOM     18  C   UNL     1      88.759  74.537  74.267  1.00  0.00     0.000 C 
BRANCH  18  19
ATOM     19  C   UNL     1      87.954  74.779  75.560  1.00  0.00     0.000 C 
BRANCH  19  20
ATOM     20  C   UNL     1      88.770  75.296  76.757  1.00  0.00     0.000 C 
BRANCH  20  21
ATOM     21  C   UNL     1      90.224  75.697  76.439  1.00  0.00     0.000 C 
BRANCH  21  22
ATOM     22  C   UNL     1      90.939  76.429  77.595  1.00  0.00    -0.000 C 
BRANCH  22  23
ATOM     23  C   UNL     1      91.495  75.464  78.652  1.00  0.00    -0.000 C 
BRANCH  23  24
ATOM     24  C   UNL     1      90.624  75.463  79.916  1.00  0.00    -0.000 C 
BRANCH  24  25
ATOM     25  C   UNL     1      90.153  76.886  80.258  1.00  0.00    -0.000 C 
BRANCH  25  26
ATOM     26  C   UNL     1      88.618  77.015  80.297  1.00  0.00    -0.000 C 
BRANCH  26  27
ATOM     27  C   UNL     1      87.851  75.677  80.341  1.00  0.00    -0.000 C 
BRANCH  27  28
ATOM     28  C   UNL     1      86.383  75.748  79.882  1.00  0.00    -0.000 C 
BRANCH  28  29
ATOM     29  C   UNL     1      85.706  74.371  79.833  1.00  0.00    -0.003 C 
ATOM     30  C   UNL     1      85.897  73.713  78.470  1.00  0.00     0.004 C 
ENDBRANCH  28  29
ENDBRANCH  27  28
ENDBRANCH  26  27
ENDBRANCH  25  26
ENDBRANCH  24  25
ENDBRANCH  23  24
ENDBRANCH  22  23
ENDBRANCH  21  22
ENDBRANCH  20  21
ENDBRANCH  19  20
ENDBRANCH  18  19
ENDBRANCH  17  18
ENDBRANCH   1  17
TORSDOF 26
ENDMDL
MODEL 7
REMARK VINA RESULT:    -2.009      4.025      7.853
REMARK INTER + INTRA:         -10.333
REMARK INTER:                  -5.441
REMARK INTRA:                  -4.892
REMARK UNBOUND:                -5.270
REMARK SMILES CCCCCCCCCCCCCCCCCCCCCCCCCCCC(=O)[O-]
REMARK SMILES IDX 15 1 16 2 17 3 18 4 19 5 20 6 21 7 22 8 23 9 24 10 25 11
REMARK SMILES IDX 26 12 27 13 28 14 29 15 30 16 14 17 13 18 12 19 11 20 10 21
REMARK SMILES IDX 9 22 8 23 7 24 6 25 5 26 4 27 3 28 2 29 1 30
REMARK H PARENT
REMARK Flexibility Score: inf
ROOT
ATOM      1  C   UNL     1      79.929  87.748  75.755  1.00  0.00     0.000 C 
ENDROOT
BRANCH   1   2
ATOM      2  C   UNL     1      80.557  87.790  74.350  1.00  0.00     0.000 C 
BRANCH   2   3
ATOM      3  C   UNL     1      80.799  89.233  73.871  1.00  0.00     0.000 C 
BRANCH   3   4
ATOM      4  C   UNL     1      82.257  89.502  73.446  1.00  0.00     0.000 C 
BRANCH   4   5
ATOM      5  C   UNL     1      82.645  90.993  73.375  1.00  0.00     0.000 C 
BRANCH   5   6
ATOM      6  C   UNL     1      83.485  91.528  74.548  1.00  0.00     0.000 C 
BRANCH   6   7
ATOM      7  C   UNL     1      82.653  91.808  75.810  1.00  0.00     0.000 C 
BRANCH   7   8
ATOM      8  C   UNL     1      83.251  91.106  77.039  1.00  0.00     0.000 C 
BRANCH   8   9
ATOM      9  C   UNL     1      84.709  90.667  76.814  1.00  0.00     0.000 C 
BRANCH   9  10
ATOM     10  C   UNL     1      84.932  89.179  77.140  1.00  0.00     0.000 C 
BRANCH  10  11
ATOM     11  C   UNL     1      83.747  88.297  76.714  1.00  0.00     0.000 C 
BRANCH  11  12
ATOM     12  C   UNL     1      84.135  87.279  75.629  1.00  0.00     0.006 C 
BRANCH  12  13
ATOM     13  C   UNL     1      84.918  86.088  76.203  1.00  0.00     0.053 C 
BRANCH  13  14
ATOM     14  C   UNL     1      86.257  85.921  75.551  1.00  0.00     0.041 C 
ATOM     15  O   UNL     1      86.473  84.950  74.775  1.00  0.00    -0.550 OA
ATOM     16  O   UNL     1      87.269  86.844  75.796  1.00  0.00    -0.550 OA
ENDBRANCH  13  14
ENDBRANCH  12  13
ENDBRANCH  11  12
ENDBRANCH  10  11
ENDBRANCH   9  10
ENDBRANCH   8   9
ENDBRANCH   7   8
ENDBRANCH   6   7
ENDBRANCH   5   6
ENDBRANCH   4   5
ENDBRANCH   3   4
ENDBRANCH   2   3
ENDBRANCH   1   2
BRANCH   1  17
ATOM     17  C   UNL     1      79.948  89.130  76.434  1.00  0.00     0.000 C 
BRANCH  17  18
ATOM     18  C   UNL     1      80.345  89.062  77.923  1.00  0.00     0.000 C 
BRANCH  18  19
ATOM     19  C   UNL     1      79.982  90.324  78.733  1.00  0.00     0.000 C 
BRANCH  19  20
ATOM     20  C   UNL     1      79.072  91.332  78.010  1.00  0.00     0.000 C 
BRANCH  20  21
ATOM     21  C   UNL     1      77.671  91.513  78.626  1.00  0.00     0.000 C 
BRANCH  21  22
ATOM     22  C   UNL     1      76.792  90.246  78.565  1.00  0.00    -0.000 C 
BRANCH  22  23
ATOM     23  C   UNL     1      76.123  90.054  77.196  1.00  0.00    -0.000 C 
BRANCH  23  24
ATOM     24  C   UNL     1      76.257  88.606  76.710  1.00  0.00    -0.000 C 
BRANCH  24  25
ATOM     25  C   UNL     1      75.686  88.447  75.292  1.00  0.00    -0.000 C 
BRANCH  25  26
ATOM     26  C   UNL     1      76.745  88.656  74.193  1.00  0.00    -0.000 C 
BRANCH  26  27
ATOM     27  C   UNL     1      76.405  89.745  73.156  1.00  0.00    -0.000 C 
BRANCH  27  28
ATOM     28  C   UNL     1      76.256  91.168  73.725  1.00  0.00    -0.000 C 
BRANCH  28  29
ATOM     29  C   UNL     1      75.040  91.914  73.157  1.00  0.00    -0.003 C 
ATOM     30  C   UNL     1      73.776  91.068  73.266  1.00  0.00     0.004 C 
ENDBRANCH  28  29
ENDBRANCH  27  28
ENDBRANCH  26  27
ENDBRANCH  25  26
ENDBRANCH  24  25
ENDBRANCH  23  24
ENDBRANCH  22  23
ENDBRANCH  21  22
ENDBRANCH  20  21
ENDBRANCH  19  20
ENDBRANCH  18  19
ENDBRANCH  17  18
ENDBRANCH   1  17
TORSDOF 26
ENDMDL
MODEL 8
REMARK VINA RESULT:    -1.999      2.896      5.793
REMARK INTER + INTRA:         -10.308
REMARK INTER:                  -5.260
REMARK INTRA:                  -5.048
REMARK UNBOUND:                -5.270
REMARK SMILES CCCCCCCCCCCCCCCCCCCCCCCCCCCC(=O)[O-]
REMARK SMILES IDX 15 1 16 2 17 3 18 4 19 5 20 6 21 7 22 8 23 9 24 10 25 11
REMARK SMILES IDX 26 12 27 13 28 14 29 15 30 16 14 17 13 18 12 19 11 20 10 21
REMARK SMILES IDX 9 22 8 23 7 24 6 25 5 26 4 27 3 28 2 29 1 30
REMARK H PARENT
REMARK Flexibility Score: inf
ROOT
ATOM      1  C   UNL     1      78.453  86.798  75.600  1.00  0.00     0.000 C 
ENDROOT
BRANCH   1   2
ATOM      2  C   UNL     1      79.167  87.461  74.408  1.00  0.00     0.000 C 
BRANCH   2   3
ATOM      3  C   UNL     1      79.915  88.740  74.824  1.00  0.00     0.000 C 
BRANCH   3   4
ATOM      4  C   UNL     1      80.650  88.608  76.174  1.00  0.00     0.000 C 
BRANCH   4   5
ATOM      5  C   UNL     1      80.906  89.944  76.904  1.00  0.00     0.000 C 
BRANCH   5   6
ATOM      6  C   UNL     1      81.039  89.862  78.434  1.00  0.00     0.000 C 
BRANCH   6   7
ATOM      7  C   UNL     1      81.059  91.240  79.114  1.00  0.00     0.000 C 
BRANCH   7   8
ATOM      8  C   UNL     1      82.291  92.054  78.690  1.00  0.00     0.000 C 
BRANCH   8   9
ATOM      9  C   UNL     1      83.595  91.241  78.786  1.00  0.00     0.000 C 
BRANCH   9  10
ATOM     10  C   UNL     1      84.423  91.302  77.491  1.00  0.00     0.000 C 
BRANCH  10  11
ATOM     11  C   UNL     1      84.813  89.908  76.973  1.00  0.00     0.000 C 
BRANCH  11  12
ATOM     12  C   UNL     1      84.469  89.719  75.485  1.00  0.00     0.006 C 
BRANCH  12  13
ATOM     13  C   UNL     1      83.899  90.999  74.854  1.00  0.00     0.053 C 
BRANCH  13  14
ATOM     14  C   UNL     1      83.128  90.718  73.600  1.00  0.00     0.041 C 
ATOM     15  O   UNL     1      82.970  89.533  73.199  1.00  0.00    -0.550 OA
ATOM     16  O   UNL     1      82.575  91.770  72.875  1.00  0.00    -0.550 OA
ENDBRANCH  13  14
ENDBRANCH  12  13
ENDBRANCH  11  12
ENDBRANCH  10  11
ENDBRANCH   9  10
ENDBRANCH   8   9
ENDBRANCH   7   8
ENDBRANCH   6   7
ENDBRANCH   5   6
ENDBRANCH   4   5
ENDBRANCH   3   4
ENDBRANCH   2   3
ENDBRANCH   1   2
BRANCH   1  17
ATOM     17  C   UNL     1      77.364  85.811  75.139  1.00  0.00     0.000 C 
BRANCH  17  18
ATOM     18  C   UNL     1      76.086  85.882  76.000  1.00  0.00     0.000 C 
BRANCH  18  19
ATOM     19  C   UNL     1      74.786  86.060  75.190  1.00  0.00     0.000 C 
BRANCH  19  20
ATOM     20  C   UNL     1      74.977  86.465  73.718  1.00  0.00     0.000 C 
BRANCH  20  21
ATOM     21  C   UNL     1      74.528  87.897  73.365  1.00  0.00     0.000 C 
BRANCH  21  22
ATOM     22  C   UNL     1      75.616  88.968  73.596  1.00  0.00    -0.000 C 
BRANCH  22  23
ATOM     23  C   UNL     1      75.546  89.589  74.999  1.00  0.00    -0.000 C 
BRANCH  23  24
ATOM     24  C   UNL     1      76.659  90.625  75.204  1.00  0.00    -0.000 C 
BRANCH  24  25
ATOM     25  C   UNL     1      77.242  90.530  76.623  1.00  0.00    -0.000 C 
BRANCH  25  26
ATOM     26  C   UNL     1      76.603  89.406  77.460  1.00  0.00    -0.000 C 
BRANCH  26  27
ATOM     27  C   UNL     1      77.523  88.785  78.531  1.00  0.00    -0.000 C 
BRANCH  27  28
ATOM     28  C   UNL     1      76.824  87.843  79.529  1.00  0.00    -0.000 C 
BRANCH  28  29
ATOM     29  C   UNL     1      75.366  87.547  79.148  1.00  0.00    -0.003 C 
ATOM     30  C   UNL     1      74.460  87.581  80.375  1.00  0.00     0.004 C 
ENDBRANCH  28  29
ENDBRANCH  27  28
ENDBRANCH  26  27
ENDBRANCH  25  26
ENDBRANCH  24  25
ENDBRANCH  23  24
ENDBRANCH  22  23
ENDBRANCH  21  22
ENDBRANCH  20  21
ENDBRANCH  19  20
ENDBRANCH  18  19
ENDBRANCH  17  18
ENDBRANCH   1  17
TORSDOF 26
ENDMDL
MODEL 9
REMARK VINA RESULT:    -1.942      4.286      7.382
REMARK INTER + INTRA:         -10.165
REMARK INTER:                  -4.640
REMARK INTRA:                  -5.524
REMARK UNBOUND:                -5.270
REMARK SMILES CCCCCCCCCCCCCCCCCCCCCCCCCCCC(=O)[O-]
REMARK SMILES IDX 15 1 16 2 17 3 18 4 19 5 20 6 21 7 22 8 23 9 24 10 25 11
REMARK SMILES IDX 26 12 27 13 28 14 29 15 30 16 14 17 13 18 12 19 11 20 10 21
REMARK SMILES IDX 9 22 8 23 7 24 6 25 5 26 4 27 3 28 2 29 1 30
REMARK H PARENT
REMARK Flexibility Score: inf
ROOT
ATOM      1  C   UNL     1      80.094  88.409  78.299  1.00  0.00     0.000 C 
ENDROOT
BRANCH   1   2
ATOM      2  C   UNL     1      80.450  89.904  78.387  1.00  0.00     0.000 C 
BRANCH   2   3
ATOM      3  C   UNL     1      79.267  90.748  78.895  1.00  0.00     0.000 C 
BRANCH   3   4
ATOM      4  C   UNL     1      78.504  91.474  77.768  1.00  0.00     0.000 C 
BRANCH   4   5
ATOM      5  C   UNL     1      77.219  90.762  77.295  1.00  0.00     0.000 C 
BRANCH   5   6
ATOM      6  C   UNL     1      77.280  90.118  75.900  1.00  0.00     0.000 C 
BRANCH   6   7
ATOM      7  C   UNL     1      76.797  88.658  75.885  1.00  0.00     0.000 C 
BRANCH   7   8
ATOM      8  C   UNL     1      75.925  88.347  77.110  1.00  0.00     0.000 C 
BRANCH   8   9
ATOM      9  C   UNL     1      76.616  87.387  78.095  1.00  0.00     0.000 C 
BRANCH   9  10
ATOM     10  C   UNL     1      76.065  87.517  79.526  1.00  0.00     0.000 C 
BRANCH  10  11
ATOM     11  C   UNL     1      76.843  88.541  80.369  1.00  0.00     0.000 C 
BRANCH  11  12
ATOM     12  C   UNL     1      75.913  89.482  81.153  1.00  0.00     0.006 C 
BRANCH  12  13
ATOM     13  C   UNL     1      74.965  90.263  80.229  1.00  0.00     0.053 C 
BRANCH  13  14
ATOM     14  C   UNL     1      73.581  90.371  80.795  1.00  0.00     0.041 C 
ATOM     15  O   UNL     1      73.208  89.597  81.719  1.00  0.00    -0.550 OA
ATOM     16  O   UNL     1      72.704  91.333  80.305  1.00  0.00    -0.550 OA
ENDBRANCH  13  14
ENDBRANCH  12  13
ENDBRANCH  11  12
ENDBRANCH  10  11
ENDBRANCH   9  10
ENDBRANCH   8   9
ENDBRANCH   7   8
ENDBRANCH   6   7
ENDBRANCH   5   6
ENDBRANCH   4   5
ENDBRANCH   3   4
ENDBRANCH   2   3
ENDBRANCH   1   2
BRANCH   1  17
ATOM     17  C   UNL     1      80.273  87.860  76.871  1.00  0.00     0.000 C 
BRANCH  17  18
ATOM     18  C   UNL     1      80.679  88.949  75.857  1.00  0.00     0.000 C 
BRANCH  18  19
ATOM     19  C   UNL     1      81.448  88.416  74.630  1.00  0.00     0.000 C 
BRANCH  19  20
ATOM     20  C   UNL     1      81.912  89.486  73.628  1.00  0.00     0.000 C 
BRANCH  20  21
ATOM     21  C   UNL     1      83.439  89.601  73.448  1.00  0.00     0.000 C 
BRANCH  21  22
ATOM     22  C   UNL     1      84.055  90.853  74.109  1.00  0.00    -0.000 C 
BRANCH  22  23
ATOM     23  C   UNL     1      82.998  91.764  74.751  1.00  0.00    -0.000 C 
BRANCH  23  24
ATOM     24  C   UNL     1      82.998  91.625  76.278  1.00  0.00    -0.000 C 
BRANCH  24  25
ATOM     25  C   UNL     1      84.322  91.021  76.774  1.00  0.00    -0.000 C 
BRANCH  25  26
ATOM     26  C   UNL     1      84.120  89.752  77.624  1.00  0.00    -0.000 C 
BRANCH  26  27
ATOM     27  C   UNL     1      84.411  88.425  76.893  1.00  0.00    -0.000 C 
BRANCH  27  28
ATOM     28  C   UNL     1      83.791  87.173  77.540  1.00  0.00    -0.000 C 
BRANCH  28  29
ATOM     29  C   UNL     1      83.515  87.351  79.040  1.00  0.00    -0.003 C 
ATOM     30  C   UNL     1      84.280  86.321  79.866  1.00  0.00     0.004 C 
ENDBRANCH  28  29
ENDBRANCH  27  28
ENDBRANCH  26  27
ENDBRANCH  25  26
ENDBRANCH  24  25
ENDBRANCH  23  24
ENDBRANCH  22  23
ENDBRANCH  21  22
ENDBRANCH  20  21
ENDBRANCH  19  20
ENDBRANCH  18  19
ENDBRANCH  17  18
ENDBRANCH   1  17
TORSDOF 26
ENDMDL
