MODEL 1
REMARK VINA RESULT:    -0.928      0.000      0.000
REMARK INTER + INTRA:          -3.929
REMARK INTER:                  -2.339
REMARK INTRA:                  -1.590
REMARK UNBOUND:                -1.590
REMARK SMILES CCCCCCCCCCCCCCCCCCCCCCCCCCCC(=O)[O-]
REMARK SMILES IDX 15 1 16 2 17 3 18 4 19 5 20 6 21 7 22 8 23 9 24 10 25 11
REMARK SMILES IDX 26 12 27 13 28 14 29 15 30 16 14 17 13 18 12 19 11 20 10 21
REMARK SMILES IDX 9 22 8 23 7 24 6 25 5 26 4 27 3 28 2 29 1 30
REMARK H PARENT
REMARK Flexibility Score: inf
ROOT
ATOM      1  C   UNL     1      14.735  41.403   6.460  1.00  0.00     0.000 C 
ENDROOT
BRANCH   1   2
ATOM      2  C   UNL     1      14.593  42.471   5.363  1.00  0.00     0.000 C 
BRANCH   2   3
ATOM      3  C   UNL     1      13.494  42.136   4.335  1.00  0.00     0.000 C 
BRANCH   3   4
ATOM      4  C   UNL     1      13.745  42.674   2.914  1.00  0.00     0.000 C 
BRANCH   4   5
ATOM      5  C   UNL     1      15.003  43.554   2.819  1.00  0.00     0.000 C 
BRANCH   5   6
ATOM      6  C   UNL     1      15.363  43.921   1.372  1.00  0.00     0.000 C 
BRANCH   6   7
ATOM      7  C   UNL     1      16.820  44.401   1.231  1.00  0.00     0.000 C 
BRANCH   7   8
ATOM      8  C   UNL     1      17.111  45.013  -0.148  1.00  0.00     0.000 C 
BRANCH   8   9
ATOM      9  C   UNL     1      16.566  46.445  -0.286  1.00  0.00     0.000 C 
BRANCH   9  10
ATOM     10  C   UNL     1      15.790  46.654  -1.598  1.00  0.00     0.000 C 
BRANCH  10  11
ATOM     11  C   UNL     1      14.513  47.488  -1.407  1.00  0.00     0.000 C 
BRANCH  11  12
ATOM     12  C   UNL     1      13.440  46.683  -0.666  1.00  0.00     0.006 C 
BRANCH  12  13
ATOM     13  C   UNL     1      13.604  45.181  -0.921  1.00  0.00     0.053 C 
BRANCH  13  14
ATOM     14  C   UNL     1      12.318  44.461  -0.661  1.00  0.00     0.041 C 
ATOM     15  O   UNL     1      12.072  43.999   0.484  1.00  0.00    -0.550 OA
ATOM     16  O   UNL     1      11.374  44.335  -1.674  1.00  0.00    -0.550 OA
ENDBRANCH  13  14
ENDBRANCH  12  13
ENDBRANCH  11  12
ENDBRANCH  10  11
ENDBRANCH   9  10
ENDBRANCH   8   9
ENDBRANCH   7   8
ENDBRANCH   6   7
ENDBRANCH   5   6
ENDBRANCH   4   5
ENDBRANCH   3   4
ENDBRANCH   2   3
ENDBRANCH   1   2
BRANCH   1  17
ATOM     17  C   UNL     1      15.990  41.597   7.326  1.00  0.00     0.000 C 
BRANCH  17  18
ATOM     18  C   UNL     1      15.689  41.844   8.819  1.00  0.00     0.000 C 
BRANCH  18  19
ATOM     19  C   UNL     1      16.970  42.069   9.640  1.00  0.00     0.000 C 
BRANCH  19  20
ATOM     20  C   UNL     1      16.723  42.844  10.947  1.00  0.00     0.000 C 
BRANCH  20  21
ATOM     21  C   UNL     1      17.125  42.107  12.239  1.00  0.00     0.000 C 
BRANCH  21  22
ATOM     22  C   UNL     1      15.972  41.288  12.846  1.00  0.00    -0.000 C 
BRANCH  22  23
ATOM     23  C   UNL     1      16.422  39.911  13.368  1.00  0.00    -0.000 C 
BRANCH  23  24
ATOM     24  C   UNL     1      15.309  39.038  13.975  1.00  0.00    -0.000 C 
BRANCH  24  25
ATOM     25  C   UNL     1      15.436  37.553  13.594  1.00  0.00    -0.000 C 
BRANCH  25  26
ATOM     26  C   UNL     1      16.090  37.345  12.215  1.00  0.00    -0.000 C 
BRANCH  26  27
ATOM     27  C   UNL     1      15.131  36.886  11.096  1.00  0.00    -0.000 C 
BRANCH  27  28
ATOM     28  C   UNL     1      14.082  37.931  10.659  1.00  0.00    -0.000 C 
BRANCH  28  29
ATOM     29  C   UNL     1      14.514  38.825   9.484  1.00  0.00    -0.003 C 
ATOM     30  C   UNL     1      14.027  38.306   8.132  1.00  0.00     0.004 C 
ENDBRANCH  28  29
ENDBRANCH  27  28
ENDBRANCH  26  27
ENDBRANCH  25  26
ENDBRANCH  24  25
ENDBRANCH  23  24
ENDBRANCH  22  23
ENDBRANCH  21  22
ENDBRANCH  20  21
ENDBRANCH  19  20
ENDBRANCH  18  19
ENDBRANCH  17  18
ENDBRANCH   1  17
TORSDOF 26
ENDMDL
MODEL 2
REMARK VINA RESULT:    -0.765      2.784      4.903
REMARK INTER + INTRA:          -3.519
REMARK INTER:                  -2.078
REMARK INTRA:                  -1.440
REMARK UNBOUND:                -1.590
REMARK SMILES CCCCCCCCCCCCCCCCCCCCCCCCCCCC(=O)[O-]
REMARK SMILES IDX 15 1 16 2 17 3 18 4 19 5 20 6 21 7 22 8 23 9 24 10 25 11
REMARK SMILES IDX 26 12 27 13 28 14 29 15 30 16 14 17 13 18 12 19 11 20 10 21
REMARK SMILES IDX 9 22 8 23 7 24 6 25 5 26 4 27 3 28 2 29 1 30
REMARK H PARENT
REMARK Flexibility Score: inf
ROOT
ATOM      1  C   UNL     1      17.125  41.358   8.566  1.00  0.00     0.000 C 
ENDROOT
BRANCH   1   2
ATOM      2  C   UNL     1      15.727  41.783   8.088  1.00  0.00     0.000 C 
BRANCH   2   3
ATOM      3  C   UNL     1      15.402  41.291   6.664  1.00  0.00     0.000 C 
BRANCH   3   4
ATOM      4  C   UNL     1      14.212  41.996   5.986  1.00  0.00     0.000 C 
BRANCH   4   5
ATOM      5  C   UNL     1      14.207  41.827   4.457  1.00  0.00     0.000 C 
BRANCH   5   6
ATOM      6  C   UNL     1      13.029  42.547   3.785  1.00  0.00     0.000 C 
BRANCH   6   7
ATOM      7  C   UNL     1      12.894  42.188   2.292  1.00  0.00     0.000 C 
BRANCH   7   8
ATOM      8  C   UNL     1      13.570  43.217   1.373  1.00  0.00     0.000 C 
BRANCH   8   9
ATOM      9  C   UNL     1      12.864  43.346   0.012  1.00  0.00     0.000 C 
BRANCH   9  10
ATOM     10  C   UNL     1      13.041  44.741  -0.612  1.00  0.00     0.000 C 
BRANCH  10  11
ATOM     11  C   UNL     1      13.939  45.661   0.232  1.00  0.00     0.000 C 
BRANCH  11  12
ATOM     12  C   UNL     1      14.282  46.943  -0.535  1.00  0.00     0.006 C 
BRANCH  12  13
ATOM     13  C   UNL     1      14.697  46.628  -1.976  1.00  0.00     0.053 C 
BRANCH  13  14
ATOM     14  C   UNL     1      15.982  47.316  -2.314  1.00  0.00     0.041 C 
ATOM     15  O   UNL     1      16.981  47.199  -1.557  1.00  0.00    -0.550 OA
ATOM     16  O   UNL     1      16.088  48.055  -3.487  1.00  0.00    -0.550 OA
ENDBRANCH  13  14
ENDBRANCH  12  13
ENDBRANCH  11  12
ENDBRANCH  10  11
ENDBRANCH   9  10
ENDBRANCH   8   9
ENDBRANCH   7   8
ENDBRANCH   6   7
ENDBRANCH   5   6
ENDBRANCH   4   5
ENDBRANCH   3   4
ENDBRANCH   2   3
ENDBRANCH   1   2
BRANCH   1  17
ATOM     17  C   UNL     1      17.091  40.154   9.522  1.00  0.00     0.000 C 
BRANCH  17  18
ATOM     18  C   UNL     1      15.812  39.299   9.407  1.00  0.00     0.000 C 
BRANCH  18  19
ATOM     19  C   UNL     1      15.333  38.784  10.775  1.00  0.00     0.000 C 
BRANCH  19  20
ATOM     20  C   UNL     1      16.474  38.220  11.642  1.00  0.00     0.000 C 
BRANCH  20  21
ATOM     21  C   UNL     1      16.231  38.263  13.163  1.00  0.00     0.000 C 
BRANCH  21  22
ATOM     22  C   UNL     1      15.801  39.653  13.664  1.00  0.00    -0.000 C 
BRANCH  22  23
ATOM     23  C   UNL     1      16.697  40.787  13.132  1.00  0.00    -0.000 C 
BRANCH  23  24
ATOM     24  C   UNL     1      15.986  41.838  12.259  1.00  0.00    -0.000 C 
BRANCH  24  25
ATOM     25  C   UNL     1      16.237  43.280  12.732  1.00  0.00    -0.000 C 
BRANCH  25  26
ATOM     26  C   UNL     1      15.621  43.572  14.112  1.00  0.00    -0.000 C 
BRANCH  26  27
ATOM     27  C   UNL     1      14.123  43.946  14.097  1.00  0.00    -0.000 C 
BRANCH  27  28
ATOM     28  C   UNL     1      13.823  45.459  14.123  1.00  0.00    -0.000 C 
BRANCH  28  29
ATOM     29  C   UNL     1      12.446  45.852  13.558  1.00  0.00    -0.003 C 
ATOM     30  C   UNL     1      12.220  47.363  13.542  1.00  0.00     0.004 C 
ENDBRANCH  28  29
ENDBRANCH  27  28
ENDBRANCH  26  27
ENDBRANCH  25  26
ENDBRANCH  24  25
ENDBRANCH  23  24
ENDBRANCH  22  23
ENDBRANCH  21  22
ENDBRANCH  20  21
ENDBRANCH  19  20
ENDBRANCH  18  19
ENDBRANCH  17  18
ENDBRANCH   1  17
TORSDOF 26
ENDMDL
MODEL 3
REMARK VINA RESULT:    -0.327      1.004      2.735
REMARK INTER + INTRA:          -2.413
REMARK INTER:                  -1.405
REMARK INTRA:                  -1.009
REMARK UNBOUND:                -1.590
REMARK SMILES CCCCCCCCCCCCCCCCCCCCCCCCCCCC(=O)[O-]
REMARK SMILES IDX 15 1 16 2 17 3 18 4 19 5 20 6 21 7 22 8 23 9 24 10 25 11
REMARK SMILES IDX 26 12 27 13 28 14 29 15 30 16 14 17 13 18 12 19 11 20 10 21
REMARK SMILES IDX 9 22 8 23 7 24 6 25 5 26 4 27 3 28 2 29 1 30
REMARK H PARENT
REMARK Flexibility Score: inf
ROOT
ATOM      1  C   UNL     1      12.930  42.099   3.858  1.00  0.00     0.000 C 
ENDROOT
BRANCH   1   2
ATOM      2  C   UNL     1      13.426  42.523   2.466  1.00  0.00     0.000 C 
BRANCH   2   3
ATOM      3  C   UNL     1      14.441  43.682   2.515  1.00  0.00     0.000 C 
BRANCH   3   4
ATOM      4  C   UNL     1      15.371  43.787   1.292  1.00  0.00     0.000 C 
BRANCH   4   5
ATOM      5  C   UNL     1      16.768  44.326   1.645  1.00  0.00     0.000 C 
BRANCH   5   6
ATOM      6  C   UNL     1      17.124  45.604   0.872  1.00  0.00     0.000 C 
BRANCH   6   7
ATOM      7  C   UNL     1      16.571  45.595  -0.566  1.00  0.00     0.000 C 
BRANCH   7   8
ATOM      8  C   UNL     1      17.119  46.750  -1.418  1.00  0.00     0.000 C 
BRANCH   8   9
ATOM      9  C   UNL     1      16.282  48.034  -1.280  1.00  0.00     0.000 C 
BRANCH   9  10
ATOM     10  C   UNL     1      14.921  47.928  -1.989  1.00  0.00     0.000 C 
BRANCH  10  11
ATOM     11  C   UNL     1      13.810  47.396  -1.070  1.00  0.00     0.000 C 
BRANCH  11  12
ATOM     12  C   UNL     1      13.770  45.864  -1.092  1.00  0.00     0.006 C 
BRANCH  12  13
ATOM     13  C   UNL     1      12.646  45.330  -0.199  1.00  0.00     0.053 C 
BRANCH  13  14
ATOM     14  C   UNL     1      11.793  44.358  -0.953  1.00  0.00     0.041 C 
ATOM     15  O   UNL     1      10.929  44.773  -1.768  1.00  0.00    -0.550 OA
ATOM     16  O   UNL     1      11.981  42.991  -0.783  1.00  0.00    -0.550 OA
ENDBRANCH  13  14
ENDBRANCH  12  13
ENDBRANCH  11  12
ENDBRANCH  10  11
ENDBRANCH   9  10
ENDBRANCH   8   9
ENDBRANCH   7   8
ENDBRANCH   6   7
ENDBRANCH   5   6
ENDBRANCH   4   5
ENDBRANCH   3   4
ENDBRANCH   2   3
ENDBRANCH   1   2
BRANCH   1  17
ATOM     17  C   UNL     1      13.909  42.476   4.983  1.00  0.00     0.000 C 
BRANCH  17  18
ATOM     18  C   UNL     1      14.205  41.325   5.967  1.00  0.00     0.000 C 
BRANCH  18  19
ATOM     19  C   UNL     1      15.426  41.620   6.855  1.00  0.00     0.000 C 
BRANCH  19  20
ATOM     20  C   UNL     1      15.939  40.380   7.609  1.00  0.00     0.000 C 
BRANCH  20  21
ATOM     21  C   UNL     1      16.752  40.672   8.885  1.00  0.00     0.000 C 
BRANCH  21  22
ATOM     22  C   UNL     1      16.836  42.173   9.214  1.00  0.00    -0.000 C 
BRANCH  22  23
ATOM     23  C   UNL     1      16.484  42.488  10.679  1.00  0.00    -0.000 C 
BRANCH  23  24
ATOM     24  C   UNL     1      17.122  41.559  11.728  1.00  0.00    -0.000 C 
BRANCH  24  25
ATOM     25  C   UNL     1      16.365  41.557  13.067  1.00  0.00    -0.000 C 
BRANCH  25  26
ATOM     26  C   UNL     1      15.358  40.398  13.181  1.00  0.00    -0.000 C 
BRANCH  26  27
ATOM     27  C   UNL     1      15.686  39.155  12.327  1.00  0.00    -0.000 C 
BRANCH  27  28
ATOM     28  C   UNL     1      14.604  38.055  12.324  1.00  0.00    -0.000 C 
BRANCH  28  29
ATOM     29  C   UNL     1      13.943  37.805  10.957  1.00  0.00    -0.003 C 
ATOM     30  C   UNL     1      14.810  38.265   9.785  1.00  0.00     0.004 C 
ENDBRANCH  28  29
ENDBRANCH  27  28
ENDBRANCH  26  27
ENDBRANCH  25  26
ENDBRANCH  24  25
ENDBRANCH  23  24
ENDBRANCH  22  23
ENDBRANCH  21  22
ENDBRANCH  20  21
ENDBRANCH  19  20
ENDBRANCH  18  19
ENDBRANCH  17  18
ENDBRANCH   1  17
TORSDOF 26
ENDMDL
MODEL 4
REMARK VINA RESULT:    -0.186      1.268      2.992
REMARK INTER + INTRA:          -2.059
REMARK INTER:                  -0.276
REMARK INTRA:                  -1.783
REMARK UNBOUND:                -1.590
REMARK SMILES CCCCCCCCCCCCCCCCCCCCCCCCCCCC(=O)[O-]
REMARK SMILES IDX 15 1 16 2 17 3 18 4 19 5 20 6 21 7 22 8 23 9 24 10 25 11
REMARK SMILES IDX 26 12 27 13 28 14 29 15 30 16 14 17 13 18 12 19 11 20 10 21
REMARK SMILES IDX 9 22 8 23 7 24 6 25 5 26 4 27 3 28 2 29 1 30
REMARK H PARENT
REMARK Flexibility Score: inf
ROOT
ATOM      1  C   UNL     1      13.948  41.850   5.121  1.00  0.00     0.000 C 
ENDROOT
BRANCH   1   2
ATOM      2  C   UNL     1      14.591  42.824   4.120  1.00  0.00     0.000 C 
BRANCH   2   3
ATOM      3  C   UNL     1      13.875  42.845   2.755  1.00  0.00     0.000 C 
BRANCH   3   4
ATOM      4  C   UNL     1      14.627  43.589   1.636  1.00  0.00     0.000 C 
BRANCH   4   5
ATOM      5  C   UNL     1      15.840  44.382   2.152  1.00  0.00     0.000 C 
BRANCH   5   6
ATOM      6  C   UNL     1      17.125  44.078   1.368  1.00  0.00     0.000 C 
BRANCH   6   7
ATOM      7  C   UNL     1      17.105  44.681  -0.050  1.00  0.00     0.000 C 
BRANCH   7   8
ATOM      8  C   UNL     1      16.959  46.211  -0.041  1.00  0.00     0.000 C 
BRANCH   8   9
ATOM      9  C   UNL     1      16.828  46.800  -1.456  1.00  0.00     0.000 C 
BRANCH   9  10
ATOM     10  C   UNL     1      15.398  46.682  -2.011  1.00  0.00     0.000 C 
BRANCH  10  11
ATOM     11  C   UNL     1      14.382  47.524  -1.223  1.00  0.00     0.000 C 
BRANCH  11  12
ATOM     12  C   UNL     1      13.146  46.691  -0.862  1.00  0.00     0.006 C 
BRANCH  12  13
ATOM     13  C   UNL     1      13.446  45.192  -0.953  1.00  0.00     0.053 C 
BRANCH  13  14
ATOM     14  C   UNL     1      12.177  44.400  -0.917  1.00  0.00     0.041 C 
ATOM     15  O   UNL     1      11.079  44.950  -1.191  1.00  0.00    -0.550 OA
ATOM     16  O   UNL     1      12.213  43.043  -0.617  1.00  0.00    -0.550 OA
ENDBRANCH  13  14
ENDBRANCH  12  13
ENDBRANCH  11  12
ENDBRANCH  10  11
ENDBRANCH   9  10
ENDBRANCH   8   9
ENDBRANCH   7   8
ENDBRANCH   6   7
ENDBRANCH   5   6
ENDBRANCH   4   5
ENDBRANCH   3   4
ENDBRANCH   2   3
ENDBRANCH   1   2
BRANCH   1  17
ATOM     17  C   UNL     1      14.814  41.614   6.369  1.00  0.00     0.000 C 
BRANCH  17  18
ATOM     18  C   UNL     1      14.629  40.221   7.006  1.00  0.00     0.000 C 
BRANCH  18  19
ATOM     19  C   UNL     1      15.838  39.303   6.754  1.00  0.00     0.000 C 
BRANCH  19  20
ATOM     20  C   UNL     1      16.992  39.537   7.747  1.00  0.00     0.000 C 
BRANCH  20  21
ATOM     21  C   UNL     1      16.832  38.852   9.118  1.00  0.00     0.000 C 
BRANCH  21  22
ATOM     22  C   UNL     1      15.621  39.371   9.912  1.00  0.00    -0.000 C 
BRANCH  22  23
ATOM     23  C   UNL     1      14.695  38.244  10.404  1.00  0.00    -0.000 C 
BRANCH  23  24
ATOM     24  C   UNL     1      15.342  37.227  11.363  1.00  0.00    -0.000 C 
BRANCH  24  25
ATOM     25  C   UNL     1      16.347  37.873  12.332  1.00  0.00    -0.000 C 
BRANCH  25  26
ATOM     26  C   UNL     1      15.678  38.426  13.604  1.00  0.00    -0.000 C 
BRANCH  26  27
ATOM     27  C   UNL     1      15.508  39.960  13.644  1.00  0.00    -0.000 C 
BRANCH  27  28
ATOM     28  C   UNL     1      16.799  40.771  13.407  1.00  0.00    -0.000 C 
BRANCH  28  29
ATOM     29  C   UNL     1      16.767  42.207  13.958  1.00  0.00    -0.003 C 
ATOM     30  C   UNL     1      15.601  43.028  13.409  1.00  0.00     0.004 C 
ENDBRANCH  28  29
ENDBRANCH  27  28
ENDBRANCH  26  27
ENDBRANCH  25  26
ENDBRANCH  24  25
ENDBRANCH  23  24
ENDBRANCH  22  23
ENDBRANCH  21  22
ENDBRANCH  20  21
ENDBRANCH  19  20
ENDBRANCH  18  19
ENDBRANCH  17  18
ENDBRANCH   1  17
TORSDOF 26
ENDMDL
MODEL 5
REMARK VINA RESULT:    -0.167      1.083      2.808
REMARK INTER + INTRA:          -2.010
REMARK INTER:                  -0.421
REMARK INTRA:                  -1.589
REMARK UNBOUND:                -1.590
REMARK SMILES CCCCCCCCCCCCCCCCCCCCCCCCCCCC(=O)[O-]
REMARK SMILES IDX 15 1 16 2 17 3 18 4 19 5 20 6 21 7 22 8 23 9 24 10 25 11
REMARK SMILES IDX 26 12 27 13 28 14 29 15 30 16 14 17 13 18 12 19 11 20 10 21
REMARK SMILES IDX 9 22 8 23 7 24 6 25 5 26 4 27 3 28 2 29 1 30
REMARK H PARENT
REMARK Flexibility Score: inf
ROOT
ATOM      1  C   UNL     1      14.845  41.788   6.429  1.00  0.00     0.000 C 
ENDROOT
BRANCH   1   2
ATOM      2  C   UNL     1      14.709  41.831   4.899  1.00  0.00     0.000 C 
BRANCH   2   3
ATOM      3  C   UNL     1      13.425  42.543   4.428  1.00  0.00     0.000 C 
BRANCH   3   4
ATOM      4  C   UNL     1      12.875  42.067   3.070  1.00  0.00     0.000 C 
BRANCH   4   5
ATOM      5  C   UNL     1      13.750  42.504   1.883  1.00  0.00     0.000 C 
BRANCH   5   6
ATOM      6  C   UNL     1      14.509  43.811   2.155  1.00  0.00     0.000 C 
BRANCH   6   7
ATOM      7  C   UNL     1      15.931  43.799   1.563  1.00  0.00     0.000 C 
BRANCH   7   8
ATOM      8  C   UNL     1      16.381  45.184   1.073  1.00  0.00     0.000 C 
BRANCH   8   9
ATOM      9  C   UNL     1      16.716  45.199  -0.429  1.00  0.00     0.000 C 
BRANCH   9  10
ATOM     10  C   UNL     1      16.196  46.464  -1.134  1.00  0.00     0.000 C 
BRANCH  10  11
ATOM     11  C   UNL     1      14.892  46.995  -0.518  1.00  0.00     0.000 C 
BRANCH  11  12
ATOM     12  C   UNL     1      13.672  46.325  -1.162  1.00  0.00     0.006 C 
BRANCH  12  13
ATOM     13  C   UNL     1      12.981  45.377  -0.177  1.00  0.00     0.053 C 
BRANCH  13  14
ATOM     14  C   UNL     1      12.062  44.445  -0.903  1.00  0.00     0.041 C 
ATOM     15  O   UNL     1      12.161  43.201  -0.735  1.00  0.00    -0.550 OA
ATOM     16  O   UNL     1      11.071  44.952  -1.735  1.00  0.00    -0.550 OA
ENDBRANCH  13  14
ENDBRANCH  12  13
ENDBRANCH  11  12
ENDBRANCH  10  11
ENDBRANCH   9  10
ENDBRANCH   8   9
ENDBRANCH   7   8
ENDBRANCH   6   7
ENDBRANCH   5   6
ENDBRANCH   4   5
ENDBRANCH   3   4
ENDBRANCH   2   3
ENDBRANCH   1   2
BRANCH   1  17
ATOM     17  C   UNL     1      16.200  41.229   6.895  1.00  0.00     0.000 C 
BRANCH  17  18
ATOM     18  C   UNL     1      16.425  41.321   8.419  1.00  0.00     0.000 C 
BRANCH  18  19
ATOM     19  C   UNL     1      15.392  40.499   9.209  1.00  0.00     0.000 C 
BRANCH  19  20
ATOM     20  C   UNL     1      16.033  39.550  10.238  1.00  0.00     0.000 C 
BRANCH  20  21
ATOM     21  C   UNL     1      15.402  38.147  10.325  1.00  0.00     0.000 C 
BRANCH  21  22
ATOM     22  C   UNL     1      15.993  37.293  11.460  1.00  0.00    -0.000 C 
BRANCH  22  23
ATOM     23  C   UNL     1      15.313  37.542  12.818  1.00  0.00    -0.000 C 
BRANCH  23  24
ATOM     24  C   UNL     1      14.031  38.393  12.770  1.00  0.00    -0.000 C 
BRANCH  24  25
ATOM     25  C   UNL     1      13.795  39.196  14.061  1.00  0.00    -0.000 C 
BRANCH  25  26
ATOM     26  C   UNL     1      14.631  40.487  14.122  1.00  0.00    -0.000 C 
BRANCH  26  27
ATOM     27  C   UNL     1      16.161  40.281  14.115  1.00  0.00    -0.000 C 
BRANCH  27  28
ATOM     28  C   UNL     1      16.997  41.571  13.976  1.00  0.00    -0.000 C 
BRANCH  28  29
ATOM     29  C   UNL     1      16.304  42.707  13.203  1.00  0.00    -0.003 C 
ATOM     30  C   UNL     1      16.828  42.862  11.776  1.00  0.00     0.004 C 
ENDBRANCH  28  29
ENDBRANCH  27  28
ENDBRANCH  26  27
ENDBRANCH  25  26
ENDBRANCH  24  25
ENDBRANCH  23  24
ENDBRANCH  22  23
ENDBRANCH  21  22
ENDBRANCH  20  21
ENDBRANCH  19  20
ENDBRANCH  18  19
ENDBRANCH  17  18
ENDBRANCH   1  17
TORSDOF 26
ENDMDL
MODEL 6
REMARK VINA RESULT:     0.028      1.847      2.862
REMARK INTER + INTRA:          -1.518
REMARK INTER:                   0.358
REMARK INTRA:                  -1.876
REMARK UNBOUND:                -1.590
REMARK SMILES CCCCCCCCCCCCCCCCCCCCCCCCCCCC(=O)[O-]
REMARK SMILES IDX 15 1 16 2 17 3 18 4 19 5 20 6 21 7 22 8 23 9 24 10 25 11
REMARK SMILES IDX 26 12 27 13 28 14 29 15 30 16 14 17 13 18 12 19 11 20 10 21
REMARK SMILES IDX 9 22 8 23 7 24 6 25 5 26 4 27 3 28 2 29 1 30
REMARK H PARENT
REMARK Flexibility Score: inf
ROOT
ATOM      1  C   UNL     1      15.948  42.564   7.600  1.00  0.00     0.000 C 
ENDROOT
BRANCH   1   2
ATOM      2  C   UNL     1      16.082  41.810   6.267  1.00  0.00     0.000 C 
BRANCH   2   3
ATOM      3  C   UNL     1      17.118  42.444   5.318  1.00  0.00     0.000 C 
BRANCH   3   4
ATOM      4  C   UNL     1      16.529  43.363   4.230  1.00  0.00     0.000 C 
BRANCH   4   5
ATOM      5  C   UNL     1      15.193  42.847   3.668  1.00  0.00     0.000 C 
BRANCH   5   6
ATOM      6  C   UNL     1      14.744  43.608   2.413  1.00  0.00     0.000 C 
BRANCH   6   7
ATOM      7  C   UNL     1      13.588  42.902   1.679  1.00  0.00     0.000 C 
BRANCH   7   8
ATOM      8  C   UNL     1      13.571  43.204   0.172  1.00  0.00     0.000 C 
BRANCH   8   9
ATOM      9  C   UNL     1      12.158  43.516  -0.351  1.00  0.00     0.000 C 
BRANCH   9  10
ATOM     10  C   UNL     1      11.858  45.025  -0.367  1.00  0.00     0.000 C 
BRANCH  10  11
ATOM     11  C   UNL     1      12.857  45.821  -1.221  1.00  0.00     0.000 C 
BRANCH  11  12
ATOM     12  C   UNL     1      14.018  46.337  -0.364  1.00  0.00     0.006 C 
BRANCH  12  13
ATOM     13  C   UNL     1      15.238  46.667  -1.229  1.00  0.00     0.053 C 
BRANCH  13  14
ATOM     14  C   UNL     1      16.476  46.727  -0.391  1.00  0.00     0.041 C 
ATOM     15  O   UNL     1      16.914  47.836   0.013  1.00  0.00    -0.550 OA
ATOM     16  O   UNL     1      17.125  45.554  -0.024  1.00  0.00    -0.550 OA
ENDBRANCH  13  14
ENDBRANCH  12  13
ENDBRANCH  11  12
ENDBRANCH  10  11
ENDBRANCH   9  10
ENDBRANCH   8   9
ENDBRANCH   7   8
ENDBRANCH   6   7
ENDBRANCH   5   6
ENDBRANCH   4   5
ENDBRANCH   3   4
ENDBRANCH   2   3
ENDBRANCH   1   2
BRANCH   1  17
ATOM     17  C   UNL     1      15.844  41.625   8.813  1.00  0.00     0.000 C 
BRANCH  17  18
ATOM     18  C   UNL     1      17.088  41.641   9.725  1.00  0.00     0.000 C 
BRANCH  18  19
ATOM     19  C   UNL     1      16.787  41.081  11.126  1.00  0.00     0.000 C 
BRANCH  19  20
ATOM     20  C   UNL     1      17.049  42.096  12.253  1.00  0.00     0.000 C 
BRANCH  20  21
ATOM     21  C   UNL     1      16.163  41.938  13.504  1.00  0.00     0.000 C 
BRANCH  21  22
ATOM     22  C   UNL     1      15.721  40.484  13.747  1.00  0.00    -0.000 C 
BRANCH  22  23
ATOM     23  C   UNL     1      16.890  39.555  14.123  1.00  0.00    -0.000 C 
BRANCH  23  24
ATOM     24  C   UNL     1      16.566  38.049  14.119  1.00  0.00    -0.000 C 
BRANCH  24  25
ATOM     25  C   UNL     1      15.289  37.713  13.330  1.00  0.00    -0.000 C 
BRANCH  25  26
ATOM     26  C   UNL     1      15.569  37.378  11.854  1.00  0.00    -0.000 C 
BRANCH  26  27
ATOM     27  C   UNL     1      14.537  37.929  10.847  1.00  0.00    -0.000 C 
BRANCH  27  28
ATOM     28  C   UNL     1      15.103  38.292   9.458  1.00  0.00    -0.000 C 
BRANCH  28  29
ATOM     29  C   UNL     1      14.071  38.870   8.474  1.00  0.00    -0.003 C 
ATOM     30  C   UNL     1      14.393  38.544   7.016  1.00  0.00     0.004 C 
ENDBRANCH  28  29
ENDBRANCH  27  28
ENDBRANCH  26  27
ENDBRANCH  25  26
ENDBRANCH  24  25
ENDBRANCH  23  24
ENDBRANCH  22  23
ENDBRANCH  21  22
ENDBRANCH  20  21
ENDBRANCH  19  20
ENDBRANCH  18  19
ENDBRANCH  17  18
ENDBRANCH   1  17
TORSDOF 26
ENDMDL
MODEL 7
REMARK VINA RESULT:     0.073      2.408      5.690
REMARK INTER + INTRA:          -1.405
REMARK INTER:                  -0.194
REMARK INTRA:                  -1.211
REMARK UNBOUND:                -1.590
REMARK SMILES CCCCCCCCCCCCCCCCCCCCCCCCCCCC(=O)[O-]
REMARK SMILES IDX 15 1 16 2 17 3 18 4 19 5 20 6 21 7 22 8 23 9 24 10 25 11
REMARK SMILES IDX 26 12 27 13 28 14 29 15 30 16 14 17 13 18 12 19 11 20 10 21
REMARK SMILES IDX 9 22 8 23 7 24 6 25 5 26 4 27 3 28 2 29 1 30
REMARK H PARENT
REMARK Flexibility Score: inf
ROOT
ATOM      1  C   UNL     1      14.260  39.083   8.457  1.00  0.00     0.000 C 
ENDROOT
BRANCH   1   2
ATOM      2  C   UNL     1      15.526  38.668   7.691  1.00  0.00     0.000 C 
BRANCH   2   3
ATOM      3  C   UNL     1      16.655  39.714   7.780  1.00  0.00     0.000 C 
BRANCH   3   4
ATOM      4  C   UNL     1      16.588  40.642   9.009  1.00  0.00     0.000 C 
BRANCH   4   5
ATOM      5  C   UNL     1      16.501  42.130   8.632  1.00  0.00     0.000 C 
BRANCH   5   6
ATOM      6  C   UNL     1      15.303  42.443   7.725  1.00  0.00     0.000 C 
BRANCH   6   7
ATOM      7  C   UNL     1      15.478  41.880   6.302  1.00  0.00     0.000 C 
BRANCH   7   8
ATOM      8  C   UNL     1      14.615  42.613   5.263  1.00  0.00     0.000 C 
BRANCH   8   9
ATOM      9  C   UNL     1      13.506  41.719   4.681  1.00  0.00     0.000 C 
BRANCH   9  10
ATOM     10  C   UNL     1      12.765  42.389   3.511  1.00  0.00     0.000 C 
BRANCH  10  11
ATOM     11  C   UNL     1      13.373  42.039   2.143  1.00  0.00     0.000 C 
BRANCH  11  12
ATOM     12  C   UNL     1      14.067  43.260   1.527  1.00  0.00     0.006 C 
BRANCH  12  13
ATOM     13  C   UNL     1      13.045  44.229   0.925  1.00  0.00     0.053 C 
BRANCH  13  14
ATOM     14  C   UNL     1      13.713  45.180  -0.017  1.00  0.00     0.041 C 
ATOM     15  O   UNL     1      14.913  44.999  -0.353  1.00  0.00    -0.550 OA
ATOM     16  O   UNL     1      12.999  46.244  -0.554  1.00  0.00    -0.550 OA
ENDBRANCH  13  14
ENDBRANCH  12  13
ENDBRANCH  11  12
ENDBRANCH  10  11
ENDBRANCH   9  10
ENDBRANCH   8   9
ENDBRANCH   7   8
ENDBRANCH   6   7
ENDBRANCH   5   6
ENDBRANCH   4   5
ENDBRANCH   3   4
ENDBRANCH   2   3
ENDBRANCH   1   2
BRANCH   1  17
ATOM     17  C   UNL     1      13.874  38.087   9.562  1.00  0.00     0.000 C 
BRANCH  17  18
ATOM     18  C   UNL     1      14.621  38.308  10.894  1.00  0.00     0.000 C 
BRANCH  18  19
ATOM     19  C   UNL     1      15.120  36.987  11.505  1.00  0.00     0.000 C 
BRANCH  19  20
ATOM     20  C   UNL     1      16.644  36.956  11.717  1.00  0.00     0.000 C 
BRANCH  20  21
ATOM     21  C   UNL     1      17.124  37.361  13.124  1.00  0.00     0.000 C 
BRANCH  21  22
ATOM     22  C   UNL     1      16.038  38.078  13.946  1.00  0.00    -0.000 C 
BRANCH  22  23
ATOM     23  C   UNL     1      16.282  39.593  14.073  1.00  0.00    -0.000 C 
BRANCH  23  24
ATOM     24  C   UNL     1      15.015  40.468  14.091  1.00  0.00    -0.000 C 
BRANCH  24  25
ATOM     25  C   UNL     1      15.267  41.898  13.583  1.00  0.00    -0.000 C 
BRANCH  25  26
ATOM     26  C   UNL     1      14.244  42.912  14.125  1.00  0.00    -0.000 C 
BRANCH  26  27
ATOM     27  C   UNL     1      13.910  44.082  13.174  1.00  0.00    -0.000 C 
BRANCH  27  28
ATOM     28  C   UNL     1      13.160  45.264  13.823  1.00  0.00    -0.000 C 
BRANCH  28  29
ATOM     29  C   UNL     1      12.882  46.446  12.878  1.00  0.00    -0.003 C 
ATOM     30  C   UNL     1      11.861  47.432  13.445  1.00  0.00     0.004 C 
ENDBRANCH  28  29
ENDBRANCH  27  28
ENDBRANCH  26  27
ENDBRANCH  25  26
ENDBRANCH  24  25
ENDBRANCH  23  24
ENDBRANCH  22  23
ENDBRANCH  21  22
ENDBRANCH  20  21
ENDBRANCH  19  20
ENDBRANCH  18  19
ENDBRANCH  17  18
ENDBRANCH   1  17
TORSDOF 26
ENDMDL
MODEL 8
REMARK VINA RESULT:     0.159      3.633     12.147
REMARK INTER + INTRA:          -1.189
REMARK INTER:                   0.059
REMARK INTRA:                  -1.248
REMARK UNBOUND:                -1.590
REMARK SMILES CCCCCCCCCCCCCCCCCCCCCCCCCCCC(=O)[O-]
REMARK SMILES IDX 15 1 16 2 17 3 18 4 19 5 20 6 21 7 22 8 23 9 24 10 25 11
REMARK SMILES IDX 26 12 27 13 28 14 29 15 30 16 14 17 13 18 12 19 11 20 10 21
REMARK SMILES IDX 9 22 8 23 7 24 6 25 5 26 4 27 3 28 2 29 1 30
REMARK H PARENT
REMARK Flexibility Score: inf
ROOT
ATOM      1  C   UNL     1      14.711  40.585   7.608  1.00  0.00     0.000 C 
ENDROOT
BRANCH   1   2
ATOM      2  C   UNL     1      15.461  39.826   8.714  1.00  0.00     0.000 C 
BRANCH   2   3
ATOM      3  C   UNL     1      15.861  40.728   9.898  1.00  0.00     0.000 C 
BRANCH   3   4
ATOM      4  C   UNL     1      17.122  41.583   9.671  1.00  0.00     0.000 C 
BRANCH   4   5
ATOM      5  C   UNL     1      16.812  43.083   9.527  1.00  0.00     0.000 C 
BRANCH   5   6
ATOM      6  C   UNL     1      17.069  43.868  10.821  1.00  0.00     0.000 C 
BRANCH   6   7
ATOM      7  C   UNL     1      16.132  43.437  11.966  1.00  0.00     0.000 C 
BRANCH   7   8
ATOM      8  C   UNL     1      16.897  43.022  13.232  1.00  0.00     0.000 C 
BRANCH   8   9
ATOM      9  C   UNL     1      16.087  42.064  14.124  1.00  0.00     0.000 C 
BRANCH   9  10
ATOM     10  C   UNL     1      15.810  40.715  13.437  1.00  0.00     0.000 C 
BRANCH  10  11
ATOM     11  C   UNL     1      16.592  39.554  14.071  1.00  0.00     0.000 C 
BRANCH  11  12
ATOM     12  C   UNL     1      15.830  38.233  13.915  1.00  0.00     0.006 C 
BRANCH  12  13
ATOM     13  C   UNL     1      15.710  37.838  12.440  1.00  0.00     0.053 C 
BRANCH  13  14
ATOM     14  C   UNL     1      14.309  38.035  11.955  1.00  0.00     0.041 C 
ATOM     15  O   UNL     1      13.371  38.201  12.779  1.00  0.00    -0.550 OA
ATOM     16  O   UNL     1      14.043  38.076  10.591  1.00  0.00    -0.550 OA
ENDBRANCH  13  14
ENDBRANCH  12  13
ENDBRANCH  11  12
ENDBRANCH  10  11
ENDBRANCH   9  10
ENDBRANCH   8   9
ENDBRANCH   7   8
ENDBRANCH   6   7
ENDBRANCH   5   6
ENDBRANCH   4   5
ENDBRANCH   3   4
ENDBRANCH   2   3
ENDBRANCH   1   2
BRANCH   1  17
ATOM     17  C   UNL     1      15.474  40.608   6.273  1.00  0.00     0.000 C 
BRANCH  17  18
ATOM     18  C   UNL     1      16.908  41.169   6.382  1.00  0.00     0.000 C 
BRANCH  18  19
ATOM     19  C   UNL     1      17.027  42.578   5.774  1.00  0.00     0.000 C 
BRANCH  19  20
ATOM     20  C   UNL     1      16.575  42.642   4.304  1.00  0.00     0.000 C 
BRANCH  20  21
ATOM     21  C   UNL     1      17.118  43.837   3.497  1.00  0.00     0.000 C 
BRANCH  21  22
ATOM     22  C   UNL     1      17.097  43.596   1.978  1.00  0.00    -0.000 C 
BRANCH  22  23
ATOM     23  C   UNL     1      16.288  44.659   1.212  1.00  0.00    -0.000 C 
BRANCH  23  24
ATOM     24  C   UNL     1      17.003  45.289   0.002  1.00  0.00    -0.000 C 
BRANCH  24  25
ATOM     25  C   UNL     1      16.612  46.760  -0.226  1.00  0.00    -0.000 C 
BRANCH  25  26
ATOM     26  C   UNL     1      15.858  46.978  -1.550  1.00  0.00    -0.000 C 
BRANCH  26  27
ATOM     27  C   UNL     1      14.318  46.941  -1.444  1.00  0.00    -0.000 C 
BRANCH  27  28
ATOM     28  C   UNL     1      13.743  45.750  -0.648  1.00  0.00    -0.000 C 
BRANCH  28  29
ATOM     29  C   UNL     1      12.424  45.183  -1.202  1.00  0.00    -0.003 C 
ATOM     30  C   UNL     1      12.103  43.790  -0.662  1.00  0.00     0.004 C 
ENDBRANCH  28  29
ENDBRANCH  27  28
ENDBRANCH  26  27
ENDBRANCH  25  26
ENDBRANCH  24  25
ENDBRANCH  23  24
ENDBRANCH  22  23
ENDBRANCH  21  22
ENDBRANCH  20  21
ENDBRANCH  19  20
ENDBRANCH  18  19
ENDBRANCH  17  18
ENDBRANCH   1  17
TORSDOF 26
ENDMDL
