MODEL 1
REMARK VINA RESULT:    -3.462      0.000      0.000
REMARK INTER + INTRA:          -8.362
REMARK INTER:                  -6.295
REMARK INTRA:                  -2.067
REMARK UNBOUND:                -2.067
REMARK SMILES CCCCCCCCCCCCCCCC(=O)[O-]
REMARK SMILES IDX 9 1 10 2 11 3 12 4 13 5 14 6 15 7 16 8 17 9 18 10 8 11 7 12
REMARK SMILES IDX 6 13 5 14 4 15 3 16 2 17 1 18
REMARK H PARENT
REMARK Flexibility Score: inf
ROOT
ATOM      1  C   UNL     1      10.250 -28.108  17.267  1.00  0.00     0.000 C 
ENDROOT
BRANCH   1   2
ATOM      2  C   UNL     1       9.239 -28.514  18.353  1.00  0.00     0.000 C 
BRANCH   2   3
ATOM      3  C   UNL     1       8.530 -29.839  18.032  1.00  0.00     0.000 C 
BRANCH   3   4
ATOM      4  C   UNL     1       7.010 -29.765  18.258  1.00  0.00     0.000 C 
BRANCH   4   5
ATOM      5  C   UNL     1       6.227 -29.587  16.948  1.00  0.00     0.000 C 
BRANCH   5   6
ATOM      6  C   UNL     1       6.781 -30.457  15.806  1.00  0.00     0.006 C 
BRANCH   6   7
ATOM      7  C   UNL     1       6.218 -31.884  15.841  1.00  0.00     0.053 C 
BRANCH   7   8
ATOM      8  C   UNL     1       7.292 -32.897  16.097  1.00  0.00     0.041 C 
ATOM      9  O   UNL     1       7.618 -33.189  17.277  1.00  0.00    -0.550 OA
ATOM     10  O   UNL     1       7.909 -33.541  15.032  1.00  0.00    -0.550 OA
ENDBRANCH   7   8
ENDBRANCH   6   7
ENDBRANCH   5   6
ENDBRANCH   4   5
ENDBRANCH   3   4
ENDBRANCH   2   3
ENDBRANCH   1   2
BRANCH   1  11
ATOM     11  C   UNL     1       9.952 -28.750  15.901  1.00  0.00     0.000 C 
BRANCH  11  12
ATOM     12  C   UNL     1      11.093 -28.651  14.872  1.00  0.00    -0.000 C 
BRANCH  12  13
ATOM     13  C   UNL     1      10.767 -29.359  13.546  1.00  0.00    -0.000 C 
BRANCH  13  14
ATOM     14  C   UNL     1      10.073 -30.715  13.760  1.00  0.00    -0.000 C 
BRANCH  14  15
ATOM     15  C   UNL     1       8.940 -30.960  12.746  1.00  0.00    -0.000 C 
BRANCH  15  16
ATOM     16  C   UNL     1       8.286 -29.656  12.255  1.00  0.00    -0.000 C 
BRANCH  16  17
ATOM     17  C   UNL     1       6.749 -29.683  12.197  1.00  0.00    -0.003 C 
ATOM     18  C   UNL     1       6.177 -31.099  12.127  1.00  0.00     0.004 C 
ENDBRANCH  16  17
ENDBRANCH  15  16
ENDBRANCH  14  15
ENDBRANCH  13  14
ENDBRANCH  12  13
ENDBRANCH  11  12
ENDBRANCH   1  11
TORSDOF 14
ENDMDL
MODEL 2
REMARK VINA RESULT:    -3.435      2.032      4.313
REMARK INTER + INTRA:          -8.314
REMARK INTER:                  -5.887
REMARK INTRA:                  -2.427
REMARK UNBOUND:                -2.067
REMARK SMILES CCCCCCCCCCCCCCCC(=O)[O-]
REMARK SMILES IDX 9 1 10 2 11 3 12 4 13 5 14 6 15 7 16 8 17 9 18 10 8 11 7 12
REMARK SMILES IDX 6 13 5 14 4 15 3 16 2 17 1 18
REMARK H PARENT
REMARK Flexibility Score: inf
ROOT
ATOM      1  C   UNL     1       9.923 -29.155  12.662  1.00  0.00     0.000 C 
ENDROOT
BRANCH   1   2
ATOM      2  C   UNL     1       8.745 -29.800  11.911  1.00  0.00     0.000 C 
BRANCH   2   3
ATOM      3  C   UNL     1       7.384 -29.419  12.513  1.00  0.00     0.000 C 
BRANCH   3   4
ATOM      4  C   UNL     1       6.879 -30.455  13.533  1.00  0.00     0.000 C 
BRANCH   4   5
ATOM      5  C   UNL     1       6.965 -29.948  14.981  1.00  0.00     0.000 C 
BRANCH   5   6
ATOM      6  C   UNL     1       8.218 -30.460  15.713  1.00  0.00     0.006 C 
BRANCH   6   7
ATOM      7  C   UNL     1       8.873 -29.369  16.570  1.00  0.00     0.053 C 
BRANCH   7   8
ATOM      8  C   UNL     1       8.522 -29.518  18.019  1.00  0.00     0.041 C 
ATOM      9  O   UNL     1       9.164 -28.881  18.895  1.00  0.00    -0.550 OA
ATOM     10  O   UNL     1       7.465 -30.334  18.398  1.00  0.00    -0.550 OA
ENDBRANCH   7   8
ENDBRANCH   6   7
ENDBRANCH   5   6
ENDBRANCH   4   5
ENDBRANCH   3   4
ENDBRANCH   2   3
ENDBRANCH   1   2
BRANCH   1  11
ATOM     11  C   UNL     1      10.867 -30.190  13.298  1.00  0.00     0.000 C 
BRANCH  11  12
ATOM     12  C   UNL     1      10.907 -31.556  12.588  1.00  0.00    -0.000 C 
BRANCH  12  13
ATOM     13  C   UNL     1      10.096 -32.637  13.323  1.00  0.00    -0.000 C 
BRANCH  13  14
ATOM     14  C   UNL     1       9.239 -33.482  12.365  1.00  0.00    -0.000 C 
BRANCH  14  15
ATOM     15  C   UNL     1       7.928 -33.958  13.015  1.00  0.00    -0.000 C 
BRANCH  15  16
ATOM     16  C   UNL     1       7.947 -33.842  14.550  1.00  0.00    -0.000 C 
BRANCH  16  17
ATOM     17  C   UNL     1       6.559 -33.764  15.212  1.00  0.00    -0.003 C 
ATOM     18  C   UNL     1       6.629 -33.663  16.736  1.00  0.00     0.004 C 
ENDBRANCH  16  17
ENDBRANCH  15  16
ENDBRANCH  14  15
ENDBRANCH  13  14
ENDBRANCH  12  13
ENDBRANCH  11  12
ENDBRANCH   1  11
TORSDOF 14
ENDMDL
MODEL 3
REMARK VINA RESULT:    -3.411      2.194      4.870
REMARK INTER + INTRA:          -8.270
REMARK INTER:                  -6.324
REMARK INTRA:                  -1.945
REMARK UNBOUND:                -2.067
REMARK SMILES CCCCCCCCCCCCCCCC(=O)[O-]
REMARK SMILES IDX 9 1 10 2 11 3 12 4 13 5 14 6 15 7 16 8 17 9 18 10 8 11 7 12
REMARK SMILES IDX 6 13 5 14 4 15 3 16 2 17 1 18
REMARK H PARENT
REMARK Flexibility Score: inf
ROOT
ATOM      1  C   UNL     1      10.083 -28.400  16.767  1.00  0.00     0.000 C 
ENDROOT
BRANCH   1   2
ATOM      2  C   UNL     1       9.580 -29.162  15.529  1.00  0.00     0.000 C 
BRANCH   2   3
ATOM      3  C   UNL     1      10.600 -29.154  14.378  1.00  0.00     0.000 C 
BRANCH   3   4
ATOM      4  C   UNL     1       9.928 -29.228  12.995  1.00  0.00     0.000 C 
BRANCH   4   5
ATOM      5  C   UNL     1      10.262 -30.527  12.247  1.00  0.00     0.000 C 
BRANCH   5   6
ATOM      6  C   UNL     1      11.441 -31.287  12.878  1.00  0.00     0.006 C 
BRANCH   6   7
ATOM      7  C   UNL     1      11.968 -32.402  11.965  1.00  0.00     0.053 C 
BRANCH   7   8
ATOM      8  C   UNL     1      12.055 -33.712  12.686  1.00  0.00     0.041 C 
ATOM      9  O   UNL     1      12.475 -34.737  12.087  1.00  0.00    -0.550 OA
ATOM     10  O   UNL     1      11.706 -33.793  14.027  1.00  0.00    -0.550 OA
ENDBRANCH   7   8
ENDBRANCH   6   7
ENDBRANCH   5   6
ENDBRANCH   4   5
ENDBRANCH   3   4
ENDBRANCH   2   3
ENDBRANCH   1   2
BRANCH   1  11
ATOM     11  C   UNL     1       9.325 -28.778  18.051  1.00  0.00     0.000 C 
BRANCH  11  12
ATOM     12  C   UNL     1       8.465 -30.051  17.948  1.00  0.00    -0.000 C 
BRANCH  12  13
ATOM     13  C   UNL     1       6.972 -29.788  18.209  1.00  0.00    -0.000 C 
BRANCH  13  14
ATOM     14  C   UNL     1       6.168 -29.627  16.908  1.00  0.00    -0.000 C 
BRANCH  14  15
ATOM     15  C   UNL     1       6.012 -30.955  16.146  1.00  0.00    -0.000 C 
BRANCH  15  16
ATOM     16  C   UNL     1       6.339 -30.825  14.648  1.00  0.00    -0.000 C 
BRANCH  16  17
ATOM     17  C   UNL     1       7.400 -31.812  14.127  1.00  0.00    -0.003 C 
ATOM     18  C   UNL     1       8.130 -32.552  15.247  1.00  0.00     0.004 C 
ENDBRANCH  16  17
ENDBRANCH  15  16
ENDBRANCH  14  15
ENDBRANCH  13  14
ENDBRANCH  12  13
ENDBRANCH  11  12
ENDBRANCH   1  11
TORSDOF 14
ENDMDL
MODEL 4
REMARK VINA RESULT:    -3.376      2.416      3.825
REMARK INTER + INTRA:          -8.206
REMARK INTER:                  -6.280
REMARK INTRA:                  -1.926
REMARK UNBOUND:                -2.067
REMARK SMILES CCCCCCCCCCCCCCCC(=O)[O-]
REMARK SMILES IDX 9 1 10 2 11 3 12 4 13 5 14 6 15 7 16 8 17 9 18 10 8 11 7 12
REMARK SMILES IDX 6 13 5 14 4 15 3 16 2 17 1 18
REMARK H PARENT
REMARK Flexibility Score: inf
ROOT
ATOM      1  C   UNL     1       8.711 -29.761  14.003  1.00  0.00     0.000 C 
ENDROOT
BRANCH   1   2
ATOM      2  C   UNL     1       7.390 -29.862  13.222  1.00  0.00     0.000 C 
BRANCH   2   3
ATOM      3  C   UNL     1       6.305 -30.628  13.995  1.00  0.00     0.000 C 
BRANCH   3   4
ATOM      4  C   UNL     1       6.786 -31.090  15.382  1.00  0.00     0.000 C 
BRANCH   4   5
ATOM      5  C   UNL     1       5.877 -30.595  16.517  1.00  0.00     0.000 C 
BRANCH   5   6
ATOM      6  C   UNL     1       6.563 -29.544  17.407  1.00  0.00     0.006 C 
BRANCH   6   7
ATOM      7  C   UNL     1       7.670 -30.156  18.275  1.00  0.00     0.053 C 
BRANCH   7   8
ATOM      8  C   UNL     1       8.864 -29.255  18.364  1.00  0.00     0.041 C 
ATOM      9  O   UNL     1       9.330 -28.929  19.488  1.00  0.00    -0.550 OA
ATOM     10  O   UNL     1       9.482 -28.802  17.206  1.00  0.00    -0.550 OA
ENDBRANCH   7   8
ENDBRANCH   6   7
ENDBRANCH   5   6
ENDBRANCH   4   5
ENDBRANCH   3   4
ENDBRANCH   2   3
ENDBRANCH   1   2
BRANCH   1  11
ATOM     11  C   UNL     1       9.878 -29.247  13.142  1.00  0.00     0.000 C 
BRANCH  11  12
ATOM     12  C   UNL     1      11.120 -30.157  13.119  1.00  0.00    -0.000 C 
BRANCH  12  13
ATOM     13  C   UNL     1      10.883 -31.473  12.359  1.00  0.00    -0.000 C 
BRANCH  13  14
ATOM     14  C   UNL     1      11.803 -32.606  12.844  1.00  0.00    -0.000 C 
BRANCH  14  15
ATOM     15  C   UNL     1      11.029 -33.719  13.574  1.00  0.00    -0.000 C 
BRANCH  15  16
ATOM     16  C   UNL     1       9.726 -33.214  14.220  1.00  0.00    -0.000 C 
BRANCH  16  17
ATOM     17  C   UNL     1       8.464 -34.010  13.841  1.00  0.00    -0.003 C 
ATOM     18  C   UNL     1       7.921 -33.648  12.459  1.00  0.00     0.004 C 
ENDBRANCH  16  17
ENDBRANCH  15  16
ENDBRANCH  14  15
ENDBRANCH  13  14
ENDBRANCH  12  13
ENDBRANCH  11  12
ENDBRANCH   1  11
TORSDOF 14
ENDMDL
MODEL 5
REMARK VINA RESULT:    -3.325      2.120      4.676
REMARK INTER + INTRA:          -8.113
REMARK INTER:                  -5.838
REMARK INTRA:                  -2.275
REMARK UNBOUND:                -2.067
REMARK SMILES CCCCCCCCCCCCCCCC(=O)[O-]
REMARK SMILES IDX 9 1 10 2 11 3 12 4 13 5 14 6 15 7 16 8 17 9 18 10 8 11 7 12
REMARK SMILES IDX 6 13 5 14 4 15 3 16 2 17 1 18
REMARK H PARENT
REMARK Flexibility Score: inf
ROOT
ATOM      1  C   UNL     1       6.821 -32.402  12.682  1.00  0.00     0.000 C 
ENDROOT
BRANCH   1   2
ATOM      2  C   UNL     1       6.006 -33.379  13.548  1.00  0.00     0.000 C 
BRANCH   2   3
ATOM      3  C   UNL     1       6.555 -33.494  14.979  1.00  0.00     0.000 C 
BRANCH   3   4
ATOM      4  C   UNL     1       8.058 -33.175  15.061  1.00  0.00     0.000 C 
BRANCH   4   5
ATOM      5  C   UNL     1       8.406 -32.283  16.263  1.00  0.00     0.000 C 
BRANCH   5   6
ATOM      6  C   UNL     1       7.632 -30.953  16.255  1.00  0.00     0.006 C 
BRANCH   6   7
ATOM      7  C   UNL     1       8.508 -29.772  16.693  1.00  0.00     0.053 C 
BRANCH   7   8
ATOM      8  C   UNL     1       8.273 -29.412  18.129  1.00  0.00     0.041 C 
ATOM      9  O   UNL     1       7.113 -29.470  18.615  1.00  0.00    -0.550 OA
ATOM     10  O   UNL     1       9.341 -29.045  18.938  1.00  0.00    -0.550 OA
ENDBRANCH   7   8
ENDBRANCH   6   7
ENDBRANCH   5   6
ENDBRANCH   4   5
ENDBRANCH   3   4
ENDBRANCH   2   3
ENDBRANCH   1   2
BRANCH   1  11
ATOM     11  C   UNL     1       6.179 -31.007  12.588  1.00  0.00     0.000 C 
BRANCH  11  12
ATOM     12  C   UNL     1       7.108 -29.837  12.963  1.00  0.00    -0.000 C 
BRANCH  12  13
ATOM     13  C   UNL     1       8.212 -29.592  11.919  1.00  0.00    -0.000 C 
BRANCH  13  14
ATOM     14  C   UNL     1       9.570 -29.269  12.565  1.00  0.00    -0.000 C 
BRANCH  14  15
ATOM     15  C   UNL     1      10.091 -30.422  13.442  1.00  0.00    -0.000 C 
BRANCH  15  16
ATOM     16  C   UNL     1      11.084 -31.334  12.700  1.00  0.00    -0.000 C 
BRANCH  16  17
ATOM     17  C   UNL     1      10.714 -32.828  12.696  1.00  0.00    -0.003 C 
ATOM     18  C   UNL     1      11.561 -33.657  13.662  1.00  0.00     0.004 C 
ENDBRANCH  16  17
ENDBRANCH  15  16
ENDBRANCH  14  15
ENDBRANCH  13  14
ENDBRANCH  12  13
ENDBRANCH  11  12
ENDBRANCH   1  11
TORSDOF 14
ENDMDL
MODEL 6
REMARK VINA RESULT:    -3.320      2.393      4.690
REMARK INTER + INTRA:          -8.105
REMARK INTER:                  -6.020
REMARK INTRA:                  -2.085
REMARK UNBOUND:                -2.067
REMARK SMILES CCCCCCCCCCCCCCCC(=O)[O-]
REMARK SMILES IDX 9 1 10 2 11 3 12 4 13 5 14 6 15 7 16 8 17 9 18 10 8 11 7 12
REMARK SMILES IDX 6 13 5 14 4 15 3 16 2 17 1 18
REMARK H PARENT
REMARK Flexibility Score: inf
ROOT
ATOM      1  C   UNL     1       6.013 -30.934  13.062  1.00  0.00     0.000 C 
ENDROOT
BRANCH   1   2
ATOM      2  C   UNL     1       7.153 -29.947  13.367  1.00  0.00     0.000 C 
BRANCH   2   3
ATOM      3  C   UNL     1       7.506 -29.899  14.862  1.00  0.00     0.000 C 
BRANCH   3   4
ATOM      4  C   UNL     1       6.290 -30.176  15.764  1.00  0.00     0.000 C 
BRANCH   4   5
ATOM      5  C   UNL     1       6.551 -31.299  16.778  1.00  0.00     0.000 C 
BRANCH   5   6
ATOM      6  C   UNL     1       7.809 -31.046  17.628  1.00  0.00     0.006 C 
BRANCH   6   7
ATOM      7  C   UNL     1       7.693 -29.766  18.466  1.00  0.00     0.053 C 
BRANCH   7   8
ATOM      8  C   UNL     1       9.021 -29.092  18.631  1.00  0.00     0.041 C 
ATOM      9  O   UNL     1       9.551 -29.006  19.771  1.00  0.00    -0.550 OA
ATOM     10  O   UNL     1       9.688 -28.587  17.522  1.00  0.00    -0.550 OA
ENDBRANCH   7   8
ENDBRANCH   6   7
ENDBRANCH   5   6
ENDBRANCH   4   5
ENDBRANCH   3   4
ENDBRANCH   2   3
ENDBRANCH   1   2
BRANCH   1  11
ATOM     11  C   UNL     1       6.522 -32.314  12.610  1.00  0.00     0.000 C 
BRANCH  11  12
ATOM     12  C   UNL     1       6.396 -33.431  13.663  1.00  0.00    -0.000 C 
BRANCH  12  13
ATOM     13  C   UNL     1       7.741 -33.792  14.317  1.00  0.00    -0.000 C 
BRANCH  13  14
ATOM     14  C   UNL     1       8.721 -34.441  13.326  1.00  0.00    -0.000 C 
BRANCH  14  15
ATOM     15  C   UNL     1      10.147 -33.879  13.457  1.00  0.00    -0.000 C 
BRANCH  15  16
ATOM     16  C   UNL     1      10.168 -32.381  13.810  1.00  0.00    -0.000 C 
BRANCH  16  17
ATOM     17  C   UNL     1      11.074 -31.516  12.916  1.00  0.00    -0.003 C 
ATOM     18  C   UNL     1      10.768 -30.022  13.021  1.00  0.00     0.004 C 
ENDBRANCH  16  17
ENDBRANCH  15  16
ENDBRANCH  14  15
ENDBRANCH  13  14
ENDBRANCH  12  13
ENDBRANCH  11  12
ENDBRANCH   1  11
TORSDOF 14
ENDMDL
MODEL 7
REMARK VINA RESULT:    -3.316      1.783      4.628
REMARK INTER + INTRA:          -8.098
REMARK INTER:                  -6.135
REMARK INTRA:                  -1.962
REMARK UNBOUND:                -2.067
REMARK SMILES CCCCCCCCCCCCCCCC(=O)[O-]
REMARK SMILES IDX 9 1 10 2 11 3 12 4 13 5 14 6 15 7 16 8 17 9 18 10 8 11 7 12
REMARK SMILES IDX 6 13 5 14 4 15 3 16 2 17 1 18
REMARK H PARENT
REMARK Flexibility Score: inf
ROOT
ATOM      1  C   UNL     1       9.467 -28.512  18.265  1.00  0.00     0.000 C 
ENDROOT
BRANCH   1   2
ATOM      2  C   UNL     1      10.377 -28.130  17.085  1.00  0.00     0.000 C 
BRANCH   2   3
ATOM      3  C   UNL     1       9.979 -28.839  15.781  1.00  0.00     0.000 C 
BRANCH   3   4
ATOM      4  C   UNL     1      11.087 -28.778  14.715  1.00  0.00     0.000 C 
BRANCH   4   5
ATOM      5  C   UNL     1      10.579 -29.148  13.313  1.00  0.00     0.000 C 
BRANCH   5   6
ATOM      6  C   UNL     1       9.714 -30.420  13.316  1.00  0.00     0.006 C 
BRANCH   6   7
ATOM      7  C   UNL     1       9.045 -30.669  11.957  1.00  0.00     0.053 C 
BRANCH   7   8
ATOM      8  C   UNL     1       7.569 -30.422  12.014  1.00  0.00     0.041 C 
ATOM      9  O   UNL     1       6.761 -31.380  11.892  1.00  0.00    -0.550 OA
ATOM     10  O   UNL     1       7.086 -29.138  12.234  1.00  0.00    -0.550 OA
ENDBRANCH   7   8
ENDBRANCH   6   7
ENDBRANCH   5   6
ENDBRANCH   4   5
ENDBRANCH   3   4
ENDBRANCH   2   3
ENDBRANCH   1   2
BRANCH   1  11
ATOM     11  C   UNL     1       8.448 -29.607  17.904  1.00  0.00     0.000 C 
BRANCH  11  12
ATOM     12  C   UNL     1       7.000 -29.320  18.346  1.00  0.00    -0.000 C 
BRANCH  12  13
ATOM     13  C   UNL     1       5.969 -29.617  17.244  1.00  0.00    -0.000 C 
BRANCH  13  14
ATOM     14  C   UNL     1       6.629 -30.003  15.910  1.00  0.00    -0.000 C 
BRANCH  14  15
ATOM     15  C   UNL     1       6.133 -31.362  15.382  1.00  0.00    -0.000 C 
BRANCH  15  16
ATOM     16  C   UNL     1       7.271 -32.383  15.202  1.00  0.00    -0.000 C 
BRANCH  16  17
ATOM     17  C   UNL     1       8.143 -32.609  16.450  1.00  0.00    -0.003 C 
ATOM     18  C   UNL     1       7.390 -33.295  17.589  1.00  0.00     0.004 C 
ENDBRANCH  16  17
ENDBRANCH  15  16
ENDBRANCH  14  15
ENDBRANCH  13  14
ENDBRANCH  12  13
ENDBRANCH  11  12
ENDBRANCH   1  11
TORSDOF 14
ENDMDL
MODEL 8
REMARK VINA RESULT:    -3.265      2.219      5.854
REMARK INTER + INTRA:          -8.004
REMARK INTER:                  -6.261
REMARK INTRA:                  -1.743
REMARK UNBOUND:                -2.067
REMARK SMILES CCCCCCCCCCCCCCCC(=O)[O-]
REMARK SMILES IDX 9 1 10 2 11 3 12 4 13 5 14 6 15 7 16 8 17 9 18 10 8 11 7 12
REMARK SMILES IDX 6 13 5 14 4 15 3 16 2 17 1 18
REMARK H PARENT
REMARK Flexibility Score: inf
ROOT
ATOM      1  C   UNL     1       8.104 -33.297  14.080  1.00  0.00     0.000 C 
ENDROOT
BRANCH   1   2
ATOM      2  C   UNL     1       7.921 -33.079  12.568  1.00  0.00     0.000 C 
BRANCH   2   3
ATOM      3  C   UNL     1       6.708 -32.193  12.243  1.00  0.00     0.000 C 
BRANCH   3   4
ATOM      4  C   UNL     1       6.606 -30.971  13.174  1.00  0.00     0.000 C 
BRANCH   4   5
ATOM      5  C   UNL     1       7.006 -29.663  12.476  1.00  0.00     0.000 C 
BRANCH   5   6
ATOM      6  C   UNL     1       8.531 -29.468  12.417  1.00  0.00     0.006 C 
BRANCH   6   7
ATOM      7  C   UNL     1       9.173 -29.505  13.811  1.00  0.00     0.053 C 
BRANCH   7   8
ATOM      8  C   UNL     1      10.667 -29.580  13.729  1.00  0.00     0.041 C 
ATOM      9  O   UNL     1      11.378 -28.738  14.340  1.00  0.00    -0.550 OA
ATOM     10  O   UNL     1      11.275 -30.598  13.006  1.00  0.00    -0.550 OA
ENDBRANCH   7   8
ENDBRANCH   6   7
ENDBRANCH   5   6
ENDBRANCH   4   5
ENDBRANCH   3   4
ENDBRANCH   2   3
ENDBRANCH   1   2
BRANCH   1  11
ATOM     11  C   UNL     1       7.060 -34.257  14.677  1.00  0.00     0.000 C 
BRANCH  11  12
ATOM     12  C   UNL     1       6.199 -33.661  15.807  1.00  0.00    -0.000 C 
BRANCH  12  13
ATOM     13  C   UNL     1       6.915 -33.660  17.168  1.00  0.00    -0.000 C 
BRANCH  13  14
ATOM     14  C   UNL     1       7.530 -32.292  17.508  1.00  0.00    -0.000 C 
BRANCH  14  15
ATOM     15  C   UNL     1       6.763 -31.127  16.858  1.00  0.00    -0.000 C 
BRANCH  15  16
ATOM     16  C   UNL     1       7.185 -29.753  17.410  1.00  0.00    -0.000 C 
BRANCH  16  17
ATOM     17  C   UNL     1       8.705 -29.544  17.536  1.00  0.00    -0.003 C 
ATOM     18  C   UNL     1       9.105 -28.827  18.825  1.00  0.00     0.004 C 
ENDBRANCH  16  17
ENDBRANCH  15  16
ENDBRANCH  14  15
ENDBRANCH  13  14
ENDBRANCH  12  13
ENDBRANCH  11  12
ENDBRANCH   1  11
TORSDOF 14
ENDMDL
MODEL 9
REMARK VINA RESULT:    -3.210      1.804      2.737
REMARK INTER + INTRA:          -7.904
REMARK INTER:                  -6.259
REMARK INTRA:                  -1.645
REMARK UNBOUND:                -2.067
REMARK SMILES CCCCCCCCCCCCCCCC(=O)[O-]
REMARK SMILES IDX 9 1 10 2 11 3 12 4 13 5 14 6 15 7 16 8 17 9 18 10 8 11 7 12
REMARK SMILES IDX 6 13 5 14 4 15 3 16 2 17 1 18
REMARK H PARENT
REMARK Flexibility Score: inf
ROOT
ATOM      1  C   UNL     1      10.043 -28.446  16.972  1.00  0.00     0.000 C 
ENDROOT
BRANCH   1   2
ATOM      2  C   UNL     1       9.247 -28.745  18.254  1.00  0.00     0.000 C 
BRANCH   2   3
ATOM      3  C   UNL     1       8.290 -29.936  18.089  1.00  0.00     0.000 C 
BRANCH   3   4
ATOM      4  C   UNL     1       6.812 -29.524  18.206  1.00  0.00     0.000 C 
BRANCH   4   5
ATOM      5  C   UNL     1       6.017 -29.811  16.924  1.00  0.00     0.000 C 
BRANCH   5   6
ATOM      6  C   UNL     1       6.271 -31.226  16.375  1.00  0.00     0.006 C 
BRANCH   6   7
ATOM      7  C   UNL     1       6.581 -31.217  14.872  1.00  0.00     0.053 C 
BRANCH   7   8
ATOM      8  C   UNL     1       7.657 -32.199  14.523  1.00  0.00     0.041 C 
ATOM      9  O   UNL     1       7.711 -32.695  13.367  1.00  0.00    -0.550 OA
ATOM     10  O   UNL     1       8.619 -32.541  15.465  1.00  0.00    -0.550 OA
ENDBRANCH   7   8
ENDBRANCH   6   7
ENDBRANCH   5   6
ENDBRANCH   4   5
ENDBRANCH   3   4
ENDBRANCH   2   3
ENDBRANCH   1   2
BRANCH   1  11
ATOM     11  C   UNL     1       9.449 -29.128  15.726  1.00  0.00     0.000 C 
BRANCH  11  12
ATOM     12  C   UNL     1      10.377 -29.162  14.498  1.00  0.00    -0.000 C 
BRANCH  12  13
ATOM     13  C   UNL     1       9.630 -29.481  13.192  1.00  0.00    -0.000 C 
BRANCH  13  14
ATOM     14  C   UNL     1      10.445 -30.387  12.254  1.00  0.00    -0.000 C 
BRANCH  14  15
ATOM     15  C   UNL     1      11.119 -31.551  13.003  1.00  0.00    -0.000 C 
BRANCH  15  16
ATOM     16  C   UNL     1      11.923 -32.475  12.070  1.00  0.00    -0.000 C 
BRANCH  16  17
ATOM     17  C   UNL     1      12.040 -33.934  12.544  1.00  0.00    -0.003 C 
ATOM     18  C   UNL     1      10.766 -34.449  13.213  1.00  0.00     0.004 C 
ENDBRANCH  16  17
ENDBRANCH  15  16
ENDBRANCH  14  15
ENDBRANCH  13  14
ENDBRANCH  12  13
ENDBRANCH  11  12
ENDBRANCH   1  11
TORSDOF 14
ENDMDL
