MODEL 1
REMARK VINA RESULT:     2.380      0.000      0.000
REMARK INTER + INTRA:           7.357
REMARK INTER:                   6.276
REMARK INTRA:                   1.081
REMARK UNBOUND:                 1.081
REMARK SMILES CCCCCCCCCCCCCCCCCCCCCCCCCCCCCC(=O)[O-]
REMARK SMILES IDX 16 1 17 2 18 3 19 4 20 5 21 6 22 7 23 8 24 9 25 10 26 11
REMARK SMILES IDX 27 12 28 13 29 14 30 15 31 16 32 17 15 18 14 19 13 20 12 21
REMARK SMILES IDX 11 22 10 23 9 24 8 25 7 26 6 27 5 28 4 29 3 30 2 31 1 32
REMARK H PARENT
REMARK Flexibility Score: inf
ROOT
ATOM      1  C   UNL     1       3.609  11.594  10.124  1.00  0.00     0.000 C 
ENDROOT
BRANCH   1   2
ATOM      2  C   UNL     1       4.465  12.365   9.108  1.00  0.00     0.000 C 
BRANCH   2   3
ATOM      3  C   UNL     1       5.837  12.714   9.705  1.00  0.00     0.000 C 
BRANCH   3   4
ATOM      4  C   UNL     1       7.013  12.198   8.855  1.00  0.00     0.000 C 
BRANCH   4   5
ATOM      5  C   UNL     1       8.309  13.023   8.967  1.00  0.00     0.000 C 
BRANCH   5   6
ATOM      6  C   UNL     1       9.529  12.312   8.362  1.00  0.00     0.000 C 
BRANCH   6   7
ATOM      7  C   UNL     1       9.107  11.382   7.217  1.00  0.00     0.000 C 
BRANCH   7   8
ATOM      8  C   UNL     1       9.983  11.546   5.964  1.00  0.00     0.000 C 
BRANCH   8   9
ATOM      9  C   UNL     1       9.843  12.941   5.328  1.00  0.00     0.000 C 
BRANCH   9  10
ATOM     10  C   UNL     1      10.055  12.927   3.805  1.00  0.00     0.000 C 
BRANCH  10  11
ATOM     11  C   UNL     1       8.768  12.801   2.965  1.00  0.00     0.000 C 
BRANCH  11  12
ATOM     12  C   UNL     1       8.002  11.480   3.190  1.00  0.00     0.000 C 
BRANCH  12  13
ATOM     13  C   UNL     1       7.349  11.416   4.583  1.00  0.00     0.006 C 
BRANCH  13  14
ATOM     14  C   UNL     1       5.869  11.817   4.550  1.00  0.00     0.053 C 
BRANCH  14  15
ATOM     15  C   UNL     1       4.971  10.655   4.846  1.00  0.00     0.041 C 
ATOM     16  O   UNL     1       3.983  10.413   4.106  1.00  0.00    -0.550 OA
ATOM     17  O   UNL     1       5.238   9.831   5.933  1.00  0.00    -0.550 OA
ENDBRANCH  14  15
ENDBRANCH  13  14
ENDBRANCH  12  13
ENDBRANCH  11  12
ENDBRANCH  10  11
ENDBRANCH   9  10
ENDBRANCH   8   9
ENDBRANCH   7   8
ENDBRANCH   6   7
ENDBRANCH   5   6
ENDBRANCH   4   5
ENDBRANCH   3   4
ENDBRANCH   2   3
ENDBRANCH   1   2
BRANCH   1  18
ATOM     18  C   UNL     1       3.277  10.165   9.661  1.00  0.00     0.000 C 
BRANCH  18  19
ATOM     19  C   UNL     1       3.507   9.901   8.160  1.00  0.00     0.000 C 
BRANCH  19  20
ATOM     20  C   UNL     1       2.334  10.352   7.263  1.00  0.00     0.000 C 
BRANCH  20  21
ATOM     21  C   UNL     1       1.221  11.049   8.066  1.00  0.00     0.000 C 
BRANCH  21  22
ATOM     22  C   UNL     1       1.552  12.523   8.383  1.00  0.00     0.000 C 
BRANCH  22  23
ATOM     23  C   UNL     1       0.696  13.124   9.512  1.00  0.00     0.000 C 
BRANCH  23  24
ATOM     24  C   UNL     1      -0.501  12.241   9.891  1.00  0.00    -0.000 C 
BRANCH  24  25
ATOM     25  C   UNL     1      -1.826  12.965   9.627  1.00  0.00    -0.000 C 
BRANCH  25  26
ATOM     26  C   UNL     1      -2.076  13.118   8.120  1.00  0.00    -0.000 C 
BRANCH  26  27
ATOM     27  C   UNL     1      -3.540  12.851   7.725  1.00  0.00    -0.000 C 
BRANCH  27  28
ATOM     28  C   UNL     1      -3.795  11.519   6.987  1.00  0.00    -0.000 C 
BRANCH  28  29
ATOM     29  C   UNL     1      -3.432  10.242   7.771  1.00  0.00    -0.000 C 
BRANCH  29  30
ATOM     30  C   UNL     1      -4.635   9.545   8.448  1.00  0.00    -0.000 C 
BRANCH  30  31
ATOM     31  C   UNL     1      -4.529   9.473   9.980  1.00  0.00    -0.003 C 
ATOM     32  C   UNL     1      -5.199   8.234  10.569  1.00  0.00     0.004 C 
ENDBRANCH  30  31
ENDBRANCH  29  30
ENDBRANCH  28  29
ENDBRANCH  27  28
ENDBRANCH  26  27
ENDBRANCH  25  26
ENDBRANCH  24  25
ENDBRANCH  23  24
ENDBRANCH  22  23
ENDBRANCH  21  22
ENDBRANCH  20  21
ENDBRANCH  19  20
ENDBRANCH  18  19
ENDBRANCH   1  18
TORSDOF 28
ENDMDL
MODEL 2
REMARK VINA RESULT:     2.585      2.637      8.406
REMARK INTER + INTRA:           7.897
REMARK INTER:                   6.082
REMARK INTRA:                   1.815
REMARK UNBOUND:                 1.081
REMARK SMILES CCCCCCCCCCCCCCCCCCCCCCCCCCCCCC(=O)[O-]
REMARK SMILES IDX 16 1 17 2 18 3 19 4 20 5 21 6 22 7 23 8 24 9 25 10 26 11
REMARK SMILES IDX 27 12 28 13 29 14 30 15 31 16 32 17 15 18 14 19 13 20 12 21
REMARK SMILES IDX 11 22 10 23 9 24 8 25 7 26 6 27 5 28 4 29 3 30 2 31 1 32
REMARK H PARENT
REMARK Flexibility Score: inf
ROOT
ATOM      1  C   UNL     1       8.139  13.121   7.831  1.00  0.00     0.000 C 
ENDROOT
BRANCH   1   2
ATOM      2  C   UNL     1       7.685  12.824   9.268  1.00  0.00     0.000 C 
BRANCH   2   3
ATOM      3  C   UNL     1       6.157  12.682   9.338  1.00  0.00     0.000 C 
BRANCH   3   4
ATOM      4  C   UNL     1       5.452  13.094   8.032  1.00  0.00     0.000 C 
BRANCH   4   5
ATOM      5  C   UNL     1       4.037  12.515   7.844  1.00  0.00     0.000 C 
BRANCH   5   6
ATOM      6  C   UNL     1       3.008  13.113   8.816  1.00  0.00     0.000 C 
BRANCH   6   7
ATOM      7  C   UNL     1       2.550  12.065   9.839  1.00  0.00     0.000 C 
BRANCH   7   8
ATOM      8  C   UNL     1       1.026  11.868   9.847  1.00  0.00     0.000 C 
BRANCH   8   9
ATOM      9  C   UNL     1       0.268  13.120   9.371  1.00  0.00     0.000 C 
BRANCH   9  10
ATOM     10  C   UNL     1      -1.104  12.793   8.759  1.00  0.00     0.000 C 
BRANCH  10  11
ATOM     11  C   UNL     1      -1.384  11.291   8.543  1.00  0.00     0.000 C 
BRANCH  11  12
ATOM     12  C   UNL     1      -2.850  10.976   8.179  1.00  0.00     0.000 C 
BRANCH  12  13
ATOM     13  C   UNL     1      -3.792  12.155   8.484  1.00  0.00     0.006 C 
BRANCH  13  14
ATOM     14  C   UNL     1      -3.921  13.118   7.298  1.00  0.00     0.053 C 
BRANCH  14  15
ATOM     15  C   UNL     1      -3.868  12.396   5.986  1.00  0.00     0.041 C 
ATOM     16  O   UNL     1      -3.640  13.030   4.923  1.00  0.00    -0.550 OA
ATOM     17  O   UNL     1      -4.057  11.020   5.943  1.00  0.00    -0.550 OA
ENDBRANCH  14  15
ENDBRANCH  13  14
ENDBRANCH  12  13
ENDBRANCH  11  12
ENDBRANCH  10  11
ENDBRANCH   9  10
ENDBRANCH   8   9
ENDBRANCH   7   8
ENDBRANCH   6   7
ENDBRANCH   5   6
ENDBRANCH   4   5
ENDBRANCH   3   4
ENDBRANCH   2   3
ENDBRANCH   1   2
BRANCH   1  18
ATOM     18  C   UNL     1       9.589  12.682   7.562  1.00  0.00     0.000 C 
BRANCH  18  19
ATOM     19  C   UNL     1       9.737  11.515   6.566  1.00  0.00     0.000 C 
BRANCH  19  20
ATOM     20  C   UNL     1      10.115  11.960   5.137  1.00  0.00     0.000 C 
BRANCH  20  21
ATOM     21  C   UNL     1       9.088  12.940   4.542  1.00  0.00     0.000 C 
BRANCH  21  22
ATOM     22  C   UNL     1       7.665  12.346   4.487  1.00  0.00     0.000 C 
BRANCH  22  23
ATOM     23  C   UNL     1       7.628  10.852   4.121  1.00  0.00     0.000 C 
BRANCH  23  24
ATOM     24  C   UNL     1       7.806   9.933   5.338  1.00  0.00    -0.000 C 
BRANCH  24  25
ATOM     25  C   UNL     1       6.516   9.853   6.163  1.00  0.00    -0.000 C 
BRANCH  25  26
ATOM     26  C   UNL     1       5.473  10.857   5.648  1.00  0.00    -0.000 C 
BRANCH  26  27
ATOM     27  C   UNL     1       4.063  10.251   5.538  1.00  0.00    -0.000 C 
BRANCH  27  28
ATOM     28  C   UNL     1       3.286  10.135   6.868  1.00  0.00    -0.000 C 
BRANCH  28  29
ATOM     29  C   UNL     1       3.899   9.186   7.918  1.00  0.00    -0.000 C 
BRANCH  29  30
ATOM     30  C   UNL     1       3.119   7.867   8.120  1.00  0.00    -0.000 C 
BRANCH  30  31
ATOM     31  C   UNL     1       2.917   7.486   9.595  1.00  0.00    -0.003 C 
ATOM     32  C   UNL     1       2.750   8.698  10.509  1.00  0.00     0.004 C 
ENDBRANCH  30  31
ENDBRANCH  29  30
ENDBRANCH  28  29
ENDBRANCH  27  28
ENDBRANCH  26  27
ENDBRANCH  25  26
ENDBRANCH  24  25
ENDBRANCH  23  24
ENDBRANCH  22  23
ENDBRANCH  21  22
ENDBRANCH  20  21
ENDBRANCH  19  20
ENDBRANCH  18  19
ENDBRANCH   1  18
TORSDOF 28
ENDMDL
MODEL 3
REMARK VINA RESULT:     2.761      3.007      8.563
REMARK INTER + INTRA:           8.361
REMARK INTER:                   8.027
REMARK INTRA:                   0.334
REMARK UNBOUND:                 1.081
REMARK SMILES CCCCCCCCCCCCCCCCCCCCCCCCCCCCCC(=O)[O-]
REMARK SMILES IDX 16 1 17 2 18 3 19 4 20 5 21 6 22 7 23 8 24 9 25 10 26 11
REMARK SMILES IDX 27 12 28 13 29 14 30 15 31 16 32 17 15 18 14 19 13 20 12 21
REMARK SMILES IDX 11 22 10 23 9 24 8 25 7 26 6 27 5 28 4 29 3 30 2 31 1 32
REMARK H PARENT
REMARK Flexibility Score: inf
ROOT
ATOM      1  C   UNL     1       8.089  13.116   7.842  1.00  0.00     0.000 C 
ENDROOT
BRANCH   1   2
ATOM      2  C   UNL     1       7.753  12.866   9.319  1.00  0.00     0.000 C 
BRANCH   2   3
ATOM      3  C   UNL     1       6.249  12.608   9.499  1.00  0.00     0.000 C 
BRANCH   3   4
ATOM      4  C   UNL     1       5.436  12.857   8.215  1.00  0.00     0.000 C 
BRANCH   4   5
ATOM      5  C   UNL     1       4.044  12.199   8.188  1.00  0.00     0.000 C 
BRANCH   5   6
ATOM      6  C   UNL     1       2.931  13.123   8.705  1.00  0.00     0.000 C 
BRANCH   6   7
ATOM      7  C   UNL     1       2.563  12.776  10.154  1.00  0.00     0.000 C 
BRANCH   7   8
ATOM      8  C   UNL     1       1.058  12.529  10.344  1.00  0.00     0.000 C 
BRANCH   8   9
ATOM      9  C   UNL     1       0.220  13.077   9.175  1.00  0.00     0.000 C 
BRANCH   9  10
ATOM     10  C   UNL     1      -1.091  12.303   8.963  1.00  0.00     0.000 C 
BRANCH  10  11
ATOM     11  C   UNL     1      -2.125  12.999   8.055  1.00  0.00     0.000 C 
BRANCH  11  12
ATOM     12  C   UNL     1      -3.223  12.054   7.522  1.00  0.00     0.000 C 
BRANCH  12  13
ATOM     13  C   UNL     1      -3.920  11.275   8.652  1.00  0.00     0.006 C 
BRANCH  13  14
ATOM     14  C   UNL     1      -4.165   9.807   8.280  1.00  0.00     0.053 C 
BRANCH  14  15
ATOM     15  C   UNL     1      -5.101   9.139   9.240  1.00  0.00     0.041 C 
ATOM     16  O   UNL     1      -6.169   8.618   8.825  1.00  0.00    -0.550 OA
ATOM     17  O   UNL     1      -4.784   9.079  10.592  1.00  0.00    -0.550 OA
ENDBRANCH  14  15
ENDBRANCH  13  14
ENDBRANCH  12  13
ENDBRANCH  11  12
ENDBRANCH  10  11
ENDBRANCH   9  10
ENDBRANCH   8   9
ENDBRANCH   7   8
ENDBRANCH   6   7
ENDBRANCH   5   6
ENDBRANCH   4   5
ENDBRANCH   3   4
ENDBRANCH   2   3
ENDBRANCH   1   2
BRANCH   1  18
ATOM     18  C   UNL     1       9.482  12.593   7.450  1.00  0.00     0.000 C 
BRANCH  18  19
ATOM     19  C   UNL     1       9.473  11.400   6.473  1.00  0.00     0.000 C 
BRANCH  19  20
ATOM     20  C   UNL     1       9.658  11.806   4.995  1.00  0.00     0.000 C 
BRANCH  20  21
ATOM     21  C   UNL     1       8.937  13.124   4.658  1.00  0.00     0.000 C 
BRANCH  21  22
ATOM     22  C   UNL     1       7.400  12.988   4.708  1.00  0.00     0.000 C 
BRANCH  22  23
ATOM     23  C   UNL     1       6.868  11.700   4.056  1.00  0.00     0.000 C 
BRANCH  23  24
ATOM     24  C   UNL     1       6.236  10.734   5.067  1.00  0.00    -0.000 C 
BRANCH  24  25
ATOM     25  C   UNL     1       4.729  10.591   4.827  1.00  0.00    -0.000 C 
BRANCH  25  26
ATOM     26  C   UNL     1       4.108   9.598   5.821  1.00  0.00    -0.000 C 
BRANCH  26  27
ATOM     27  C   UNL     1       3.045  10.245   6.728  1.00  0.00    -0.000 C 
BRANCH  27  28
ATOM     28  C   UNL     1       2.998   9.713   8.177  1.00  0.00    -0.000 C 
BRANCH  28  29
ATOM     29  C   UNL     1       4.365   9.400   8.818  1.00  0.00    -0.000 C 
BRANCH  29  30
ATOM     30  C   UNL     1       4.368   9.430  10.363  1.00  0.00    -0.000 C 
BRANCH  30  31
ATOM     31  C   UNL     1       3.034   9.884  10.977  1.00  0.00    -0.003 C 
ATOM     32  C   UNL     1       1.967   8.792  10.966  1.00  0.00     0.004 C 
ENDBRANCH  30  31
ENDBRANCH  29  30
ENDBRANCH  28  29
ENDBRANCH  27  28
ENDBRANCH  26  27
ENDBRANCH  25  26
ENDBRANCH  24  25
ENDBRANCH  23  24
ENDBRANCH  22  23
ENDBRANCH  21  22
ENDBRANCH  20  21
ENDBRANCH  19  20
ENDBRANCH  18  19
ENDBRANCH   1  18
TORSDOF 28
ENDMDL
MODEL 4
REMARK VINA RESULT:     3.024      2.658      8.922
REMARK INTER + INTRA:           9.056
REMARK INTER:                   5.372
REMARK INTRA:                   3.684
REMARK UNBOUND:                 1.081
REMARK SMILES CCCCCCCCCCCCCCCCCCCCCCCCCCCCCC(=O)[O-]
REMARK SMILES IDX 16 1 17 2 18 3 19 4 20 5 21 6 22 7 23 8 24 9 25 10 26 11
REMARK SMILES IDX 27 12 28 13 29 14 30 15 31 16 32 17 15 18 14 19 13 20 12 21
REMARK SMILES IDX 11 22 10 23 9 24 8 25 7 26 6 27 5 28 4 29 3 30 2 31 1 32
REMARK H PARENT
REMARK Flexibility Score: inf
ROOT
ATOM      1  C   UNL     1       6.112  10.751   8.878  1.00  0.00     0.000 C 
ENDROOT
BRANCH   1   2
ATOM      2  C   UNL     1       5.108  11.766   9.443  1.00  0.00     0.000 C 
BRANCH   2   3
ATOM      3  C   UNL     1       3.784  11.714   8.666  1.00  0.00     0.000 C 
BRANCH   3   4
ATOM      4  C   UNL     1       2.932  10.477   9.008  1.00  0.00     0.000 C 
BRANCH   4   5
ATOM      5  C   UNL     1       2.552  10.338  10.493  1.00  0.00     0.000 C 
BRANCH   5   6
ATOM      6  C   UNL     1       1.554  11.408  10.962  1.00  0.00     0.000 C 
BRANCH   6   7
ATOM      7  C   UNL     1       1.898  12.777  10.361  1.00  0.00     0.000 C 
BRANCH   7   8
ATOM      8  C   UNL     1       1.034  13.125   9.138  1.00  0.00     0.000 C 
BRANCH   8   9
ATOM      9  C   UNL     1      -0.171  12.179   8.981  1.00  0.00     0.000 C 
BRANCH   9  10
ATOM     10  C   UNL     1      -1.423  12.891   8.443  1.00  0.00     0.000 C 
BRANCH  10  11
ATOM     11  C   UNL     1      -2.713  12.649   9.253  1.00  0.00     0.000 C 
BRANCH  11  12
ATOM     12  C   UNL     1      -3.982  12.521   8.383  1.00  0.00     0.000 C 
BRANCH  12  13
ATOM     13  C   UNL     1      -4.012  11.202   7.589  1.00  0.00     0.006 C 
BRANCH  13  14
ATOM     14  C   UNL     1      -3.177  11.277   6.305  1.00  0.00     0.053 C 
BRANCH  14  15
ATOM     15  C   UNL     1      -3.979  11.790   5.149  1.00  0.00     0.041 C 
ATOM     16  O   UNL     1      -4.316  11.014   4.217  1.00  0.00    -0.550 OA
ATOM     17  O   UNL     1      -4.365  13.125   5.109  1.00  0.00    -0.550 OA
ENDBRANCH  14  15
ENDBRANCH  13  14
ENDBRANCH  12  13
ENDBRANCH  11  12
ENDBRANCH  10  11
ENDBRANCH   9  10
ENDBRANCH   8   9
ENDBRANCH   7   8
ENDBRANCH   6   7
ENDBRANCH   5   6
ENDBRANCH   4   5
ENDBRANCH   3   4
ENDBRANCH   2   3
ENDBRANCH   1   2
BRANCH   1  18
ATOM     18  C   UNL     1       7.149  11.394   7.941  1.00  0.00     0.000 C 
BRANCH  18  19
ATOM     19  C   UNL     1       7.778  12.698   8.472  1.00  0.00     0.000 C 
BRANCH  19  20
ATOM     20  C   UNL     1       9.303  12.606   8.694  1.00  0.00     0.000 C 
BRANCH  20  21
ATOM     21  C   UNL     1      10.086  12.623   7.368  1.00  0.00     0.000 C 
BRANCH  21  22
ATOM     22  C   UNL     1       9.250  12.100   6.180  1.00  0.00     0.000 C 
BRANCH  22  23
ATOM     23  C   UNL     1       9.843  12.447   4.803  1.00  0.00     0.000 C 
BRANCH  23  24
ATOM     24  C   UNL     1       9.117  11.747   3.645  1.00  0.00    -0.000 C 
BRANCH  24  25
ATOM     25  C   UNL     1       7.759  11.199   4.096  1.00  0.00    -0.000 C 
BRANCH  25  26
ATOM     26  C   UNL     1       6.932  12.288   4.795  1.00  0.00    -0.000 C 
BRANCH  26  27
ATOM     27  C   UNL     1       5.415  12.072   4.655  1.00  0.00    -0.000 C 
BRANCH  27  28
ATOM     28  C   UNL     1       4.829  10.921   5.502  1.00  0.00    -0.000 C 
BRANCH  28  29
ATOM     29  C   UNL     1       3.451  10.395   5.050  1.00  0.00    -0.000 C 
BRANCH  29  30
ATOM     30  C   UNL     1       2.685   9.599   6.131  1.00  0.00    -0.000 C 
BRANCH  30  31
ATOM     31  C   UNL     1       3.453   8.378   6.663  1.00  0.00    -0.003 C 
ATOM     32  C   UNL     1       4.083   8.617   8.033  1.00  0.00     0.004 C 
ENDBRANCH  30  31
ENDBRANCH  29  30
ENDBRANCH  28  29
ENDBRANCH  27  28
ENDBRANCH  26  27
ENDBRANCH  25  26
ENDBRANCH  24  25
ENDBRANCH  23  24
ENDBRANCH  22  23
ENDBRANCH  21  22
ENDBRANCH  20  21
ENDBRANCH  19  20
ENDBRANCH  18  19
ENDBRANCH   1  18
TORSDOF 28
ENDMDL
MODEL 5
REMARK VINA RESULT:     3.350      2.948      9.912
REMARK INTER + INTRA:           9.915
REMARK INTER:                   8.538
REMARK INTRA:                   1.377
REMARK UNBOUND:                 1.081
REMARK SMILES CCCCCCCCCCCCCCCCCCCCCCCCCCCCCC(=O)[O-]
REMARK SMILES IDX 16 1 17 2 18 3 19 4 20 5 21 6 22 7 23 8 24 9 25 10 26 11
REMARK SMILES IDX 27 12 28 13 29 14 30 15 31 16 32 17 15 18 14 19 13 20 12 21
REMARK SMILES IDX 11 22 10 23 9 24 8 25 7 26 6 27 5 28 4 29 3 30 2 31 1 32
REMARK H PARENT
REMARK Flexibility Score: inf
ROOT
ATOM      1  C   UNL     1       4.132   8.708   7.663  1.00  0.00     0.000 C 
ENDROOT
BRANCH   1   2
ATOM      2  C   UNL     1       3.229   8.198   8.796  1.00  0.00     0.000 C 
BRANCH   2   3
ATOM      3  C   UNL     1       2.898   9.330   9.781  1.00  0.00     0.000 C 
BRANCH   3   4
ATOM      4  C   UNL     1       3.032  10.731   9.157  1.00  0.00     0.000 C 
BRANCH   4   5
ATOM      5  C   UNL     1       3.252  11.875  10.164  1.00  0.00     0.000 C 
BRANCH   5   6
ATOM      6  C   UNL     1       2.415  13.124   9.849  1.00  0.00     0.000 C 
BRANCH   6   7
ATOM      7  C   UNL     1       0.915  12.813   9.938  1.00  0.00     0.000 C 
BRANCH   7   8
ATOM      8  C   UNL     1       0.193  12.968   8.590  1.00  0.00     0.000 C 
BRANCH   8   9
ATOM      9  C   UNL     1      -1.157  12.229   8.557  1.00  0.00     0.000 C 
BRANCH   9  10
ATOM     10  C   UNL     1      -2.339  13.125   8.959  1.00  0.00     0.000 C 
BRANCH  10  11
ATOM     11  C   UNL     1      -3.710  12.691   8.400  1.00  0.00     0.000 C 
BRANCH  11  12
ATOM     12  C   UNL     1      -3.665  11.386   7.579  1.00  0.00     0.000 C 
BRANCH  12  13
ATOM     13  C   UNL     1      -4.755  10.388   8.010  1.00  0.00     0.006 C 
BRANCH  13  14
ATOM     14  C   UNL     1      -4.170   9.037   8.438  1.00  0.00     0.053 C 
BRANCH  14  15
ATOM     15  C   UNL     1      -4.529   8.698   9.853  1.00  0.00     0.041 C 
ATOM     16  O   UNL     1      -4.140   7.615  10.363  1.00  0.00    -0.550 OA
ATOM     17  O   UNL     1      -5.282   9.587  10.611  1.00  0.00    -0.550 OA
ENDBRANCH  14  15
ENDBRANCH  13  14
ENDBRANCH  12  13
ENDBRANCH  11  12
ENDBRANCH  10  11
ENDBRANCH   9  10
ENDBRANCH   8   9
ENDBRANCH   7   8
ENDBRANCH   6   7
ENDBRANCH   5   6
ENDBRANCH   4   5
ENDBRANCH   3   4
ENDBRANCH   2   3
ENDBRANCH   1   2
BRANCH   1  18
ATOM     18  C   UNL     1       5.523   9.140   8.158  1.00  0.00     0.000 C 
BRANCH  18  19
ATOM     19  C   UNL     1       5.600  10.586   8.688  1.00  0.00     0.000 C 
BRANCH  19  20
ATOM     20  C   UNL     1       6.697  11.437   8.012  1.00  0.00     0.000 C 
BRANCH  20  21
ATOM     21  C   UNL     1       7.001  12.725   8.799  1.00  0.00     0.000 C 
BRANCH  21  22
ATOM     22  C   UNL     1       8.507  13.064   8.822  1.00  0.00     0.000 C 
BRANCH  22  23
ATOM     23  C   UNL     1       9.406  11.942   8.271  1.00  0.00     0.000 C 
BRANCH  23  24
ATOM     24  C   UNL     1       9.187  11.680   6.775  1.00  0.00    -0.000 C 
BRANCH  24  25
ATOM     25  C   UNL     1      10.111  12.555   5.920  1.00  0.00    -0.000 C 
BRANCH  25  26
ATOM     26  C   UNL     1      10.125  12.074   4.461  1.00  0.00    -0.000 C 
BRANCH  26  27
ATOM     27  C   UNL     1       9.433  13.057   3.500  1.00  0.00    -0.000 C 
BRANCH  27  28
ATOM     28  C   UNL     1       7.890  13.005   3.496  1.00  0.00    -0.000 C 
BRANCH  28  29
ATOM     29  C   UNL     1       7.229  12.697   4.855  1.00  0.00    -0.000 C 
BRANCH  29  30
ATOM     30  C   UNL     1       5.697  12.498   4.790  1.00  0.00    -0.000 C 
BRANCH  30  31
ATOM     31  C   UNL     1       5.267  11.027   4.674  1.00  0.00    -0.003 C 
ATOM     32  C   UNL     1       6.328  10.052   5.180  1.00  0.00     0.004 C 
ENDBRANCH  30  31
ENDBRANCH  29  30
ENDBRANCH  28  29
ENDBRANCH  27  28
ENDBRANCH  26  27
ENDBRANCH  25  26
ENDBRANCH  24  25
ENDBRANCH  23  24
ENDBRANCH  22  23
ENDBRANCH  21  22
ENDBRANCH  20  21
ENDBRANCH  19  20
ENDBRANCH  18  19
ENDBRANCH   1  18
TORSDOF 28
ENDMDL
