MODEL 1
REMARK VINA RESULT:    -5.221      0.000      0.000
REMARK INTER + INTRA:         -16.730
REMARK INTER:                 -13.158
REMARK INTRA:                  -3.573
REMARK UNBOUND:                -3.573
REMARK SMILES CCCCCCCCCCCCCCCCCCCCCCCCCCCC(=O)[O-]
REMARK SMILES IDX 15 1 16 2 17 3 18 4 19 5 20 6 21 7 22 8 23 9 24 10 25 11
REMARK SMILES IDX 26 12 27 13 28 14 29 15 30 16 14 17 13 18 12 19 11 20 10 21
REMARK SMILES IDX 9 22 8 23 7 24 6 25 5 26 4 27 3 28 2 29 1 30
REMARK H PARENT
REMARK Flexibility Score: inf
ROOT
ATOM      1  C   UNL     1      27.513  -7.911  18.196  1.00  0.00     0.000 C 
ENDROOT
BRANCH   1   2
ATOM      2  C   UNL     1      28.470  -7.434  17.087  1.00  0.00     0.000 C 
BRANCH   2   3
ATOM      3  C   UNL     1      29.602  -6.535  17.626  1.00  0.00     0.000 C 
BRANCH   3   4
ATOM      4  C   UNL     1      30.647  -6.135  16.564  1.00  0.00     0.000 C 
BRANCH   4   5
ATOM      5  C   UNL     1      30.312  -6.562  15.124  1.00  0.00     0.000 C 
BRANCH   5   6
ATOM      6  C   UNL     1      31.201  -5.931  14.035  1.00  0.00     0.000 C 
BRANCH   6   7
ATOM      7  C   UNL     1      32.167  -4.847  14.565  1.00  0.00     0.000 C 
BRANCH   7   8
ATOM      8  C   UNL     1      33.642  -5.289  14.655  1.00  0.00     0.000 C 
BRANCH   8   9
ATOM      9  C   UNL     1      33.983  -6.608  13.930  1.00  0.00     0.000 C 
BRANCH   9  10
ATOM     10  C   UNL     1      34.504  -7.740  14.837  1.00  0.00     0.000 C 
BRANCH  10  11
ATOM     11  C   UNL     1      33.606  -8.075  16.044  1.00  0.00     0.000 C 
BRANCH  11  12
ATOM     12  C   UNL     1      32.998  -9.492  16.033  1.00  0.00     0.006 C 
BRANCH  12  13
ATOM     13  C   UNL     1      31.703  -9.636  16.847  1.00  0.00     0.053 C 
BRANCH  13  14
ATOM     14  C   UNL     1      30.656 -10.408  16.104  1.00  0.00     0.041 C 
ATOM     15  O   UNL     1      30.241 -10.000  14.988  1.00  0.00    -0.550 OA
ATOM     16  O   UNL     1      30.128 -11.571  16.651  1.00  0.00    -0.550 OA
ENDBRANCH  13  14
ENDBRANCH  12  13
ENDBRANCH  11  12
ENDBRANCH  10  11
ENDBRANCH   9  10
ENDBRANCH   8   9
ENDBRANCH   7   8
ENDBRANCH   6   7
ENDBRANCH   5   6
ENDBRANCH   4   5
ENDBRANCH   3   4
ENDBRANCH   2   3
ENDBRANCH   1   2
BRANCH   1  17
ATOM     17  C   UNL     1      27.606  -9.423  18.452  1.00  0.00     0.000 C 
BRANCH  17  18
ATOM     18  C   UNL     1      26.238 -10.063  18.746  1.00  0.00     0.000 C 
BRANCH  18  19
ATOM     19  C   UNL     1      25.637  -9.559  20.072  1.00  0.00     0.000 C 
BRANCH  19  20
ATOM     20  C   UNL     1      24.142  -9.898  20.251  1.00  0.00     0.000 C 
BRANCH  20  21
ATOM     21  C   UNL     1      23.716 -10.217  21.699  1.00  0.00     0.000 C 
BRANCH  21  22
ATOM     22  C   UNL     1      22.730 -11.394  21.854  1.00  0.00    -0.000 C 
BRANCH  22  23
ATOM     23  C   UNL     1      22.194 -11.977  20.533  1.00  0.00    -0.000 C 
BRANCH  23  24
ATOM     24  C   UNL     1      22.781 -13.347  20.140  1.00  0.00    -0.000 C 
BRANCH  24  25
ATOM     25  C   UNL     1      23.546 -13.338  18.799  1.00  0.00    -0.000 C 
BRANCH  25  26
ATOM     26  C   UNL     1      22.953 -12.347  17.782  1.00  0.00    -0.000 C 
BRANCH  26  27
ATOM     27  C   UNL     1      23.546 -12.519  16.374  1.00  0.00    -0.000 C 
BRANCH  27  28
ATOM     28  C   UNL     1      25.019 -12.078  16.294  1.00  0.00    -0.000 C 
BRANCH  28  29
ATOM     29  C   UNL     1      25.274 -11.071  15.162  1.00  0.00    -0.003 C 
ATOM     30  C   UNL     1      26.751 -10.708  15.016  1.00  0.00     0.004 C 
ENDBRANCH  28  29
ENDBRANCH  27  28
ENDBRANCH  26  27
ENDBRANCH  25  26
ENDBRANCH  24  25
ENDBRANCH  23  24
ENDBRANCH  22  23
ENDBRANCH  21  22
ENDBRANCH  20  21
ENDBRANCH  19  20
ENDBRANCH  18  19
ENDBRANCH  17  18
ENDBRANCH   1  17
TORSDOF 26
ENDMDL
MODEL 2
REMARK VINA RESULT:    -5.184      2.095      4.623
REMARK INTER + INTRA:         -16.637
REMARK INTER:                 -13.688
REMARK INTRA:                  -2.949
REMARK UNBOUND:                -3.573
REMARK SMILES CCCCCCCCCCCCCCCCCCCCCCCCCCCC(=O)[O-]
REMARK SMILES IDX 15 1 16 2 17 3 18 4 19 5 20 6 21 7 22 8 23 9 24 10 25 11
REMARK SMILES IDX 26 12 27 13 28 14 29 15 30 16 14 17 13 18 12 19 11 20 10 21
REMARK SMILES IDX 9 22 8 23 7 24 6 25 5 26 4 27 3 28 2 29 1 30
REMARK H PARENT
REMARK Flexibility Score: inf
ROOT
ATOM      1  C   UNL     1      28.689  -8.187  17.321  1.00  0.00     0.000 C 
ENDROOT
BRANCH   1   2
ATOM      2  C   UNL     1      30.138  -7.752  17.608  1.00  0.00     0.000 C 
BRANCH   2   3
ATOM      3  C   UNL     1      31.102  -8.949  17.746  1.00  0.00     0.000 C 
BRANCH   3   4
ATOM      4  C   UNL     1      31.447  -9.636  16.408  1.00  0.00     0.000 C 
BRANCH   4   5
ATOM      5  C   UNL     1      32.784  -9.205  15.778  1.00  0.00     0.000 C 
BRANCH   5   6
ATOM      6  C   UNL     1      33.445  -7.975  16.430  1.00  0.00     0.000 C 
BRANCH   6   7
ATOM      7  C   UNL     1      34.224  -7.084  15.436  1.00  0.00     0.000 C 
BRANCH   7   8
ATOM      8  C   UNL     1      33.699  -5.638  15.321  1.00  0.00     0.000 C 
BRANCH   8   9
ATOM      9  C   UNL     1      32.965  -5.302  14.006  1.00  0.00     0.000 C 
BRANCH   9  10
ATOM     10  C   UNL     1      31.622  -6.030  13.798  1.00  0.00     0.000 C 
BRANCH  10  11
ATOM     11  C   UNL     1      30.373  -5.130  13.875  1.00  0.00     0.000 C 
BRANCH  11  12
ATOM     12  C   UNL     1      29.653  -5.127  15.238  1.00  0.00     0.006 C 
BRANCH  12  13
ATOM     13  C   UNL     1      28.133  -5.335  15.157  1.00  0.00     0.053 C 
BRANCH  13  14
ATOM     14  C   UNL     1      27.407  -4.600  16.242  1.00  0.00     0.041 C 
ATOM     15  O   UNL     1      27.598  -4.902  17.449  1.00  0.00    -0.550 OA
ATOM     16  O   UNL     1      26.508  -3.591  15.919  1.00  0.00    -0.550 OA
ENDBRANCH  13  14
ENDBRANCH  12  13
ENDBRANCH  11  12
ENDBRANCH  10  11
ENDBRANCH   9  10
ENDBRANCH   8   9
ENDBRANCH   7   8
ENDBRANCH   6   7
ENDBRANCH   5   6
ENDBRANCH   4   5
ENDBRANCH   3   4
ENDBRANCH   2   3
ENDBRANCH   1   2
BRANCH   1  17
ATOM     17  C   UNL     1      28.214  -9.318  18.246  1.00  0.00     0.000 C 
BRANCH  17  18
ATOM     18  C   UNL     1      27.761 -10.569  17.473  1.00  0.00     0.000 C 
BRANCH  18  19
ATOM     19  C   UNL     1      27.769 -10.343  15.950  1.00  0.00     0.000 C 
BRANCH  19  20
ATOM     20  C   UNL     1      26.540 -10.928  15.223  1.00  0.00     0.000 C 
BRANCH  20  21
ATOM     21  C   UNL     1      25.226 -10.886  16.031  1.00  0.00     0.000 C 
BRANCH  21  22
ATOM     22  C   UNL     1      24.144 -11.894  15.588  1.00  0.00    -0.000 C 
BRANCH  22  23
ATOM     23  C   UNL     1      23.852 -13.024  16.592  1.00  0.00    -0.000 C 
BRANCH  23  24
ATOM     24  C   UNL     1      23.981 -12.626  18.076  1.00  0.00    -0.000 C 
BRANCH  24  25
ATOM     25  C   UNL     1      23.789 -13.802  19.058  1.00  0.00    -0.000 C 
BRANCH  25  26
ATOM     26  C   UNL     1      22.738 -13.507  20.142  1.00  0.00    -0.000 C 
BRANCH  26  27
ATOM     27  C   UNL     1      22.464 -12.004  20.308  1.00  0.00    -0.000 C 
BRANCH  27  28
ATOM     28  C   UNL     1      22.541 -11.547  21.776  1.00  0.00    -0.000 C 
BRANCH  28  29
ATOM     29  C   UNL     1      23.462 -10.333  21.970  1.00  0.00    -0.003 C 
ATOM     30  C   UNL     1      24.141  -9.894  20.672  1.00  0.00     0.004 C 
ENDBRANCH  28  29
ENDBRANCH  27  28
ENDBRANCH  26  27
ENDBRANCH  25  26
ENDBRANCH  24  25
ENDBRANCH  23  24
ENDBRANCH  22  23
ENDBRANCH  21  22
ENDBRANCH  20  21
ENDBRANCH  19  20
ENDBRANCH  18  19
ENDBRANCH  17  18
ENDBRANCH   1  17
TORSDOF 26
ENDMDL
MODEL 3
REMARK VINA RESULT:    -5.153      2.527      4.870
REMARK INTER + INTRA:         -16.559
REMARK INTER:                 -12.972
REMARK INTRA:                  -3.587
REMARK UNBOUND:                -3.573
REMARK SMILES CCCCCCCCCCCCCCCCCCCCCCCCCCCC(=O)[O-]
REMARK SMILES IDX 15 1 16 2 17 3 18 4 19 5 20 6 21 7 22 8 23 9 24 10 25 11
REMARK SMILES IDX 26 12 27 13 28 14 29 15 30 16 14 17 13 18 12 19 11 20 10 21
REMARK SMILES IDX 9 22 8 23 7 24 6 25 5 26 4 27 3 28 2 29 1 30
REMARK H PARENT
REMARK Flexibility Score: inf
ROOT
ATOM      1  C   UNL     1      26.335 -11.511  15.250  1.00  0.00     0.000 C 
ENDROOT
BRANCH   1   2
ATOM      2  C   UNL     1      27.284 -10.317  15.031  1.00  0.00     0.000 C 
BRANCH   2   3
ATOM      3  C   UNL     1      28.769 -10.734  15.022  1.00  0.00     0.000 C 
BRANCH   3   4
ATOM      4  C   UNL     1      29.699  -9.767  15.784  1.00  0.00     0.000 C 
BRANCH   4   5
ATOM      5  C   UNL     1      30.997 -10.394  16.321  1.00  0.00     0.000 C 
BRANCH   5   6
ATOM      6  C   UNL     1      32.251  -9.508  16.191  1.00  0.00     0.000 C 
BRANCH   6   7
ATOM      7  C   UNL     1      31.979  -8.002  16.411  1.00  0.00     0.000 C 
BRANCH   7   8
ATOM      8  C   UNL     1      32.790  -7.062  15.497  1.00  0.00     0.000 C 
BRANCH   8   9
ATOM      9  C   UNL     1      31.960  -6.239  14.489  1.00  0.00     0.000 C 
BRANCH   9  10
ATOM     10  C   UNL     1      30.439  -6.485  14.535  1.00  0.00     0.000 C 
BRANCH  10  11
ATOM     11  C   UNL     1      29.577  -5.217  14.692  1.00  0.00     0.000 C 
BRANCH  11  12
ATOM     12  C   UNL     1      28.116  -5.468  15.117  1.00  0.00     0.006 C 
BRANCH  12  13
ATOM     13  C   UNL     1      27.096  -4.503  14.495  1.00  0.00     0.053 C 
BRANCH  13  14
ATOM     14  C   UNL     1      26.360  -3.716  15.535  1.00  0.00     0.041 C 
ATOM     15  O   UNL     1      26.996  -3.080  16.416  1.00  0.00    -0.550 OA
ATOM     16  O   UNL     1      24.970  -3.694  15.540  1.00  0.00    -0.550 OA
ENDBRANCH  13  14
ENDBRANCH  12  13
ENDBRANCH  11  12
ENDBRANCH  10  11
ENDBRANCH   9  10
ENDBRANCH   8   9
ENDBRANCH   7   8
ENDBRANCH   6   7
ENDBRANCH   5   6
ENDBRANCH   4   5
ENDBRANCH   3   4
ENDBRANCH   2   3
ENDBRANCH   1   2
BRANCH   1  17
ATOM     17  C   UNL     1      24.875 -11.080  15.461  1.00  0.00     0.000 C 
BRANCH  17  18
ATOM     18  C   UNL     1      23.958 -12.254  15.848  1.00  0.00     0.000 C 
BRANCH  18  19
ATOM     19  C   UNL     1      23.552 -12.204  17.333  1.00  0.00     0.000 C 
BRANCH  19  20
ATOM     20  C   UNL     1      23.937 -13.468  18.130  1.00  0.00     0.000 C 
BRANCH  20  21
ATOM     21  C   UNL     1      23.407 -13.511  19.578  1.00  0.00     0.000 C 
BRANCH  21  22
ATOM     22  C   UNL     1      22.475 -12.346  19.976  1.00  0.00    -0.000 C 
BRANCH  22  23
ATOM     23  C   UNL     1      22.655 -11.827  21.415  1.00  0.00    -0.000 C 
BRANCH  23  24
ATOM     24  C   UNL     1      23.487 -10.536  21.544  1.00  0.00    -0.000 C 
BRANCH  24  25
ATOM     25  C   UNL     1      23.911  -9.928  20.189  1.00  0.00    -0.000 C 
BRANCH  25  26
ATOM     26  C   UNL     1      25.403  -9.556  20.144  1.00  0.00    -0.000 C 
BRANCH  26  27
ATOM     27  C   UNL     1      26.063  -9.919  18.804  1.00  0.00    -0.000 C 
BRANCH  27  28
ATOM     28  C   UNL     1      27.494  -9.365  18.681  1.00  0.00    -0.000 C 
BRANCH  28  29
ATOM     29  C   UNL     1      27.545  -8.021  17.939  1.00  0.00    -0.003 C 
ATOM     30  C   UNL     1      28.839  -7.249  18.203  1.00  0.00     0.004 C 
ENDBRANCH  28  29
ENDBRANCH  27  28
ENDBRANCH  26  27
ENDBRANCH  25  26
ENDBRANCH  24  25
ENDBRANCH  23  24
ENDBRANCH  22  23
ENDBRANCH  21  22
ENDBRANCH  20  21
ENDBRANCH  19  20
ENDBRANCH  18  19
ENDBRANCH  17  18
ENDBRANCH   1  17
TORSDOF 26
ENDMDL
MODEL 4
REMARK VINA RESULT:    -5.099      1.725      7.381
REMARK INTER + INTRA:         -16.423
REMARK INTER:                 -13.163
REMARK INTRA:                  -3.260
REMARK UNBOUND:                -3.573
REMARK SMILES CCCCCCCCCCCCCCCCCCCCCCCCCCCC(=O)[O-]
REMARK SMILES IDX 15 1 16 2 17 3 18 4 19 5 20 6 21 7 22 8 23 9 24 10 25 11
REMARK SMILES IDX 26 12 27 13 28 14 29 15 30 16 14 17 13 18 12 19 11 20 10 21
REMARK SMILES IDX 9 22 8 23 7 24 6 25 5 26 4 27 3 28 2 29 1 30
REMARK H PARENT
REMARK Flexibility Score: inf
ROOT
ATOM      1  C   UNL     1      22.735 -13.589  19.539  1.00  0.00     0.000 C 
ENDROOT
BRANCH   1   2
ATOM      2  C   UNL     1      22.757 -12.661  20.768  1.00  0.00     0.000 C 
BRANCH   2   3
ATOM      3  C   UNL     1      22.586 -11.174  20.392  1.00  0.00     0.000 C 
BRANCH   3   4
ATOM      4  C   UNL     1      23.776 -10.281  20.801  1.00  0.00     0.000 C 
BRANCH   4   5
ATOM      5  C   UNL     1      24.626  -9.749  19.634  1.00  0.00     0.000 C 
BRANCH   5   6
ATOM      6  C   UNL     1      26.107  -9.489  19.972  1.00  0.00     0.000 C 
BRANCH   6   7
ATOM      7  C   UNL     1      27.094 -10.013  18.905  1.00  0.00     0.000 C 
BRANCH   7   8
ATOM      8  C   UNL     1      28.238  -9.039  18.553  1.00  0.00     0.000 C 
BRANCH   8   9
ATOM      9  C   UNL     1      27.826  -7.810  17.715  1.00  0.00     0.000 C 
BRANCH   9  10
ATOM     10  C   UNL     1      28.407  -6.464  18.193  1.00  0.00     0.000 C 
BRANCH  10  11
ATOM     11  C   UNL     1      29.570  -5.917  17.343  1.00  0.00     0.000 C 
BRANCH  11  12
ATOM     12  C   UNL     1      29.283  -5.813  15.832  1.00  0.00     0.006 C 
BRANCH  12  13
ATOM     13  C   UNL     1      30.042  -6.832  14.967  1.00  0.00     0.053 C 
BRANCH  13  14
ATOM     14  C   UNL     1      31.329  -6.275  14.443  1.00  0.00     0.041 C 
ATOM     15  O   UNL     1      32.327  -6.161  15.202  1.00  0.00    -0.550 OA
ATOM     16  O   UNL     1      31.425  -5.870  13.117  1.00  0.00    -0.550 OA
ENDBRANCH  13  14
ENDBRANCH  12  13
ENDBRANCH  11  12
ENDBRANCH  10  11
ENDBRANCH   9  10
ENDBRANCH   8   9
ENDBRANCH   7   8
ENDBRANCH   6   7
ENDBRANCH   5   6
ENDBRANCH   4   5
ENDBRANCH   3   4
ENDBRANCH   2   3
ENDBRANCH   1   2
BRANCH   1  17
ATOM     17  C   UNL     1      23.732 -13.161  18.451  1.00  0.00     0.000 C 
BRANCH  17  18
ATOM     18  C   UNL     1      23.043 -12.548  17.220  1.00  0.00     0.000 C 
BRANCH  18  19
ATOM     19  C   UNL     1      23.975 -12.510  15.994  1.00  0.00     0.000 C 
BRANCH  19  20
ATOM     20  C   UNL     1      24.688 -11.157  15.791  1.00  0.00     0.000 C 
BRANCH  20  21
ATOM     21  C   UNL     1      26.217 -11.190  15.993  1.00  0.00     0.000 C 
BRANCH  21  22
ATOM     22  C   UNL     1      27.057 -10.818  14.752  1.00  0.00    -0.000 C 
BRANCH  22  23
ATOM     23  C   UNL     1      28.429 -10.188  15.055  1.00  0.00    -0.000 C 
BRANCH  23  24
ATOM     24  C   UNL     1      29.610 -11.179  15.077  1.00  0.00    -0.000 C 
BRANCH  24  25
ATOM     25  C   UNL     1      30.410 -11.169  16.396  1.00  0.00    -0.000 C 
BRANCH  25  26
ATOM     26  C   UNL     1      31.039  -9.798  16.702  1.00  0.00    -0.000 C 
BRANCH  26  27
ATOM     27  C   UNL     1      32.390  -9.597  15.998  1.00  0.00    -0.000 C 
BRANCH  27  28
ATOM     28  C   UNL     1      33.531  -9.285  16.984  1.00  0.00    -0.000 C 
BRANCH  28  29
ATOM     29  C   UNL     1      34.917  -9.350  16.324  1.00  0.00    -0.003 C 
ATOM     30  C   UNL     1      34.948  -8.685  14.948  1.00  0.00     0.004 C 
ENDBRANCH  28  29
ENDBRANCH  27  28
ENDBRANCH  26  27
ENDBRANCH  25  26
ENDBRANCH  24  25
ENDBRANCH  23  24
ENDBRANCH  22  23
ENDBRANCH  21  22
ENDBRANCH  20  21
ENDBRANCH  19  20
ENDBRANCH  18  19
ENDBRANCH  17  18
ENDBRANCH   1  17
TORSDOF 26
ENDMDL
MODEL 5
REMARK VINA RESULT:    -5.046      2.466      6.394
REMARK INTER + INTRA:         -16.288
REMARK INTER:                 -12.545
REMARK INTRA:                  -3.744
REMARK UNBOUND:                -3.573
REMARK SMILES CCCCCCCCCCCCCCCCCCCCCCCCCCCC(=O)[O-]
REMARK SMILES IDX 15 1 16 2 17 3 18 4 19 5 20 6 21 7 22 8 23 9 24 10 25 11
REMARK SMILES IDX 26 12 27 13 28 14 29 15 30 16 14 17 13 18 12 19 11 20 10 21
REMARK SMILES IDX 9 22 8 23 7 24 6 25 5 26 4 27 3 28 2 29 1 30
REMARK H PARENT
REMARK Flexibility Score: inf
ROOT
ATOM      1  C   UNL     1      22.159 -11.491  21.381  1.00  0.00     0.000 C 
ENDROOT
BRANCH   1   2
ATOM      2  C   UNL     1      23.317 -10.496  21.584  1.00  0.00     0.000 C 
BRANCH   2   3
ATOM      3  C   UNL     1      23.864  -9.942  20.252  1.00  0.00     0.000 C 
BRANCH   3   4
ATOM      4  C   UNL     1      25.402  -9.841  20.198  1.00  0.00     0.000 C 
BRANCH   4   5
ATOM      5  C   UNL     1      25.996  -9.639  18.792  1.00  0.00     0.000 C 
BRANCH   5   6
ATOM      6  C   UNL     1      27.534  -9.579  18.737  1.00  0.00     0.000 C 
BRANCH   6   7
ATOM      7  C   UNL     1      28.093  -8.199  18.322  1.00  0.00     0.000 C 
BRANCH   7   8
ATOM      8  C   UNL     1      27.899  -7.849  16.832  1.00  0.00     0.000 C 
BRANCH   8   9
ATOM      9  C   UNL     1      28.781  -6.699  16.302  1.00  0.00     0.000 C 
BRANCH   9  10
ATOM     10  C   UNL     1      29.506  -6.985  14.972  1.00  0.00     0.000 C 
BRANCH  10  11
ATOM     11  C   UNL     1      31.033  -6.780  15.004  1.00  0.00     0.000 C 
BRANCH  11  12
ATOM     12  C   UNL     1      31.512  -5.376  14.584  1.00  0.00     0.006 C 
BRANCH  12  13
ATOM     13  C   UNL     1      30.756  -4.776  13.388  1.00  0.00     0.053 C 
BRANCH  13  14
ATOM     14  C   UNL     1      30.714  -3.279  13.444  1.00  0.00     0.041 C 
ATOM     15  O   UNL     1      30.239  -2.696  14.453  1.00  0.00    -0.550 OA
ATOM     16  O   UNL     1      31.189  -2.528  12.375  1.00  0.00    -0.550 OA
ENDBRANCH  13  14
ENDBRANCH  12  13
ENDBRANCH  11  12
ENDBRANCH  10  11
ENDBRANCH   9  10
ENDBRANCH   8   9
ENDBRANCH   7   8
ENDBRANCH   6   7
ENDBRANCH   5   6
ENDBRANCH   4   5
ENDBRANCH   3   4
ENDBRANCH   2   3
ENDBRANCH   1   2
BRANCH   1  17
ATOM     17  C   UNL     1      22.645 -12.917  21.082  1.00  0.00     0.000 C 
BRANCH  17  18
ATOM     18  C   UNL     1      22.659 -13.240  19.578  1.00  0.00     0.000 C 
BRANCH  18  19
ATOM     19  C   UNL     1      23.847 -14.141  19.189  1.00  0.00     0.000 C 
BRANCH  19  20
ATOM     20  C   UNL     1      24.622 -13.653  17.948  1.00  0.00     0.000 C 
BRANCH  20  21
ATOM     21  C   UNL     1      24.041 -12.395  17.271  1.00  0.00     0.000 C 
BRANCH  21  22
ATOM     22  C   UNL     1      24.533 -12.131  15.832  1.00  0.00    -0.000 C 
BRANCH  22  23
ATOM     23  C   UNL     1      25.208 -10.765  15.611  1.00  0.00    -0.000 C 
BRANCH  23  24
ATOM     24  C   UNL     1      26.395 -10.775  14.628  1.00  0.00    -0.000 C 
BRANCH  24  25
ATOM     25  C   UNL     1      27.753 -11.092  15.291  1.00  0.00    -0.000 C 
BRANCH  25  26
ATOM     26  C   UNL     1      28.918 -11.105  14.286  1.00  0.00    -0.000 C 
BRANCH  26  27
ATOM     27  C   UNL     1      30.279 -10.848  14.955  1.00  0.00    -0.000 C 
BRANCH  27  28
ATOM     28  C   UNL     1      30.197 -10.874  16.492  1.00  0.00    -0.000 C 
BRANCH  28  29
ATOM     29  C   UNL     1      30.975  -9.721  17.144  1.00  0.00    -0.003 C 
ATOM     30  C   UNL     1      32.405  -9.600  16.616  1.00  0.00     0.004 C 
ENDBRANCH  28  29
ENDBRANCH  27  28
ENDBRANCH  26  27
ENDBRANCH  25  26
ENDBRANCH  24  25
ENDBRANCH  23  24
ENDBRANCH  22  23
ENDBRANCH  21  22
ENDBRANCH  20  21
ENDBRANCH  19  20
ENDBRANCH  18  19
ENDBRANCH  17  18
ENDBRANCH   1  17
TORSDOF 26
ENDMDL
MODEL 6
REMARK VINA RESULT:    -5.033      4.117      5.919
REMARK INTER + INTRA:         -16.257
REMARK INTER:                 -13.586
REMARK INTRA:                  -2.671
REMARK UNBOUND:                -3.573
REMARK SMILES CCCCCCCCCCCCCCCCCCCCCCCCCCCC(=O)[O-]
REMARK SMILES IDX 15 1 16 2 17 3 18 4 19 5 20 6 21 7 22 8 23 9 24 10 25 11
REMARK SMILES IDX 26 12 27 13 28 14 29 15 30 16 14 17 13 18 12 19 11 20 10 21
REMARK SMILES IDX 9 22 8 23 7 24 6 25 5 26 4 27 3 28 2 29 1 30
REMARK H PARENT
REMARK Flexibility Score: inf
ROOT
ATOM      1  C   UNL     1      26.401  -9.817  18.625  1.00  0.00     0.000 C 
ENDROOT
BRANCH   1   2
ATOM      2  C   UNL     1      27.350  -8.662  18.256  1.00  0.00     0.000 C 
BRANCH   2   3
ATOM      3  C   UNL     1      28.782  -9.146  17.942  1.00  0.00     0.000 C 
BRANCH   3   4
ATOM      4  C   UNL     1      29.670  -8.084  17.264  1.00  0.00     0.000 C 
BRANCH   4   5
ATOM      5  C   UNL     1      29.258  -7.704  15.831  1.00  0.00     0.000 C 
BRANCH   5   6
ATOM      6  C   UNL     1      30.262  -6.809  15.080  1.00  0.00     0.000 C 
BRANCH   6   7
ATOM      7  C   UNL     1      29.659  -5.477  14.577  1.00  0.00     0.000 C 
BRANCH   7   8
ATOM      8  C   UNL     1      28.703  -4.788  15.571  1.00  0.00     0.000 C 
BRANCH   8   9
ATOM      9  C   UNL     1      27.218  -4.761  15.152  1.00  0.00     0.000 C 
BRANCH   9  10
ATOM     10  C   UNL     1      26.377  -3.633  15.782  1.00  0.00     0.000 C 
BRANCH  10  11
ATOM     11  C   UNL     1      25.788  -2.621  14.780  1.00  0.00     0.000 C 
BRANCH  11  12
ATOM     12  C   UNL     1      25.049  -3.245  13.580  1.00  0.00     0.006 C 
BRANCH  12  13
ATOM     13  C   UNL     1      23.792  -2.479  13.137  1.00  0.00     0.053 C 
BRANCH  13  14
ATOM     14  C   UNL     1      22.742  -2.457  14.205  1.00  0.00     0.041 C 
ATOM     15  O   UNL     1      22.050  -3.484  14.434  1.00  0.00    -0.550 OA
ATOM     16  O   UNL     1      22.518  -1.299  14.939  1.00  0.00    -0.550 OA
ENDBRANCH  13  14
ENDBRANCH  12  13
ENDBRANCH  11  12
ENDBRANCH  10  11
ENDBRANCH   9  10
ENDBRANCH   8   9
ENDBRANCH   7   8
ENDBRANCH   6   7
ENDBRANCH   5   6
ENDBRANCH   4   5
ENDBRANCH   3   4
ENDBRANCH   2   3
ENDBRANCH   1   2
BRANCH   1  17
ATOM     17  C   UNL     1      25.697  -9.603  19.974  1.00  0.00     0.000 C 
BRANCH  17  18
ATOM     18  C   UNL     1      24.212 -10.001  19.941  1.00  0.00     0.000 C 
BRANCH  18  19
ATOM     19  C   UNL     1      23.673 -10.342  21.343  1.00  0.00     0.000 C 
BRANCH  19  20
ATOM     20  C   UNL     1      22.710 -11.547  21.368  1.00  0.00     0.000 C 
BRANCH  20  21
ATOM     21  C   UNL     1      22.398 -12.159  19.986  1.00  0.00     0.000 C 
BRANCH  21  22
ATOM     22  C   UNL     1      23.222 -13.412  19.617  1.00  0.00    -0.000 C 
BRANCH  22  23
ATOM     23  C   UNL     1      23.830 -13.400  18.202  1.00  0.00    -0.000 C 
BRANCH  23  24
ATOM     24  C   UNL     1      23.396 -12.216  17.316  1.00  0.00    -0.000 C 
BRANCH  24  25
ATOM     25  C   UNL     1      24.056 -12.205  15.920  1.00  0.00    -0.000 C 
BRANCH  25  26
ATOM     26  C   UNL     1      24.942 -10.967  15.690  1.00  0.00    -0.000 C 
BRANCH  26  27
ATOM     27  C   UNL     1      26.095 -11.239  14.711  1.00  0.00    -0.000 C 
BRANCH  27  28
ATOM     28  C   UNL     1      27.476 -10.966  15.334  1.00  0.00    -0.000 C 
BRANCH  28  29
ATOM     29  C   UNL     1      28.612 -11.020  14.300  1.00  0.00    -0.003 C 
ATOM     30  C   UNL     1      29.996 -11.089  14.946  1.00  0.00     0.004 C 
ENDBRANCH  28  29
ENDBRANCH  27  28
ENDBRANCH  26  27
ENDBRANCH  25  26
ENDBRANCH  24  25
ENDBRANCH  23  24
ENDBRANCH  22  23
ENDBRANCH  21  22
ENDBRANCH  20  21
ENDBRANCH  19  20
ENDBRANCH  18  19
ENDBRANCH  17  18
ENDBRANCH   1  17
TORSDOF 26
ENDMDL
MODEL 7
REMARK VINA RESULT:    -4.893      2.515      9.687
REMARK INTER + INTRA:         -15.904
REMARK INTER:                 -12.752
REMARK INTRA:                  -3.152
REMARK UNBOUND:                -3.573
REMARK SMILES CCCCCCCCCCCCCCCCCCCCCCCCCCCC(=O)[O-]
REMARK SMILES IDX 15 1 16 2 17 3 18 4 19 5 20 6 21 7 22 8 23 9 24 10 25 11
REMARK SMILES IDX 26 12 27 13 28 14 29 15 30 16 14 17 13 18 12 19 11 20 10 21
REMARK SMILES IDX 9 22 8 23 7 24 6 25 5 26 4 27 3 28 2 29 1 30
REMARK H PARENT
REMARK Flexibility Score: inf
ROOT
ATOM      1  C   UNL     1      28.739  -7.661  15.708  1.00  0.00     0.000 C 
ENDROOT
BRANCH   1   2
ATOM      2  C   UNL     1      28.278  -6.687  16.808  1.00  0.00     0.000 C 
BRANCH   2   3
ATOM      3  C   UNL     1      27.901  -7.408  18.119  1.00  0.00     0.000 C 
BRANCH   3   4
ATOM      4  C   UNL     1      28.293  -8.899  18.151  1.00  0.00     0.000 C 
BRANCH   4   5
ATOM      5  C   UNL     1      27.118  -9.882  18.294  1.00  0.00     0.000 C 
BRANCH   5   6
ATOM      6  C   UNL     1      27.226 -11.156  17.433  1.00  0.00     0.000 C 
BRANCH   6   7
ATOM      7  C   UNL     1      27.444 -10.877  15.928  1.00  0.00     0.000 C 
BRANCH   7   8
ATOM      8  C   UNL     1      26.191 -11.069  15.051  1.00  0.00     0.000 C 
BRANCH   8   9
ATOM      9  C   UNL     1      24.844 -11.044  15.805  1.00  0.00     0.000 C 
BRANCH   9  10
ATOM     10  C   UNL     1      24.082 -12.383  15.834  1.00  0.00     0.000 C 
BRANCH  10  11
ATOM     11  C   UNL     1      23.699 -12.885  17.241  1.00  0.00     0.000 C 
BRANCH  11  12
ATOM     12  C   UNL     1      23.771 -11.823  18.355  1.00  0.00     0.006 C 
BRANCH  12  13
ATOM     13  C   UNL     1      22.744 -12.011  19.483  1.00  0.00     0.053 C 
BRANCH  13  14
ATOM     14  C   UNL     1      23.061 -11.166  20.678  1.00  0.00     0.041 C 
ATOM     15  O   UNL     1      23.712 -10.097  20.544  1.00  0.00    -0.550 OA
ATOM     16  O   UNL     1      22.648 -11.566  21.944  1.00  0.00    -0.550 OA
ENDBRANCH  13  14
ENDBRANCH  12  13
ENDBRANCH  11  12
ENDBRANCH  10  11
ENDBRANCH   9  10
ENDBRANCH   8   9
ENDBRANCH   7   8
ENDBRANCH   6   7
ENDBRANCH   5   6
ENDBRANCH   4   5
ENDBRANCH   3   4
ENDBRANCH   2   3
ENDBRANCH   1   2
BRANCH   1  17
ATOM     17  C   UNL     1      30.129  -7.317  15.153  1.00  0.00     0.000 C 
BRANCH  17  18
ATOM     18  C   UNL     1      31.261  -7.621  16.150  1.00  0.00     0.000 C 
BRANCH  18  19
ATOM     19  C   UNL     1      31.249  -9.091  16.610  1.00  0.00     0.000 C 
BRANCH  19  20
ATOM     20  C   UNL     1      32.630  -9.621  17.047  1.00  0.00     0.000 C 
BRANCH  20  21
ATOM     21  C   UNL     1      33.833  -8.965  16.338  1.00  0.00     0.000 C 
BRANCH  21  22
ATOM     22  C   UNL     1      34.651  -7.979  17.199  1.00  0.00    -0.000 C 
BRANCH  22  23
ATOM     23  C   UNL     1      34.772  -6.555  16.626  1.00  0.00    -0.000 C 
BRANCH  23  24
ATOM     24  C   UNL     1      35.894  -6.363  15.588  1.00  0.00    -0.000 C 
BRANCH  24  25
ATOM     25  C   UNL     1      35.383  -6.105  14.154  1.00  0.00    -0.000 C 
BRANCH  25  26
ATOM     26  C   UNL     1      33.852  -6.202  14.041  1.00  0.00    -0.000 C 
BRANCH  26  27
ATOM     27  C   UNL     1      33.319  -5.630  12.717  1.00  0.00    -0.000 C 
BRANCH  27  28
ATOM     28  C   UNL     1      32.761  -4.204  12.871  1.00  0.00    -0.000 C 
BRANCH  28  29
ATOM     29  C   UNL     1      31.837  -4.059  14.090  1.00  0.00    -0.003 C 
ATOM     30  C   UNL     1      30.357  -4.026  13.708  1.00  0.00     0.004 C 
ENDBRANCH  28  29
ENDBRANCH  27  28
ENDBRANCH  26  27
ENDBRANCH  25  26
ENDBRANCH  24  25
ENDBRANCH  23  24
ENDBRANCH  22  23
ENDBRANCH  21  22
ENDBRANCH  20  21
ENDBRANCH  19  20
ENDBRANCH  18  19
ENDBRANCH  17  18
ENDBRANCH   1  17
TORSDOF 26
ENDMDL
MODEL 8
REMARK VINA RESULT:    -4.886      2.676      9.493
REMARK INTER + INTRA:         -15.886
REMARK INTER:                 -12.351
REMARK INTRA:                  -3.535
REMARK UNBOUND:                -3.573
REMARK SMILES CCCCCCCCCCCCCCCCCCCCCCCCCCCC(=O)[O-]
REMARK SMILES IDX 15 1 16 2 17 3 18 4 19 5 20 6 21 7 22 8 23 9 24 10 25 11
REMARK SMILES IDX 26 12 27 13 28 14 29 15 30 16 14 17 13 18 12 19 11 20 10 21
REMARK SMILES IDX 9 22 8 23 7 24 6 25 5 26 4 27 3 28 2 29 1 30
REMARK H PARENT
REMARK Flexibility Score: inf
ROOT
ATOM      1  C   UNL     1      30.798  -9.317  15.865  1.00  0.00     0.000 C 
ENDROOT
BRANCH   1   2
ATOM      2  C   UNL     1      29.786  -8.155  15.884  1.00  0.00     0.000 C 
BRANCH   2   3
ATOM      3  C   UNL     1      29.630  -7.528  17.285  1.00  0.00     0.000 C 
BRANCH   3   4
ATOM      4  C   UNL     1      28.242  -7.746  17.921  1.00  0.00     0.000 C 
BRANCH   4   5
ATOM      5  C   UNL     1      27.945  -9.189  18.365  1.00  0.00     0.000 C 
BRANCH   5   6
ATOM      6  C   UNL     1      26.824  -9.895  17.579  1.00  0.00     0.000 C 
BRANCH   6   7
ATOM      7  C   UNL     1      27.338 -10.855  16.482  1.00  0.00     0.000 C 
BRANCH   7   8
ATOM      8  C   UNL     1      26.348 -11.097  15.324  1.00  0.00     0.000 C 
BRANCH   8   9
ATOM      9  C   UNL     1      24.855 -10.949  15.688  1.00  0.00     0.000 C 
BRANCH   9  10
ATOM     10  C   UNL     1      24.054 -12.265  15.725  1.00  0.00     0.000 C 
BRANCH  10  11
ATOM     11  C   UNL     1      24.027 -12.975  17.093  1.00  0.00     0.000 C 
BRANCH  11  12
ATOM     12  C   UNL     1      24.028 -12.036  18.315  1.00  0.00     0.006 C 
BRANCH  12  13
ATOM     13  C   UNL     1      22.821 -12.208  19.251  1.00  0.00     0.053 C 
BRANCH  13  14
ATOM     14  C   UNL     1      22.965 -11.404  20.507  1.00  0.00     0.041 C 
ATOM     15  O   UNL     1      22.555 -11.865  21.605  1.00  0.00    -0.550 OA
ATOM     16  O   UNL     1      23.539 -10.139  20.463  1.00  0.00    -0.550 OA
ENDBRANCH  13  14
ENDBRANCH  12  13
ENDBRANCH  11  12
ENDBRANCH  10  11
ENDBRANCH   9  10
ENDBRANCH   8   9
ENDBRANCH   7   8
ENDBRANCH   6   7
ENDBRANCH   5   6
ENDBRANCH   4   5
ENDBRANCH   3   4
ENDBRANCH   2   3
ENDBRANCH   1   2
BRANCH   1  17
ATOM     17  C   UNL     1      31.447  -9.564  17.235  1.00  0.00     0.000 C 
BRANCH  17  18
ATOM     18  C   UNL     1      32.961  -9.291  17.235  1.00  0.00     0.000 C 
BRANCH  18  19
ATOM     19  C   UNL     1      33.373  -8.309  16.122  1.00  0.00     0.000 C 
BRANCH  19  20
ATOM     20  C   UNL     1      34.494  -7.332  16.532  1.00  0.00     0.000 C 
BRANCH  20  21
ATOM     21  C   UNL     1      34.373  -5.915  15.935  1.00  0.00     0.000 C 
BRANCH  21  22
ATOM     22  C   UNL     1      34.782  -5.785  14.452  1.00  0.00    -0.000 C 
BRANCH  22  23
ATOM     23  C   UNL     1      33.749  -5.086  13.548  1.00  0.00    -0.000 C 
BRANCH  23  24
ATOM     24  C   UNL     1      32.567  -5.970  13.106  1.00  0.00    -0.000 C 
BRANCH  24  25
ATOM     25  C   UNL     1      31.193  -5.475  13.607  1.00  0.00    -0.000 C 
BRANCH  25  26
ATOM     26  C   UNL     1      31.311  -4.397  14.699  1.00  0.00    -0.000 C 
BRANCH  26  27
ATOM     27  C   UNL     1      30.083  -4.354  15.623  1.00  0.00    -0.000 C 
BRANCH  27  28
ATOM     28  C   UNL     1      28.802  -3.925  14.885  1.00  0.00    -0.000 C 
BRANCH  28  29
ATOM     29  C   UNL     1      27.597  -4.815  15.225  1.00  0.00    -0.003 C 
ATOM     30  C   UNL     1      26.371  -4.010  15.658  1.00  0.00     0.004 C 
ENDBRANCH  28  29
ENDBRANCH  27  28
ENDBRANCH  26  27
ENDBRANCH  25  26
ENDBRANCH  24  25
ENDBRANCH  23  24
ENDBRANCH  22  23
ENDBRANCH  21  22
ENDBRANCH  20  21
ENDBRANCH  19  20
ENDBRANCH  18  19
ENDBRANCH  17  18
ENDBRANCH   1  17
TORSDOF 26
ENDMDL
