MODEL 1
REMARK VINA RESULT:    -6.440      0.000      0.000
REMARK INTER + INTRA:          -7.858
REMARK INTER:                  -7.569
REMARK INTRA:                  -0.289
REMARK UNBOUND:                -0.289
REMARK SMILES O=c1c(O)c(-c2ccc(O)cc2)oc2cc(O)cc(O)c12
REMARK SMILES IDX 5 1 3 2 2 3 1 4 21 5 19 6 18 7 16 8 15 9 14 10 13 11 6 12
REMARK SMILES IDX 7 13 8 14 9 15 12 16 11 17 10 18 4 20 20 22 17 24
REMARK H PARENT 10 19 4 21 20 23 17 25
REMARK Flexibility Score: inf
ROOT
ATOM      1  C   UNL     1      10.053  12.468 -16.883  1.00  0.00     0.180 A 
ATOM      2  C   UNL     1      10.757  13.566 -16.359  1.00  0.00     0.208 A 
ATOM      3  C   UNL     1      10.823  14.752 -17.106  1.00  0.00     0.238 A 
ATOM      4  O   UNL     1      11.408  15.749 -16.609  1.00  0.00    -0.285 OA
ATOM      5  C   UNL     1      10.199  14.821 -18.375  1.00  0.00     0.111 A 
ATOM      6  C   UNL     1      10.237  15.958 -19.237  1.00  0.00     0.134 A 
ATOM      7  C   UNL     1       9.474  15.961 -20.411  1.00  0.00     0.093 A 
ATOM      8  C   UNL     1       8.727  14.841 -20.788  1.00  0.00     0.123 A 
ATOM      9  C   UNL     1       8.732  13.704 -19.984  1.00  0.00     0.094 A 
ATOM     10  C   UNL     1       9.454  13.685 -18.787  1.00  0.00     0.146 A 
ATOM     11  O   UNL     1       9.422  12.584 -18.046  1.00  0.00    -0.452 OA
ENDROOT
BRANCH   1  12
ATOM     12  C   UNL     1       9.960  11.176 -16.165  1.00  0.00     0.021 A 
ATOM     13  C   UNL     1       8.911  10.912 -15.264  1.00  0.00     0.016 A 
ATOM     14  C   UNL     1       8.857   9.695 -14.579  1.00  0.00     0.047 A 
ATOM     15  C   UNL     1       9.855   8.732 -14.775  1.00  0.00     0.115 A 
ATOM     16  C   UNL     1      10.967  10.213 -16.339  1.00  0.00     0.016 A 
ATOM     17  C   UNL     1      10.910   8.995 -15.654  1.00  0.00     0.047 A 
BRANCH  15  18
ATOM     18  O   UNL     1       9.812   7.514 -14.099  1.00  0.00    -0.508 OA
ATOM     19  H   UNL     1      10.025   7.451 -13.110  1.00  0.00     0.293 HD
ENDBRANCH  15  18
ENDBRANCH   1  12
BRANCH   2  20
ATOM     20  O   UNL     1      11.347  13.484 -15.094  1.00  0.00    -0.502 OA
ATOM     21  H   UNL     1      11.818  12.648 -14.768  1.00  0.00     0.293 HD
ENDBRANCH   2  20
BRANCH   6  22
ATOM     22  O   UNL     1      11.021  17.091 -19.000  1.00  0.00    -0.507 OA
ATOM     23  H   UNL     1      10.680  18.040 -19.025  1.00  0.00     0.293 HD
ENDBRANCH   6  22
BRANCH   8  24
ATOM     24  O   UNL     1       7.985  14.846 -21.966  1.00  0.00    -0.508 OA
ATOM     25  H   UNL     1       7.624  13.989 -22.369  1.00  0.00     0.293 HD
ENDBRANCH   8  24
TORSDOF 5
ENDMDL
MODEL 2
REMARK VINA RESULT:    -6.043      1.869      3.304
REMARK INTER + INTRA:          -7.392
REMARK INTER:                  -7.092
REMARK INTRA:                  -0.300
REMARK UNBOUND:                -0.289
REMARK SMILES O=c1c(O)c(-c2ccc(O)cc2)oc2cc(O)cc(O)c12
REMARK SMILES IDX 5 1 3 2 2 3 1 4 21 5 19 6 18 7 16 8 15 9 14 10 13 11 6 12
REMARK SMILES IDX 7 13 8 14 9 15 12 16 11 17 10 18 4 20 20 22 17 24
REMARK H PARENT 10 19 4 21 20 23 17 25
REMARK Flexibility Score: inf
ROOT
ATOM      1  C   UNL     1       9.216  13.234 -18.425  1.00  0.00     0.180 A 
ATOM      2  C   UNL     1       9.300  13.200 -19.828  1.00  0.00     0.208 A 
ATOM      3  C   UNL     1       9.081  14.382 -20.552  1.00  0.00     0.238 A 
ATOM      4  O   UNL     1       9.210  14.357 -21.803  1.00  0.00    -0.285 OA
ATOM      5  C   UNL     1       8.767  15.580 -19.867  1.00  0.00     0.111 A 
ATOM      6  C   UNL     1       8.485  16.827 -20.502  1.00  0.00     0.134 A 
ATOM      7  C   UNL     1       8.315  17.977 -19.721  1.00  0.00     0.093 A 
ATOM      8  C   UNL     1       8.350  17.912 -18.326  1.00  0.00     0.123 A 
ATOM      9  C   UNL     1       8.564  16.688 -17.696  1.00  0.00     0.094 A 
ATOM     10  C   UNL     1       8.774  15.530 -18.448  1.00  0.00     0.146 A 
ATOM     11  O   UNL     1       8.984  14.387 -17.807  1.00  0.00    -0.452 OA
ENDROOT
BRANCH   1  12
ATOM     12  C   UNL     1       9.409  12.024 -17.593  1.00  0.00     0.021 A 
ATOM     13  C   UNL     1       8.335  11.171 -17.279  1.00  0.00     0.016 A 
ATOM     14  C   UNL     1       8.536  10.048 -16.472  1.00  0.00     0.047 A 
ATOM     15  C   UNL     1       9.809   9.769 -15.958  1.00  0.00     0.115 A 
ATOM     16  C   UNL     1      10.678  11.749 -17.056  1.00  0.00     0.016 A 
ATOM     17  C   UNL     1      10.877  10.624 -16.250  1.00  0.00     0.047 A 
BRANCH  15  18
ATOM     18  O   UNL     1      10.022   8.652 -15.154  1.00  0.00    -0.508 OA
ATOM     19  H   UNL     1       9.811   7.716 -15.481  1.00  0.00     0.293 HD
ENDBRANCH  15  18
ENDBRANCH   1  12
BRANCH   2  20
ATOM     20  O   UNL     1       9.633  12.010 -20.483  1.00  0.00    -0.502 OA
ATOM     21  H   UNL     1      10.397  11.951 -21.145  1.00  0.00     0.293 HD
ENDBRANCH   2  20
BRANCH   6  22
ATOM     22  O   UNL     1       8.339  16.984 -21.884  1.00  0.00    -0.507 OA
ATOM     23  H   UNL     1       9.098  17.155 -22.525  1.00  0.00     0.293 HD
ENDBRANCH   6  22
BRANCH   8  24
ATOM     24  O   UNL     1       8.164  19.058 -17.556  1.00  0.00    -0.508 OA
ATOM     25  H   UNL     1       8.446  19.972 -17.890  1.00  0.00     0.293 HD
ENDBRANCH   8  24
TORSDOF 5
ENDMDL
MODEL 3
REMARK VINA RESULT:    -6.035      2.078      6.935
REMARK INTER + INTRA:          -7.383
REMARK INTER:                  -7.371
REMARK INTRA:                  -0.012
REMARK UNBOUND:                -0.289
REMARK SMILES O=c1c(O)c(-c2ccc(O)cc2)oc2cc(O)cc(O)c12
REMARK SMILES IDX 5 1 3 2 2 3 1 4 21 5 19 6 18 7 16 8 15 9 14 10 13 11 6 12
REMARK SMILES IDX 7 13 8 14 9 15 12 16 11 17 10 18 4 20 20 22 17 24
REMARK H PARENT 10 19 4 21 20 23 17 25
REMARK Flexibility Score: inf
ROOT
ATOM      1  C   UNL     1       9.209  13.171 -18.640  1.00  0.00     0.180 A 
ATOM      2  C   UNL     1       9.731  11.887 -18.874  1.00  0.00     0.208 A 
ATOM      3  C   UNL     1       9.750  10.957 -17.823  1.00  0.00     0.238 A 
ATOM      4  O   UNL     1      10.169   9.793 -18.052  1.00  0.00    -0.285 OA
ATOM      5  C   UNL     1       9.263  11.328 -16.547  1.00  0.00     0.111 A 
ATOM      6  C   UNL     1       9.272  10.480 -15.398  1.00  0.00     0.134 A 
ATOM      7  C   UNL     1       8.645  10.906 -14.220  1.00  0.00     0.093 A 
ATOM      8  C   UNL     1       8.067  12.174 -14.130  1.00  0.00     0.123 A 
ATOM      9  C   UNL     1       8.107  13.032 -15.227  1.00  0.00     0.094 A 
ATOM     10  C   UNL     1       8.693  12.622 -16.427  1.00  0.00     0.146 A 
ATOM     11  O   UNL     1       8.699  13.467 -17.450  1.00  0.00    -0.452 OA
ENDROOT
BRANCH   1  12
ATOM     12  C   UNL     1       9.177  14.213 -19.692  1.00  0.00     0.021 A 
ATOM     13  C   UNL     1       9.750  15.482 -19.485  1.00  0.00     0.016 A 
ATOM     14  C   UNL     1       9.687  16.458 -20.483  1.00  0.00     0.047 A 
ATOM     15  C   UNL     1       9.040  16.184 -21.695  1.00  0.00     0.115 A 
ATOM     16  C   UNL     1       8.512  13.955 -20.902  1.00  0.00     0.016 A 
ATOM     17  C   UNL     1       8.451  14.933 -21.900  1.00  0.00     0.047 A 
BRANCH  15  18
ATOM     18  O   UNL     1       8.970  17.149 -22.698  1.00  0.00    -0.508 OA
ATOM     19  H   UNL     1       8.089  17.575 -22.962  1.00  0.00     0.293 HD
ENDBRANCH  15  18
ENDBRANCH   1  12
BRANCH   2  20
ATOM     20  O   UNL     1      10.187  11.535 -20.149  1.00  0.00    -0.502 OA
ATOM     21  H   UNL     1      10.304  12.214 -20.891  1.00  0.00     0.293 HD
ENDBRANCH   2  20
BRANCH   6  22
ATOM     22  O   UNL     1       9.901   9.232 -15.354  1.00  0.00    -0.507 OA
ATOM     23  H   UNL     1       9.420   8.350 -15.262  1.00  0.00     0.293 HD
ENDBRANCH   6  22
BRANCH   8  24
ATOM     24  O   UNL     1       7.459  12.596 -12.950  1.00  0.00    -0.508 OA
ATOM     25  H   UNL     1       7.573  13.542 -12.604  1.00  0.00     0.293 HD
ENDBRANCH   8  24
TORSDOF 5
ENDMDL
MODEL 4
REMARK VINA RESULT:    -5.876      1.818      2.404
REMARK INTER + INTRA:          -7.195
REMARK INTER:                  -6.895
REMARK INTRA:                  -0.301
REMARK UNBOUND:                -0.289
REMARK SMILES O=c1c(O)c(-c2ccc(O)cc2)oc2cc(O)cc(O)c12
REMARK SMILES IDX 5 1 3 2 2 3 1 4 21 5 19 6 18 7 16 8 15 9 14 10 13 11 6 12
REMARK SMILES IDX 7 13 8 14 9 15 12 16 11 17 10 18 4 20 20 22 17 24
REMARK H PARENT 10 19 4 21 20 23 17 25
REMARK Flexibility Score: inf
ROOT
ATOM      1  C   UNL     1       9.289  13.808 -17.857  1.00  0.00     0.180 A 
ATOM      2  C   UNL     1       8.882  14.946 -17.139  1.00  0.00     0.208 A 
ATOM      3  C   UNL     1       8.586  16.125 -17.842  1.00  0.00     0.238 A 
ATOM      4  O   UNL     1       8.170  17.124 -17.200  1.00  0.00    -0.285 OA
ATOM      5  C   UNL     1       8.715  16.155 -19.251  1.00  0.00     0.111 A 
ATOM      6  C   UNL     1       8.481  17.307 -20.062  1.00  0.00     0.134 A 
ATOM      7  C   UNL     1       8.512  17.188 -21.457  1.00  0.00     0.093 A 
ATOM      8  C   UNL     1       8.834  15.974 -22.069  1.00  0.00     0.123 A 
ATOM      9  C   UNL     1       9.124  14.859 -21.285  1.00  0.00     0.094 A 
ATOM     10  C   UNL     1       9.065  14.938 -19.892  1.00  0.00     0.146 A 
ATOM     11  O   UNL     1       9.337  13.849 -19.184  1.00  0.00    -0.452 OA
ENDROOT
BRANCH   1  12
ATOM     12  C   UNL     1       9.642  12.537 -17.185  1.00  0.00     0.021 A 
ATOM     13  C   UNL     1      10.958  12.272 -16.760  1.00  0.00     0.016 A 
ATOM     14  C   UNL     1      11.273  11.055 -16.150  1.00  0.00     0.047 A 
ATOM     15  C   UNL     1      10.282  10.082 -15.967  1.00  0.00     0.115 A 
ATOM     16  C   UNL     1       8.660  11.547 -17.016  1.00  0.00     0.016 A 
ATOM     17  C   UNL     1       8.978  10.330 -16.404  1.00  0.00     0.047 A 
BRANCH  15  18
ATOM     18  O   UNL     1      10.584   8.866 -15.359  1.00  0.00    -0.508 OA
ATOM     19  H   UNL     1      11.448   8.731 -14.846  1.00  0.00     0.293 HD
ENDBRANCH  15  18
ENDBRANCH   1  12
BRANCH   2  20
ATOM     20  O   UNL     1       8.740  14.888 -15.749  1.00  0.00    -0.502 OA
ATOM     21  H   UNL     1       9.065  15.627 -15.138  1.00  0.00     0.293 HD
ENDBRANCH   2  20
BRANCH   6  22
ATOM     22  O   UNL     1       8.241  18.586 -19.551  1.00  0.00    -0.507 OA
ATOM     23  H   UNL     1       7.334  19.025 -19.506  1.00  0.00     0.293 HD
ENDBRANCH   6  22
BRANCH   8  24
ATOM     24  O   UNL     1       8.879  15.868 -23.457  1.00  0.00    -0.508 OA
ATOM     25  H   UNL     1       9.381  15.116 -23.915  1.00  0.00     0.293 HD
ENDBRANCH   8  24
TORSDOF 5
ENDMDL
MODEL 5
REMARK VINA RESULT:    -5.823      1.446      3.308
REMARK INTER + INTRA:          -7.133
REMARK INTER:                  -6.888
REMARK INTRA:                  -0.245
REMARK UNBOUND:                -0.289
REMARK SMILES O=c1c(O)c(-c2ccc(O)cc2)oc2cc(O)cc(O)c12
REMARK SMILES IDX 5 1 3 2 2 3 1 4 21 5 19 6 18 7 16 8 15 9 14 10 13 11 6 12
REMARK SMILES IDX 7 13 8 14 9 15 12 16 11 17 10 18 4 20 20 22 17 24
REMARK H PARENT 10 19 4 21 20 23 17 25
REMARK Flexibility Score: inf
ROOT
ATOM      1  C   UNL     1       8.930  11.437 -17.467  1.00  0.00     0.180 A 
ATOM      2  C   UNL     1       8.120  11.183 -18.588  1.00  0.00     0.208 A 
ATOM      3  C   UNL     1       7.973  12.183 -19.563  1.00  0.00     0.238 A 
ATOM      4  O   UNL     1       7.290  11.930 -20.589  1.00  0.00    -0.285 OA
ATOM      5  C   UNL     1       8.624  13.428 -19.397  1.00  0.00     0.111 A 
ATOM      6  C   UNL     1       8.513  14.527 -20.301  1.00  0.00     0.134 A 
ATOM      7  C   UNL     1       9.305  15.666 -20.106  1.00  0.00     0.093 A 
ATOM      8  C   UNL     1      10.156  15.770 -19.003  1.00  0.00     0.123 A 
ATOM      9  C   UNL     1      10.226  14.728 -18.082  1.00  0.00     0.094 A 
ATOM     10  C   UNL     1       9.475  13.564 -18.270  1.00  0.00     0.146 A 
ATOM     11  O   UNL     1       9.581  12.591 -17.374  1.00  0.00    -0.452 OA
ENDROOT
BRANCH   1  12
ATOM     12  C   UNL     1       9.114  10.442 -16.386  1.00  0.00     0.021 A 
ATOM     13  C   UNL     1      10.275   9.651 -16.307  1.00  0.00     0.016 A 
ATOM     14  C   UNL     1      10.416   8.701 -15.292  1.00  0.00     0.047 A 
ATOM     15  C   UNL     1       9.395   8.520 -14.350  1.00  0.00     0.115 A 
ATOM     16  C   UNL     1       8.086  10.239 -15.450  1.00  0.00     0.016 A 
ATOM     17  C   UNL     1       8.231   9.289 -14.434  1.00  0.00     0.047 A 
BRANCH  15  18
ATOM     18  O   UNL     1       9.525   7.577 -13.333  1.00  0.00    -0.508 OA
ATOM     19  H   UNL     1       8.713   7.186 -12.868  1.00  0.00     0.293 HD
ENDBRANCH  15  18
ENDBRANCH   1  12
BRANCH   2  20
ATOM     20  O   UNL     1       7.503   9.938 -18.741  1.00  0.00    -0.502 OA
ATOM     21  H   UNL     1       6.511   9.841 -18.921  1.00  0.00     0.293 HD
ENDBRANCH   2  20
BRANCH   6  22
ATOM     22  O   UNL     1       7.627  14.562 -21.383  1.00  0.00    -0.507 OA
ATOM     23  H   UNL     1       6.706  14.151 -21.384  1.00  0.00     0.293 HD
ENDBRANCH   6  22
BRANCH   8  24
ATOM     24  O   UNL     1      10.929  16.912 -18.808  1.00  0.00    -0.508 OA
ATOM     25  H   UNL     1      10.507  17.830 -18.725  1.00  0.00     0.293 HD
ENDBRANCH   8  24
TORSDOF 5
ENDMDL
MODEL 6
REMARK VINA RESULT:    -5.799      2.578      3.301
REMARK INTER + INTRA:          -7.105
REMARK INTER:                  -6.941
REMARK INTRA:                  -0.164
REMARK UNBOUND:                -0.289
REMARK SMILES O=c1c(O)c(-c2ccc(O)cc2)oc2cc(O)cc(O)c12
REMARK SMILES IDX 5 1 3 2 2 3 1 4 21 5 19 6 18 7 16 8 15 9 14 10 13 11 6 12
REMARK SMILES IDX 7 13 8 14 9 15 12 16 11 17 10 18 4 20 20 22 17 24
REMARK H PARENT 10 19 4 21 20 23 17 25
REMARK Flexibility Score: inf
ROOT
ATOM      1  C   UNL     1       8.433  13.146 -17.507  1.00  0.00     0.180 A 
ATOM      2  C   UNL     1       8.877  12.508 -18.679  1.00  0.00     0.208 A 
ATOM      3  C   UNL     1       9.047  13.270 -19.846  1.00  0.00     0.238 A 
ATOM      4  O   UNL     1       9.496  12.704 -20.876  1.00  0.00    -0.285 OA
ATOM      5  C   UNL     1       8.755  14.654 -19.832  1.00  0.00     0.111 A 
ATOM      6  C   UNL     1       8.851  15.515 -20.967  1.00  0.00     0.134 A 
ATOM      7  C   UNL     1       8.664  16.894 -20.807  1.00  0.00     0.093 A 
ATOM      8  C   UNL     1       8.319  17.434 -19.566  1.00  0.00     0.123 A 
ATOM      9  C   UNL     1       8.163  16.595 -18.465  1.00  0.00     0.094 A 
ATOM     10  C   UNL     1       8.379  15.220 -18.585  1.00  0.00     0.146 A 
ATOM     11  O   UNL     1       8.230  14.459 -17.509  1.00  0.00    -0.452 OA
ENDROOT
BRANCH   1  12
ATOM     12  C   UNL     1       8.207  12.406 -16.244  1.00  0.00     0.021 A 
ATOM     13  C   UNL     1       7.206  11.422 -16.140  1.00  0.00     0.016 A 
ATOM     14  C   UNL     1       6.994  10.754 -14.931  1.00  0.00     0.047 A 
ATOM     15  C   UNL     1       7.770  11.069 -13.808  1.00  0.00     0.115 A 
ATOM     16  C   UNL     1       8.965  12.730 -15.107  1.00  0.00     0.016 A 
ATOM     17  C   UNL     1       8.752  12.059 -13.899  1.00  0.00     0.047 A 
BRANCH  15  18
ATOM     18  O   UNL     1       7.569  10.409 -12.597  1.00  0.00    -0.508 OA
ATOM     19  H   UNL     1       7.559  10.911 -11.717  1.00  0.00     0.293 HD
ENDBRANCH  15  18
ENDBRANCH   1  12
BRANCH   2  20
ATOM     20  O   UNL     1       9.180  11.143 -18.665  1.00  0.00    -0.502 OA
ATOM     21  H   UNL     1       8.489  10.431 -18.868  1.00  0.00     0.293 HD
ENDBRANCH   2  20
BRANCH   6  22
ATOM     22  O   UNL     1       9.101  15.066 -22.268  1.00  0.00    -0.507 OA
ATOM     23  H   UNL     1       9.512  15.626 -22.999  1.00  0.00     0.293 HD
ENDBRANCH   6  22
BRANCH   8  24
ATOM     24  O   UNL     1       8.119  18.804 -19.419  1.00  0.00    -0.508 OA
ATOM     25  H   UNL     1       8.030  19.416 -20.222  1.00  0.00     0.293 HD
ENDBRANCH   8  24
TORSDOF 5
ENDMDL
MODEL 7
REMARK VINA RESULT:    -5.774      2.303      6.970
REMARK INTER + INTRA:          -7.075
REMARK INTER:                  -6.920
REMARK INTRA:                  -0.156
REMARK UNBOUND:                -0.289
REMARK SMILES O=c1c(O)c(-c2ccc(O)cc2)oc2cc(O)cc(O)c12
REMARK SMILES IDX 5 1 3 2 2 3 1 4 21 5 19 6 18 7 16 8 15 9 14 10 13 11 6 12
REMARK SMILES IDX 7 13 8 14 9 15 12 16 11 17 10 18 4 20 20 22 17 24
REMARK H PARENT 10 19 4 21 20 23 17 25
REMARK Flexibility Score: inf
ROOT
ATOM      1  C   UNL     1       8.948  14.652 -18.261  1.00  0.00     0.180 A 
ATOM      2  C   UNL     1       9.312  13.894 -19.387  1.00  0.00     0.208 A 
ATOM      3  C   UNL     1       9.564  12.522 -19.232  1.00  0.00     0.238 A 
ATOM      4  O   UNL     1       9.837  11.838 -20.252  1.00  0.00    -0.285 OA
ATOM      5  C   UNL     1       9.464  11.928 -17.951  1.00  0.00     0.111 A 
ATOM      6  C   UNL     1       9.737  10.555 -17.670  1.00  0.00     0.134 A 
ATOM      7  C   UNL     1       9.479  10.047 -16.390  1.00  0.00     0.093 A 
ATOM      8  C   UNL     1       9.021  10.878 -15.365  1.00  0.00     0.123 A 
ATOM      9  C   UNL     1       8.809  12.232 -15.613  1.00  0.00     0.094 A 
ATOM     10  C   UNL     1       9.022  12.760 -16.889  1.00  0.00     0.146 A 
ATOM     11  O   UNL     1       8.798  14.054 -17.084  1.00  0.00    -0.452 OA
ENDROOT
BRANCH   1  12
ATOM     12  C   UNL     1       8.690  16.108 -18.340  1.00  0.00     0.021 A 
ATOM     13  C   UNL     1       7.396  16.635 -18.170  1.00  0.00     0.016 A 
ATOM     14  C   UNL     1       7.173  18.010 -18.274  1.00  0.00     0.047 A 
ATOM     15  C   UNL     1       8.235  18.876 -18.562  1.00  0.00     0.115 A 
ATOM     16  C   UNL     1       9.746  16.982 -18.650  1.00  0.00     0.016 A 
ATOM     17  C   UNL     1       9.520  18.358 -18.752  1.00  0.00     0.047 A 
BRANCH  15  18
ATOM     18  O   UNL     1       8.025  20.250 -18.667  1.00  0.00    -0.508 OA
ATOM     19  H   UNL     1       8.620  20.914 -18.184  1.00  0.00     0.293 HD
ENDBRANCH  15  18
ENDBRANCH   1  12
BRANCH   2  20
ATOM     20  O   UNL     1       9.384  14.496 -20.647  1.00  0.00    -0.502 OA
ATOM     21  H   UNL     1       8.895  15.356 -20.866  1.00  0.00     0.293 HD
ENDBRANCH   2  20
BRANCH   6  22
ATOM     22  O   UNL     1      10.282   9.662 -18.598  1.00  0.00    -0.507 OA
ATOM     23  H   UNL     1      11.268   9.486 -18.714  1.00  0.00     0.293 HD
ENDBRANCH   6  22
BRANCH   8  24
ATOM     24  O   UNL     1       8.782  10.368 -14.091  1.00  0.00    -0.508 OA
ATOM     25  H   UNL     1       9.156  10.816 -13.262  1.00  0.00     0.293 HD
ENDBRANCH   8  24
TORSDOF 5
ENDMDL
MODEL 8
REMARK VINA RESULT:    -5.486      2.632      6.692
REMARK INTER + INTRA:          -6.738
REMARK INTER:                  -6.451
REMARK INTRA:                  -0.287
REMARK UNBOUND:                -0.289
REMARK SMILES O=c1c(O)c(-c2ccc(O)cc2)oc2cc(O)cc(O)c12
REMARK SMILES IDX 5 1 3 2 2 3 1 4 21 5 19 6 18 7 16 8 15 9 14 10 13 11 6 12
REMARK SMILES IDX 7 13 8 14 9 15 12 16 11 17 10 18 4 20 20 22 17 24
REMARK H PARENT 10 19 4 21 20 23 17 25
REMARK Flexibility Score: inf
ROOT
ATOM      1  C   UNL     1       8.519  14.561 -16.967  1.00  0.00     0.180 A 
ATOM      2  C   UNL     1       8.981  14.322 -15.661  1.00  0.00     0.208 A 
ATOM      3  C   UNL     1       8.968  13.009 -15.164  1.00  0.00     0.238 A 
ATOM      4  O   UNL     1       9.432  12.794 -14.014  1.00  0.00    -0.285 OA
ATOM      5  C   UNL     1       8.478  11.955 -15.972  1.00  0.00     0.111 A 
ATOM      6  C   UNL     1       8.380  10.593 -15.555  1.00  0.00     0.134 A 
ATOM      7  C   UNL     1       8.004   9.613 -16.482  1.00  0.00     0.093 A 
ATOM      8  C   UNL     1       7.659   9.955 -17.792  1.00  0.00     0.123 A 
ATOM      9  C   UNL     1       7.693  11.289 -18.190  1.00  0.00     0.094 A 
ATOM     10  C   UNL     1       8.100  12.285 -17.299  1.00  0.00     0.146 A 
ATOM     11  O   UNL     1       8.128  13.542 -17.724  1.00  0.00    -0.452 OA
ENDROOT
BRANCH   1  12
ATOM     12  C   UNL     1       8.480  15.921 -17.553  1.00  0.00     0.021 A 
ATOM     13  C   UNL     1       9.559  16.430 -18.299  1.00  0.00     0.016 A 
ATOM     14  C   UNL     1       9.510  17.725 -18.821  1.00  0.00     0.047 A 
ATOM     15  C   UNL     1       8.388  18.533 -18.595  1.00  0.00     0.115 A 
ATOM     16  C   UNL     1       7.368  16.746 -17.313  1.00  0.00     0.016 A 
ATOM     17  C   UNL     1       7.320  18.041 -17.838  1.00  0.00     0.047 A 
BRANCH  15  18
ATOM     18  O   UNL     1       8.326  19.825 -19.111  1.00  0.00    -0.508 OA
ATOM     19  H   UNL     1       8.697  20.618 -18.599  1.00  0.00     0.293 HD
ENDBRANCH  15  18
ENDBRANCH   1  12
BRANCH   2  20
ATOM     20  O   UNL     1       9.480  15.375 -14.888  1.00  0.00    -0.502 OA
ATOM     21  H   UNL     1       9.562  15.317 -13.880  1.00  0.00     0.293 HD
ENDBRANCH   2  20
BRANCH   6  22
ATOM     22  O   UNL     1       8.614  10.158 -14.247  1.00  0.00    -0.507 OA
ATOM     23  H   UNL     1       9.519   9.910 -13.879  1.00  0.00     0.293 HD
ENDBRANCH   6  22
BRANCH   8  24
ATOM     24  O   UNL     1       7.270   8.976 -18.703  1.00  0.00    -0.508 OA
ATOM     25  H   UNL     1       7.932   8.302 -19.072  1.00  0.00     0.293 HD
ENDBRANCH   8  24
TORSDOF 5
ENDMDL
MODEL 9
REMARK VINA RESULT:    -5.465      2.482      7.284
REMARK INTER + INTRA:          -6.713
REMARK INTER:                  -6.424
REMARK INTRA:                  -0.289
REMARK UNBOUND:                -0.289
REMARK SMILES O=c1c(O)c(-c2ccc(O)cc2)oc2cc(O)cc(O)c12
REMARK SMILES IDX 5 1 3 2 2 3 1 4 21 5 19 6 18 7 16 8 15 9 14 10 13 11 6 12
REMARK SMILES IDX 7 13 8 14 9 15 12 16 11 17 10 18 4 20 20 22 17 24
REMARK H PARENT 10 19 4 21 20 23 17 25
REMARK Flexibility Score: inf
ROOT
ATOM      1  C   UNL     1       8.015  11.596 -16.177  1.00  0.00     0.180 A 
ATOM      2  C   UNL     1       8.053  12.164 -14.892  1.00  0.00     0.208 A 
ATOM      3  C   UNL     1       7.917  11.327 -13.773  1.00  0.00     0.238 A 
ATOM      4  O   UNL     1       8.006  11.833 -12.625  1.00  0.00    -0.285 OA
ATOM      5  C   UNL     1       7.729   9.935 -13.954  1.00  0.00     0.111 A 
ATOM      6  C   UNL     1       7.539   8.999 -12.894  1.00  0.00     0.134 A 
ATOM      7  C   UNL     1       7.494   7.629 -13.182  1.00  0.00     0.093 A 
ATOM      8  C   UNL     1       7.565   7.167 -14.498  1.00  0.00     0.123 A 
ATOM      9  C   UNL     1       7.690   8.078 -15.545  1.00  0.00     0.094 A 
ATOM     10  C   UNL     1       7.775   9.448 -15.286  1.00  0.00     0.146 A 
ATOM     11  O   UNL     1       7.903  10.280 -16.312  1.00  0.00    -0.452 OA
ENDROOT
BRANCH   1  12
ATOM     12  C   UNL     1       8.127  12.417 -17.405  1.00  0.00     0.021 A 
ATOM     13  C   UNL     1       9.378  12.722 -17.972  1.00  0.00     0.016 A 
ATOM     14  C   UNL     1       9.461  13.519 -19.117  1.00  0.00     0.047 A 
ATOM     15  C   UNL     1       8.296  14.031 -19.703  1.00  0.00     0.115 A 
ATOM     16  C   UNL     1       6.966  12.953 -17.987  1.00  0.00     0.016 A 
ATOM     17  C   UNL     1       7.051  13.749 -19.134  1.00  0.00     0.047 A 
BRANCH  15  18
ATOM     18  O   UNL     1       8.366  14.826 -20.845  1.00  0.00    -0.508 OA
ATOM     19  H   UNL     1       9.149  14.765 -21.485  1.00  0.00     0.293 HD
ENDBRANCH  15  18
ENDBRANCH   1  12
BRANCH   2  20
ATOM     20  O   UNL     1       8.261  13.538 -14.736  1.00  0.00    -0.502 OA
ATOM     21  H   UNL     1       8.271  13.986 -13.827  1.00  0.00     0.293 HD
ENDBRANCH   2  20
BRANCH   6  22
ATOM     22  O   UNL     1       7.365   9.361 -11.554  1.00  0.00    -0.507 OA
ATOM     23  H   UNL     1       6.708  10.053 -11.228  1.00  0.00     0.293 HD
ENDBRANCH   6  22
BRANCH   8  24
ATOM     24  O   UNL     1       7.503   5.804 -14.777  1.00  0.00    -0.508 OA
ATOM     25  H   UNL     1       6.798   5.421 -15.396  1.00  0.00     0.293 HD
ENDBRANCH   8  24
TORSDOF 5
ENDMDL
