MODEL 1
REMARK VINA RESULT:    -3.310      0.000      0.000
REMARK INTER + INTRA:          -6.027
REMARK INTER:                  -5.245
REMARK INTRA:                  -0.782
REMARK UNBOUND:                -0.782
REMARK SMILES CCCCCCCCCCCC(=O)[O-]
REMARK SMILES IDX 7 1 8 2 9 3 10 4 11 5 12 6 13 7 14 8 6 9 5 10 4 11 3 12 2 13
REMARK SMILES IDX 1 14
REMARK H PARENT
REMARK Flexibility Score: inf
ROOT
ATOM      1  C   UNL     1     111.892  61.995 219.995  1.00  0.00     0.000 C 
ENDROOT
BRANCH   1   2
ATOM      2  C   UNL     1     112.095  63.451 220.432  1.00  0.00     0.000 C 
BRANCH   2   3
ATOM      3  C   UNL     1     112.856  64.245 219.364  1.00  0.00     0.000 C 
BRANCH   3   4
ATOM      4  C   UNL     1     112.004  65.401 218.826  1.00  0.00     0.006 C 
BRANCH   4   5
ATOM      5  C   UNL     1     112.150  65.532 217.308  1.00  0.00     0.053 C 
BRANCH   5   6
ATOM      6  C   UNL     1     113.091  66.644 216.966  1.00  0.00     0.041 C 
ATOM      7  O   UNL     1     112.888  67.805 217.410  1.00  0.00    -0.550 OA
ATOM      8  O   UNL     1     114.165  66.410 216.117  1.00  0.00    -0.550 OA
ENDBRANCH   5   6
ENDBRANCH   4   5
ENDBRANCH   3   4
ENDBRANCH   2   3
ENDBRANCH   1   2
BRANCH   1   9
ATOM      9  C   UNL     1     112.200  61.820 218.504  1.00  0.00     0.000 C 
BRANCH   9  10
ATOM     10  C   UNL     1     110.985  61.264 217.752  1.00  0.00    -0.000 C 
BRANCH  10  11
ATOM     11  C   UNL     1     110.693  62.089 216.489  1.00  0.00    -0.000 C 
BRANCH  11  12
ATOM     12  C   UNL     1     109.799  61.329 215.488  1.00  0.00    -0.000 C 
BRANCH  12  13
ATOM     13  C   UNL     1     108.479  62.052 215.169  1.00  0.00    -0.003 C 
ATOM     14  C   UNL     1     107.261  61.375 215.793  1.00  0.00     0.004 C 
ENDBRANCH  12  13
ENDBRANCH  11  12
ENDBRANCH  10  11
ENDBRANCH   9  10
ENDBRANCH   1   9
TORSDOF 10
ENDMDL
MODEL 2
REMARK VINA RESULT:    -3.275     13.297     15.896
REMARK INTER + INTRA:          -5.972
REMARK INTER:                  -5.153
REMARK INTRA:                  -0.818
REMARK UNBOUND:                -0.782
REMARK SMILES CCCCCCCCCCCC(=O)[O-]
REMARK SMILES IDX 7 1 8 2 9 3 10 4 11 5 12 6 13 7 14 8 6 9 5 10 4 11 3 12 2 13
REMARK SMILES IDX 1 14
REMARK H PARENT
REMARK Flexibility Score: inf
ROOT
ATOM      1  C   UNL     1     113.499  56.618 229.621  1.00  0.00     0.000 C 
ENDROOT
BRANCH   1   2
ATOM      2  C   UNL     1     114.314  55.685 228.717  1.00  0.00     0.000 C 
BRANCH   2   3
ATOM      3  C   UNL     1     113.797  54.244 228.803  1.00  0.00     0.000 C 
BRANCH   3   4
ATOM      4  C   UNL     1     113.549  53.664 227.406  1.00  0.00     0.006 C 
BRANCH   4   5
ATOM      5  C   UNL     1     113.373  54.779 226.372  1.00  0.00     0.053 C 
BRANCH   5   6
ATOM      6  C   UNL     1     111.942  54.878 225.947  1.00  0.00     0.041 C 
ATOM      7  O   UNL     1     111.052  55.182 226.784  1.00  0.00    -0.550 OA
ATOM      8  O   UNL     1     111.584  54.586 224.636  1.00  0.00    -0.550 OA
ENDBRANCH   5   6
ENDBRANCH   4   5
ENDBRANCH   3   4
ENDBRANCH   2   3
ENDBRANCH   1   2
BRANCH   1   9
ATOM      9  C   UNL     1     112.261  55.904 230.175  1.00  0.00     0.000 C 
BRANCH   9  10
ATOM     10  C   UNL     1     112.257  55.921 231.709  1.00  0.00    -0.000 C 
BRANCH  10  11
ATOM     11  C   UNL     1     113.319  54.965 232.273  1.00  0.00    -0.000 C 
BRANCH  11  12
ATOM     12  C   UNL     1     112.692  53.742 232.973  1.00  0.00    -0.000 C 
BRANCH  12  13
ATOM     13  C   UNL     1     113.729  52.733 233.496  1.00  0.00    -0.003 C 
ATOM     14  C   UNL     1     114.894  53.397 234.225  1.00  0.00     0.004 C 
ENDBRANCH  12  13
ENDBRANCH  11  12
ENDBRANCH  10  11
ENDBRANCH   9  10
ENDBRANCH   1   9
TORSDOF 10
ENDMDL
MODEL 3
REMARK VINA RESULT:    -3.263      1.883      3.613
REMARK INTER + INTRA:          -5.952
REMARK INTER:                  -5.386
REMARK INTRA:                  -0.565
REMARK UNBOUND:                -0.782
REMARK SMILES CCCCCCCCCCCC(=O)[O-]
REMARK SMILES IDX 7 1 8 2 9 3 10 4 11 5 12 6 13 7 14 8 6 9 5 10 4 11 3 12 2 13
REMARK SMILES IDX 1 14
REMARK H PARENT
REMARK Flexibility Score: inf
ROOT
ATOM      1  C   UNL     1     110.087  62.074 215.975  1.00  0.00     0.000 C 
ENDROOT
BRANCH   1   2
ATOM      2  C   UNL     1     110.251  63.365 215.164  1.00  0.00     0.000 C 
BRANCH   2   3
ATOM      3  C   UNL     1     111.546  64.093 215.542  1.00  0.00     0.000 C 
BRANCH   3   4
ATOM      4  C   UNL     1     111.746  64.104 217.062  1.00  0.00     0.006 C 
BRANCH   4   5
ATOM      5  C   UNL     1     113.081  64.754 217.435  1.00  0.00     0.053 C 
BRANCH   5   6
ATOM      6  C   UNL     1     113.187  66.120 216.834  1.00  0.00     0.041 C 
ATOM      7  O   UNL     1     114.135  66.396 216.052  1.00  0.00    -0.550 OA
ATOM      8  O   UNL     1     112.266  67.103 217.175  1.00  0.00    -0.550 OA
ENDBRANCH   5   6
ENDBRANCH   4   5
ENDBRANCH   3   4
ENDBRANCH   2   3
ENDBRANCH   1   2
BRANCH   1   9
ATOM      9  C   UNL     1     109.067  61.136 215.318  1.00  0.00     0.000 C 
BRANCH   9  10
ATOM     10  C   UNL     1     107.653  61.724 215.390  1.00  0.00    -0.000 C 
BRANCH  10  11
ATOM     11  C   UNL     1     106.772  60.925 216.362  1.00  0.00    -0.000 C 
BRANCH  11  12
ATOM     12  C   UNL     1     107.366  59.538 216.684  1.00  0.00    -0.000 C 
BRANCH  12  13
ATOM     13  C   UNL     1     106.675  58.830 217.861  1.00  0.00    -0.003 C 
ATOM     14  C   UNL     1     105.666  59.719 218.585  1.00  0.00     0.004 C 
ENDBRANCH  12  13
ENDBRANCH  11  12
ENDBRANCH  10  11
ENDBRANCH   9  10
ENDBRANCH   1   9
TORSDOF 10
ENDMDL
MODEL 4
REMARK VINA RESULT:    -3.252      1.548      2.470
REMARK INTER + INTRA:          -5.936
REMARK INTER:                  -5.143
REMARK INTRA:                  -0.793
REMARK UNBOUND:                -0.782
REMARK SMILES CCCCCCCCCCCC(=O)[O-]
REMARK SMILES IDX 7 1 8 2 9 3 10 4 11 5 12 6 13 7 14 8 6 9 5 10 4 11 3 12 2 13
REMARK SMILES IDX 1 14
REMARK H PARENT
REMARK Flexibility Score: inf
ROOT
ATOM      1  C   UNL     1     111.659  61.760 217.219  1.00  0.00     0.000 C 
ENDROOT
BRANCH   1   2
ATOM      2  C   UNL     1     110.756  62.432 216.178  1.00  0.00     0.000 C 
BRANCH   2   3
ATOM      3  C   UNL     1     111.322  63.793 215.755  1.00  0.00     0.000 C 
BRANCH   3   4
ATOM      4  C   UNL     1     112.486  64.211 216.662  1.00  0.00     0.006 C 
BRANCH   4   5
ATOM      5  C   UNL     1     112.142  65.478 217.448  1.00  0.00     0.053 C 
BRANCH   5   6
ATOM      6  C   UNL     1     113.018  66.614 217.023  1.00  0.00     0.041 C 
ATOM      7  O   UNL     1     112.799  67.777 217.451  1.00  0.00    -0.550 OA
ATOM      8  O   UNL     1     114.046  66.396 216.113  1.00  0.00    -0.550 OA
ENDBRANCH   5   6
ENDBRANCH   4   5
ENDBRANCH   3   4
ENDBRANCH   2   3
ENDBRANCH   1   2
BRANCH   1   9
ATOM      9  C   UNL     1     110.840  60.883 218.175  1.00  0.00     0.000 C 
BRANCH   9  10
ATOM     10  C   UNL     1     110.268  59.661 217.446  1.00  0.00    -0.000 C 
BRANCH  10  11
ATOM     11  C   UNL     1     108.813  59.401 217.864  1.00  0.00    -0.000 C 
BRANCH  11  12
ATOM     12  C   UNL     1     107.851  59.393 216.659  1.00  0.00    -0.000 C 
BRANCH  12  13
ATOM     13  C   UNL     1     106.856  60.567 216.656  1.00  0.00    -0.003 C 
ATOM     14  C   UNL     1     107.211  61.649 215.640  1.00  0.00     0.004 C 
ENDBRANCH  12  13
ENDBRANCH  11  12
ENDBRANCH  10  11
ENDBRANCH   9  10
ENDBRANCH   1   9
TORSDOF 10
ENDMDL
MODEL 5
REMARK VINA RESULT:    -3.247     14.741     16.104
REMARK INTER + INTRA:          -5.928
REMARK INTER:                  -4.728
REMARK INTRA:                  -1.200
REMARK UNBOUND:                -0.782
REMARK SMILES CCCCCCCCCCCC(=O)[O-]
REMARK SMILES IDX 7 1 8 2 9 3 10 4 11 5 12 6 13 7 14 8 6 9 5 10 4 11 3 12 2 13
REMARK SMILES IDX 1 14
REMARK H PARENT
REMARK Flexibility Score: inf
ROOT
ATOM      1  C   UNL     1      97.632  64.776 228.475  1.00  0.00     0.000 C 
ENDROOT
BRANCH   1   2
ATOM      2  C   UNL     1      97.792  63.540 227.581  1.00  0.00     0.000 C 
BRANCH   2   3
ATOM      3  C   UNL     1      98.844  63.781 226.492  1.00  0.00     0.000 C 
BRANCH   3   4
ATOM      4  C   UNL     1      99.752  64.961 226.856  1.00  0.00     0.006 C 
BRANCH   4   5
ATOM      5  C   UNL     1      99.805  65.985 225.719  1.00  0.00     0.053 C 
BRANCH   5   6
ATOM      6  C   UNL     1     101.043  65.796 224.900  1.00  0.00     0.041 C 
ATOM      7  O   UNL     1     101.931  66.688 224.879  1.00  0.00    -0.550 OA
ATOM      8  O   UNL     1     101.193  64.655 224.120  1.00  0.00    -0.550 OA
ENDBRANCH   5   6
ENDBRANCH   4   5
ENDBRANCH   3   4
ENDBRANCH   2   3
ENDBRANCH   1   2
BRANCH   1   9
ATOM      9  C   UNL     1      96.358  65.552 228.118  1.00  0.00     0.000 C 
BRANCH   9  10
ATOM     10  C   UNL     1      95.549  64.817 227.043  1.00  0.00    -0.000 C 
BRANCH  10  11
ATOM     11  C   UNL     1      94.999  65.800 225.999  1.00  0.00    -0.000 C 
BRANCH  11  12
ATOM     12  C   UNL     1      96.116  66.419 225.134  1.00  0.00    -0.000 C 
BRANCH  12  13
ATOM     13  C   UNL     1      96.563  65.521 223.968  1.00  0.00    -0.003 C 
ATOM     14  C   UNL     1      95.593  65.544 222.790  1.00  0.00     0.004 C 
ENDBRANCH  12  13
ENDBRANCH  11  12
ENDBRANCH  10  11
ENDBRANCH   9  10
ENDBRANCH   1   9
TORSDOF 10
ENDMDL
MODEL 6
REMARK VINA RESULT:    -3.176     14.680     17.272
REMARK INTER + INTRA:          -5.814
REMARK INTER:                  -4.712
REMARK INTRA:                  -1.101
REMARK UNBOUND:                -0.782
REMARK SMILES CCCCCCCCCCCC(=O)[O-]
REMARK SMILES IDX 7 1 8 2 9 3 10 4 11 5 12 6 13 7 14 8 6 9 5 10 4 11 3 12 2 13
REMARK SMILES IDX 1 14
REMARK H PARENT
REMARK Flexibility Score: inf
ROOT
ATOM      1  C   UNL     1     112.537  53.811 232.724  1.00  0.00     0.000 C 
ENDROOT
BRANCH   1   2
ATOM      2  C   UNL     1     113.232  53.864 231.357  1.00  0.00     0.000 C 
BRANCH   2   3
ATOM      3  C   UNL     1     112.817  55.118 230.577  1.00  0.00     0.000 C 
BRANCH   3   4
ATOM      4  C   UNL     1     113.742  55.348 229.376  1.00  0.00     0.006 C 
BRANCH   4   5
ATOM      5  C   UNL     1     113.883  54.074 228.540  1.00  0.00     0.053 C 
BRANCH   5   6
ATOM      6  C   UNL     1     113.084  54.182 227.280  1.00  0.00     0.041 C 
ATOM      7  O   UNL     1     112.371  53.217 226.898  1.00  0.00    -0.550 OA
ATOM      8  O   UNL     1     113.164  55.330 226.501  1.00  0.00    -0.550 OA
ENDBRANCH   5   6
ENDBRANCH   4   5
ENDBRANCH   3   4
ENDBRANCH   2   3
ENDBRANCH   1   2
BRANCH   1   9
ATOM      9  C   UNL     1     113.205  52.781 233.642  1.00  0.00     0.000 C 
BRANCH   9  10
ATOM     10  C   UNL     1     114.350  53.415 234.440  1.00  0.00    -0.000 C 
BRANCH  10  11
ATOM     11  C   UNL     1     113.982  54.834 234.899  1.00  0.00    -0.000 C 
BRANCH  11  12
ATOM     12  C   UNL     1     115.124  55.842 234.655  1.00  0.00    -0.000 C 
BRANCH  12  13
ATOM     13  C   UNL     1     115.106  56.466 233.249  1.00  0.00    -0.003 C 
ATOM     14  C   UNL     1     114.045  57.551 233.090  1.00  0.00     0.004 C 
ENDBRANCH  12  13
ENDBRANCH  11  12
ENDBRANCH  10  11
ENDBRANCH   9  10
ENDBRANCH   1   9
TORSDOF 10
ENDMDL
MODEL 7
REMARK VINA RESULT:    -3.168     15.492     17.009
REMARK INTER + INTRA:          -5.802
REMARK INTER:                  -4.477
REMARK INTRA:                  -1.325
REMARK UNBOUND:                -0.782
REMARK SMILES CCCCCCCCCCCC(=O)[O-]
REMARK SMILES IDX 7 1 8 2 9 3 10 4 11 5 12 6 13 7 14 8 6 9 5 10 4 11 3 12 2 13
REMARK SMILES IDX 1 14
REMARK H PARENT
REMARK Flexibility Score: inf
ROOT
ATOM      1  C   UNL     1      96.071  65.385 224.975  1.00  0.00     0.000 C 
ENDROOT
BRANCH   1   2
ATOM      2  C   UNL     1      97.400  64.622 224.922  1.00  0.00     0.000 C 
BRANCH   2   3
ATOM      3  C   UNL     1      97.821  64.153 226.320  1.00  0.00     0.000 C 
BRANCH   3   4
ATOM      4  C   UNL     1      99.276  64.536 226.614  1.00  0.00     0.006 C 
BRANCH   4   5
ATOM      5  C   UNL     1      99.710  65.734 225.766  1.00  0.00     0.053 C 
BRANCH   5   6
ATOM      6  C   UNL     1     100.993  65.437 225.056  1.00  0.00     0.041 C 
ATOM      7  O   UNL     1     101.027  64.569 224.144  1.00  0.00    -0.550 OA
ATOM      8  O   UNL     1     102.164  66.083 225.436  1.00  0.00    -0.550 OA
ENDBRANCH   5   6
ENDBRANCH   4   5
ENDBRANCH   3   4
ENDBRANCH   2   3
ENDBRANCH   1   2
BRANCH   1   9
ATOM      9  C   UNL     1      95.658  65.672 226.424  1.00  0.00     0.000 C 
BRANCH   9  10
ATOM     10  C   UNL     1      95.537  67.180 226.673  1.00  0.00    -0.000 C 
BRANCH  10  11
ATOM     11  C   UNL     1      96.830  67.744 227.280  1.00  0.00    -0.000 C 
BRANCH  11  12
ATOM     12  C   UNL     1      97.233  67.014 228.578  1.00  0.00    -0.000 C 
BRANCH  12  13
ATOM     13  C   UNL     1      96.246  67.229 229.738  1.00  0.00    -0.003 C 
ATOM     14  C   UNL     1      96.083  65.994 230.622  1.00  0.00     0.004 C 
ENDBRANCH  12  13
ENDBRANCH  11  12
ENDBRANCH  10  11
ENDBRANCH   9  10
ENDBRANCH   1   9
TORSDOF 10
ENDMDL
MODEL 8
REMARK VINA RESULT:    -3.140     14.486     16.991
REMARK INTER + INTRA:          -5.758
REMARK INTER:                  -4.635
REMARK INTRA:                  -1.123
REMARK UNBOUND:                -0.782
REMARK SMILES CCCCCCCCCCCC(=O)[O-]
REMARK SMILES IDX 7 1 8 2 9 3 10 4 11 5 12 6 13 7 14 8 6 9 5 10 4 11 3 12 2 13
REMARK SMILES IDX 1 14
REMARK H PARENT
REMARK Flexibility Score: inf
ROOT
ATOM      1  C   UNL     1     113.600  56.890 231.853  1.00  0.00     0.000 C 
ENDROOT
BRANCH   1   2
ATOM      2  C   UNL     1     112.552  55.943 231.256  1.00  0.00     0.000 C 
BRANCH   2   3
ATOM      3  C   UNL     1     113.210  54.890 230.356  1.00  0.00     0.000 C 
BRANCH   3   4
ATOM      4  C   UNL     1     113.975  55.551 229.204  1.00  0.00     0.006 C 
BRANCH   4   5
ATOM      5  C   UNL     1     114.166  54.575 228.041  1.00  0.00     0.053 C 
BRANCH   5   6
ATOM      6  C   UNL     1     112.895  54.427 227.266  1.00  0.00     0.041 C 
ATOM      7  O   UNL     1     112.219  55.444 226.958  1.00  0.00    -0.550 OA
ATOM      8  O   UNL     1     112.431  53.162 226.925  1.00  0.00    -0.550 OA
ENDBRANCH   5   6
ENDBRANCH   4   5
ENDBRANCH   3   4
ENDBRANCH   2   3
ENDBRANCH   1   2
BRANCH   1   9
ATOM      9  C   UNL     1     113.768  56.646 233.358  1.00  0.00     0.000 C 
BRANCH   9  10
ATOM     10  C   UNL     1     114.980  55.749 233.638  1.00  0.00    -0.000 C 
BRANCH  10  11
ATOM     11  C   UNL     1     114.659  54.714 234.727  1.00  0.00    -0.000 C 
BRANCH  11  12
ATOM     12  C   UNL     1     114.773  53.265 234.208  1.00  0.00    -0.000 C 
BRANCH  12  13
ATOM     13  C   UNL     1     113.636  52.860 233.255  1.00  0.00    -0.003 C 
ATOM     14  C   UNL     1     112.249  53.161 233.818  1.00  0.00     0.004 C 
ENDBRANCH  12  13
ENDBRANCH  11  12
ENDBRANCH  10  11
ENDBRANCH   9  10
ENDBRANCH   1   9
TORSDOF 10
ENDMDL
MODEL 9
REMARK VINA RESULT:    -3.099     14.743     16.299
REMARK INTER + INTRA:          -5.692
REMARK INTER:                  -4.183
REMARK INTRA:                  -1.509
REMARK UNBOUND:                -0.782
REMARK SMILES CCCCCCCCCCCC(=O)[O-]
REMARK SMILES IDX 7 1 8 2 9 3 10 4 11 5 12 6 13 7 14 8 6 9 5 10 4 11 3 12 2 13
REMARK SMILES IDX 1 14
REMARK H PARENT
REMARK Flexibility Score: inf
ROOT
ATOM      1  C   UNL     1      95.977  65.364 225.065  1.00  0.00     0.000 C 
ENDROOT
BRANCH   1   2
ATOM      2  C   UNL     1      97.372  64.749 224.900  1.00  0.00     0.000 C 
BRANCH   2   3
ATOM      3  C   UNL     1      97.832  64.072 226.197  1.00  0.00     0.000 C 
BRANCH   3   4
ATOM      4  C   UNL     1      99.256  64.501 226.566  1.00  0.00     0.006 C 
BRANCH   4   5
ATOM      5  C   UNL     1      99.757  65.604 225.631  1.00  0.00     0.053 C 
BRANCH   5   6
ATOM      6  C   UNL     1     101.091  65.242 225.058  1.00  0.00     0.041 C 
ATOM      7  O   UNL     1     101.165  64.493 224.048  1.00  0.00    -0.550 OA
ATOM      8  O   UNL     1     102.256  65.690 225.669  1.00  0.00    -0.550 OA
ENDBRANCH   5   6
ENDBRANCH   4   5
ENDBRANCH   3   4
ENDBRANCH   2   3
ENDBRANCH   1   2
BRANCH   1   9
ATOM      9  C   UNL     1      95.677  65.661 226.539  1.00  0.00     0.000 C 
BRANCH   9  10
ATOM     10  C   UNL     1      95.636  67.172 226.798  1.00  0.00    -0.000 C 
BRANCH  10  11
ATOM     11  C   UNL     1      97.040  67.717 227.104  1.00  0.00    -0.000 C 
BRANCH  11  12
ATOM     12  C   UNL     1      97.408  68.919 226.209  1.00  0.00    -0.000 C 
BRANCH  12  13
ATOM     13  C   UNL     1      97.885  68.517 224.803  1.00  0.00    -0.003 C 
ATOM     14  C   UNL     1      96.851  68.802 223.717  1.00  0.00     0.004 C 
ENDBRANCH  12  13
ENDBRANCH  11  12
ENDBRANCH  10  11
ENDBRANCH   9  10
ENDBRANCH   1   9
TORSDOF 10
ENDMDL
