MODEL 1
REMARK VINA RESULT:    -3.375      0.000      0.000
REMARK INTER + INTRA:          -8.899
REMARK INTER:                  -6.334
REMARK INTRA:                  -2.565
REMARK UNBOUND:                -2.565
REMARK SMILES CCCCCCCCC=CCCCCCCCC(=O)[O-]
REMARK SMILES IDX 10 1 9 2 11 3 12 4 13 5 14 6 15 7 16 8 17 9 18 10 19 11
REMARK SMILES IDX 20 12 8 13 7 14 6 15 5 16 4 17 3 18 2 19 1 20
REMARK H PARENT
REMARK Flexibility Score: inf
ROOT
ATOM      1  C   UNL     1      -7.462  41.182  81.604  1.00  0.00    -0.031 C 
ATOM      2  C   UNL     1      -8.470  42.068  81.604  1.00  0.00    -0.031 C 
ENDROOT
BRANCH   1   3
ATOM      3  C   UNL     1      -6.027  41.618  81.735  1.00  0.00     0.027 C 
BRANCH   3   4
ATOM      4  C   UNL     1      -5.886  42.937  82.512  1.00  0.00     0.004 C 
BRANCH   4   5
ATOM      5  C   UNL     1      -4.983  42.816  83.760  1.00  0.00     0.000 C 
BRANCH   5   6
ATOM      6  C   UNL     1      -4.609  44.173  84.383  1.00  0.00     0.000 C 
BRANCH   6   7
ATOM      7  C   UNL     1      -5.407  45.342  83.782  1.00  0.00     0.000 C 
BRANCH   7   8
ATOM      8  C   UNL     1      -4.662  46.682  83.895  1.00  0.00     0.006 C 
BRANCH   8   9
ATOM      9  C   UNL     1      -3.830  46.999  82.646  1.00  0.00     0.053 C 
BRANCH   9  10
ATOM     10  C   UNL     1      -2.369  46.901  82.952  1.00  0.00     0.041 C 
ATOM     11  O   UNL     1      -1.725  47.924  83.307  1.00  0.00    -0.550 OA
ATOM     12  O   UNL     1      -1.727  45.670  82.894  1.00  0.00    -0.550 OA
ENDBRANCH   9  10
ENDBRANCH   8   9
ENDBRANCH   7   8
ENDBRANCH   6   7
ENDBRANCH   5   6
ENDBRANCH   4   5
ENDBRANCH   3   4
ENDBRANCH   1   3
BRANCH   2  13
ATOM     13  C   UNL     1      -9.904  41.629  81.474  1.00  0.00     0.027 C 
BRANCH  13  14
ATOM     14  C   UNL     1     -10.101  40.152  81.849  1.00  0.00     0.004 C 
BRANCH  14  15
ATOM     15  C   UNL     1     -10.733  39.991  83.243  1.00  0.00     0.000 C 
BRANCH  15  16
ATOM     16  C   UNL     1      -9.686  39.773  84.347  1.00  0.00     0.000 C 
BRANCH  16  17
ATOM     17  C   UNL     1      -9.575  40.973  85.304  1.00  0.00    -0.000 C 
BRANCH  17  18
ATOM     18  C   UNL     1      -8.208  41.677  85.221  1.00  0.00    -0.000 C 
BRANCH  18  19
ATOM     19  C   UNL     1      -8.217  43.160  85.633  1.00  0.00    -0.003 C 
ATOM     20  C   UNL     1      -8.840  44.071  84.577  1.00  0.00     0.004 C 
ENDBRANCH  18  19
ENDBRANCH  17  18
ENDBRANCH  16  17
ENDBRANCH  15  16
ENDBRANCH  14  15
ENDBRANCH  13  14
ENDBRANCH   2  13
TORSDOF 15
ENDMDL
MODEL 2
REMARK VINA RESULT:    -3.290      1.946      3.461
REMARK INTER + INTRA:          -8.740
REMARK INTER:                  -6.853
REMARK INTRA:                  -1.887
REMARK UNBOUND:                -2.565
REMARK SMILES CCCCCCCCC=CCCCCCCCC(=O)[O-]
REMARK SMILES IDX 10 1 9 2 11 3 12 4 13 5 14 6 15 7 16 8 17 9 18 10 19 11
REMARK SMILES IDX 20 12 8 13 7 14 6 15 5 16 4 17 3 18 2 19 1 20
REMARK H PARENT
REMARK Flexibility Score: inf
ROOT
ATOM      1  C   UNL     1      -5.407  43.189  82.456  1.00  0.00    -0.031 C 
ATOM      2  C   UNL     1      -5.855  42.266  83.320  1.00  0.00    -0.031 C 
ENDROOT
BRANCH   1   3
ATOM      3  C   UNL     1      -4.532  44.331  82.902  1.00  0.00     0.027 C 
BRANCH   3   4
ATOM      4  C   UNL     1      -5.273  45.304  83.835  1.00  0.00     0.004 C 
BRANCH   4   5
ATOM      5  C   UNL     1      -4.671  46.727  83.831  1.00  0.00     0.000 C 
BRANCH   5   6
ATOM      6  C   UNL     1      -3.706  46.984  82.661  1.00  0.00     0.000 C 
BRANCH   6   7
ATOM      7  C   UNL     1      -2.292  47.362  83.128  1.00  0.00     0.000 C 
BRANCH   7   8
ATOM      8  C   UNL     1      -1.392  46.133  83.338  1.00  0.00     0.006 C 
BRANCH   8   9
ATOM      9  C   UNL     1      -1.005  45.932  84.808  1.00  0.00     0.053 C 
BRANCH   9  10
ATOM     10  C   UNL     1      -1.839  44.856  85.427  1.00  0.00     0.041 C 
ATOM     11  O   UNL     1      -2.686  45.142  86.315  1.00  0.00    -0.550 OA
ATOM     12  O   UNL     1      -1.716  43.543  84.991  1.00  0.00    -0.550 OA
ENDBRANCH   9  10
ENDBRANCH   8   9
ENDBRANCH   7   8
ENDBRANCH   6   7
ENDBRANCH   5   6
ENDBRANCH   4   5
ENDBRANCH   3   4
ENDBRANCH   1   3
BRANCH   2  13
ATOM     13  C   UNL     1      -6.729  41.125  82.872  1.00  0.00     0.027 C 
BRANCH  13  14
ATOM     14  C   UNL     1      -6.726  40.951  81.345  1.00  0.00     0.004 C 
BRANCH  14  15
ATOM     15  C   UNL     1      -7.771  39.922  80.880  1.00  0.00     0.000 C 
BRANCH  15  16
ATOM     16  C   UNL     1      -8.627  39.382  82.037  1.00  0.00     0.000 C 
BRANCH  16  17
ATOM     17  C   UNL     1     -10.101  39.812  81.936  1.00  0.00    -0.000 C 
BRANCH  17  18
ATOM     18  C   UNL     1     -10.514  40.793  83.048  1.00  0.00    -0.000 C 
BRANCH  18  19
ATOM     19  C   UNL     1     -10.277  42.279  82.723  1.00  0.00    -0.003 C 
ATOM     20  C   UNL     1     -10.288  42.572  81.223  1.00  0.00     0.004 C 
ENDBRANCH  18  19
ENDBRANCH  17  18
ENDBRANCH  16  17
ENDBRANCH  15  16
ENDBRANCH  14  15
ENDBRANCH  13  14
ENDBRANCH   2  13
TORSDOF 15
ENDMDL
MODEL 3
REMARK VINA RESULT:    -3.247      2.951      7.176
REMARK INTER + INTRA:          -8.659
REMARK INTER:                  -6.940
REMARK INTRA:                  -1.719
REMARK UNBOUND:                -2.565
REMARK SMILES CCCCCCCCC=CCCCCCCCC(=O)[O-]
REMARK SMILES IDX 10 1 9 2 11 3 12 4 13 5 14 6 15 7 16 8 17 9 18 10 19 11
REMARK SMILES IDX 20 12 8 13 7 14 6 15 5 16 4 17 3 18 2 19 1 20
REMARK H PARENT
REMARK Flexibility Score: inf
ROOT
ATOM      1  C   UNL     1      -5.987  42.067  81.984  1.00  0.00    -0.031 C 
ATOM      2  C   UNL     1      -5.433  42.703  83.028  1.00  0.00    -0.031 C 
ENDROOT
BRANCH   1   3
ATOM      3  C   UNL     1      -6.565  40.684  82.117  1.00  0.00     0.027 C 
BRANCH   3   4
ATOM      4  C   UNL     1      -7.606  40.378  81.027  1.00  0.00     0.004 C 
BRANCH   4   5
ATOM      5  C   UNL     1      -8.722  39.420  81.502  1.00  0.00     0.000 C 
BRANCH   5   6
ATOM      6  C   UNL     1     -10.052  40.131  81.807  1.00  0.00     0.000 C 
BRANCH   6   7
ATOM      7  C   UNL     1     -10.028  41.623  81.438  1.00  0.00     0.000 C 
BRANCH   7   8
ATOM      8  C   UNL     1     -10.461  42.525  82.605  1.00  0.00     0.006 C 
BRANCH   8   9
ATOM      9  C   UNL     1      -9.267  43.090  83.386  1.00  0.00     0.053 C 
BRANCH   9  10
ATOM     10  C   UNL     1      -9.072  42.337  84.663  1.00  0.00     0.041 C 
ATOM     11  O   UNL     1      -9.944  41.517  85.055  1.00  0.00    -0.550 OA
ATOM     12  O   UNL     1      -7.904  42.502  85.397  1.00  0.00    -0.550 OA
ENDBRANCH   9  10
ENDBRANCH   8   9
ENDBRANCH   7   8
ENDBRANCH   6   7
ENDBRANCH   5   6
ENDBRANCH   4   5
ENDBRANCH   3   4
ENDBRANCH   1   3
BRANCH   2  13
ATOM     13  C   UNL     1      -4.856  44.087  82.894  1.00  0.00     0.027 C 
BRANCH  13  14
ATOM     14  C   UNL     1      -5.672  45.138  83.663  1.00  0.00     0.004 C 
BRANCH  14  15
ATOM     15  C   UNL     1      -4.826  46.369  84.030  1.00  0.00     0.000 C 
BRANCH  15  16
ATOM     16  C   UNL     1      -4.227  47.066  82.798  1.00  0.00     0.000 C 
BRANCH  16  17
ATOM     17  C   UNL     1      -2.717  47.323  82.937  1.00  0.00    -0.000 C 
BRANCH  17  18
ATOM     18  C   UNL     1      -1.878  46.039  82.799  1.00  0.00    -0.000 C 
BRANCH  18  19
ATOM     19  C   UNL     1      -1.192  45.570  84.094  1.00  0.00    -0.003 C 
ATOM     20  C   UNL     1       0.306  45.871  84.122  1.00  0.00     0.004 C 
ENDBRANCH  18  19
ENDBRANCH  17  18
ENDBRANCH  16  17
ENDBRANCH  15  16
ENDBRANCH  14  15
ENDBRANCH  13  14
ENDBRANCH   2  13
TORSDOF 15
ENDMDL
MODEL 4
REMARK VINA RESULT:    -3.247      2.344      4.475
REMARK INTER + INTRA:          -8.659
REMARK INTER:                  -7.044
REMARK INTRA:                  -1.615
REMARK UNBOUND:                -2.565
REMARK SMILES CCCCCCCCC=CCCCCCCCC(=O)[O-]
REMARK SMILES IDX 10 1 9 2 11 3 12 4 13 5 14 6 15 7 16 8 17 9 18 10 19 11
REMARK SMILES IDX 20 12 8 13 7 14 6 15 5 16 4 17 3 18 2 19 1 20
REMARK H PARENT
REMARK Flexibility Score: inf
ROOT
ATOM      1  C   UNL     1      -5.483  45.254  83.772  1.00  0.00    -0.031 C 
ATOM      2  C   UNL     1      -5.033  43.996  83.645  1.00  0.00    -0.031 C 
ENDROOT
BRANCH   1   3
ATOM      3  C   UNL     1      -5.218  46.066  85.012  1.00  0.00     0.027 C 
BRANCH   3   4
ATOM      4  C   UNL     1      -4.134  47.134  84.790  1.00  0.00     0.004 C 
BRANCH   4   5
ATOM      5  C   UNL     1      -3.908  47.472  83.299  1.00  0.00     0.000 C 
BRANCH   5   6
ATOM      6  C   UNL     1      -2.442  47.333  82.853  1.00  0.00     0.000 C 
BRANCH   6   7
ATOM      7  C   UNL     1      -1.986  45.869  82.757  1.00  0.00     0.000 C 
BRANCH   7   8
ATOM      8  C   UNL     1      -0.938  45.506  83.822  1.00  0.00     0.006 C 
BRANCH   8   9
ATOM      9  C   UNL     1      -1.254  44.183  84.531  1.00  0.00     0.053 C 
BRANCH   9  10
ATOM     10  C   UNL     1       0.008  43.479  84.912  1.00  0.00     0.041 C 
ATOM     11  O   UNL     1       0.525  43.671  86.044  1.00  0.00    -0.550 OA
ATOM     12  O   UNL     1       0.590  42.571  84.035  1.00  0.00    -0.550 OA
ENDBRANCH   9  10
ENDBRANCH   8   9
ENDBRANCH   7   8
ENDBRANCH   6   7
ENDBRANCH   5   6
ENDBRANCH   4   5
ENDBRANCH   3   4
ENDBRANCH   1   3
BRANCH   2  13
ATOM     13  C   UNL     1      -5.298  43.186  82.404  1.00  0.00     0.027 C 
BRANCH  13  14
ATOM     14  C   UNL     1      -6.516  42.262  82.558  1.00  0.00     0.004 C 
BRANCH  14  15
ATOM     15  C   UNL     1      -6.572  41.192  81.454  1.00  0.00     0.000 C 
BRANCH  15  16
ATOM     16  C   UNL     1      -7.358  39.941  81.881  1.00  0.00     0.000 C 
BRANCH  16  17
ATOM     17  C   UNL     1      -8.673  39.773  81.099  1.00  0.00    -0.000 C 
BRANCH  17  18
ATOM     18  C   UNL     1      -9.877  40.417  81.811  1.00  0.00    -0.000 C 
BRANCH  18  19
ATOM     19  C   UNL     1     -10.188  41.861  81.379  1.00  0.00    -0.003 C 
ATOM     20  C   UNL     1     -10.516  42.780  82.555  1.00  0.00     0.004 C 
ENDBRANCH  18  19
ENDBRANCH  17  18
ENDBRANCH  16  17
ENDBRANCH  15  16
ENDBRANCH  14  15
ENDBRANCH  13  14
ENDBRANCH   2  13
TORSDOF 15
ENDMDL
MODEL 5
REMARK VINA RESULT:    -3.246      1.625      3.013
REMARK INTER + INTRA:          -8.657
REMARK INTER:                  -6.115
REMARK INTRA:                  -2.541
REMARK UNBOUND:                -2.565
REMARK SMILES CCCCCCCCC=CCCCCCCCC(=O)[O-]
REMARK SMILES IDX 10 1 9 2 11 3 12 4 13 5 14 6 15 7 16 8 17 9 18 10 19 11
REMARK SMILES IDX 20 12 8 13 7 14 6 15 5 16 4 17 3 18 2 19 1 20
REMARK H PARENT
REMARK Flexibility Score: inf
ROOT
ATOM      1  C   UNL     1      -9.269  43.473  84.333  1.00  0.00    -0.031 C 
ATOM      2  C   UNL     1     -10.008  43.454  83.212  1.00  0.00    -0.031 C 
ENDROOT
BRANCH   1   3
ATOM      3  C   UNL     1      -8.447  44.674  84.716  1.00  0.00     0.027 C 
BRANCH   3   4
ATOM      4  C   UNL     1      -7.039  44.640  84.097  1.00  0.00     0.004 C 
BRANCH   4   5
ATOM      5  C   UNL     1      -5.934  44.280  85.116  1.00  0.00     0.000 C 
BRANCH   5   6
ATOM      6  C   UNL     1      -4.509  44.492  84.576  1.00  0.00     0.000 C 
BRANCH   6   7
ATOM      7  C   UNL     1      -4.459  44.568  83.042  1.00  0.00     0.000 C 
BRANCH   7   8
ATOM      8  C   UNL     1      -3.503  45.661  82.537  1.00  0.00     0.006 C 
BRANCH   8   9
ATOM      9  C   UNL     1      -3.204  46.720  83.605  1.00  0.00     0.053 C 
BRANCH   9  10
ATOM     10  C   UNL     1      -3.806  48.034  83.222  1.00  0.00     0.041 C 
ATOM     11  O   UNL     1      -4.710  48.087  82.346  1.00  0.00    -0.550 OA
ATOM     12  O   UNL     1      -3.404  49.198  83.866  1.00  0.00    -0.550 OA
ENDBRANCH   9  10
ENDBRANCH   8   9
ENDBRANCH   7   8
ENDBRANCH   6   7
ENDBRANCH   5   6
ENDBRANCH   4   5
ENDBRANCH   3   4
ENDBRANCH   1   3
BRANCH   2  13
ATOM     13  C   UNL     1     -10.831  42.252  82.831  1.00  0.00     0.027 C 
BRANCH  13  14
ATOM     14  C   UNL     1     -10.471  41.010  83.661  1.00  0.00     0.004 C 
BRANCH  14  15
ATOM     15  C   UNL     1     -10.139  39.798  82.772  1.00  0.00     0.000 C 
BRANCH  15  16
ATOM     16  C   UNL     1      -9.700  40.206  81.356  1.00  0.00     0.000 C 
BRANCH  16  17
ATOM     17  C   UNL     1      -8.177  40.109  81.157  1.00  0.00    -0.000 C 
BRANCH  17  18
ATOM     18  C   UNL     1      -7.460  41.453  81.382  1.00  0.00    -0.000 C 
BRANCH  18  19
ATOM     19  C   UNL     1      -6.248  41.391  82.328  1.00  0.00    -0.003 C 
ATOM     20  C   UNL     1      -6.612  40.918  83.735  1.00  0.00     0.004 C 
ENDBRANCH  18  19
ENDBRANCH  17  18
ENDBRANCH  16  17
ENDBRANCH  15  16
ENDBRANCH  14  15
ENDBRANCH  13  14
ENDBRANCH   2  13
TORSDOF 15
ENDMDL
MODEL 6
REMARK VINA RESULT:    -3.245      9.465     11.471
REMARK INTER + INTRA:          -8.656
REMARK INTER:                  -6.508
REMARK INTRA:                  -2.148
REMARK UNBOUND:                -2.565
REMARK SMILES CCCCCCCCC=CCCCCCCCC(=O)[O-]
REMARK SMILES IDX 10 1 9 2 11 3 12 4 13 5 14 6 15 7 16 8 17 9 18 10 19 11
REMARK SMILES IDX 20 12 8 13 7 14 6 15 5 16 4 17 3 18 2 19 1 20
REMARK H PARENT
REMARK Flexibility Score: inf
ROOT
ATOM      1  C   UNL     1     -12.687  55.690  81.800  1.00  0.00    -0.031 C 
ATOM      2  C   UNL     1     -12.844  54.786  80.821  1.00  0.00    -0.031 C 
ENDROOT
BRANCH   1   3
ATOM      3  C   UNL     1     -11.338  56.275  82.126  1.00  0.00     0.027 C 
BRANCH   3   4
ATOM      4  C   UNL     1     -10.184  55.348  81.712  1.00  0.00     0.004 C 
BRANCH   4   5
ATOM      5  C   UNL     1      -8.841  56.091  81.527  1.00  0.00     0.000 C 
BRANCH   5   6
ATOM      6  C   UNL     1      -7.688  55.175  81.083  1.00  0.00     0.000 C 
BRANCH   6   7
ATOM      7  C   UNL     1      -7.486  53.975  82.023  1.00  0.00     0.000 C 
BRANCH   7   8
ATOM      8  C   UNL     1      -6.114  53.306  81.838  1.00  0.00     0.006 C 
BRANCH   8   9
ATOM      9  C   UNL     1      -5.191  54.104  80.909  1.00  0.00     0.053 C 
BRANCH   9  10
ATOM     10  C   UNL     1      -3.763  53.932  81.314  1.00  0.00     0.041 C 
ATOM     11  O   UNL     1      -3.463  53.176  82.277  1.00  0.00    -0.550 OA
ATOM     12  O   UNL     1      -2.755  54.567  80.599  1.00  0.00    -0.550 OA
ENDBRANCH   9  10
ENDBRANCH   8   9
ENDBRANCH   7   8
ENDBRANCH   6   7
ENDBRANCH   5   6
ENDBRANCH   4   5
ENDBRANCH   3   4
ENDBRANCH   1   3
BRANCH   2  13
ATOM     13  C   UNL     1     -14.193  54.203  80.496  1.00  0.00     0.027 C 
BRANCH  13  14
ATOM     14  C   UNL     1     -14.266  52.697  80.791  1.00  0.00     0.004 C 
BRANCH  14  15
ATOM     15  C   UNL     1     -12.876  52.036  80.764  1.00  0.00     0.000 C 
BRANCH  15  16
ATOM     16  C   UNL     1     -12.831  50.720  81.558  1.00  0.00     0.000 C 
BRANCH  16  17
ATOM     17  C   UNL     1     -12.201  50.891  82.951  1.00  0.00    -0.000 C 
BRANCH  17  18
ATOM     18  C   UNL     1     -11.408  52.203  83.091  1.00  0.00    -0.000 C 
BRANCH  18  19
ATOM     19  C   UNL     1     -11.783  53.060  84.313  1.00  0.00    -0.003 C 
ATOM     20  C   UNL     1     -13.290  53.266  84.459  1.00  0.00     0.004 C 
ENDBRANCH  18  19
ENDBRANCH  17  18
ENDBRANCH  16  17
ENDBRANCH  15  16
ENDBRANCH  14  15
ENDBRANCH  13  14
ENDBRANCH   2  13
TORSDOF 15
ENDMDL
MODEL 7
REMARK VINA RESULT:    -3.200      1.210      2.231
REMARK INTER + INTRA:          -8.571
REMARK INTER:                  -6.390
REMARK INTRA:                  -2.180
REMARK UNBOUND:                -2.565
REMARK SMILES CCCCCCCCC=CCCCCCCCC(=O)[O-]
REMARK SMILES IDX 10 1 9 2 11 3 12 4 13 5 14 6 15 7 16 8 17 9 18 10 19 11
REMARK SMILES IDX 20 12 8 13 7 14 6 15 5 16 4 17 3 18 2 19 1 20
REMARK H PARENT
REMARK Flexibility Score: inf
ROOT
ATOM      1  C   UNL     1      -6.489  41.361  81.633  1.00  0.00    -0.031 C 
ATOM      2  C   UNL     1      -6.636  40.264  82.392  1.00  0.00    -0.031 C 
ENDROOT
BRANCH   1   3
ATOM      3  C   UNL     1      -5.591  42.495  82.050  1.00  0.00     0.027 C 
BRANCH   3   4
ATOM      4  C   UNL     1      -5.439  42.587  83.577  1.00  0.00     0.004 C 
BRANCH   4   5
ATOM      5  C   UNL     1      -4.584  43.792  84.033  1.00  0.00     0.000 C 
BRANCH   5   6
ATOM      6  C   UNL     1      -5.011  45.125  83.395  1.00  0.00     0.000 C 
BRANCH   6   7
ATOM      7  C   UNL     1      -4.217  46.325  83.935  1.00  0.00     0.000 C 
BRANCH   7   8
ATOM      8  C   UNL     1      -3.317  46.965  82.866  1.00  0.00     0.006 C 
BRANCH   8   9
ATOM      9  C   UNL     1      -2.118  46.081  82.501  1.00  0.00     0.053 C 
BRANCH   9  10
ATOM     10  C   UNL     1      -1.259  45.841  83.701  1.00  0.00     0.041 C 
ATOM     11  O   UNL     1      -1.029  44.666  84.091  1.00  0.00    -0.550 OA
ATOM     12  O   UNL     1      -0.672  46.913  84.362  1.00  0.00    -0.550 OA
ENDBRANCH   9  10
ENDBRANCH   8   9
ENDBRANCH   7   8
ENDBRANCH   6   7
ENDBRANCH   5   6
ENDBRANCH   4   5
ENDBRANCH   3   4
ENDBRANCH   1   3
BRANCH   2  13
ATOM     13  C   UNL     1      -7.533  39.130  81.972  1.00  0.00     0.027 C 
BRANCH  13  14
ATOM     14  C   UNL     1      -8.648  39.588  81.018  1.00  0.00     0.004 C 
BRANCH  14  15
ATOM     15  C   UNL     1      -9.852  40.172  81.777  1.00  0.00     0.000 C 
BRANCH  15  16
ATOM     16  C   UNL     1     -10.153  41.626  81.381  1.00  0.00     0.000 C 
BRANCH  16  17
ATOM     17  C   UNL     1     -10.461  42.520  82.596  1.00  0.00    -0.000 C 
BRANCH  17  18
ATOM     18  C   UNL     1      -9.189  43.013  83.311  1.00  0.00    -0.000 C 
BRANCH  18  19
ATOM     19  C   UNL     1      -9.152  42.743  84.825  1.00  0.00    -0.003 C 
ATOM     20  C   UNL     1      -8.598  41.363  85.174  1.00  0.00     0.004 C 
ENDBRANCH  18  19
ENDBRANCH  17  18
ENDBRANCH  16  17
ENDBRANCH  15  16
ENDBRANCH  14  15
ENDBRANCH  13  14
ENDBRANCH   2  13
TORSDOF 15
ENDMDL
MODEL 8
REMARK VINA RESULT:    -3.199      1.923      2.806
REMARK INTER + INTRA:          -8.568
REMARK INTER:                  -6.827
REMARK INTRA:                  -1.742
REMARK UNBOUND:                -2.565
REMARK SMILES CCCCCCCCC=CCCCCCCCC(=O)[O-]
REMARK SMILES IDX 10 1 9 2 11 3 12 4 13 5 14 6 15 7 16 8 17 9 18 10 19 11
REMARK SMILES IDX 20 12 8 13 7 14 6 15 5 16 4 17 3 18 2 19 1 20
REMARK H PARENT
REMARK Flexibility Score: inf
ROOT
ATOM      1  C   UNL     1      -7.426  41.320  81.376  1.00  0.00    -0.031 C 
ATOM      2  C   UNL     1      -8.465  42.030  81.842  1.00  0.00    -0.031 C 
ENDROOT
BRANCH   1   3
ATOM      3  C   UNL     1      -6.007  41.795  81.542  1.00  0.00     0.027 C 
BRANCH   3   4
ATOM      4  C   UNL     1      -5.837  42.710  82.766  1.00  0.00     0.004 C 
BRANCH   4   5
ATOM      5  C   UNL     1      -4.903  43.913  82.503  1.00  0.00     0.000 C 
BRANCH   5   6
ATOM      6  C   UNL     1      -4.546  44.703  83.774  1.00  0.00     0.000 C 
BRANCH   6   7
ATOM      7  C   UNL     1      -3.151  45.344  83.704  1.00  0.00     0.000 C 
BRANCH   7   8
ATOM      8  C   UNL     1      -3.054  46.427  82.617  1.00  0.00     0.006 C 
BRANCH   8   9
ATOM      9  C   UNL     1      -4.072  47.556  82.819  1.00  0.00     0.053 C 
BRANCH   9  10
ATOM     10  C   UNL     1      -3.702  48.389  84.004  1.00  0.00     0.041 C 
ATOM     11  O   UNL     1      -2.621  49.035  84.012  1.00  0.00    -0.550 OA
ATOM     12  O   UNL     1      -4.573  48.493  85.081  1.00  0.00    -0.550 OA
ENDBRANCH   9  10
ENDBRANCH   8   9
ENDBRANCH   7   8
ENDBRANCH   6   7
ENDBRANCH   5   6
ENDBRANCH   4   5
ENDBRANCH   3   4
ENDBRANCH   1   3
BRANCH   2  13
ATOM     13  C   UNL     1      -9.883  41.553  81.676  1.00  0.00     0.027 C 
BRANCH  13  14
ATOM     14  C   UNL     1     -10.001  40.024  81.771  1.00  0.00     0.004 C 
BRANCH  14  15
ATOM     15  C   UNL     1     -10.187  39.549  83.222  1.00  0.00     0.000 C 
BRANCH  15  16
ATOM     16  C   UNL     1      -8.916  38.908  83.803  1.00  0.00     0.000 C 
BRANCH  16  17
ATOM     17  C   UNL     1      -8.213  37.974  82.802  1.00  0.00    -0.000 C 
BRANCH  17  18
ATOM     18  C   UNL     1      -6.837  37.496  83.299  1.00  0.00    -0.000 C 
BRANCH  18  19
ATOM     19  C   UNL     1      -5.662  38.425  82.947  1.00  0.00    -0.003 C 
ATOM     20  C   UNL     1      -5.171  39.246  84.139  1.00  0.00     0.004 C 
ENDBRANCH  18  19
ENDBRANCH  17  18
ENDBRANCH  16  17
ENDBRANCH  15  16
ENDBRANCH  14  15
ENDBRANCH  13  14
ENDBRANCH   2  13
TORSDOF 15
ENDMDL
MODEL 9
REMARK VINA RESULT:    -3.174      1.790      3.755
REMARK INTER + INTRA:          -8.522
REMARK INTER:                  -6.097
REMARK INTRA:                  -2.425
REMARK UNBOUND:                -2.565
REMARK SMILES CCCCCCCCC=CCCCCCCCC(=O)[O-]
REMARK SMILES IDX 10 1 9 2 11 3 12 4 13 5 14 6 15 7 16 8 17 9 18 10 19 11
REMARK SMILES IDX 20 12 8 13 7 14 6 15 5 16 4 17 3 18 2 19 1 20
REMARK H PARENT
REMARK Flexibility Score: inf
ROOT
ATOM      1  C   UNL     1      -9.631  41.757  81.376  1.00  0.00    -0.031 C 
ATOM      2  C   UNL     1      -8.299  41.802  81.529  1.00  0.00    -0.031 C 
ENDROOT
BRANCH   1   3
ATOM      3  C   UNL     1     -10.515  42.894  81.815  1.00  0.00     0.027 C 
BRANCH   3   4
ATOM      4  C   UNL     1     -10.974  42.748  83.275  1.00  0.00     0.004 C 
BRANCH   4   5
ATOM      5  C   UNL     1     -10.547  43.934  84.169  1.00  0.00     0.000 C 
BRANCH   5   6
ATOM      6  C   UNL     1      -9.195  43.719  84.871  1.00  0.00     0.000 C 
BRANCH   6   7
ATOM      7  C   UNL     1      -8.110  44.691  84.381  1.00  0.00     0.000 C 
BRANCH   7   8
ATOM      8  C   UNL     1      -6.808  43.971  83.991  1.00  0.00     0.006 C 
BRANCH   8   9
ATOM      9  C   UNL     1      -5.601  44.917  83.958  1.00  0.00     0.053 C 
BRANCH   9  10
ATOM     10  C   UNL     1      -4.670  44.540  82.850  1.00  0.00     0.041 C 
ATOM     11  O   UNL     1      -4.924  43.546  82.119  1.00  0.00    -0.550 OA
ATOM     12  O   UNL     1      -3.546  45.314  82.592  1.00  0.00    -0.550 OA
ENDBRANCH   9  10
ENDBRANCH   8   9
ENDBRANCH   7   8
ENDBRANCH   6   7
ENDBRANCH   5   6
ENDBRANCH   4   5
ENDBRANCH   3   4
ENDBRANCH   1   3
BRANCH   2  13
ATOM     13  C   UNL     1      -7.416  40.665  81.089  1.00  0.00     0.027 C 
BRANCH  13  14
ATOM     14  C   UNL     1      -8.171  39.328  81.029  1.00  0.00     0.004 C 
BRANCH  14  15
ATOM     15  C   UNL     1      -7.499  38.246  81.893  1.00  0.00     0.000 C 
BRANCH  15  16
ATOM     16  C   UNL     1      -8.257  37.979  83.203  1.00  0.00     0.000 C 
BRANCH  16  17
ATOM     17  C   UNL     1      -7.999  39.060  84.268  1.00  0.00    -0.000 C 
BRANCH  17  18
ATOM     18  C   UNL     1      -9.279  39.814  84.674  1.00  0.00    -0.000 C 
BRANCH  18  19
ATOM     19  C   UNL     1     -10.550  38.949  84.729  1.00  0.00    -0.003 C 
ATOM     20  C   UNL     1     -11.655  39.449  83.799  1.00  0.00     0.004 C 
ENDBRANCH  18  19
ENDBRANCH  17  18
ENDBRANCH  16  17
ENDBRANCH  15  16
ENDBRANCH  14  15
ENDBRANCH  13  14
ENDBRANCH   2  13
TORSDOF 15
ENDMDL
