MODEL 1
REMARK VINA RESULT:    -3.966      0.000      0.000
REMARK INTER + INTRA:          -8.721
REMARK INTER:                  -7.211
REMARK INTRA:                  -1.510
REMARK UNBOUND:                -1.510
REMARK SMILES CCCCCCCCCCCCCCCC(=O)[O-]
REMARK SMILES IDX 9 1 10 2 11 3 12 4 13 5 14 6 15 7 16 8 17 9 18 10 8 11 7 12
REMARK SMILES IDX 6 13 5 14 4 15 3 16 2 17 1 18
REMARK H PARENT
REMARK Flexibility Score: inf
ROOT
ATOM      1  C   UNL     1      27.063 156.205 121.242  1.00  0.00     0.000 C 
ENDROOT
BRANCH   1   2
ATOM      2  C   UNL     1      26.156 155.871 120.052  1.00  0.00     0.000 C 
BRANCH   2   3
ATOM      3  C   UNL     1      25.514 157.138 119.474  1.00  0.00     0.000 C 
BRANCH   3   4
ATOM      4  C   UNL     1      25.428 157.061 117.942  1.00  0.00     0.000 C 
BRANCH   4   5
ATOM      5  C   UNL     1      25.855 158.371 117.260  1.00  0.00     0.000 C 
BRANCH   5   6
ATOM      6  C   UNL     1      26.625 159.309 118.208  1.00  0.00     0.006 C 
BRANCH   6   7
ATOM      7  C   UNL     1      27.869 159.911 117.542  1.00  0.00     0.053 C 
BRANCH   7   8
ATOM      8  C   UNL     1      27.534 160.587 116.248  1.00  0.00     0.041 C 
ATOM      9  O   UNL     1      27.877 160.067 115.153  1.00  0.00    -0.550 OA
ATOM     10  O   UNL     1      26.874 161.809 116.251  1.00  0.00    -0.550 OA
ENDBRANCH   7   8
ENDBRANCH   6   7
ENDBRANCH   5   6
ENDBRANCH   4   5
ENDBRANCH   3   4
ENDBRANCH   2   3
ENDBRANCH   1   2
BRANCH   1  11
ATOM     11  C   UNL     1      27.194 157.724 121.424  1.00  0.00     0.000 C 
BRANCH  11  12
ATOM     12  C   UNL     1      28.647 158.214 121.309  1.00  0.00    -0.000 C 
BRANCH  12  13
ATOM     13  C   UNL     1      29.662 157.175 121.818  1.00  0.00    -0.000 C 
BRANCH  13  14
ATOM     14  C   UNL     1      31.069 157.766 122.005  1.00  0.00    -0.000 C 
BRANCH  14  15
ATOM     15  C   UNL     1      31.913 157.713 120.719  1.00  0.00    -0.000 C 
BRANCH  15  16
ATOM     16  C   UNL     1      32.315 159.120 120.228  1.00  0.00    -0.000 C 
BRANCH  16  17
ATOM     17  C   UNL     1      31.315 159.734 119.234  1.00  0.00    -0.003 C 
ATOM     18  C   UNL     1      31.955 160.126 117.905  1.00  0.00     0.004 C 
ENDBRANCH  16  17
ENDBRANCH  15  16
ENDBRANCH  14  15
ENDBRANCH  13  14
ENDBRANCH  12  13
ENDBRANCH  11  12
ENDBRANCH   1  11
TORSDOF 14
ENDMDL
MODEL 2
REMARK VINA RESULT:    -3.863      2.818      6.249
REMARK INTER + INTRA:          -8.535
REMARK INTER:                  -6.469
REMARK INTRA:                  -2.066
REMARK UNBOUND:                -1.510
REMARK SMILES CCCCCCCCCCCCCCCC(=O)[O-]
REMARK SMILES IDX 9 1 10 2 11 3 12 4 13 5 14 6 15 7 16 8 17 9 18 10 8 11 7 12
REMARK SMILES IDX 6 13 5 14 4 15 3 16 2 17 1 18
REMARK H PARENT
REMARK Flexibility Score: inf
ROOT
ATOM      1  C   UNL     1      29.328 160.237 117.300  1.00  0.00     0.000 C 
ENDROOT
BRANCH   1   2
ATOM      2  C   UNL     1      29.990 160.191 118.681  1.00  0.00     0.000 C 
BRANCH   2   3
ATOM      3  C   UNL     1      29.222 161.051 119.692  1.00  0.00     0.000 C 
BRANCH   3   4
ATOM      4  C   UNL     1      28.852 160.236 120.940  1.00  0.00     0.000 C 
BRANCH   4   5
ATOM      5  C   UNL     1      28.923 158.719 120.698  1.00  0.00     0.000 C 
BRANCH   5   6
ATOM      6  C   UNL     1      29.520 157.957 121.895  1.00  0.00     0.006 C 
BRANCH   6   7
ATOM      7  C   UNL     1      30.784 157.175 121.511  1.00  0.00     0.053 C 
BRANCH   7   8
ATOM      8  C   UNL     1      31.915 158.090 121.152  1.00  0.00     0.041 C 
ATOM      9  O   UNL     1      32.663 157.820 120.176  1.00  0.00    -0.550 OA
ATOM     10  O   UNL     1      32.164 159.223 121.916  1.00  0.00    -0.550 OA
ENDBRANCH   7   8
ENDBRANCH   6   7
ENDBRANCH   5   6
ENDBRANCH   4   5
ENDBRANCH   3   4
ENDBRANCH   2   3
ENDBRANCH   1   2
BRANCH   1  11
ATOM     11  C   UNL     1      27.838 160.589 117.416  1.00  0.00     0.000 C 
BRANCH  11  12
ATOM     12  C   UNL     1      26.923 159.503 116.824  1.00  0.00    -0.000 C 
BRANCH  12  13
ATOM     13  C   UNL     1      25.576 159.402 117.562  1.00  0.00    -0.000 C 
BRANCH  13  14
ATOM     14  C   UNL     1      25.727 159.527 119.087  1.00  0.00    -0.000 C 
BRANCH  14  15
ATOM     15  C   UNL     1      25.554 158.182 119.815  1.00  0.00    -0.000 C 
BRANCH  15  16
ATOM     16  C   UNL     1      25.611 156.982 118.844  1.00  0.00    -0.000 C 
BRANCH  16  17
ATOM     17  C   UNL     1      26.074 155.675 119.509  1.00  0.00    -0.003 C 
ATOM     18  C   UNL     1      26.442 155.849 120.980  1.00  0.00     0.004 C 
ENDBRANCH  16  17
ENDBRANCH  15  16
ENDBRANCH  14  15
ENDBRANCH  13  14
ENDBRANCH  12  13
ENDBRANCH  11  12
ENDBRANCH   1  11
TORSDOF 14
ENDMDL
MODEL 3
REMARK VINA RESULT:    -3.850      1.346      4.878
REMARK INTER + INTRA:          -8.511
REMARK INTER:                  -6.485
REMARK INTRA:                  -2.027
REMARK UNBOUND:                -1.510
REMARK SMILES CCCCCCCCCCCCCCCC(=O)[O-]
REMARK SMILES IDX 9 1 10 2 11 3 12 4 13 5 14 6 15 7 16 8 17 9 18 10 8 11 7 12
REMARK SMILES IDX 6 13 5 14 4 15 3 16 2 17 1 18
REMARK H PARENT
REMARK Flexibility Score: inf
ROOT
ATOM      1  C   UNL     1      32.267 159.412 120.264  1.00  0.00     0.000 C 
ENDROOT
BRANCH   1   2
ATOM      2  C   UNL     1      32.375 159.629 118.750  1.00  0.00     0.000 C 
BRANCH   2   3
ATOM      3  C   UNL     1      31.085 160.235 118.185  1.00  0.00     0.000 C 
BRANCH   3   4
ATOM      4  C   UNL     1      30.438 161.193 119.197  1.00  0.00     0.000 C 
BRANCH   4   5
ATOM      5  C   UNL     1      28.901 161.147 119.155  1.00  0.00     0.000 C 
BRANCH   5   6
ATOM      6  C   UNL     1      28.367 160.015 118.260  1.00  0.00     0.006 C 
BRANCH   6   7
ATOM      7  C   UNL     1      26.843 160.081 118.091  1.00  0.00     0.053 C 
BRANCH   7   8
ATOM      8  C   UNL     1      26.367 159.184 116.990  1.00  0.00     0.041 C 
ATOM      9  O   UNL     1      25.651 158.182 117.253  1.00  0.00    -0.550 OA
ATOM     10  O   UNL     1      26.744 159.433 115.677  1.00  0.00    -0.550 OA
ENDBRANCH   7   8
ENDBRANCH   6   7
ENDBRANCH   5   6
ENDBRANCH   4   5
ENDBRANCH   3   4
ENDBRANCH   2   3
ENDBRANCH   1   2
BRANCH   1  11
ATOM     11  C   UNL     1      32.155 157.917 120.598  1.00  0.00     0.000 C 
BRANCH  11  12
ATOM     12  C   UNL     1      31.254 157.645 121.814  1.00  0.00    -0.000 C 
BRANCH  12  13
ATOM     13  C   UNL     1      29.960 158.477 121.787  1.00  0.00    -0.000 C 
BRANCH  13  14
ATOM     14  C   UNL     1      28.800 157.743 121.095  1.00  0.00    -0.000 C 
BRANCH  14  15
ATOM     15  C   UNL     1      27.423 158.322 121.464  1.00  0.00    -0.000 C 
BRANCH  15  16
ATOM     16  C   UNL     1      26.268 157.559 120.780  1.00  0.00    -0.000 C 
BRANCH  16  17
ATOM     17  C   UNL     1      26.403 156.029 120.871  1.00  0.00    -0.003 C 
ATOM     18  C   UNL     1      26.124 155.324 119.546  1.00  0.00     0.004 C 
ENDBRANCH  16  17
ENDBRANCH  15  16
ENDBRANCH  14  15
ENDBRANCH  13  14
ENDBRANCH  12  13
ENDBRANCH  11  12
ENDBRANCH   1  11
TORSDOF 14
ENDMDL
MODEL 4
REMARK VINA RESULT:    -3.839      2.591      4.734
REMARK INTER + INTRA:          -8.491
REMARK INTER:                  -6.669
REMARK INTRA:                  -1.822
REMARK UNBOUND:                -1.510
REMARK SMILES CCCCCCCCCCCCCCCC(=O)[O-]
REMARK SMILES IDX 9 1 10 2 11 3 12 4 13 5 14 6 15 7 16 8 17 9 18 10 8 11 7 12
REMARK SMILES IDX 6 13 5 14 4 15 3 16 2 17 1 18
REMARK H PARENT
REMARK Flexibility Score: inf
ROOT
ATOM      1  C   UNL     1      30.378 160.158 117.630  1.00  0.00     0.000 C 
ENDROOT
BRANCH   1   2
ATOM      2  C   UNL     1      28.935 160.169 118.145  1.00  0.00     0.000 C 
BRANCH   2   3
ATOM      3  C   UNL     1      27.946 160.475 117.015  1.00  0.00     0.000 C 
BRANCH   3   4
ATOM      4  C   UNL     1      26.747 159.516 117.057  1.00  0.00     0.000 C 
BRANCH   4   5
ATOM      5  C   UNL     1      26.431 159.026 118.479  1.00  0.00     0.000 C 
BRANCH   5   6
ATOM      6  C   UNL     1      25.758 157.642 118.493  1.00  0.00     0.006 C 
BRANCH   6   7
ATOM      7  C   UNL     1      25.427 157.174 119.916  1.00  0.00     0.053 C 
BRANCH   7   8
ATOM      8  C   UNL     1      26.097 155.874 120.243  1.00  0.00     0.041 C 
ATOM      9  O   UNL     1      26.536 155.662 121.404  1.00  0.00    -0.550 OA
ATOM     10  O   UNL     1      26.267 154.911 119.257  1.00  0.00    -0.550 OA
ENDBRANCH   7   8
ENDBRANCH   6   7
ENDBRANCH   5   6
ENDBRANCH   4   5
ENDBRANCH   3   4
ENDBRANCH   2   3
ENDBRANCH   1   2
BRANCH   1  11
ATOM     11  C   UNL     1      31.285 161.022 118.517  1.00  0.00     0.000 C 
BRANCH  11  12
ATOM     12  C   UNL     1      30.792 161.105 119.971  1.00  0.00    -0.000 C 
BRANCH  12  13
ATOM     13  C   UNL     1      31.752 160.421 120.960  1.00  0.00    -0.000 C 
BRANCH  13  14
ATOM     14  C   UNL     1      32.570 159.295 120.306  1.00  0.00    -0.000 C 
BRANCH  14  15
ATOM     15  C   UNL     1      32.112 157.893 120.746  1.00  0.00    -0.000 C 
BRANCH  15  16
ATOM     16  C   UNL     1      31.097 157.950 121.908  1.00  0.00    -0.000 C 
BRANCH  16  17
ATOM     17  C   UNL     1      29.720 157.366 121.550  1.00  0.00    -0.003 C 
ATOM     18  C   UNL     1      28.626 158.426 121.458  1.00  0.00     0.004 C 
ENDBRANCH  16  17
ENDBRANCH  15  16
ENDBRANCH  14  15
ENDBRANCH  13  14
ENDBRANCH  12  13
ENDBRANCH  11  12
ENDBRANCH   1  11
TORSDOF 14
ENDMDL
MODEL 5
REMARK VINA RESULT:    -3.827      2.709      4.158
REMARK INTER + INTRA:          -8.469
REMARK INTER:                  -6.504
REMARK INTRA:                  -1.965
REMARK UNBOUND:                -1.510
REMARK SMILES CCCCCCCCCCCCCCCC(=O)[O-]
REMARK SMILES IDX 9 1 10 2 11 3 12 4 13 5 14 6 15 7 16 8 17 9 18 10 8 11 7 12
REMARK SMILES IDX 6 13 5 14 4 15 3 16 2 17 1 18
REMARK H PARENT
REMARK Flexibility Score: inf
ROOT
ATOM      1  C   UNL     1      29.285 160.236 117.624  1.00  0.00     0.000 C 
ENDROOT
BRANCH   1   2
ATOM      2  C   UNL     1      27.841 160.751 117.620  1.00  0.00     0.000 C 
BRANCH   2   3
ATOM      3  C   UNL     1      26.991 160.006 116.584  1.00  0.00     0.000 C 
BRANCH   3   4
ATOM      4  C   UNL     1      26.115 158.939 117.256  1.00  0.00     0.000 C 
BRANCH   4   5
ATOM      5  C   UNL     1      25.612 159.373 118.643  1.00  0.00     0.000 C 
BRANCH   5   6
ATOM      6  C   UNL     1      25.489 158.194 119.624  1.00  0.00     0.006 C 
BRANCH   6   7
ATOM      7  C   UNL     1      25.623 156.838 118.919  1.00  0.00     0.053 C 
BRANCH   7   8
ATOM      8  C   UNL     1      26.151 155.782 119.841  1.00  0.00     0.041 C 
ATOM      9  O   UNL     1      26.293 154.599 119.435  1.00  0.00    -0.550 OA
ATOM     10  O   UNL     1      26.453 156.097 121.160  1.00  0.00    -0.550 OA
ENDBRANCH   7   8
ENDBRANCH   6   7
ENDBRANCH   5   6
ENDBRANCH   4   5
ENDBRANCH   3   4
ENDBRANCH   2   3
ENDBRANCH   1   2
BRANCH   1  11
ATOM     11  C   UNL     1      29.931 160.421 119.005  1.00  0.00     0.000 C 
BRANCH  11  12
ATOM     12  C   UNL     1      28.954 160.147 120.161  1.00  0.00    -0.000 C 
BRANCH  12  13
ATOM     13  C   UNL     1      28.863 158.651 120.514  1.00  0.00    -0.000 C 
BRANCH  13  14
ATOM     14  C   UNL     1      29.738 158.276 121.721  1.00  0.00    -0.000 C 
BRANCH  14  15
ATOM     15  C   UNL     1      30.830 157.249 121.369  1.00  0.00    -0.000 C 
BRANCH  15  16
ATOM     16  C   UNL     1      32.092 157.919 120.784  1.00  0.00    -0.000 C 
BRANCH  16  17
ATOM     17  C   UNL     1      32.478 159.228 121.495  1.00  0.00    -0.003 C 
ATOM     18  C   UNL     1      33.248 160.192 120.596  1.00  0.00     0.004 C 
ENDBRANCH  16  17
ENDBRANCH  15  16
ENDBRANCH  14  15
ENDBRANCH  13  14
ENDBRANCH  12  13
ENDBRANCH  11  12
ENDBRANCH   1  11
TORSDOF 14
ENDMDL
MODEL 6
REMARK VINA RESULT:    -3.793      2.629      4.971
REMARK INTER + INTRA:          -8.406
REMARK INTER:                  -6.727
REMARK INTRA:                  -1.679
REMARK UNBOUND:                -1.510
REMARK SMILES CCCCCCCCCCCCCCCC(=O)[O-]
REMARK SMILES IDX 9 1 10 2 11 3 12 4 13 5 14 6 15 7 16 8 17 9 18 10 8 11 7 12
REMARK SMILES IDX 6 13 5 14 4 15 3 16 2 17 1 18
REMARK H PARENT
REMARK Flexibility Score: inf
ROOT
ATOM      1  C   UNL     1      31.203 157.291 121.172  1.00  0.00     0.000 C 
ENDROOT
BRANCH   1   2
ATOM      2  C   UNL     1      30.452 158.274 122.077  1.00  0.00     0.000 C 
BRANCH   2   3
ATOM      3  C   UNL     1      28.934 158.129 121.912  1.00  0.00     0.000 C 
BRANCH   3   4
ATOM      4  C   UNL     1      28.459 158.776 120.602  1.00  0.00     0.000 C 
BRANCH   4   5
ATOM      5  C   UNL     1      26.927 158.874 120.513  1.00  0.00     0.000 C 
BRANCH   5   6
ATOM      6  C   UNL     1      26.358 158.156 119.277  1.00  0.00     0.006 C 
BRANCH   6   7
ATOM      7  C   UNL     1      25.394 157.025 119.657  1.00  0.00     0.053 C 
BRANCH   7   8
ATOM      8  C   UNL     1      26.128 155.793 120.093  1.00  0.00     0.041 C 
ATOM      9  O   UNL     1      26.389 154.883 119.263  1.00  0.00    -0.550 OA
ATOM     10  O   UNL     1      26.492 155.635 121.424  1.00  0.00    -0.550 OA
ENDBRANCH   7   8
ENDBRANCH   6   7
ENDBRANCH   5   6
ENDBRANCH   4   5
ENDBRANCH   3   4
ENDBRANCH   2   3
ENDBRANCH   1   2
BRANCH   1  11
ATOM     11  C   UNL     1      32.451 157.948 120.564  1.00  0.00     0.000 C 
BRANCH  11  12
ATOM     12  C   UNL     1      32.222 159.421 120.183  1.00  0.00    -0.000 C 
BRANCH  12  13
ATOM     13  C   UNL     1      32.029 159.615 118.669  1.00  0.00    -0.000 C 
BRANCH  13  14
ATOM     14  C   UNL     1      31.038 160.744 118.341  1.00  0.00    -0.000 C 
BRANCH  14  15
ATOM     15  C   UNL     1      29.726 160.226 117.725  1.00  0.00    -0.000 C 
BRANCH  15  16
ATOM     16  C   UNL     1      28.547 161.192 117.969  1.00  0.00    -0.000 C 
BRANCH  16  17
ATOM     17  C   UNL     1      27.334 160.924 117.062  1.00  0.00    -0.003 C 
ATOM     18  C   UNL     1      27.713 160.273 115.734  1.00  0.00     0.004 C 
ENDBRANCH  16  17
ENDBRANCH  15  16
ENDBRANCH  14  15
ENDBRANCH  13  14
ENDBRANCH  12  13
ENDBRANCH  11  12
ENDBRANCH   1  11
TORSDOF 14
ENDMDL
MODEL 7
REMARK VINA RESULT:    -3.780      2.170      4.972
REMARK INTER + INTRA:          -8.384
REMARK INTER:                  -6.597
REMARK INTRA:                  -1.786
REMARK UNBOUND:                -1.510
REMARK SMILES CCCCCCCCCCCCCCCC(=O)[O-]
REMARK SMILES IDX 9 1 10 2 11 3 12 4 13 5 14 6 15 7 16 8 17 9 18 10 8 11 7 12
REMARK SMILES IDX 6 13 5 14 4 15 3 16 2 17 1 18
REMARK H PARENT
REMARK Flexibility Score: inf
ROOT
ATOM      1  C   UNL     1      32.068 157.667 120.640  1.00  0.00     0.000 C 
ENDROOT
BRANCH   1   2
ATOM      2  C   UNL     1      31.127 157.635 121.849  1.00  0.00     0.000 C 
BRANCH   2   3
ATOM      3  C   UNL     1      29.660 157.604 121.407  1.00  0.00     0.000 C 
BRANCH   3   4
ATOM      4  C   UNL     1      29.058 159.017 121.397  1.00  0.00     0.000 C 
BRANCH   4   5
ATOM      5  C   UNL     1      27.579 159.027 120.978  1.00  0.00     0.000 C 
BRANCH   5   6
ATOM      6  C   UNL     1      27.068 157.632 120.575  1.00  0.00     0.006 C 
BRANCH   6   7
ATOM      7  C   UNL     1      25.796 157.706 119.720  1.00  0.00     0.053 C 
BRANCH   7   8
ATOM      8  C   UNL     1      25.710 156.564 118.754  1.00  0.00     0.041 C 
ATOM      9  O   UNL     1      25.324 156.761 117.572  1.00  0.00    -0.550 OA
ATOM     10  O   UNL     1      26.021 155.275 119.169  1.00  0.00    -0.550 OA
ENDBRANCH   7   8
ENDBRANCH   6   7
ENDBRANCH   5   6
ENDBRANCH   4   5
ENDBRANCH   3   4
ENDBRANCH   2   3
ENDBRANCH   1   2
BRANCH   1  11
ATOM     11  C   UNL     1      32.721 159.049 120.488  1.00  0.00     0.000 C 
BRANCH  11  12
ATOM     12  C   UNL     1      32.255 159.792 119.224  1.00  0.00    -0.000 C 
BRANCH  12  13
ATOM     13  C   UNL     1      31.638 161.165 119.542  1.00  0.00    -0.000 C 
BRANCH  13  14
ATOM     14  C   UNL     1      30.299 161.392 118.821  1.00  0.00    -0.000 C 
BRANCH  14  15
ATOM     15  C   UNL     1      29.927 160.234 117.878  1.00  0.00    -0.000 C 
BRANCH  15  16
ATOM     16  C   UNL     1      28.398 160.061 117.744  1.00  0.00    -0.000 C 
BRANCH  16  17
ATOM     17  C   UNL     1      27.858 160.430 116.352  1.00  0.00    -0.003 C 
ATOM     18  C   UNL     1      26.669 159.573 115.925  1.00  0.00     0.004 C 
ENDBRANCH  16  17
ENDBRANCH  15  16
ENDBRANCH  14  15
ENDBRANCH  13  14
ENDBRANCH  12  13
ENDBRANCH  11  12
ENDBRANCH   1  11
TORSDOF 14
ENDMDL
MODEL 8
REMARK VINA RESULT:    -3.725      2.640      4.968
REMARK INTER + INTRA:          -8.284
REMARK INTER:                  -6.373
REMARK INTRA:                  -1.911
REMARK UNBOUND:                -1.510
REMARK SMILES CCCCCCCCCCCCCCCC(=O)[O-]
REMARK SMILES IDX 9 1 10 2 11 3 12 4 13 5 14 6 15 7 16 8 17 9 18 10 8 11 7 12
REMARK SMILES IDX 6 13 5 14 4 15 3 16 2 17 1 18
REMARK H PARENT
REMARK Flexibility Score: inf
ROOT
ATOM      1  C   UNL     1      26.363 155.472 120.035  1.00  0.00     0.000 C 
ENDROOT
BRANCH   1   2
ATOM      2  C   UNL     1      26.287 156.279 121.336  1.00  0.00     0.000 C 
BRANCH   2   3
ATOM      3  C   UNL     1      27.687 156.619 121.859  1.00  0.00     0.000 C 
BRANCH   3   4
ATOM      4  C   UNL     1      27.925 158.136 121.850  1.00  0.00     0.000 C 
BRANCH   4   5
ATOM      5  C   UNL     1      29.234 158.525 121.144  1.00  0.00     0.000 C 
BRANCH   5   6
ATOM      6  C   UNL     1      30.483 158.128 121.950  1.00  0.00     0.006 C 
BRANCH   6   7
ATOM      7  C   UNL     1      31.597 157.568 121.055  1.00  0.00     0.053 C 
BRANCH   7   8
ATOM      8  C   UNL     1      32.468 158.656 120.507  1.00  0.00     0.041 C 
ATOM      9  O   UNL     1      32.607 158.792 119.263  1.00  0.00    -0.550 OA
ATOM     10  O   UNL     1      33.157 159.499 121.370  1.00  0.00    -0.550 OA
ENDBRANCH   7   8
ENDBRANCH   6   7
ENDBRANCH   5   6
ENDBRANCH   4   5
ENDBRANCH   3   4
ENDBRANCH   2   3
ENDBRANCH   1   2
BRANCH   1  11
ATOM     11  C   UNL     1      25.675 156.219 118.883  1.00  0.00     0.000 C 
BRANCH  11  12
ATOM     12  C   UNL     1      25.457 157.711 119.188  1.00  0.00    -0.000 C 
BRANCH  12  13
ATOM     13  C   UNL     1      26.402 158.621 118.384  1.00  0.00    -0.000 C 
BRANCH  13  14
ATOM     14  C   UNL     1      26.383 160.076 118.880  1.00  0.00    -0.000 C 
BRANCH  14  15
ATOM     15  C   UNL     1      27.418 160.963 118.165  1.00  0.00    -0.000 C 
BRANCH  15  16
ATOM     16  C   UNL     1      28.405 160.135 117.313  1.00  0.00    -0.000 C 
BRANCH  16  17
ATOM     17  C   UNL     1      29.864 160.242 117.787  1.00  0.00    -0.003 C 
ATOM     18  C   UNL     1      30.061 161.279 118.889  1.00  0.00     0.004 C 
ENDBRANCH  16  17
ENDBRANCH  15  16
ENDBRANCH  14  15
ENDBRANCH  13  14
ENDBRANCH  12  13
ENDBRANCH  11  12
ENDBRANCH   1  11
TORSDOF 14
ENDMDL
MODEL 9
REMARK VINA RESULT:    -3.593      2.873      5.818
REMARK INTER + INTRA:          -8.043
REMARK INTER:                  -6.249
REMARK INTRA:                  -1.794
REMARK UNBOUND:                -1.510
REMARK SMILES CCCCCCCCCCCCCCCC(=O)[O-]
REMARK SMILES IDX 9 1 10 2 11 3 12 4 13 5 14 6 15 7 16 8 17 9 18 10 8 11 7 12
REMARK SMILES IDX 6 13 5 14 4 15 3 16 2 17 1 18
REMARK H PARENT
REMARK Flexibility Score: inf
ROOT
ATOM      1  C   UNL     1      28.491 159.159 120.943  1.00  0.00     0.000 C 
ENDROOT
BRANCH   1   2
ATOM      2  C   UNL     1      28.739 159.629 119.505  1.00  0.00     0.000 C 
BRANCH   2   3
ATOM      3  C   UNL     1      29.035 161.133 119.459  1.00  0.00     0.000 C 
BRANCH   3   4
ATOM      4  C   UNL     1      30.365 161.410 118.741  1.00  0.00     0.000 C 
BRANCH   4   5
ATOM      5  C   UNL     1      30.881 160.191 117.960  1.00  0.00     0.000 C 
BRANCH   5   6
ATOM      6  C   UNL     1      32.324 159.814 118.338  1.00  0.00     0.006 C 
BRANCH   6   7
ATOM      7  C   UNL     1      32.631 160.102 119.814  1.00  0.00     0.053 C 
BRANCH   7   8
ATOM      8  C   UNL     1      32.416 158.892 120.671  1.00  0.00     0.041 C 
ATOM      9  O   UNL     1      31.921 159.011 121.823  1.00  0.00    -0.550 OA
ATOM     10  O   UNL     1      32.796 157.637 120.213  1.00  0.00    -0.550 OA
ENDBRANCH   7   8
ENDBRANCH   6   7
ENDBRANCH   5   6
ENDBRANCH   4   5
ENDBRANCH   3   4
ENDBRANCH   2   3
ENDBRANCH   1   2
BRANCH   1  11
ATOM     11  C   UNL     1      26.990 158.976 121.210  1.00  0.00     0.000 C 
BRANCH  11  12
ATOM     12  C   UNL     1      26.511 157.537 120.951  1.00  0.00    -0.000 C 
BRANCH  12  13
ATOM     13  C   UNL     1      25.315 157.479 119.984  1.00  0.00    -0.000 C 
BRANCH  13  14
ATOM     14  C   UNL     1      25.577 156.566 118.776  1.00  0.00    -0.000 C 
BRANCH  14  15
ATOM     15  C   UNL     1      25.527 157.322 117.436  1.00  0.00    -0.000 C 
BRANCH  15  16
ATOM     16  C   UNL     1      25.650 158.849 117.624  1.00  0.00    -0.000 C 
BRANCH  16  17
ATOM     17  C   UNL     1      26.623 159.514 116.636  1.00  0.00    -0.003 C 
ATOM     18  C   UNL     1      26.243 160.953 116.298  1.00  0.00     0.004 C 
ENDBRANCH  16  17
ENDBRANCH  15  16
ENDBRANCH  14  15
ENDBRANCH  13  14
ENDBRANCH  12  13
ENDBRANCH  11  12
ENDBRANCH   1  11
TORSDOF 14
ENDMDL
