MODEL 1
REMARK VINA RESULT:    -5.211      0.000      0.000
REMARK INTER + INTRA:         -12.281
REMARK INTER:                 -10.086
REMARK INTRA:                  -2.195
REMARK UNBOUND:                -2.195
REMARK SMILES CCCCCCCCCCCCCCCCCC(=O)[O-]
REMARK SMILES IDX 10 1 11 2 12 3 13 4 14 5 15 6 16 7 17 8 18 9 19 10 20 11
REMARK SMILES IDX 9 12 8 13 7 14 6 15 5 16 4 17 3 18 2 19 1 20
REMARK H PARENT
REMARK Flexibility Score: inf
ROOT
ATOM      1  C   UNL     1      77.979  11.555  19.581  1.00  0.00     0.000 C 
ENDROOT
BRANCH   1   2
ATOM      2  C   UNL     1      77.972  13.082  19.747  1.00  0.00     0.000 C 
BRANCH   2   3
ATOM      3  C   UNL     1      78.241  13.820  18.423  1.00  0.00     0.000 C 
BRANCH   3   4
ATOM      4  C   UNL     1      77.956  15.333  18.531  1.00  0.00     0.000 C 
BRANCH   4   5
ATOM      5  C   UNL     1      79.224  16.192  18.701  1.00  0.00     0.000 C 
BRANCH   5   6
ATOM      6  C   UNL     1      79.931  16.041  20.059  1.00  0.00     0.000 C 
BRANCH   6   7
ATOM      7  C   UNL     1      81.345  15.447  19.930  1.00  0.00     0.006 C 
BRANCH   7   8
ATOM      8  C   UNL     1      81.499  14.146  20.729  1.00  0.00     0.053 C 
BRANCH   8   9
ATOM      9  C   UNL     1      81.940  13.008  19.860  1.00  0.00     0.041 C 
ATOM     10  O   UNL     1      81.450  12.863  18.709  1.00  0.00    -0.550 OA
ATOM     11  O   UNL     1      82.871  12.093  20.333  1.00  0.00    -0.550 OA
ENDBRANCH   8   9
ENDBRANCH   7   8
ENDBRANCH   6   7
ENDBRANCH   5   6
ENDBRANCH   4   5
ENDBRANCH   3   4
ENDBRANCH   2   3
ENDBRANCH   1   2
BRANCH   1  12
ATOM     12  C   UNL     1      76.580  10.940  19.762  1.00  0.00     0.000 C 
BRANCH  12  13
ATOM     13  C   UNL     1      75.510  11.988  20.116  1.00  0.00    -0.000 C 
BRANCH  13  14
ATOM     14  C   UNL     1      74.172  11.826  19.368  1.00  0.00    -0.000 C 
BRANCH  14  15
ATOM     15  C   UNL     1      73.626  13.111  18.712  1.00  0.00    -0.000 C 
BRANCH  15  16
ATOM     16  C   UNL     1      74.679  13.955  17.971  1.00  0.00    -0.000 C 
BRANCH  16  17
ATOM     17  C   UNL     1      75.030  13.386  16.586  1.00  0.00    -0.000 C 
BRANCH  17  18
ATOM     18  C   UNL     1      75.454  14.473  15.584  1.00  0.00    -0.000 C 
BRANCH  18  19
ATOM     19  C   UNL     1      74.699  15.807  15.722  1.00  0.00    -0.003 C 
ATOM     20  C   UNL     1      75.535  17.015  15.300  1.00  0.00     0.004 C 
ENDBRANCH  18  19
ENDBRANCH  17  18
ENDBRANCH  16  17
ENDBRANCH  15  16
ENDBRANCH  14  15
ENDBRANCH  13  14
ENDBRANCH  12  13
ENDBRANCH   1  12
TORSDOF 16
ENDMDL
MODEL 2
REMARK VINA RESULT:    -5.164      1.529      3.165
REMARK INTER + INTRA:         -12.189
REMARK INTER:                  -9.533
REMARK INTRA:                  -2.656
REMARK UNBOUND:                -2.195
REMARK SMILES CCCCCCCCCCCCCCCCCC(=O)[O-]
REMARK SMILES IDX 10 1 11 2 12 3 13 4 14 5 15 6 16 7 17 8 18 9 19 10 20 11
REMARK SMILES IDX 9 12 8 13 7 14 6 15 5 16 4 17 3 18 2 19 1 20
REMARK H PARENT
REMARK Flexibility Score: inf
ROOT
ATOM      1  C   UNL     1      75.574  11.948  20.205  1.00  0.00     0.000 C 
ENDROOT
BRANCH   1   2
ATOM      2  C   UNL     1      76.668  10.880  20.061  1.00  0.00     0.000 C 
BRANCH   2   3
ATOM      3  C   UNL     1      76.609  10.157  18.704  1.00  0.00     0.000 C 
BRANCH   3   4
ATOM      4  C   UNL     1      77.790  10.542  17.787  1.00  0.00     0.000 C 
BRANCH   4   5
ATOM      5  C   UNL     1      78.755  11.566  18.417  1.00  0.00     0.000 C 
BRANCH   5   6
ATOM      6  C   UNL     1      78.672  12.983  17.826  1.00  0.00     0.000 C 
BRANCH   6   7
ATOM      7  C   UNL     1      78.351  14.051  18.885  1.00  0.00     0.006 C 
BRANCH   7   8
ATOM      8  C   UNL     1      79.087  13.793  20.207  1.00  0.00     0.053 C 
BRANCH   8   9
ATOM      9  C   UNL     1      80.100  14.857  20.497  1.00  0.00     0.041 C 
ATOM     10  O   UNL     1      81.201  14.556  21.031  1.00  0.00    -0.550 OA
ATOM     11  O   UNL     1      79.818  16.185  20.203  1.00  0.00    -0.550 OA
ENDBRANCH   8   9
ENDBRANCH   7   8
ENDBRANCH   6   7
ENDBRANCH   5   6
ENDBRANCH   4   5
ENDBRANCH   3   4
ENDBRANCH   2   3
ENDBRANCH   1   2
BRANCH   1  12
ATOM     12  C   UNL     1      74.491  11.828  19.119  1.00  0.00     0.000 C 
BRANCH  12  13
ATOM     13  C   UNL     1      73.896  13.191  18.719  1.00  0.00    -0.000 C 
BRANCH  13  14
ATOM     14  C   UNL     1      74.478  13.797  17.427  1.00  0.00    -0.000 C 
BRANCH  14  15
ATOM     15  C   UNL     1      75.171  12.792  16.484  1.00  0.00    -0.000 C 
BRANCH  15  16
ATOM     16  C   UNL     1      76.026  13.431  15.375  1.00  0.00    -0.000 C 
BRANCH  16  17
ATOM     17  C   UNL     1      75.554  14.846  15.001  1.00  0.00    -0.000 C 
BRANCH  17  18
ATOM     18  C   UNL     1      76.588  15.931  15.344  1.00  0.00    -0.000 C 
BRANCH  18  19
ATOM     19  C   UNL     1      76.019  17.359  15.437  1.00  0.00    -0.003 C 
ATOM     20  C   UNL     1      74.899  17.490  16.467  1.00  0.00     0.004 C 
ENDBRANCH  18  19
ENDBRANCH  17  18
ENDBRANCH  16  17
ENDBRANCH  15  16
ENDBRANCH  14  15
ENDBRANCH  13  14
ENDBRANCH  12  13
ENDBRANCH   1  12
TORSDOF 16
ENDMDL
MODEL 3
REMARK VINA RESULT:    -5.137      1.097      2.430
REMARK INTER + INTRA:         -12.138
REMARK INTER:                  -9.997
REMARK INTRA:                  -2.141
REMARK UNBOUND:                -2.195
REMARK SMILES CCCCCCCCCCCCCCCCCC(=O)[O-]
REMARK SMILES IDX 10 1 11 2 12 3 13 4 14 5 15 6 16 7 17 8 18 9 19 10 20 11
REMARK SMILES IDX 9 12 8 13 7 14 6 15 5 16 4 17 3 18 2 19 1 20
REMARK H PARENT
REMARK Flexibility Score: inf
ROOT
ATOM      1  C   UNL     1      75.230  12.071  20.071  1.00  0.00     0.000 C 
ENDROOT
BRANCH   1   2
ATOM      2  C   UNL     1      76.591  11.461  19.704  1.00  0.00     0.000 C 
BRANCH   2   3
ATOM      3  C   UNL     1      77.744  12.472  19.838  1.00  0.00     0.000 C 
BRANCH   3   4
ATOM      4  C   UNL     1      77.910  13.337  18.571  1.00  0.00     0.000 C 
BRANCH   4   5
ATOM      5  C   UNL     1      77.904  14.854  18.850  1.00  0.00     0.000 C 
BRANCH   5   6
ATOM      6  C   UNL     1      79.269  15.545  18.702  1.00  0.00     0.000 C 
BRANCH   6   7
ATOM      7  C   UNL     1      79.872  15.968  20.053  1.00  0.00     0.006 C 
BRANCH   7   8
ATOM      8  C   UNL     1      80.239  14.760  20.924  1.00  0.00     0.053 C 
BRANCH   8   9
ATOM      9  C   UNL     1      81.443  14.040  20.397  1.00  0.00     0.041 C 
ATOM     10  O   UNL     1      81.309  12.952  19.776  1.00  0.00    -0.550 OA
ATOM     11  O   UNL     1      82.713  14.555  20.618  1.00  0.00    -0.550 OA
ENDBRANCH   8   9
ENDBRANCH   7   8
ENDBRANCH   6   7
ENDBRANCH   5   6
ENDBRANCH   4   5
ENDBRANCH   3   4
ENDBRANCH   2   3
ENDBRANCH   1   2
BRANCH   1  12
ATOM     12  C   UNL     1      74.214  11.971  18.920  1.00  0.00     0.000 C 
BRANCH  12  13
ATOM     13  C   UNL     1      74.290  13.167  17.955  1.00  0.00    -0.000 C 
BRANCH  13  14
ATOM     14  C   UNL     1      74.997  12.875  16.616  1.00  0.00    -0.000 C 
BRANCH  14  15
ATOM     15  C   UNL     1      75.229  14.104  15.714  1.00  0.00    -0.000 C 
BRANCH  15  16
ATOM     16  C   UNL     1      74.996  15.462  16.400  1.00  0.00    -0.000 C 
BRANCH  16  17
ATOM     17  C   UNL     1      74.552  16.558  15.416  1.00  0.00    -0.000 C 
BRANCH  17  18
ATOM     18  C   UNL     1      75.655  17.595  15.141  1.00  0.00    -0.000 C 
BRANCH  18  19
ATOM     19  C   UNL     1      76.829  17.568  16.136  1.00  0.00    -0.003 C 
ATOM     20  C   UNL     1      78.136  17.091  15.506  1.00  0.00     0.004 C 
ENDBRANCH  18  19
ENDBRANCH  17  18
ENDBRANCH  16  17
ENDBRANCH  15  16
ENDBRANCH  14  15
ENDBRANCH  13  14
ENDBRANCH  12  13
ENDBRANCH   1  12
TORSDOF 16
ENDMDL
MODEL 4
REMARK VINA RESULT:    -5.083      2.681      6.749
REMARK INTER + INTRA:         -12.033
REMARK INTER:                  -9.505
REMARK INTRA:                  -2.528
REMARK UNBOUND:                -2.195
REMARK SMILES CCCCCCCCCCCCCCCCCC(=O)[O-]
REMARK SMILES IDX 10 1 11 2 12 3 13 4 14 5 15 6 16 7 17 8 18 9 19 10 20 11
REMARK SMILES IDX 9 12 8 13 7 14 6 15 5 16 4 17 3 18 2 19 1 20
REMARK H PARENT
REMARK Flexibility Score: inf
ROOT
ATOM      1  C   UNL     1      78.499  12.474  18.577  1.00  0.00     0.000 C 
ENDROOT
BRANCH   1   2
ATOM      2  C   UNL     1      77.833  12.719  19.940  1.00  0.00     0.000 C 
BRANCH   2   3
ATOM      3  C   UNL     1      76.762  11.664  20.270  1.00  0.00     0.000 C 
BRANCH   3   4
ATOM      4  C   UNL     1      75.767  11.460  19.108  1.00  0.00     0.000 C 
BRANCH   4   5
ATOM      5  C   UNL     1      74.349  11.987  19.406  1.00  0.00     0.000 C 
BRANCH   5   6
ATOM      6  C   UNL     1      74.012  13.341  18.762  1.00  0.00     0.000 C 
BRANCH   6   7
ATOM      7  C   UNL     1      74.512  13.450  17.311  1.00  0.00     0.006 C 
BRANCH   7   8
ATOM      8  C   UNL     1      74.851  14.896  16.924  1.00  0.00     0.053 C 
BRANCH   8   9
ATOM      9  C   UNL     1      75.317  14.998  15.504  1.00  0.00     0.041 C 
ATOM     10  O   UNL     1      75.878  14.016  14.949  1.00  0.00    -0.550 OA
ATOM     11  O   UNL     1      75.157  16.186  14.803  1.00  0.00    -0.550 OA
ENDBRANCH   8   9
ENDBRANCH   7   8
ENDBRANCH   6   7
ENDBRANCH   5   6
ENDBRANCH   4   5
ENDBRANCH   3   4
ENDBRANCH   2   3
ENDBRANCH   1   2
BRANCH   1  12
ATOM     12  C   UNL     1      78.458  13.718  17.673  1.00  0.00     0.000 C 
BRANCH  12  13
ATOM     13  C   UNL     1      78.029  14.989  18.428  1.00  0.00    -0.000 C 
BRANCH  13  14
ATOM     14  C   UNL     1      78.922  16.221  18.181  1.00  0.00    -0.000 C 
BRANCH  14  15
ATOM     15  C   UNL     1      80.150  16.338  19.107  1.00  0.00    -0.000 C 
BRANCH  15  16
ATOM     16  C   UNL     1      79.961  15.735  20.510  1.00  0.00    -0.000 C 
BRANCH  16  17
ATOM     17  C   UNL     1      80.896  14.543  20.777  1.00  0.00    -0.000 C 
BRANCH  17  18
ATOM     18  C   UNL     1      82.190  14.603  19.947  1.00  0.00    -0.000 C 
BRANCH  18  19
ATOM     19  C   UNL     1      82.389  13.424  18.977  1.00  0.00    -0.003 C 
ATOM     20  C   UNL     1      82.682  12.105  19.691  1.00  0.00     0.004 C 
ENDBRANCH  18  19
ENDBRANCH  17  18
ENDBRANCH  16  17
ENDBRANCH  15  16
ENDBRANCH  14  15
ENDBRANCH  13  14
ENDBRANCH  12  13
ENDBRANCH   1  12
TORSDOF 16
ENDMDL
MODEL 5
REMARK VINA RESULT:    -5.042      2.609      6.502
REMARK INTER + INTRA:         -11.954
REMARK INTER:                  -9.921
REMARK INTRA:                  -2.032
REMARK UNBOUND:                -2.195
REMARK SMILES CCCCCCCCCCCCCCCCCC(=O)[O-]
REMARK SMILES IDX 10 1 11 2 12 3 13 4 14 5 15 6 16 7 17 8 18 9 19 10 20 11
REMARK SMILES IDX 9 12 8 13 7 14 6 15 5 16 4 17 3 18 2 19 1 20
REMARK H PARENT
REMARK Flexibility Score: inf
ROOT
ATOM      1  C   UNL     1      76.696  10.880  19.748  1.00  0.00     0.000 C 
ENDROOT
BRANCH   1   2
ATOM      2  C   UNL     1      75.622  11.884  20.193  1.00  0.00     0.000 C 
BRANCH   2   3
ATOM      3  C   UNL     1      74.301  11.714  19.422  1.00  0.00     0.000 C 
BRANCH   3   4
ATOM      4  C   UNL     1      74.137  12.769  18.308  1.00  0.00     0.000 C 
BRANCH   4   5
ATOM      5  C   UNL     1      74.685  14.160  18.685  1.00  0.00     0.000 C 
BRANCH   5   6
ATOM      6  C   UNL     1      75.157  15.014  17.497  1.00  0.00     0.000 C 
BRANCH   6   7
ATOM      7  C   UNL     1      75.071  14.267  16.155  1.00  0.00     0.006 C 
BRANCH   7   8
ATOM      8  C   UNL     1      76.011  14.864  15.100  1.00  0.00     0.053 C 
BRANCH   8   9
ATOM      9  C   UNL     1      76.050  16.360  15.173  1.00  0.00     0.041 C 
ATOM     10  O   UNL     1      77.118  16.953  15.480  1.00  0.00    -0.550 OA
ATOM     11  O   UNL     1      74.898  17.097  14.928  1.00  0.00    -0.550 OA
ENDBRANCH   8   9
ENDBRANCH   7   8
ENDBRANCH   6   7
ENDBRANCH   5   6
ENDBRANCH   4   5
ENDBRANCH   3   4
ENDBRANCH   2   3
ENDBRANCH   1   2
BRANCH   1  12
ATOM     12  C   UNL     1      77.974  11.574  19.244  1.00  0.00     0.000 C 
BRANCH  12  13
ATOM     13  C   UNL     1      78.109  13.018  19.758  1.00  0.00    -0.000 C 
BRANCH  13  14
ATOM     14  C   UNL     1      78.314  14.080  18.660  1.00  0.00    -0.000 C 
BRANCH  14  15
ATOM     15  C   UNL     1      78.924  15.413  19.141  1.00  0.00    -0.000 C 
BRANCH  15  16
ATOM     16  C   UNL     1      79.852  15.294  20.363  1.00  0.00    -0.000 C 
BRANCH  16  17
ATOM     17  C   UNL     1      81.337  15.184  19.975  1.00  0.00    -0.000 C 
BRANCH  17  18
ATOM     18  C   UNL     1      82.128  14.246  20.903  1.00  0.00    -0.000 C 
BRANCH  18  19
ATOM     19  C   UNL     1      82.409  12.849  20.322  1.00  0.00    -0.003 C 
ATOM     20  C   UNL     1      81.909  12.687  18.887  1.00  0.00     0.004 C 
ENDBRANCH  18  19
ENDBRANCH  17  18
ENDBRANCH  16  17
ENDBRANCH  15  16
ENDBRANCH  14  15
ENDBRANCH  13  14
ENDBRANCH  12  13
ENDBRANCH   1  12
TORSDOF 16
ENDMDL
MODEL 6
REMARK VINA RESULT:    -5.041      1.309      2.263
REMARK INTER + INTRA:         -11.952
REMARK INTER:                  -9.444
REMARK INTRA:                  -2.507
REMARK UNBOUND:                -2.195
REMARK SMILES CCCCCCCCCCCCCCCCCC(=O)[O-]
REMARK SMILES IDX 10 1 11 2 12 3 13 4 14 5 15 6 16 7 17 8 18 9 19 10 20 11
REMARK SMILES IDX 9 12 8 13 7 14 6 15 5 16 4 17 3 18 2 19 1 20
REMARK H PARENT
REMARK Flexibility Score: inf
ROOT
ATOM      1  C   UNL     1      76.710   9.907  18.920  1.00  0.00     0.000 C 
ENDROOT
BRANCH   1   2
ATOM      2  C   UNL     1      77.766  10.309  17.879  1.00  0.00     0.000 C 
BRANCH   2   3
ATOM      3  C   UNL     1      79.196  10.271  18.447  1.00  0.00     0.000 C 
BRANCH   3   4
ATOM      4  C   UNL     1      79.857  11.666  18.453  1.00  0.00     0.000 C 
BRANCH   4   5
ATOM      5  C   UNL     1      78.994  12.764  17.800  1.00  0.00     0.000 C 
BRANCH   5   6
ATOM      6  C   UNL     1      78.528  13.875  18.756  1.00  0.00     0.000 C 
BRANCH   6   7
ATOM      7  C   UNL     1      79.105  13.721  20.173  1.00  0.00     0.006 C 
BRANCH   7   8
ATOM      8  C   UNL     1      79.998  14.907  20.564  1.00  0.00     0.053 C 
BRANCH   8   9
ATOM      9  C   UNL     1      81.453  14.581  20.413  1.00  0.00     0.041 C 
ATOM     10  O   UNL     1      82.121  14.189  21.406  1.00  0.00    -0.550 OA
ATOM     11  O   UNL     1      82.076  14.739  19.182  1.00  0.00    -0.550 OA
ENDBRANCH   8   9
ENDBRANCH   7   8
ENDBRANCH   6   7
ENDBRANCH   5   6
ENDBRANCH   4   5
ENDBRANCH   3   4
ENDBRANCH   2   3
ENDBRANCH   1   2
BRANCH   1  12
ATOM     12  C   UNL     1      76.849  10.699  20.232  1.00  0.00     0.000 C 
BRANCH  12  13
ATOM     13  C   UNL     1      75.793  11.810  20.372  1.00  0.00    -0.000 C 
BRANCH  13  14
ATOM     14  C   UNL     1      74.539  11.625  19.495  1.00  0.00    -0.000 C 
BRANCH  14  15
ATOM     15  C   UNL     1      73.873  12.932  19.017  1.00  0.00    -0.000 C 
BRANCH  15  16
ATOM     16  C   UNL     1      74.792  13.869  18.214  1.00  0.00    -0.000 C 
BRANCH  16  17
ATOM     17  C   UNL     1      75.223  13.267  16.865  1.00  0.00    -0.000 C 
BRANCH  17  18
ATOM     18  C   UNL     1      75.169  14.286  15.714  1.00  0.00    -0.000 C 
BRANCH  18  19
ATOM     19  C   UNL     1      75.332  15.755  16.144  1.00  0.00    -0.003 C 
ATOM     20  C   UNL     1      74.763  16.743  15.127  1.00  0.00     0.004 C 
ENDBRANCH  18  19
ENDBRANCH  17  18
ENDBRANCH  16  17
ENDBRANCH  15  16
ENDBRANCH  14  15
ENDBRANCH  13  14
ENDBRANCH  12  13
ENDBRANCH   1  12
TORSDOF 16
ENDMDL
MODEL 7
REMARK VINA RESULT:    -4.939      2.064      5.651
REMARK INTER + INTRA:         -11.754
REMARK INTER:                  -9.000
REMARK INTRA:                  -2.754
REMARK UNBOUND:                -2.195
REMARK SMILES CCCCCCCCCCCCCCCCCC(=O)[O-]
REMARK SMILES IDX 10 1 11 2 12 3 13 4 14 5 15 6 16 7 17 8 18 9 19 10 20 11
REMARK SMILES IDX 9 12 8 13 7 14 6 15 5 16 4 17 3 18 2 19 1 20
REMARK H PARENT
REMARK Flexibility Score: inf
ROOT
ATOM      1  C   UNL     1      75.476  15.009  17.718  1.00  0.00     0.000 C 
ENDROOT
BRANCH   1   2
ATOM      2  C   UNL     1      75.107  13.913  16.707  1.00  0.00     0.000 C 
BRANCH   2   3
ATOM      3  C   UNL     1      74.234  12.808  17.329  1.00  0.00     0.000 C 
BRANCH   3   4
ATOM      4  C   UNL     1      74.024  13.015  18.844  1.00  0.00     0.000 C 
BRANCH   4   5
ATOM      5  C   UNL     1      74.659  11.912  19.714  1.00  0.00     0.000 C 
BRANCH   5   6
ATOM      6  C   UNL     1      76.189  11.994  19.847  1.00  0.00     0.000 C 
BRANCH   6   7
ATOM      7  C   UNL     1      76.857  10.609  19.894  1.00  0.00     0.006 C 
BRANCH   7   8
ATOM      8  C   UNL     1      76.578   9.790  18.626  1.00  0.00     0.053 C 
BRANCH   8   9
ATOM      9  C   UNL     1      77.510  10.155  17.512  1.00  0.00     0.041 C 
ATOM     10  O   UNL     1      78.750   9.975  17.638  1.00  0.00    -0.550 OA
ATOM     11  O   UNL     1      77.011  10.722  16.346  1.00  0.00    -0.550 OA
ENDBRANCH   8   9
ENDBRANCH   7   8
ENDBRANCH   6   7
ENDBRANCH   5   6
ENDBRANCH   4   5
ENDBRANCH   3   4
ENDBRANCH   2   3
ENDBRANCH   1   2
BRANCH   1  12
ATOM     12  C   UNL     1      76.996  15.129  17.925  1.00  0.00     0.000 C 
BRANCH  12  13
ATOM     13  C   UNL     1      77.775  13.957  17.301  1.00  0.00    -0.000 C 
BRANCH  13  14
ATOM     14  C   UNL     1      79.271  13.907  17.668  1.00  0.00    -0.000 C 
BRANCH  14  15
ATOM     15  C   UNL     1      79.613  13.074  18.921  1.00  0.00    -0.000 C 
BRANCH  15  16
ATOM     16  C   UNL     1      79.487  13.832  20.254  1.00  0.00    -0.000 C 
BRANCH  16  17
ATOM     17  C   UNL     1      80.463  15.017  20.359  1.00  0.00    -0.000 C 
BRANCH  17  18
ATOM     18  C   UNL     1      79.788  16.372  20.090  1.00  0.00    -0.000 C 
BRANCH  18  19
ATOM     19  C   UNL     1      80.512  17.260  19.062  1.00  0.00    -0.003 C 
ATOM     20  C   UNL     1      79.589  17.766  17.954  1.00  0.00     0.004 C 
ENDBRANCH  18  19
ENDBRANCH  17  18
ENDBRANCH  16  17
ENDBRANCH  15  16
ENDBRANCH  14  15
ENDBRANCH  13  14
ENDBRANCH  12  13
ENDBRANCH   1  12
TORSDOF 16
ENDMDL
MODEL 8
REMARK VINA RESULT:    -4.935      2.925      6.531
REMARK INTER + INTRA:         -11.746
REMARK INTER:                  -9.512
REMARK INTRA:                  -2.235
REMARK UNBOUND:                -2.195
REMARK SMILES CCCCCCCCCCCCCCCCCC(=O)[O-]
REMARK SMILES IDX 10 1 11 2 12 3 13 4 14 5 15 6 16 7 17 8 18 9 19 10 20 11
REMARK SMILES IDX 9 12 8 13 7 14 6 15 5 16 4 17 3 18 2 19 1 20
REMARK H PARENT
REMARK Flexibility Score: inf
ROOT
ATOM      1  C   UNL     1      77.750  12.309  20.028  1.00  0.00     0.000 C 
ENDROOT
BRANCH   1   2
ATOM      2  C   UNL     1      76.387  11.773  20.492  1.00  0.00     0.000 C 
BRANCH   2   3
ATOM      3  C   UNL     1      75.464  11.412  19.314  1.00  0.00     0.000 C 
BRANCH   3   4
ATOM      4  C   UNL     1      74.256  12.365  19.206  1.00  0.00     0.000 C 
BRANCH   4   5
ATOM      5  C   UNL     1      74.469  13.527  18.215  1.00  0.00     0.000 C 
BRANCH   5   6
ATOM      6  C   UNL     1      74.961  13.107  16.820  1.00  0.00     0.000 C 
BRANCH   6   7
ATOM      7  C   UNL     1      76.164  13.936  16.339  1.00  0.00     0.006 C 
BRANCH   7   8
ATOM      8  C   UNL     1      75.883  14.640  15.005  1.00  0.00     0.053 C 
BRANCH   8   9
ATOM      9  C   UNL     1      75.387  16.039  15.208  1.00  0.00     0.041 C 
ATOM     10  O   UNL     1      76.174  17.015  15.085  1.00  0.00    -0.550 OA
ATOM     11  O   UNL     1      74.062  16.263  15.561  1.00  0.00    -0.550 OA
ENDBRANCH   8   9
ENDBRANCH   7   8
ENDBRANCH   6   7
ENDBRANCH   5   6
ENDBRANCH   4   5
ENDBRANCH   3   4
ENDBRANCH   2   3
ENDBRANCH   1   2
BRANCH   1  12
ATOM     12  C   UNL     1      78.173  11.734  18.666  1.00  0.00     0.000 C 
BRANCH  12  13
ATOM     13  C   UNL     1      79.466  12.371  18.126  1.00  0.00    -0.000 C 
BRANCH  13  14
ATOM     14  C   UNL     1      80.729  11.499  18.276  1.00  0.00    -0.000 C 
BRANCH  14  15
ATOM     15  C   UNL     1      81.778  12.028  19.276  1.00  0.00    -0.000 C 
BRANCH  15  16
ATOM     16  C   UNL     1      81.946  13.558  19.284  1.00  0.00    -0.000 C 
BRANCH  16  17
ATOM     17  C   UNL     1      81.752  14.171  20.682  1.00  0.00    -0.000 C 
BRANCH  17  18
ATOM     18  C   UNL     1      80.329  14.710  20.905  1.00  0.00    -0.000 C 
BRANCH  18  19
ATOM     19  C   UNL     1      79.989  15.982  20.108  1.00  0.00    -0.003 C 
ATOM     20  C   UNL     1      78.871  15.768  19.089  1.00  0.00     0.004 C 
ENDBRANCH  18  19
ENDBRANCH  17  18
ENDBRANCH  16  17
ENDBRANCH  15  16
ENDBRANCH  14  15
ENDBRANCH  13  14
ENDBRANCH  12  13
ENDBRANCH   1  12
TORSDOF 16
ENDMDL
MODEL 9
REMARK VINA RESULT:    -4.911      2.623      3.710
REMARK INTER + INTRA:         -11.701
REMARK INTER:                  -9.393
REMARK INTRA:                  -2.308
REMARK UNBOUND:                -2.195
REMARK SMILES CCCCCCCCCCCCCCCCCC(=O)[O-]
REMARK SMILES IDX 10 1 11 2 12 3 13 4 14 5 15 6 16 7 17 8 18 9 19 10 20 11
REMARK SMILES IDX 9 12 8 13 7 14 6 15 5 16 4 17 3 18 2 19 1 20
REMARK H PARENT
REMARK Flexibility Score: inf
ROOT
ATOM      1  C   UNL     1      77.756  11.714  19.873  1.00  0.00     0.000 C 
ENDROOT
BRANCH   1   2
ATOM      2  C   UNL     1      78.214  13.167  19.674  1.00  0.00     0.000 C 
BRANCH   2   3
ATOM      3  C   UNL     1      79.737  13.284  19.482  1.00  0.00     0.000 C 
BRANCH   3   4
ATOM      4  C   UNL     1      80.383  14.232  20.514  1.00  0.00     0.000 C 
BRANCH   4   5
ATOM      5  C   UNL     1      80.952  15.525  19.897  1.00  0.00     0.000 C 
BRANCH   5   6
ATOM      6  C   UNL     1      79.944  16.679  19.769  1.00  0.00     0.000 C 
BRANCH   6   7
ATOM      7  C   UNL     1      79.779  17.168  18.320  1.00  0.00     0.006 C 
BRANCH   7   8
ATOM      8  C   UNL     1      78.648  16.432  17.588  1.00  0.00     0.053 C 
BRANCH   8   9
ATOM      9  C   UNL     1      78.150  17.211  16.410  1.00  0.00     0.041 C 
ATOM     10  O   UNL     1      78.929  17.494  15.461  1.00  0.00    -0.550 OA
ATOM     11  O   UNL     1      76.832  17.649  16.373  1.00  0.00    -0.550 OA
ENDBRANCH   8   9
ENDBRANCH   7   8
ENDBRANCH   6   7
ENDBRANCH   5   6
ENDBRANCH   4   5
ENDBRANCH   3   4
ENDBRANCH   2   3
ENDBRANCH   1   2
BRANCH   1  12
ATOM     12  C   UNL     1      76.322  11.622  20.423  1.00  0.00     0.000 C 
BRANCH  12  13
ATOM     13  C   UNL     1      75.283  11.321  19.328  1.00  0.00    -0.000 C 
BRANCH  13  14
ATOM     14  C   UNL     1      73.991  12.157  19.415  1.00  0.00    -0.000 C 
BRANCH  14  15
ATOM     15  C   UNL     1      73.772  13.150  18.255  1.00  0.00    -0.000 C 
BRANCH  15  16
ATOM     16  C   UNL     1      74.753  14.336  18.227  1.00  0.00    -0.000 C 
BRANCH  16  17
ATOM     17  C   UNL     1      75.740  14.264  17.049  1.00  0.00    -0.000 C 
BRANCH  17  18
ATOM     18  C   UNL     1      75.415  13.125  16.068  1.00  0.00    -0.000 C 
BRANCH  18  19
ATOM     19  C   UNL     1      76.645  12.463  15.420  1.00  0.00    -0.003 C 
ATOM     20  C   UNL     1      77.059  11.165  16.111  1.00  0.00     0.004 C 
ENDBRANCH  18  19
ENDBRANCH  17  18
ENDBRANCH  16  17
ENDBRANCH  15  16
ENDBRANCH  14  15
ENDBRANCH  13  14
ENDBRANCH  12  13
ENDBRANCH   1  12
TORSDOF 16
ENDMDL
