MODEL 1
REMARK VINA RESULT:    -4.468      0.000      0.000
REMARK INTER + INTRA:         -12.969
REMARK INTER:                  -9.692
REMARK INTRA:                  -3.278
REMARK UNBOUND:                -3.278
REMARK SMILES CCCCCCCCCCCCCCCCCCCCCC(=O)[O-]
REMARK SMILES IDX 12 1 11 2 10 3 9 4 8 5 7 6 6 7 5 8 4 9 3 10 2 11 1 12 13 13
REMARK SMILES IDX 14 14 15 15 16 16 17 17 18 18 19 19 20 20 21 21 22 22 23 23
REMARK SMILES IDX 24 24
REMARK H PARENT
REMARK Flexibility Score: inf
ROOT
ATOM      1  C   UNL     1     -11.064   6.825 -10.768  1.00  0.00     0.000 C 
ENDROOT
BRANCH   1   2
ATOM      2  C   UNL     1     -12.415   6.154 -11.076  1.00  0.00     0.000 C 
BRANCH   2   3
ATOM      3  C   UNL     1     -12.943   5.328  -9.884  1.00  0.00     0.000 C 
BRANCH   3   4
ATOM      4  C   UNL     1     -12.820   3.807 -10.086  1.00  0.00    -0.000 C 
BRANCH   4   5
ATOM      5  C   UNL     1     -11.810   3.157  -9.126  1.00  0.00    -0.000 C 
BRANCH   5   6
ATOM      6  C   UNL     1     -11.189   4.166  -8.148  1.00  0.00    -0.000 C 
BRANCH   6   7
ATOM      7  C   UNL     1      -9.690   4.389  -8.405  1.00  0.00    -0.000 C 
BRANCH   7   8
ATOM      8  C   UNL     1      -9.221   3.599  -9.637  1.00  0.00    -0.000 C 
BRANCH   8   9
ATOM      9  C   UNL     1      -8.209   4.375 -10.494  1.00  0.00    -0.000 C 
BRANCH   9  10
ATOM     10  C   UNL     1      -8.508   4.380 -12.007  1.00  0.00    -0.000 C 
BRANCH  10  11
ATOM     11  C   UNL     1      -9.827   3.673 -12.383  1.00  0.00    -0.003 C 
ATOM     12  C   UNL     1      -9.598   2.406 -13.206  1.00  0.00     0.004 C 
ENDBRANCH  10  11
ENDBRANCH   9  10
ENDBRANCH   8   9
ENDBRANCH   7   8
ENDBRANCH   6   7
ENDBRANCH   5   6
ENDBRANCH   4   5
ENDBRANCH   3   4
ENDBRANCH   2   3
ENDBRANCH   1   2
BRANCH   1  13
ATOM     13  C   UNL     1     -10.458   7.513 -12.010  1.00  0.00     0.000 C 
BRANCH  13  14
ATOM     14  C   UNL     1      -9.185   8.323 -11.710  1.00  0.00     0.000 C 
BRANCH  14  15
ATOM     15  C   UNL     1      -9.003   8.609 -10.211  1.00  0.00     0.000 C 
BRANCH  15  16
ATOM     16  C   UNL     1      -7.810   7.850  -9.607  1.00  0.00     0.000 C 
BRANCH  16  17
ATOM     17  C   UNL     1      -6.487   8.617  -9.750  1.00  0.00     0.000 C 
BRANCH  17  18
ATOM     18  C   UNL     1      -5.373   7.702 -10.277  1.00  0.00     0.000 C 
BRANCH  18  19
ATOM     19  C   UNL     1      -5.534   7.402 -11.782  1.00  0.00     0.000 C 
BRANCH  19  20
ATOM     20  C   UNL     1      -4.204   7.360 -12.556  1.00  0.00     0.006 C 
BRANCH  20  21
ATOM     21  C   UNL     1      -2.965   7.134 -11.671  1.00  0.00     0.053 C 
BRANCH  21  22
ATOM     22  C   UNL     1      -1.836   8.065 -12.001  1.00  0.00     0.041 C 
ATOM     23  O   UNL     1      -0.820   8.118 -11.260  1.00  0.00    -0.550 OA
ATOM     24  O   UNL     1      -1.873   8.827 -13.163  1.00  0.00    -0.550 OA
ENDBRANCH  21  22
ENDBRANCH  20  21
ENDBRANCH  19  20
ENDBRANCH  18  19
ENDBRANCH  17  18
ENDBRANCH  16  17
ENDBRANCH  15  16
ENDBRANCH  14  15
ENDBRANCH  13  14
ENDBRANCH   1  13
TORSDOF 20
ENDMDL
MODEL 2
REMARK VINA RESULT:    -4.437      5.992      7.921
REMARK INTER + INTRA:         -12.902
REMARK INTER:                 -11.640
REMARK INTRA:                  -1.263
REMARK UNBOUND:                -3.278
REMARK SMILES CCCCCCCCCCCCCCCCCCCCCC(=O)[O-]
REMARK SMILES IDX 12 1 11 2 10 3 9 4 8 5 7 6 6 7 5 8 4 9 3 10 2 11 1 12 13 13
REMARK SMILES IDX 14 14 15 15 16 16 17 17 18 18 19 19 20 20 21 21 22 22 23 23
REMARK SMILES IDX 24 24
REMARK H PARENT
REMARK Flexibility Score: inf
ROOT
ATOM      1  C   UNL     1      -9.416   1.905  -9.051  1.00  0.00     0.000 C 
ENDROOT
BRANCH   1   2
ATOM      2  C   UNL     1     -10.601   1.955  -8.069  1.00  0.00     0.000 C 
BRANCH   2   3
ATOM      3  C   UNL     1     -11.455   0.670  -8.117  1.00  0.00     0.000 C 
BRANCH   3   4
ATOM      4  C   UNL     1     -12.910   0.913  -8.554  1.00  0.00    -0.000 C 
BRANCH   4   5
ATOM      5  C   UNL     1     -13.125   2.308  -9.164  1.00  0.00    -0.000 C 
BRANCH   5   6
ATOM      6  C   UNL     1     -12.901   2.331 -10.684  1.00  0.00    -0.000 C 
BRANCH   6   7
ATOM      7  C   UNL     1     -12.521   3.727 -11.202  1.00  0.00    -0.000 C 
BRANCH   7   8
ATOM      8  C   UNL     1     -12.548   4.760 -10.065  1.00  0.00    -0.000 C 
BRANCH   8   9
ATOM      9  C   UNL     1     -11.288   5.640 -10.028  1.00  0.00    -0.000 C 
BRANCH   9  10
ATOM     10  C   UNL     1     -11.296   6.828 -11.011  1.00  0.00    -0.000 C 
BRANCH  10  11
ATOM     11  C   UNL     1     -10.002   7.668 -10.983  1.00  0.00    -0.003 C 
ATOM     12  C   UNL     1      -9.113   7.337  -9.785  1.00  0.00     0.004 C 
ENDBRANCH  10  11
ENDBRANCH   9  10
ENDBRANCH   8   9
ENDBRANCH   7   8
ENDBRANCH   6   7
ENDBRANCH   5   6
ENDBRANCH   4   5
ENDBRANCH   3   4
ENDBRANCH   2   3
ENDBRANCH   1   2
BRANCH   1  13
ATOM     13  C   UNL     1      -8.522   0.666  -8.824  1.00  0.00     0.000 C 
BRANCH  13  14
ATOM     14  C   UNL     1      -7.204   0.701  -9.616  1.00  0.00     0.000 C 
BRANCH  14  15
ATOM     15  C   UNL     1      -6.407  -0.608  -9.500  1.00  0.00     0.000 C 
BRANCH  15  16
ATOM     16  C   UNL     1      -4.901  -0.403  -9.730  1.00  0.00     0.000 C 
BRANCH  16  17
ATOM     17  C   UNL     1      -4.236  -1.610 -10.407  1.00  0.00     0.000 C 
BRANCH  17  18
ATOM     18  C   UNL     1      -3.027  -1.175 -11.248  1.00  0.00     0.000 C 
BRANCH  18  19
ATOM     19  C   UNL     1      -2.504  -2.317 -12.144  1.00  0.00     0.000 C 
BRANCH  19  20
ATOM     20  C   UNL     1      -2.951  -2.213 -13.614  1.00  0.00     0.006 C 
BRANCH  20  21
ATOM     21  C   UNL     1      -3.045  -3.566 -14.343  1.00  0.00     0.053 C 
BRANCH  21  22
ATOM     22  C   UNL     1      -2.450  -3.527 -15.720  1.00  0.00     0.041 C 
ATOM     23  O   UNL     1      -1.282  -3.951 -15.917  1.00  0.00    -0.550 OA
ATOM     24  O   UNL     1      -3.207  -3.085 -16.798  1.00  0.00    -0.550 OA
ENDBRANCH  21  22
ENDBRANCH  20  21
ENDBRANCH  19  20
ENDBRANCH  18  19
ENDBRANCH  17  18
ENDBRANCH  16  17
ENDBRANCH  15  16
ENDBRANCH  14  15
ENDBRANCH  13  14
ENDBRANCH   1  13
TORSDOF 20
ENDMDL
MODEL 3
REMARK VINA RESULT:    -4.424      2.933      7.081
REMARK INTER + INTRA:         -12.874
REMARK INTER:                 -10.747
REMARK INTRA:                  -2.127
REMARK UNBOUND:                -3.278
REMARK SMILES CCCCCCCCCCCCCCCCCCCCCC(=O)[O-]
REMARK SMILES IDX 12 1 11 2 10 3 9 4 8 5 7 6 6 7 5 8 4 9 3 10 2 11 1 12 13 13
REMARK SMILES IDX 14 14 15 15 16 16 17 17 18 18 19 19 20 20 21 21 22 22 23 23
REMARK SMILES IDX 24 24
REMARK H PARENT
REMARK Flexibility Score: inf
ROOT
ATOM      1  C   UNL     1     -10.669   6.647 -10.558  1.00  0.00     0.000 C 
ENDROOT
BRANCH   1   2
ATOM      2  C   UNL     1      -9.995   7.883 -11.182  1.00  0.00     0.000 C 
BRANCH   2   3
ATOM      3  C   UNL     1      -9.122   8.649 -10.166  1.00  0.00     0.000 C 
BRANCH   3   4
ATOM      4  C   UNL     1      -8.386   7.734  -9.172  1.00  0.00    -0.000 C 
BRANCH   4   5
ATOM      5  C   UNL     1      -6.857   7.854  -9.269  1.00  0.00    -0.000 C 
BRANCH   5   6
ATOM      6  C   UNL     1      -6.400   8.595 -10.535  1.00  0.00    -0.000 C 
BRANCH   6   7
ATOM      7  C   UNL     1      -5.237   7.885 -11.246  1.00  0.00    -0.000 C 
BRANCH   7   8
ATOM      8  C   UNL     1      -4.494   6.948 -10.281  1.00  0.00    -0.000 C 
BRANCH   8   9
ATOM      9  C   UNL     1      -3.389   6.134 -10.972  1.00  0.00    -0.000 C 
BRANCH   9  10
ATOM     10  C   UNL     1      -2.918   6.698 -12.327  1.00  0.00    -0.000 C 
BRANCH  10  11
ATOM     11  C   UNL     1      -1.690   7.627 -12.222  1.00  0.00    -0.003 C 
ATOM     12  C   UNL     1      -1.938   8.999 -12.848  1.00  0.00     0.004 C 
ENDBRANCH  10  11
ENDBRANCH   9  10
ENDBRANCH   8   9
ENDBRANCH   7   8
ENDBRANCH   6   7
ENDBRANCH   5   6
ENDBRANCH   4   5
ENDBRANCH   3   4
ENDBRANCH   2   3
ENDBRANCH   1   2
BRANCH   1  13
ATOM     13  C   UNL     1     -12.074   6.391 -11.143  1.00  0.00     0.000 C 
BRANCH  13  14
ATOM     14  C   UNL     1     -13.050   5.741 -10.148  1.00  0.00     0.000 C 
BRANCH  14  15
ATOM     15  C   UNL     1     -12.369   4.707  -9.236  1.00  0.00     0.000 C 
BRANCH  15  16
ATOM     16  C   UNL     1     -13.048   3.330  -9.298  1.00  0.00     0.000 C 
BRANCH  16  17
ATOM     17  C   UNL     1     -12.232   2.303 -10.097  1.00  0.00     0.000 C 
BRANCH  17  18
ATOM     18  C   UNL     1     -12.718   2.222 -11.551  1.00  0.00     0.000 C 
BRANCH  18  19
ATOM     19  C   UNL     1     -11.838   3.059 -12.503  1.00  0.00     0.000 C 
BRANCH  19  20
ATOM     20  C   UNL     1     -10.334   2.746 -12.401  1.00  0.00     0.006 C 
BRANCH  20  21
ATOM     21  C   UNL     1      -9.581   2.823 -13.742  1.00  0.00     0.053 C 
BRANCH  21  22
ATOM     22  C   UNL     1      -9.658   4.182 -14.374  1.00  0.00     0.041 C 
ATOM     23  O   UNL     1     -10.010   4.302 -15.576  1.00  0.00    -0.550 OA
ATOM     24  O   UNL     1      -9.406   5.321 -13.620  1.00  0.00    -0.550 OA
ENDBRANCH  21  22
ENDBRANCH  20  21
ENDBRANCH  19  20
ENDBRANCH  18  19
ENDBRANCH  17  18
ENDBRANCH  16  17
ENDBRANCH  15  16
ENDBRANCH  14  15
ENDBRANCH  13  14
ENDBRANCH   1  13
TORSDOF 20
ENDMDL
MODEL 4
REMARK VINA RESULT:    -4.360      2.618      6.885
REMARK INTER + INTRA:         -12.735
REMARK INTER:                  -9.922
REMARK INTRA:                  -2.813
REMARK UNBOUND:                -3.278
REMARK SMILES CCCCCCCCCCCCCCCCCCCCCC(=O)[O-]
REMARK SMILES IDX 12 1 11 2 10 3 9 4 8 5 7 6 6 7 5 8 4 9 3 10 2 11 1 12 13 13
REMARK SMILES IDX 14 14 15 15 16 16 17 17 18 18 19 19 20 20 21 21 22 22 23 23
REMARK SMILES IDX 24 24
REMARK H PARENT
REMARK Flexibility Score: inf
ROOT
ATOM      1  C   UNL     1      -8.480   5.071  -9.332  1.00  0.00     0.000 C 
ENDROOT
BRANCH   1   2
ATOM      2  C   UNL     1      -8.217   5.621  -7.918  1.00  0.00     0.000 C 
BRANCH   2   3
ATOM      3  C   UNL     1      -7.602   7.037  -7.946  1.00  0.00     0.000 C 
BRANCH   3   4
ATOM      4  C   UNL     1      -8.074   7.890  -9.136  1.00  0.00    -0.000 C 
BRANCH   4   5
ATOM      5  C   UNL     1      -6.910   8.426  -9.986  1.00  0.00    -0.000 C 
BRANCH   5   6
ATOM      6  C   UNL     1      -6.822   7.750 -11.363  1.00  0.00    -0.000 C 
BRANCH   6   7
ATOM      7  C   UNL     1      -5.540   6.919 -11.530  1.00  0.00    -0.000 C 
BRANCH   7   8
ATOM      8  C   UNL     1      -4.312   7.831 -11.679  1.00  0.00    -0.000 C 
BRANCH   8   9
ATOM      9  C   UNL     1      -2.985   7.057 -11.633  1.00  0.00    -0.000 C 
BRANCH   9  10
ATOM     10  C   UNL     1      -1.918   7.536 -12.638  1.00  0.00    -0.000 C 
BRANCH  10  11
ATOM     11  C   UNL     1      -1.982   9.047 -12.941  1.00  0.00    -0.003 C 
ATOM     12  C   UNL     1      -2.313   9.339 -14.404  1.00  0.00     0.004 C 
ENDBRANCH  10  11
ENDBRANCH   9  10
ENDBRANCH   8   9
ENDBRANCH   7   8
ENDBRANCH   6   7
ENDBRANCH   5   6
ENDBRANCH   4   5
ENDBRANCH   3   4
ENDBRANCH   2   3
ENDBRANCH   1   2
BRANCH   1  13
ATOM     13  C   UNL     1      -9.610   4.019  -9.347  1.00  0.00     0.000 C 
BRANCH  13  14
ATOM     14  C   UNL     1     -10.642   4.202  -8.222  1.00  0.00     0.000 C 
BRANCH  14  15
ATOM     15  C   UNL     1     -12.063   3.795  -8.645  1.00  0.00     0.000 C 
BRANCH  15  16
ATOM     16  C   UNL     1     -12.413   4.271 -10.064  1.00  0.00     0.000 C 
BRANCH  16  17
ATOM     17  C   UNL     1     -13.044   5.671 -10.080  1.00  0.00     0.000 C 
BRANCH  17  18
ATOM     18  C   UNL     1     -12.533   6.493 -11.271  1.00  0.00     0.000 C 
BRANCH  18  19
ATOM     19  C   UNL     1     -11.134   7.088 -11.005  1.00  0.00     0.000 C 
BRANCH  19  20
ATOM     20  C   UNL     1     -10.132   6.864 -12.153  1.00  0.00     0.006 C 
BRANCH  20  21
ATOM     21  C   UNL     1     -10.210   5.467 -12.796  1.00  0.00     0.053 C 
BRANCH  21  22
ATOM     22  C   UNL     1      -9.258   5.302 -13.944  1.00  0.00     0.041 C 
ATOM     23  O   UNL     1      -8.404   6.192 -14.192  1.00  0.00    -0.550 OA
ATOM     24  O   UNL     1      -9.269   4.136 -14.701  1.00  0.00    -0.550 OA
ENDBRANCH  21  22
ENDBRANCH  20  21
ENDBRANCH  19  20
ENDBRANCH  18  19
ENDBRANCH  17  18
ENDBRANCH  16  17
ENDBRANCH  15  16
ENDBRANCH  14  15
ENDBRANCH  13  14
ENDBRANCH   1  13
TORSDOF 20
ENDMDL
MODEL 5
REMARK VINA RESULT:    -4.346      1.589      2.444
REMARK INTER + INTRA:         -12.705
REMARK INTER:                  -9.821
REMARK INTRA:                  -2.884
REMARK UNBOUND:                -3.278
REMARK SMILES CCCCCCCCCCCCCCCCCCCCCC(=O)[O-]
REMARK SMILES IDX 12 1 11 2 10 3 9 4 8 5 7 6 6 7 5 8 4 9 3 10 2 11 1 12 13 13
REMARK SMILES IDX 14 14 15 15 16 16 17 17 18 18 19 19 20 20 21 21 22 22 23 23
REMARK SMILES IDX 24 24
REMARK H PARENT
REMARK Flexibility Score: inf
ROOT
ATOM      1  C   UNL     1     -10.139   7.441 -12.161  1.00  0.00     0.000 C 
ENDROOT
BRANCH   1   2
ATOM      2  C   UNL     1     -10.914   7.107 -10.873  1.00  0.00     0.000 C 
BRANCH   2   3
ATOM      3  C   UNL     1     -12.165   6.247 -11.149  1.00  0.00     0.000 C 
BRANCH   3   4
ATOM      4  C   UNL     1     -11.951   4.746 -10.888  1.00  0.00    -0.000 C 
BRANCH   4   5
ATOM      5  C   UNL     1     -12.825   4.209  -9.743  1.00  0.00    -0.000 C 
BRANCH   5   6
ATOM      6  C   UNL     1     -12.034   3.990  -8.445  1.00  0.00    -0.000 C 
BRANCH   6   7
ATOM      7  C   UNL     1     -10.590   3.534  -8.705  1.00  0.00    -0.000 C 
BRANCH   7   8
ATOM      8  C   UNL     1      -9.595   4.367  -7.881  1.00  0.00    -0.000 C 
BRANCH   8   9
ATOM      9  C   UNL     1      -8.766   5.332  -8.743  1.00  0.00    -0.000 C 
BRANCH   9  10
ATOM     10  C   UNL     1      -7.700   4.659  -9.629  1.00  0.00    -0.000 C 
BRANCH  10  11
ATOM     11  C   UNL     1      -8.108   4.540 -11.112  1.00  0.00    -0.003 C 
ATOM     12  C   UNL     1      -8.385   3.096 -11.531  1.00  0.00     0.004 C 
ENDBRANCH  10  11
ENDBRANCH   9  10
ENDBRANCH   8   9
ENDBRANCH   7   8
ENDBRANCH   6   7
ENDBRANCH   5   6
ENDBRANCH   4   5
ENDBRANCH   3   4
ENDBRANCH   2   3
ENDBRANCH   1   2
BRANCH   1  13
ATOM     13  C   UNL     1      -9.112   8.574 -11.948  1.00  0.00     0.000 C 
BRANCH  13  14
ATOM     14  C   UNL     1      -8.777   8.835 -10.470  1.00  0.00     0.000 C 
BRANCH  14  15
ATOM     15  C   UNL     1      -7.311   8.519 -10.128  1.00  0.00     0.000 C 
BRANCH  15  16
ATOM     16  C   UNL     1      -6.581   7.801 -11.274  1.00  0.00     0.000 C 
BRANCH  16  17
ATOM     17  C   UNL     1      -5.098   7.549 -10.964  1.00  0.00     0.000 C 
BRANCH  17  18
ATOM     18  C   UNL     1      -4.262   7.522 -12.252  1.00  0.00     0.000 C 
BRANCH  18  19
ATOM     19  C   UNL     1      -2.789   7.900 -11.993  1.00  0.00     0.000 C 
BRANCH  19  20
ATOM     20  C   UNL     1      -1.985   8.195 -13.273  1.00  0.00     0.006 C 
BRANCH  20  21
ATOM     21  C   UNL     1      -2.506   9.396 -14.083  1.00  0.00     0.053 C 
BRANCH  21  22
ATOM     22  C   UNL     1      -2.854   9.037 -15.498  1.00  0.00     0.041 C 
ATOM     23  O   UNL     1      -3.736   8.171 -15.732  1.00  0.00    -0.550 OA
ATOM     24  O   UNL     1      -2.253   9.704 -16.558  1.00  0.00    -0.550 OA
ENDBRANCH  21  22
ENDBRANCH  20  21
ENDBRANCH  19  20
ENDBRANCH  18  19
ENDBRANCH  17  18
ENDBRANCH  16  17
ENDBRANCH  15  16
ENDBRANCH  14  15
ENDBRANCH  13  14
ENDBRANCH   1  13
TORSDOF 20
ENDMDL
MODEL 6
REMARK VINA RESULT:    -4.320      2.751      6.525
REMARK INTER + INTRA:         -12.648
REMARK INTER:                  -9.860
REMARK INTRA:                  -2.788
REMARK UNBOUND:                -3.278
REMARK SMILES CCCCCCCCCCCCCCCCCCCCCC(=O)[O-]
REMARK SMILES IDX 12 1 11 2 10 3 9 4 8 5 7 6 6 7 5 8 4 9 3 10 2 11 1 12 13 13
REMARK SMILES IDX 14 14 15 15 16 16 17 17 18 18 19 19 20 20 21 21 22 22 23 23
REMARK SMILES IDX 24 24
REMARK H PARENT
REMARK Flexibility Score: inf
ROOT
ATOM      1  C   UNL     1     -10.423   6.704 -11.354  1.00  0.00     0.000 C 
ENDROOT
BRANCH   1   2
ATOM      2  C   UNL     1      -9.764   8.094 -11.294  1.00  0.00     0.000 C 
BRANCH   2   3
ATOM      3  C   UNL     1      -9.073   8.356  -9.939  1.00  0.00     0.000 C 
BRANCH   3   4
ATOM      4  C   UNL     1      -8.570   7.077  -9.246  1.00  0.00    -0.000 C 
BRANCH   4   5
ATOM      5  C   UNL     1      -7.046   6.903  -9.348  1.00  0.00    -0.000 C 
BRANCH   5   6
ATOM      6  C   UNL     1      -6.310   8.234  -9.563  1.00  0.00    -0.000 C 
BRANCH   6   7
ATOM      7  C   UNL     1      -5.673   8.337 -10.958  1.00  0.00    -0.000 C 
BRANCH   7   8
ATOM      8  C   UNL     1      -5.478   6.943 -11.575  1.00  0.00    -0.000 C 
BRANCH   8   9
ATOM      9  C   UNL     1      -4.128   6.793 -12.295  1.00  0.00    -0.000 C 
BRANCH   9  10
ATOM     10  C   UNL     1      -2.895   7.155 -11.444  1.00  0.00    -0.000 C 
BRANCH  10  11
ATOM     11  C   UNL     1      -1.860   8.026 -12.186  1.00  0.00    -0.003 C 
ATOM     12  C   UNL     1      -2.497   8.909 -13.259  1.00  0.00     0.004 C 
ENDBRANCH  10  11
ENDBRANCH   9  10
ENDBRANCH   8   9
ENDBRANCH   7   8
ENDBRANCH   6   7
ENDBRANCH   5   6
ENDBRANCH   4   5
ENDBRANCH   3   4
ENDBRANCH   2   3
ENDBRANCH   1   2
BRANCH   1  13
ATOM     13  C   UNL     1     -11.822   6.749 -12.004  1.00  0.00     0.000 C 
BRANCH  13  14
ATOM     14  C   UNL     1     -12.962   6.365 -11.047  1.00  0.00     0.000 C 
BRANCH  14  15
ATOM     15  C   UNL     1     -12.468   5.592  -9.814  1.00  0.00     0.000 C 
BRANCH  15  16
ATOM     16  C   UNL     1     -12.913   4.121  -9.823  1.00  0.00     0.000 C 
BRANCH  16  17
ATOM     17  C   UNL     1     -12.043   3.233  -8.921  1.00  0.00     0.000 C 
BRANCH  17  18
ATOM     18  C   UNL     1     -10.923   4.049  -8.260  1.00  0.00     0.000 C 
BRANCH  18  19
ATOM     19  C   UNL     1      -9.523   3.588  -8.717  1.00  0.00     0.000 C 
BRANCH  19  20
ATOM     20  C   UNL     1      -9.542   2.666  -9.950  1.00  0.00     0.006 C 
BRANCH  20  21
ATOM     21  C   UNL     1      -8.892   3.278 -11.205  1.00  0.00     0.053 C 
BRANCH  21  22
ATOM     22  C   UNL     1      -7.916   2.349 -11.866  1.00  0.00     0.041 C 
ATOM     23  O   UNL     1      -7.259   1.527 -11.177  1.00  0.00    -0.550 OA
ATOM     24  O   UNL     1      -7.778   2.345 -13.249  1.00  0.00    -0.550 OA
ENDBRANCH  21  22
ENDBRANCH  20  21
ENDBRANCH  19  20
ENDBRANCH  18  19
ENDBRANCH  17  18
ENDBRANCH  16  17
ENDBRANCH  15  16
ENDBRANCH  14  15
ENDBRANCH  13  14
ENDBRANCH   1  13
TORSDOF 20
ENDMDL
MODEL 7
REMARK VINA RESULT:    -4.318      2.098      3.223
REMARK INTER + INTRA:         -12.645
REMARK INTER:                  -9.029
REMARK INTRA:                  -3.616
REMARK UNBOUND:                -3.278
REMARK SMILES CCCCCCCCCCCCCCCCCCCCCC(=O)[O-]
REMARK SMILES IDX 12 1 11 2 10 3 9 4 8 5 7 6 6 7 5 8 4 9 3 10 2 11 1 12 13 13
REMARK SMILES IDX 14 14 15 15 16 16 17 17 18 18 19 19 20 20 21 21 22 22 23 23
REMARK SMILES IDX 24 24
REMARK H PARENT
REMARK Flexibility Score: inf
ROOT
ATOM      1  C   UNL     1     -10.103   5.418 -13.195  1.00  0.00     0.000 C 
ENDROOT
BRANCH   1   2
ATOM      2  C   UNL     1     -11.299   4.450 -13.242  1.00  0.00     0.000 C 
BRANCH   2   3
ATOM      3  C   UNL     1     -11.075   3.202 -12.363  1.00  0.00     0.000 C 
BRANCH   3   4
ATOM      4  C   UNL     1     -12.381   2.552 -11.871  1.00  0.00    -0.000 C 
BRANCH   4   5
ATOM      5  C   UNL     1     -12.638   2.788 -10.374  1.00  0.00    -0.000 C 
BRANCH   5   6
ATOM      6  C   UNL     1     -12.985   4.250 -10.055  1.00  0.00    -0.000 C 
BRANCH   6   7
ATOM      7  C   UNL     1     -12.082   4.846  -8.964  1.00  0.00    -0.000 C 
BRANCH   7   8
ATOM      8  C   UNL     1     -11.273   3.746  -8.260  1.00  0.00    -0.000 C 
BRANCH   8   9
ATOM      9  C   UNL     1      -9.856   4.200  -7.876  1.00  0.00    -0.000 C 
BRANCH   9  10
ATOM     10  C   UNL     1      -8.752   3.801  -8.876  1.00  0.00    -0.000 C 
BRANCH  10  11
ATOM     11  C   UNL     1      -8.954   2.406  -9.503  1.00  0.00    -0.003 C 
ATOM     12  C   UNL     1      -8.268   1.299  -8.704  1.00  0.00     0.004 C 
ENDBRANCH  10  11
ENDBRANCH   9  10
ENDBRANCH   8   9
ENDBRANCH   7   8
ENDBRANCH   6   7
ENDBRANCH   5   6
ENDBRANCH   4   5
ENDBRANCH   3   4
ENDBRANCH   2   3
ENDBRANCH   1   2
BRANCH   1  13
ATOM     13  C   UNL     1      -9.658   5.728 -11.750  1.00  0.00     0.000 C 
BRANCH  13  14
ATOM     14  C   UNL     1     -10.337   6.969 -11.146  1.00  0.00     0.000 C 
BRANCH  14  15
ATOM     15  C   UNL     1      -9.544   8.262 -11.397  1.00  0.00     0.000 C 
BRANCH  15  16
ATOM     16  C   UNL     1      -8.930   8.835 -10.110  1.00  0.00     0.000 C 
BRANCH  16  17
ATOM     17  C   UNL     1      -8.659   7.755  -9.051  1.00  0.00     0.000 C 
BRANCH  17  18
ATOM     18  C   UNL     1      -7.157   7.627  -8.766  1.00  0.00     0.000 C 
BRANCH  18  19
ATOM     19  C   UNL     1      -6.308   8.474  -9.737  1.00  0.00     0.000 C 
BRANCH  19  20
ATOM     20  C   UNL     1      -5.381   7.644 -10.643  1.00  0.00     0.006 C 
BRANCH  20  21
ATOM     21  C   UNL     1      -6.067   7.076 -11.899  1.00  0.00     0.053 C 
BRANCH  21  22
ATOM     22  C   UNL     1      -5.826   5.605 -12.078  1.00  0.00     0.041 C 
ATOM     23  O   UNL     1      -5.194   5.185 -13.082  1.00  0.00    -0.550 OA
ATOM     24  O   UNL     1      -6.240   4.703 -11.105  1.00  0.00    -0.550 OA
ENDBRANCH  21  22
ENDBRANCH  20  21
ENDBRANCH  19  20
ENDBRANCH  18  19
ENDBRANCH  17  18
ENDBRANCH  16  17
ENDBRANCH  15  16
ENDBRANCH  14  15
ENDBRANCH  13  14
ENDBRANCH   1  13
TORSDOF 20
ENDMDL
MODEL 8
REMARK VINA RESULT:    -4.309      3.474      7.449
REMARK INTER + INTRA:         -12.625
REMARK INTER:                 -10.175
REMARK INTRA:                  -2.450
REMARK UNBOUND:                -3.278
REMARK SMILES CCCCCCCCCCCCCCCCCCCCCC(=O)[O-]
REMARK SMILES IDX 12 1 11 2 10 3 9 4 8 5 7 6 6 7 5 8 4 9 3 10 2 11 1 12 13 13
REMARK SMILES IDX 14 14 15 15 16 16 17 17 18 18 19 19 20 20 21 21 22 22 23 23
REMARK SMILES IDX 24 24
REMARK H PARENT
REMARK Flexibility Score: inf
ROOT
ATOM      1  C   UNL     1      -7.651   7.922  -9.192  1.00  0.00     0.000 C 
ENDROOT
BRANCH   1   2
ATOM      2  C   UNL     1      -7.812   6.782  -8.170  1.00  0.00     0.000 C 
BRANCH   2   3
ATOM      3  C   UNL     1      -6.896   5.580  -8.485  1.00  0.00     0.000 C 
BRANCH   3   4
ATOM      4  C   UNL     1      -7.099   5.005  -9.898  1.00  0.00    -0.000 C 
BRANCH   4   5
ATOM      5  C   UNL     1      -5.820   5.052 -10.750  1.00  0.00    -0.000 C 
BRANCH   5   6
ATOM      6  C   UNL     1      -5.845   6.179 -11.794  1.00  0.00    -0.000 C 
BRANCH   6   7
ATOM      7  C   UNL     1      -4.785   7.257 -11.521  1.00  0.00    -0.000 C 
BRANCH   7   8
ATOM      8  C   UNL     1      -3.600   6.675 -10.734  1.00  0.00    -0.000 C 
BRANCH   8   9
ATOM      9  C   UNL     1      -2.239   7.032 -11.354  1.00  0.00    -0.000 C 
BRANCH   9  10
ATOM     10  C   UNL     1      -2.294   7.476 -12.829  1.00  0.00    -0.000 C 
BRANCH  10  11
ATOM     11  C   UNL     1      -1.869   8.942 -13.055  1.00  0.00    -0.003 C 
ATOM     12  C   UNL     1      -2.375   9.500 -14.385  1.00  0.00     0.004 C 
ENDBRANCH  10  11
ENDBRANCH   9  10
ENDBRANCH   8   9
ENDBRANCH   7   8
ENDBRANCH   6   7
ENDBRANCH   5   6
ENDBRANCH   4   5
ENDBRANCH   3   4
ENDBRANCH   2   3
ENDBRANCH   1   2
BRANCH   1  13
ATOM     13  C   UNL     1      -9.009   8.409  -9.741  1.00  0.00     0.000 C 
BRANCH  13  14
ATOM     14  C   UNL     1      -9.522   7.591 -10.938  1.00  0.00     0.000 C 
BRANCH  14  15
ATOM     15  C   UNL     1     -10.550   6.523 -10.531  1.00  0.00     0.000 C 
BRANCH  15  16
ATOM     16  C   UNL     1     -11.947   6.800 -11.110  1.00  0.00     0.000 C 
BRANCH  16  17
ATOM     17  C   UNL     1     -13.011   5.828 -10.578  1.00  0.00     0.000 C 
BRANCH  17  18
ATOM     18  C   UNL     1     -12.435   4.929  -9.474  1.00  0.00     0.000 C 
BRANCH  18  19
ATOM     19  C   UNL     1     -13.068   3.522  -9.484  1.00  0.00     0.000 C 
BRANCH  19  20
ATOM     20  C   UNL     1     -12.256   2.477 -10.269  1.00  0.00     0.006 C 
BRANCH  20  21
ATOM     21  C   UNL     1     -10.764   2.824 -10.426  1.00  0.00     0.053 C 
BRANCH  21  22
ATOM     22  C   UNL     1      -9.903   2.178  -9.381  1.00  0.00     0.041 C 
ATOM     23  O   UNL     1      -8.694   1.926  -9.623  1.00  0.00    -0.550 OA
ATOM     24  O   UNL     1     -10.415   1.914  -8.116  1.00  0.00    -0.550 OA
ENDBRANCH  21  22
ENDBRANCH  20  21
ENDBRANCH  19  20
ENDBRANCH  18  19
ENDBRANCH  17  18
ENDBRANCH  16  17
ENDBRANCH  15  16
ENDBRANCH  14  15
ENDBRANCH  13  14
ENDBRANCH   1  13
TORSDOF 20
ENDMDL
MODEL 9
REMARK VINA RESULT:    -4.294      2.665      5.910
REMARK INTER + INTRA:         -12.593
REMARK INTER:                  -8.982
REMARK INTRA:                  -3.611
REMARK UNBOUND:                -3.278
REMARK SMILES CCCCCCCCCCCCCCCCCCCCCC(=O)[O-]
REMARK SMILES IDX 12 1 11 2 10 3 9 4 8 5 7 6 6 7 5 8 4 9 3 10 2 11 1 12 13 13
REMARK SMILES IDX 14 14 15 15 16 16 17 17 18 18 19 19 20 20 21 21 22 22 23 23
REMARK SMILES IDX 24 24
REMARK H PARENT
REMARK Flexibility Score: inf
ROOT
ATOM      1  C   UNL     1     -10.582   3.288 -12.005  1.00  0.00     0.000 C 
ENDROOT
BRANCH   1   2
ATOM      2  C   UNL     1     -10.050   4.732 -12.046  1.00  0.00     0.000 C 
BRANCH   2   3
ATOM      3  C   UNL     1     -11.170   5.775 -11.845  1.00  0.00     0.000 C 
BRANCH   3   4
ATOM      4  C   UNL     1     -10.832   6.847 -10.795  1.00  0.00    -0.000 C 
BRANCH   4   5
ATOM      5  C   UNL     1      -9.840   7.900 -11.315  1.00  0.00    -0.000 C 
BRANCH   5   6
ATOM      6  C   UNL     1      -9.103   8.630 -10.182  1.00  0.00    -0.000 C 
BRANCH   6   7
ATOM      7  C   UNL     1      -8.593   7.671  -9.096  1.00  0.00    -0.000 C 
BRANCH   7   8
ATOM      8  C   UNL     1      -7.059   7.703  -9.011  1.00  0.00    -0.000 C 
BRANCH   8   9
ATOM      9  C   UNL     1      -6.418   8.555 -10.119  1.00  0.00    -0.000 C 
BRANCH   9  10
ATOM     10  C   UNL     1      -5.641   7.756 -11.184  1.00  0.00    -0.000 C 
BRANCH  10  11
ATOM     11  C   UNL     1      -6.301   6.413 -11.560  1.00  0.00    -0.003 C 
ATOM     12  C   UNL     1      -6.829   6.400 -12.995  1.00  0.00     0.004 C 
ENDBRANCH  10  11
ENDBRANCH   9  10
ENDBRANCH   8   9
ENDBRANCH   7   8
ENDBRANCH   6   7
ENDBRANCH   5   6
ENDBRANCH   4   5
ENDBRANCH   3   4
ENDBRANCH   2   3
ENDBRANCH   1   2
BRANCH   1  13
ATOM     13  C   UNL     1     -12.125   3.233 -12.054  1.00  0.00     0.000 C 
BRANCH  13  14
ATOM     14  C   UNL     1     -12.751   2.419 -10.910  1.00  0.00     0.000 C 
BRANCH  14  15
ATOM     15  C   UNL     1     -13.125   3.286  -9.698  1.00  0.00     0.000 C 
BRANCH  15  16
ATOM     16  C   UNL     1     -12.203   3.042  -8.492  1.00  0.00     0.000 C 
BRANCH  16  17
ATOM     17  C   UNL     1     -11.084   4.088  -8.382  1.00  0.00     0.000 C 
BRANCH  17  18
ATOM     18  C   UNL     1      -9.703   3.418  -8.361  1.00  0.00     0.000 C 
BRANCH  18  19
ATOM     19  C   UNL     1      -9.796   1.892  -8.572  1.00  0.00     0.000 C 
BRANCH  19  20
ATOM     20  C   UNL     1      -8.453   1.227  -8.926  1.00  0.00     0.006 C 
BRANCH  20  21
ATOM     21  C   UNL     1      -7.732   1.862 -10.129  1.00  0.00     0.053 C 
BRANCH  21  22
ATOM     22  C   UNL     1      -6.301   2.203  -9.835  1.00  0.00     0.041 C 
ATOM     23  O   UNL     1      -5.994   3.354  -9.430  1.00  0.00    -0.550 OA
ATOM     24  O   UNL     1      -5.313   1.231  -9.944  1.00  0.00    -0.550 OA
ENDBRANCH  21  22
ENDBRANCH  20  21
ENDBRANCH  19  20
ENDBRANCH  18  19
ENDBRANCH  17  18
ENDBRANCH  16  17
ENDBRANCH  15  16
ENDBRANCH  14  15
ENDBRANCH  13  14
ENDBRANCH   1  13
TORSDOF 20
ENDMDL
