MODEL 1
REMARK VINA RESULT:    -5.218      0.000      0.000
REMARK INTER + INTRA:         -18.767
REMARK INTER:                 -13.759
REMARK INTRA:                  -5.007
REMARK UNBOUND:                -5.007
REMARK SMILES CCCCCCCCCCCCCCCCCCCCCCCCCCCCCC(=O)[O-]
REMARK SMILES IDX 16 1 17 2 18 3 19 4 20 5 21 6 22 7 23 8 24 9 25 10 26 11
REMARK SMILES IDX 27 12 28 13 29 14 30 15 31 16 32 17 15 18 14 19 13 20 12 21
REMARK SMILES IDX 11 22 10 23 9 24 8 25 7 26 6 27 5 28 4 29 3 30 2 31 1 32
REMARK H PARENT
REMARK Flexibility Score: inf
ROOT
ATOM      1  C   UNL     1      14.827 -29.395  23.339  1.00  0.00     0.000 C 
ENDROOT
BRANCH   1   2
ATOM      2  C   UNL     1      15.401 -28.767  22.058  1.00  0.00     0.000 C 
BRANCH   2   3
ATOM      3  C   UNL     1      16.925 -28.946  21.941  1.00  0.00     0.000 C 
BRANCH   3   4
ATOM      4  C   UNL     1      17.503 -29.877  23.019  1.00  0.00     0.000 C 
BRANCH   4   5
ATOM      5  C   UNL     1      17.637 -31.331  22.532  1.00  0.00     0.000 C 
BRANCH   5   6
ATOM      6  C   UNL     1      18.199 -31.436  21.102  1.00  0.00     0.000 C 
BRANCH   6   7
ATOM      7  C   UNL     1      19.534 -32.196  20.979  1.00  0.00     0.000 C 
BRANCH   7   8
ATOM      8  C   UNL     1      20.750 -31.261  20.882  1.00  0.00     0.000 C 
BRANCH   8   9
ATOM      9  C   UNL     1      21.163 -30.744  22.268  1.00  0.00     0.000 C 
BRANCH   9  10
ATOM     10  C   UNL     1      21.222 -29.207  22.326  1.00  0.00     0.000 C 
BRANCH  10  11
ATOM     11  C   UNL     1      20.786 -28.555  21.003  1.00  0.00     0.000 C 
BRANCH  11  12
ATOM     12  C   UNL     1      20.110 -27.187  21.205  1.00  0.00     0.000 C 
BRANCH  12  13
ATOM     13  C   UNL     1      20.580 -26.079  20.244  1.00  0.00     0.006 C 
BRANCH  13  14
ATOM     14  C   UNL     1      21.785 -25.295  20.780  1.00  0.00     0.053 C 
BRANCH  14  15
ATOM     15  C   UNL     1      22.973 -25.487  19.890  1.00  0.00     0.041 C 
ATOM     16  O   UNL     1      23.350 -26.645  19.578  1.00  0.00    -0.550 OA
ATOM     17  O   UNL     1      23.647 -24.382  19.383  1.00  0.00    -0.550 OA
ENDBRANCH  14  15
ENDBRANCH  13  14
ENDBRANCH  12  13
ENDBRANCH  11  12
ENDBRANCH  10  11
ENDBRANCH   9  10
ENDBRANCH   8   9
ENDBRANCH   7   8
ENDBRANCH   6   7
ENDBRANCH   5   6
ENDBRANCH   4   5
ENDBRANCH   3   4
ENDBRANCH   2   3
ENDBRANCH   1   2
BRANCH   1  18
ATOM     18  C   UNL     1      13.853 -30.546  23.044  1.00  0.00     0.000 C 
BRANCH  18  19
ATOM     19  C   UNL     1      13.565 -30.663  21.543  1.00  0.00     0.000 C 
BRANCH  19  20
ATOM     20  C   UNL     1      13.763 -32.107  21.060  1.00  0.00     0.000 C 
BRANCH  20  21
ATOM     21  C   UNL     1      14.633 -32.945  22.019  1.00  0.00     0.000 C 
BRANCH  21  22
ATOM     22  C   UNL     1      15.161 -34.254  21.400  1.00  0.00     0.000 C 
BRANCH  22  23
ATOM     23  C   UNL     1      15.856 -34.103  20.034  1.00  0.00     0.000 C 
BRANCH  23  24
ATOM     24  C   UNL     1      16.531 -35.381  19.501  1.00  0.00    -0.000 C 
BRANCH  24  25
ATOM     25  C   UNL     1      17.927 -35.618  20.101  1.00  0.00    -0.000 C 
BRANCH  25  26
ATOM     26  C   UNL     1      18.071 -37.002  20.762  1.00  0.00    -0.000 C 
BRANCH  26  27
ATOM     27  C   UNL     1      18.701 -36.994  22.168  1.00  0.00    -0.000 C 
BRANCH  27  28
ATOM     28  C   UNL     1      18.784 -35.586  22.784  1.00  0.00    -0.000 C 
BRANCH  28  29
ATOM     29  C   UNL     1      18.265 -35.549  24.230  1.00  0.00    -0.000 C 
BRANCH  29  30
ATOM     30  C   UNL     1      17.045 -34.632  24.398  1.00  0.00    -0.000 C 
BRANCH  30  31
ATOM     31  C   UNL     1      17.240 -33.673  25.578  1.00  0.00    -0.003 C 
ATOM     32  C   UNL     1      18.669 -33.141  25.626  1.00  0.00     0.004 C 
ENDBRANCH  30  31
ENDBRANCH  29  30
ENDBRANCH  28  29
ENDBRANCH  27  28
ENDBRANCH  26  27
ENDBRANCH  25  26
ENDBRANCH  24  25
ENDBRANCH  23  24
ENDBRANCH  22  23
ENDBRANCH  21  22
ENDBRANCH  20  21
ENDBRANCH  19  20
ENDBRANCH  18  19
ENDBRANCH   1  18
TORSDOF 28
ENDMDL
MODEL 2
REMARK VINA RESULT:    -5.205      1.115      3.981
REMARK INTER + INTRA:         -18.731
REMARK INTER:                 -13.522
REMARK INTRA:                  -5.209
REMARK UNBOUND:                -5.007
REMARK SMILES CCCCCCCCCCCCCCCCCCCCCCCCCCCCCC(=O)[O-]
REMARK SMILES IDX 16 1 17 2 18 3 19 4 20 5 21 6 22 7 23 8 24 9 25 10 26 11
REMARK SMILES IDX 27 12 28 13 29 14 30 15 31 16 32 17 15 18 14 19 13 20 12 21
REMARK SMILES IDX 11 22 10 23 9 24 8 25 7 26 6 27 5 28 4 29 3 30 2 31 1 32
REMARK H PARENT
REMARK Flexibility Score: inf
ROOT
ATOM      1  C   UNL     1      17.927 -33.158  25.257  1.00  0.00     0.000 C 
ENDROOT
BRANCH   1   2
ATOM      2  C   UNL     1      18.123 -31.645  25.067  1.00  0.00     0.000 C 
BRANCH   2   3
ATOM      3  C   UNL     1      17.014 -31.006  24.212  1.00  0.00     0.000 C 
BRANCH   3   4
ATOM      4  C   UNL     1      17.563 -30.131  23.074  1.00  0.00     0.000 C 
BRANCH   4   5
ATOM      5  C   UNL     1      16.952 -30.488  21.708  1.00  0.00     0.000 C 
BRANCH   5   6
ATOM      6  C   UNL     1      17.981 -31.080  20.726  1.00  0.00     0.000 C 
BRANCH   6   7
ATOM      7  C   UNL     1      18.868 -32.199  21.306  1.00  0.00     0.000 C 
BRANCH   7   8
ATOM      8  C   UNL     1      20.369 -31.885  21.210  1.00  0.00     0.000 C 
BRANCH   8   9
ATOM      9  C   UNL     1      20.939 -31.477  22.577  1.00  0.00     0.000 C 
BRANCH   9  10
ATOM     10  C   UNL     1      21.325 -29.988  22.629  1.00  0.00     0.000 C 
BRANCH  10  11
ATOM     11  C   UNL     1      21.269 -29.321  21.244  1.00  0.00     0.000 C 
BRANCH  11  12
ATOM     12  C   UNL     1      21.093 -27.793  21.323  1.00  0.00     0.000 C 
BRANCH  12  13
ATOM     13  C   UNL     1      22.304 -27.026  21.884  1.00  0.00     0.006 C 
BRANCH  13  14
ATOM     14  C   UNL     1      23.471 -26.944  20.893  1.00  0.00     0.053 C 
BRANCH  14  15
ATOM     15  C   UNL     1      23.144 -26.006  19.773  1.00  0.00     0.041 C 
ATOM     16  O   UNL     1      23.696 -26.141  18.651  1.00  0.00    -0.550 OA
ATOM     17  O   UNL     1      22.206 -24.998  19.963  1.00  0.00    -0.550 OA
ENDBRANCH  14  15
ENDBRANCH  13  14
ENDBRANCH  12  13
ENDBRANCH  11  12
ENDBRANCH  10  11
ENDBRANCH   9  10
ENDBRANCH   8   9
ENDBRANCH   7   8
ENDBRANCH   6   7
ENDBRANCH   5   6
ENDBRANCH   4   5
ENDBRANCH   3   4
ENDBRANCH   2   3
ENDBRANCH   1   2
BRANCH   1  18
ATOM     18  C   UNL     1      16.795 -33.720  24.384  1.00  0.00     0.000 C 
BRANCH  18  19
ATOM     19  C   UNL     1      17.269 -34.927  23.565  1.00  0.00     0.000 C 
BRANCH  19  20
ATOM     20  C   UNL     1      18.802 -35.031  23.584  1.00  0.00     0.000 C 
BRANCH  20  21
ATOM     21  C   UNL     1      19.362 -35.834  22.392  1.00  0.00     0.000 C 
BRANCH  21  22
ATOM     22  C   UNL     1      18.287 -36.596  21.593  1.00  0.00     0.000 C 
BRANCH  22  23
ATOM     23  C   UNL     1      18.101 -36.136  20.135  1.00  0.00     0.000 C 
BRANCH  23  24
ATOM     24  C   UNL     1      16.640 -35.893  19.710  1.00  0.00    -0.000 C 
BRANCH  24  25
ATOM     25  C   UNL     1      16.291 -34.401  19.583  1.00  0.00    -0.000 C 
BRANCH  25  26
ATOM     26  C   UNL     1      14.852 -34.078  20.028  1.00  0.00    -0.000 C 
BRANCH  26  27
ATOM     27  C   UNL     1      14.735 -33.293  21.348  1.00  0.00    -0.000 C 
BRANCH  27  28
ATOM     28  C   UNL     1      13.816 -32.064  21.240  1.00  0.00    -0.000 C 
BRANCH  28  29
ATOM     29  C   UNL     1      13.469 -31.469  22.614  1.00  0.00    -0.000 C 
BRANCH  29  30
ATOM     30  C   UNL     1      12.402 -30.367  22.530  1.00  0.00    -0.000 C 
BRANCH  30  31
ATOM     31  C   UNL     1      12.662 -29.275  23.573  1.00  0.00    -0.003 C 
ATOM     32  C   UNL     1      14.051 -28.669  23.404  1.00  0.00     0.004 C 
ENDBRANCH  30  31
ENDBRANCH  29  30
ENDBRANCH  28  29
ENDBRANCH  27  28
ENDBRANCH  26  27
ENDBRANCH  25  26
ENDBRANCH  24  25
ENDBRANCH  23  24
ENDBRANCH  22  23
ENDBRANCH  21  22
ENDBRANCH  20  21
ENDBRANCH  19  20
ENDBRANCH  18  19
ENDBRANCH   1  18
TORSDOF 28
ENDMDL
MODEL 3
REMARK VINA RESULT:    -5.159      1.256      2.516
REMARK INTER + INTRA:         -18.609
REMARK INTER:                 -13.820
REMARK INTRA:                  -4.790
REMARK UNBOUND:                -5.007
REMARK SMILES CCCCCCCCCCCCCCCCCCCCCCCCCCCCCC(=O)[O-]
REMARK SMILES IDX 16 1 17 2 18 3 19 4 20 5 21 6 22 7 23 8 24 9 25 10 26 11
REMARK SMILES IDX 27 12 28 13 29 14 30 15 31 16 32 17 15 18 14 19 13 20 12 21
REMARK SMILES IDX 11 22 10 23 9 24 8 25 7 26 6 27 5 28 4 29 3 30 2 31 1 32
REMARK H PARENT
REMARK Flexibility Score: inf
ROOT
ATOM      1  C   UNL     1      16.894 -31.133  23.315  1.00  0.00     0.000 C 
ENDROOT
BRANCH   1   2
ATOM      2  C   UNL     1      17.124 -30.003  22.297  1.00  0.00     0.000 C 
BRANCH   2   3
ATOM      3  C   UNL     1      17.641 -30.520  20.943  1.00  0.00     0.000 C 
BRANCH   3   4
ATOM      4  C   UNL     1      17.783 -32.050  20.901  1.00  0.00     0.000 C 
BRANCH   4   5
ATOM      5  C   UNL     1      19.247 -32.504  20.769  1.00  0.00     0.000 C 
BRANCH   5   6
ATOM      6  C   UNL     1      20.124 -32.054  21.953  1.00  0.00     0.000 C 
BRANCH   6   7
ATOM      7  C   UNL     1      21.452 -31.377  21.562  1.00  0.00     0.000 C 
BRANCH   7   8
ATOM      8  C   UNL     1      21.253 -30.006  20.896  1.00  0.00     0.000 C 
BRANCH   8   9
ATOM      9  C   UNL     1      21.225 -28.882  21.942  1.00  0.00     0.000 C 
BRANCH   9  10
ATOM     10  C   UNL     1      20.061 -27.901  21.717  1.00  0.00     0.000 C 
BRANCH  10  11
ATOM     11  C   UNL     1      20.115 -27.239  20.329  1.00  0.00     0.000 C 
BRANCH  11  12
ATOM     12  C   UNL     1      20.511 -25.753  20.390  1.00  0.00     0.000 C 
BRANCH  12  13
ATOM     13  C   UNL     1      21.995 -25.462  20.101  1.00  0.00     0.006 C 
BRANCH  13  14
ATOM     14  C   UNL     1      22.846 -25.367  21.374  1.00  0.00     0.053 C 
BRANCH  14  15
ATOM     15  C   UNL     1      23.042 -23.937  21.769  1.00  0.00     0.041 C 
ATOM     16  O   UNL     1      22.326 -23.424  22.668  1.00  0.00    -0.550 OA
ATOM     17  O   UNL     1      24.037 -23.179  21.163  1.00  0.00    -0.550 OA
ENDBRANCH  14  15
ENDBRANCH  13  14
ENDBRANCH  12  13
ENDBRANCH  11  12
ENDBRANCH  10  11
ENDBRANCH   9  10
ENDBRANCH   8   9
ENDBRANCH   7   8
ENDBRANCH   6   7
ENDBRANCH   5   6
ENDBRANCH   4   5
ENDBRANCH   3   4
ENDBRANCH   2   3
ENDBRANCH   1   2
BRANCH   1  18
ATOM     18  C   UNL     1      15.483 -31.101  23.920  1.00  0.00     0.000 C 
BRANCH  18  19
ATOM     19  C   UNL     1      14.611 -30.035  23.245  1.00  0.00     0.000 C 
BRANCH  19  20
ATOM     20  C   UNL     1      13.124 -30.409  23.337  1.00  0.00     0.000 C 
BRANCH  20  21
ATOM     21  C   UNL     1      12.588 -31.057  22.043  1.00  0.00     0.000 C 
BRANCH  21  22
ATOM     22  C   UNL     1      13.626 -31.130  20.907  1.00  0.00     0.000 C 
BRANCH  22  23
ATOM     23  C   UNL     1      13.850 -32.531  20.309  1.00  0.00     0.000 C 
BRANCH  23  24
ATOM     24  C   UNL     1      14.785 -33.446  21.124  1.00  0.00    -0.000 C 
BRANCH  24  25
ATOM     25  C   UNL     1      14.991 -34.825  20.476  1.00  0.00    -0.000 C 
BRANCH  25  26
ATOM     26  C   UNL     1      16.351 -34.960  19.766  1.00  0.00    -0.000 C 
BRANCH  26  27
ATOM     27  C   UNL     1      16.820 -36.406  19.518  1.00  0.00    -0.000 C 
BRANCH  27  28
ATOM     28  C   UNL     1      17.681 -36.967  20.663  1.00  0.00    -0.000 C 
BRANCH  28  29
ATOM     29  C   UNL     1      18.415 -35.862  21.438  1.00  0.00    -0.000 C 
BRANCH  29  30
ATOM     30  C   UNL     1      18.227 -35.980  22.958  1.00  0.00    -0.000 C 
BRANCH  30  31
ATOM     31  C   UNL     1      17.280 -34.893  23.477  1.00  0.00    -0.003 C 
ATOM     32  C   UNL     1      17.690 -34.420  24.869  1.00  0.00     0.004 C 
ENDBRANCH  30  31
ENDBRANCH  29  30
ENDBRANCH  28  29
ENDBRANCH  27  28
ENDBRANCH  26  27
ENDBRANCH  25  26
ENDBRANCH  24  25
ENDBRANCH  23  24
ENDBRANCH  22  23
ENDBRANCH  21  22
ENDBRANCH  20  21
ENDBRANCH  19  20
ENDBRANCH  18  19
ENDBRANCH   1  18
TORSDOF 28
ENDMDL
MODEL 4
REMARK VINA RESULT:    -5.109      1.132      2.478
REMARK INTER + INTRA:         -18.480
REMARK INTER:                 -13.579
REMARK INTRA:                  -4.901
REMARK UNBOUND:                -5.007
REMARK SMILES CCCCCCCCCCCCCCCCCCCCCCCCCCCCCC(=O)[O-]
REMARK SMILES IDX 16 1 17 2 18 3 19 4 20 5 21 6 22 7 23 8 24 9 25 10 26 11
REMARK SMILES IDX 27 12 28 13 29 14 30 15 31 16 32 17 15 18 14 19 13 20 12 21
REMARK SMILES IDX 11 22 10 23 9 24 8 25 7 26 6 27 5 28 4 29 3 30 2 31 1 32
REMARK H PARENT
REMARK Flexibility Score: inf
ROOT
ATOM      1  C   UNL     1      12.461 -31.010  22.081  1.00  0.00     0.000 C 
ENDROOT
BRANCH   1   2
ATOM      2  C   UNL     1      13.324 -30.850  23.344  1.00  0.00     0.000 C 
BRANCH   2   3
ATOM      3  C   UNL     1      13.593 -29.377  23.697  1.00  0.00     0.000 C 
BRANCH   3   4
ATOM      4  C   UNL     1      14.745 -28.766  22.882  1.00  0.00     0.000 C 
BRANCH   4   5
ATOM      5  C   UNL     1      16.100 -29.426  23.191  1.00  0.00     0.000 C 
BRANCH   5   6
ATOM      6  C   UNL     1      16.798 -29.980  21.936  1.00  0.00     0.000 C 
BRANCH   6   7
ATOM      7  C   UNL     1      17.566 -31.301  22.144  1.00  0.00     0.000 C 
BRANCH   7   8
ATOM      8  C   UNL     1      18.078 -31.911  20.830  1.00  0.00     0.000 C 
BRANCH   8   9
ATOM      9  C   UNL     1      19.541 -32.360  20.961  1.00  0.00     0.000 C 
BRANCH   9  10
ATOM     10  C   UNL     1      20.389 -31.364  21.771  1.00  0.00     0.000 C 
BRANCH  10  11
ATOM     11  C   UNL     1      20.998 -30.261  20.887  1.00  0.00     0.000 C 
BRANCH  11  12
ATOM     12  C   UNL     1      20.369 -28.878  21.138  1.00  0.00     0.000 C 
BRANCH  12  13
ATOM     13  C   UNL     1      21.349 -27.796  21.627  1.00  0.00     0.006 C 
BRANCH  13  14
ATOM     14  C   UNL     1      22.234 -27.239  20.505  1.00  0.00     0.053 C 
BRANCH  14  15
ATOM     15  C   UNL     1      21.791 -25.861  20.123  1.00  0.00     0.041 C 
ATOM     16  O   UNL     1      22.642 -24.961  19.899  1.00  0.00    -0.550 OA
ATOM     17  O   UNL     1      20.437 -25.579  19.987  1.00  0.00    -0.550 OA
ENDBRANCH  14  15
ENDBRANCH  13  14
ENDBRANCH  12  13
ENDBRANCH  11  12
ENDBRANCH  10  11
ENDBRANCH   9  10
ENDBRANCH   8   9
ENDBRANCH   7   8
ENDBRANCH   6   7
ENDBRANCH   5   6
ENDBRANCH   4   5
ENDBRANCH   3   4
ENDBRANCH   2   3
ENDBRANCH   1   2
BRANCH   1  18
ATOM     18  C   UNL     1      13.268 -31.518  20.877  1.00  0.00     0.000 C 
BRANCH  18  19
ATOM     19  C   UNL     1      14.292 -32.578  21.300  1.00  0.00     0.000 C 
BRANCH  19  20
ATOM     20  C   UNL     1      14.483 -33.625  20.192  1.00  0.00     0.000 C 
BRANCH  20  21
ATOM     21  C   UNL     1      15.569 -34.666  20.533  1.00  0.00     0.000 C 
BRANCH  21  22
ATOM     22  C   UNL     1      16.530 -34.969  19.367  1.00  0.00     0.000 C 
BRANCH  22  23
ATOM     23  C   UNL     1      17.827 -35.702  19.756  1.00  0.00     0.000 C 
BRANCH  23  24
ATOM     24  C   UNL     1      17.641 -36.894  20.714  1.00  0.00    -0.000 C 
BRANCH  24  25
ATOM     25  C   UNL     1      18.619 -36.869  21.901  1.00  0.00    -0.000 C 
BRANCH  25  26
ATOM     26  C   UNL     1      18.592 -35.539  22.676  1.00  0.00    -0.000 C 
BRANCH  26  27
ATOM     27  C   UNL     1      19.471 -35.500  23.941  1.00  0.00    -0.000 C 
BRANCH  27  28
ATOM     28  C   UNL     1      19.807 -34.070  24.398  1.00  0.00    -0.000 C 
BRANCH  28  29
ATOM     29  C   UNL     1      19.047 -33.669  25.672  1.00  0.00    -0.000 C 
BRANCH  29  30
ATOM     30  C   UNL     1      17.781 -32.852  25.374  1.00  0.00    -0.000 C 
BRANCH  30  31
ATOM     31  C   UNL     1      16.522 -33.700  25.582  1.00  0.00    -0.003 C 
ATOM     32  C   UNL     1      15.814 -33.973  24.258  1.00  0.00     0.004 C 
ENDBRANCH  30  31
ENDBRANCH  29  30
ENDBRANCH  28  29
ENDBRANCH  27  28
ENDBRANCH  26  27
ENDBRANCH  25  26
ENDBRANCH  24  25
ENDBRANCH  23  24
ENDBRANCH  22  23
ENDBRANCH  21  22
ENDBRANCH  20  21
ENDBRANCH  19  20
ENDBRANCH  18  19
ENDBRANCH   1  18
TORSDOF 28
ENDMDL
MODEL 5
REMARK VINA RESULT:    -5.093      2.953      6.775
REMARK INTER + INTRA:         -18.437
REMARK INTER:                 -12.305
REMARK INTRA:                  -6.132
REMARK UNBOUND:                -5.007
REMARK SMILES CCCCCCCCCCCCCCCCCCCCCCCCCCCCCC(=O)[O-]
REMARK SMILES IDX 16 1 17 2 18 3 19 4 20 5 21 6 22 7 23 8 24 9 25 10 26 11
REMARK SMILES IDX 27 12 28 13 29 14 30 15 31 16 32 17 15 18 14 19 13 20 12 21
REMARK SMILES IDX 11 22 10 23 9 24 8 25 7 26 6 27 5 28 4 29 3 30 2 31 1 32
REMARK H PARENT
REMARK Flexibility Score: inf
ROOT
ATOM      1  C   UNL     1      17.102 -34.353  19.006  1.00  0.00     0.000 C 
ENDROOT
BRANCH   1   2
ATOM      2  C   UNL     1      18.082 -35.481  19.371  1.00  0.00     0.000 C 
BRANCH   2   3
ATOM      3  C   UNL     1      17.411 -36.615  20.168  1.00  0.00     0.000 C 
BRANCH   3   4
ATOM      4  C   UNL     1      18.043 -36.828  21.552  1.00  0.00     0.000 C 
BRANCH   4   5
ATOM      5  C   UNL     1      19.106 -35.766  21.885  1.00  0.00     0.000 C 
BRANCH   5   6
ATOM      6  C   UNL     1      18.683 -34.833  23.036  1.00  0.00     0.000 C 
BRANCH   6   7
ATOM      7  C   UNL     1      17.308 -35.145  23.657  1.00  0.00     0.000 C 
BRANCH   7   8
ATOM      8  C   UNL     1      16.649 -33.916  24.303  1.00  0.00     0.000 C 
BRANCH   8   9
ATOM      9  C   UNL     1      17.242 -32.613  23.745  1.00  0.00     0.000 C 
BRANCH   9  10
ATOM     10  C   UNL     1      17.772 -31.688  24.855  1.00  0.00     0.000 C 
BRANCH  10  11
ATOM     11  C   UNL     1      19.283 -31.430  24.728  1.00  0.00     0.000 C 
BRANCH  11  12
ATOM     12  C   UNL     1      20.135 -32.506  25.427  1.00  0.00     0.000 C 
BRANCH  12  13
ATOM     13  C   UNL     1      21.440 -32.877  24.699  1.00  0.00     0.006 C 
BRANCH  13  14
ATOM     14  C   UNL     1      21.837 -34.346  24.896  1.00  0.00     0.053 C 
BRANCH  14  15
ATOM     15  C   UNL     1      22.366 -34.922  23.620  1.00  0.00     0.041 C 
ATOM     16  O   UNL     1      22.512 -34.190  22.607  1.00  0.00    -0.550 OA
ATOM     17  O   UNL     1      22.727 -36.263  23.559  1.00  0.00    -0.550 OA
ENDBRANCH  14  15
ENDBRANCH  13  14
ENDBRANCH  12  13
ENDBRANCH  11  12
ENDBRANCH  10  11
ENDBRANCH   9  10
ENDBRANCH   8   9
ENDBRANCH   7   8
ENDBRANCH   6   7
ENDBRANCH   5   6
ENDBRANCH   4   5
ENDBRANCH   3   4
ENDBRANCH   2   3
ENDBRANCH   1   2
BRANCH   1  18
ATOM     18  C   UNL     1      16.506 -33.669  20.245  1.00  0.00     0.000 C 
BRANCH  18  19
ATOM     19  C   UNL     1      14.988 -33.874  20.319  1.00  0.00     0.000 C 
BRANCH  19  20
ATOM     20  C   UNL     1      14.375 -33.010  21.432  1.00  0.00     0.000 C 
BRANCH  20  21
ATOM     21  C   UNL     1      13.483 -31.876  20.886  1.00  0.00     0.000 C 
BRANCH  21  22
ATOM     22  C   UNL     1      12.775 -31.057  21.983  1.00  0.00     0.000 C 
BRANCH  22  23
ATOM     23  C   UNL     1      13.450 -31.087  23.367  1.00  0.00     0.000 C 
BRANCH  23  24
ATOM     24  C   UNL     1      14.649 -30.134  23.528  1.00  0.00    -0.000 C 
BRANCH  24  25
ATOM     25  C   UNL     1      14.428 -28.770  22.853  1.00  0.00    -0.000 C 
BRANCH  25  26
ATOM     26  C   UNL     1      15.668 -28.267  22.090  1.00  0.00    -0.000 C 
BRANCH  26  27
ATOM     27  C   UNL     1      17.021 -28.739  22.657  1.00  0.00    -0.000 C 
BRANCH  27  28
ATOM     28  C   UNL     1      18.224 -28.252  21.831  1.00  0.00    -0.000 C 
BRANCH  28  29
ATOM     29  C   UNL     1      19.225 -29.379  21.532  1.00  0.00    -0.000 C 
BRANCH  29  30
ATOM     30  C   UNL     1      18.539 -30.671  21.063  1.00  0.00    -0.000 C 
BRANCH  30  31
ATOM     31  C   UNL     1      19.545 -31.824  20.979  1.00  0.00    -0.003 C 
ATOM     32  C   UNL     1      20.965 -31.339  21.254  1.00  0.00     0.004 C 
ENDBRANCH  30  31
ENDBRANCH  29  30
ENDBRANCH  28  29
ENDBRANCH  27  28
ENDBRANCH  26  27
ENDBRANCH  25  26
ENDBRANCH  24  25
ENDBRANCH  23  24
ENDBRANCH  22  23
ENDBRANCH  21  22
ENDBRANCH  20  21
ENDBRANCH  19  20
ENDBRANCH  18  19
ENDBRANCH   1  18
TORSDOF 28
ENDMDL
MODEL 6
REMARK VINA RESULT:    -5.050      1.238      5.267
REMARK INTER + INTRA:         -18.325
REMARK INTER:                 -12.995
REMARK INTRA:                  -5.330
REMARK UNBOUND:                -5.007
REMARK SMILES CCCCCCCCCCCCCCCCCCCCCCCCCCCCCC(=O)[O-]
REMARK SMILES IDX 16 1 17 2 18 3 19 4 20 5 21 6 22 7 23 8 24 9 25 10 26 11
REMARK SMILES IDX 27 12 28 13 29 14 30 15 31 16 32 17 15 18 14 19 13 20 12 21
REMARK SMILES IDX 11 22 10 23 9 24 8 25 7 26 6 27 5 28 4 29 3 30 2 31 1 32
REMARK H PARENT
REMARK Flexibility Score: inf
ROOT
ATOM      1  C   UNL     1      16.539 -35.426  19.396  1.00  0.00     0.000 C 
ENDROOT
BRANCH   1   2
ATOM      2  C   UNL     1      15.546 -34.926  20.459  1.00  0.00     0.000 C 
BRANCH   2   3
ATOM      3  C   UNL     1      14.790 -33.661  20.016  1.00  0.00     0.000 C 
BRANCH   3   4
ATOM      4  C   UNL     1      14.232 -32.852  21.198  1.00  0.00     0.000 C 
BRANCH   4   5
ATOM      5  C   UNL     1      13.236 -31.767  20.752  1.00  0.00     0.000 C 
BRANCH   5   6
ATOM      6  C   UNL     1      12.790 -30.850  21.906  1.00  0.00     0.000 C 
BRANCH   6   7
ATOM      7  C   UNL     1      13.509 -31.093  23.248  1.00  0.00     0.000 C 
BRANCH   7   8
ATOM      8  C   UNL     1      14.472 -29.957  23.627  1.00  0.00     0.000 C 
BRANCH   8   9
ATOM      9  C   UNL     1      14.866 -29.130  22.394  1.00  0.00     0.000 C 
BRANCH   9  10
ATOM     10  C   UNL     1      16.231 -29.548  21.820  1.00  0.00     0.000 C 
BRANCH  10  11
ATOM     11  C   UNL     1      17.281 -28.430  21.938  1.00  0.00     0.000 C 
BRANCH  11  12
ATOM     12  C   UNL     1      18.609 -28.781  21.243  1.00  0.00     0.000 C 
BRANCH  12  13
ATOM     13  C   UNL     1      19.434 -27.572  20.765  1.00  0.00     0.006 C 
BRANCH  13  14
ATOM     14  C   UNL     1      20.937 -27.731  21.030  1.00  0.00     0.053 C 
BRANCH  14  15
ATOM     15  C   UNL     1      21.665 -26.467  20.696  1.00  0.00     0.041 C 
ATOM     16  O   UNL     1      21.105 -25.576  20.007  1.00  0.00    -0.550 OA
ATOM     17  O   UNL     1      22.955 -26.261  21.172  1.00  0.00    -0.550 OA
ENDBRANCH  14  15
ENDBRANCH  13  14
ENDBRANCH  12  13
ENDBRANCH  11  12
ENDBRANCH  10  11
ENDBRANCH   9  10
ENDBRANCH   8   9
ENDBRANCH   7   8
ENDBRANCH   6   7
ENDBRANCH   5   6
ENDBRANCH   4   5
ENDBRANCH   3   4
ENDBRANCH   2   3
ENDBRANCH   1   2
BRANCH   1  18
ATOM     18  C   UNL     1      17.295 -36.686  19.845  1.00  0.00     0.000 C 
BRANCH  18  19
ATOM     19  C   UNL     1      17.647 -36.624  21.336  1.00  0.00     0.000 C 
BRANCH  19  20
ATOM     20  C   UNL     1      18.965 -35.866  21.554  1.00  0.00     0.000 C 
BRANCH  20  21
ATOM     21  C   UNL     1      19.192 -35.473  23.029  1.00  0.00     0.000 C 
BRANCH  21  22
ATOM     22  C   UNL     1      18.166 -36.084  24.002  1.00  0.00     0.000 C 
BRANCH  22  23
ATOM     23  C   UNL     1      17.359 -35.067  24.831  1.00  0.00     0.000 C 
BRANCH  23  24
ATOM     24  C   UNL     1      16.329 -34.245  24.032  1.00  0.00    -0.000 C 
BRANCH  24  25
ATOM     25  C   UNL     1      16.806 -32.815  23.729  1.00  0.00    -0.000 C 
BRANCH  25  26
ATOM     26  C   UNL     1      17.925 -32.340  24.674  1.00  0.00    -0.000 C 
BRANCH  26  27
ATOM     27  C   UNL     1      18.538 -30.970  24.327  1.00  0.00    -0.000 C 
BRANCH  27  28
ATOM     28  C   UNL     1      20.071 -30.946  24.448  1.00  0.00    -0.000 C 
BRANCH  28  29
ATOM     29  C   UNL     1      20.768 -31.064  23.084  1.00  0.00    -0.000 C 
BRANCH  29  30
ATOM     30  C   UNL     1      20.268 -32.262  22.264  1.00  0.00    -0.000 C 
BRANCH  30  31
ATOM     31  C   UNL     1      19.772 -31.813  20.885  1.00  0.00    -0.003 C 
ATOM     32  C   UNL     1      18.447 -32.480  20.530  1.00  0.00     0.004 C 
ENDBRANCH  30  31
ENDBRANCH  29  30
ENDBRANCH  28  29
ENDBRANCH  27  28
ENDBRANCH  26  27
ENDBRANCH  25  26
ENDBRANCH  24  25
ENDBRANCH  23  24
ENDBRANCH  22  23
ENDBRANCH  21  22
ENDBRANCH  20  21
ENDBRANCH  19  20
ENDBRANCH  18  19
ENDBRANCH   1  18
TORSDOF 28
ENDMDL
MODEL 7
REMARK VINA RESULT:    -5.047      3.531      6.734
REMARK INTER + INTRA:         -18.315
REMARK INTER:                 -11.937
REMARK INTRA:                  -6.378
REMARK UNBOUND:                -5.007
REMARK SMILES CCCCCCCCCCCCCCCCCCCCCCCCCCCCCC(=O)[O-]
REMARK SMILES IDX 16 1 17 2 18 3 19 4 20 5 21 6 22 7 23 8 24 9 25 10 26 11
REMARK SMILES IDX 27 12 28 13 29 14 30 15 31 16 32 17 15 18 14 19 13 20 12 21
REMARK SMILES IDX 11 22 10 23 9 24 8 25 7 26 6 27 5 28 4 29 3 30 2 31 1 32
REMARK H PARENT
REMARK Flexibility Score: inf
ROOT
ATOM      1  C   UNL     1      14.855 -33.365  21.404  1.00  0.00     0.000 C 
ENDROOT
BRANCH   1   2
ATOM      2  C   UNL     1      15.233 -34.041  20.076  1.00  0.00     0.000 C 
BRANCH   2   3
ATOM      3  C   UNL     1      15.812 -35.454  20.274  1.00  0.00     0.000 C 
BRANCH   3   4
ATOM      4  C   UNL     1      16.983 -35.759  19.325  1.00  0.00     0.000 C 
BRANCH   4   5
ATOM      5  C   UNL     1      18.225 -34.903  19.628  1.00  0.00     0.000 C 
BRANCH   5   6
ATOM      6  C   UNL     1      18.567 -34.851  21.129  1.00  0.00     0.000 C 
BRANCH   6   7
ATOM      7  C   UNL     1      19.298 -33.573  21.588  1.00  0.00     0.000 C 
BRANCH   7   8
ATOM      8  C   UNL     1      18.937 -32.340  20.745  1.00  0.00     0.000 C 
BRANCH   8   9
ATOM      9  C   UNL     1      17.824 -31.519  21.413  1.00  0.00     0.000 C 
BRANCH   9  10
ATOM     10  C   UNL     1      18.007 -31.416  22.937  1.00  0.00     0.000 C 
BRANCH  10  11
ATOM     11  C   UNL     1      17.010 -30.437  23.582  1.00  0.00     0.000 C 
BRANCH  11  12
ATOM     12  C   UNL     1      15.919 -29.964  22.603  1.00  0.00     0.000 C 
BRANCH  12  13
ATOM     13  C   UNL     1      14.748 -29.205  23.251  1.00  0.00     0.006 C 
BRANCH  13  14
ATOM     14  C   UNL     1      13.604 -30.130  23.689  1.00  0.00     0.053 C 
BRANCH  14  15
ATOM     15  C   UNL     1      12.437 -29.995  22.763  1.00  0.00     0.041 C 
ATOM     16  O   UNL     1      11.623 -29.046  22.903  1.00  0.00    -0.550 OA
ATOM     17  O   UNL     1      12.263 -30.904  21.726  1.00  0.00    -0.550 OA
ENDBRANCH  14  15
ENDBRANCH  13  14
ENDBRANCH  12  13
ENDBRANCH  11  12
ENDBRANCH  10  11
ENDBRANCH   9  10
ENDBRANCH   8   9
ENDBRANCH   7   8
ENDBRANCH   6   7
ENDBRANCH   5   6
ENDBRANCH   4   5
ENDBRANCH   3   4
ENDBRANCH   2   3
ENDBRANCH   1   2
BRANCH   1  18
ATOM     18  C   UNL     1      15.378 -34.134  22.627  1.00  0.00     0.000 C 
BRANCH  18  19
ATOM     19  C   UNL     1      14.946 -33.462  23.935  1.00  0.00     0.000 C 
BRANCH  19  20
ATOM     20  C   UNL     1      15.950 -33.759  25.059  1.00  0.00     0.000 C 
BRANCH  20  21
ATOM     21  C   UNL     1      17.022 -34.790  24.647  1.00  0.00     0.000 C 
BRANCH  21  22
ATOM     22  C   UNL     1      18.141 -34.976  25.689  1.00  0.00     0.000 C 
BRANCH  22  23
ATOM     23  C   UNL     1      19.535 -35.284  25.110  1.00  0.00     0.000 C 
BRANCH  23  24
ATOM     24  C   UNL     1      20.403 -34.048  24.808  1.00  0.00    -0.000 C 
BRANCH  24  25
ATOM     25  C   UNL     1      20.007 -32.817  25.641  1.00  0.00    -0.000 C 
BRANCH  25  26
ATOM     26  C   UNL     1      20.881 -31.584  25.348  1.00  0.00    -0.000 C 
BRANCH  26  27
ATOM     27  C   UNL     1      21.975 -31.794  24.283  1.00  0.00    -0.000 C 
BRANCH  27  28
ATOM     28  C   UNL     1      22.398 -30.490  23.587  1.00  0.00    -0.000 C 
BRANCH  28  29
ATOM     29  C   UNL     1      21.582 -30.212  22.315  1.00  0.00    -0.000 C 
BRANCH  29  30
ATOM     30  C   UNL     1      20.527 -29.114  22.517  1.00  0.00    -0.000 C 
BRANCH  30  31
ATOM     31  C   UNL     1      20.378 -28.261  21.252  1.00  0.00    -0.003 C 
ATOM     32  C   UNL     1      18.912 -28.106  20.860  1.00  0.00     0.004 C 
ENDBRANCH  30  31
ENDBRANCH  29  30
ENDBRANCH  28  29
ENDBRANCH  27  28
ENDBRANCH  26  27
ENDBRANCH  25  26
ENDBRANCH  24  25
ENDBRANCH  23  24
ENDBRANCH  22  23
ENDBRANCH  21  22
ENDBRANCH  20  21
ENDBRANCH  19  20
ENDBRANCH  18  19
ENDBRANCH   1  18
TORSDOF 28
ENDMDL
MODEL 8
REMARK VINA RESULT:    -5.033      1.085      4.480
REMARK INTER + INTRA:         -18.278
REMARK INTER:                 -13.450
REMARK INTRA:                  -4.828
REMARK UNBOUND:                -5.007
REMARK SMILES CCCCCCCCCCCCCCCCCCCCCCCCCCCCCC(=O)[O-]
REMARK SMILES IDX 16 1 17 2 18 3 19 4 20 5 21 6 22 7 23 8 24 9 25 10 26 11
REMARK SMILES IDX 27 12 28 13 29 14 30 15 31 16 32 17 15 18 14 19 13 20 12 21
REMARK SMILES IDX 11 22 10 23 9 24 8 25 7 26 6 27 5 28 4 29 3 30 2 31 1 32
REMARK H PARENT
REMARK Flexibility Score: inf
ROOT
ATOM      1  C   UNL     1      15.363 -34.769  20.174  1.00  0.00     0.000 C 
ENDROOT
BRANCH   1   2
ATOM      2  C   UNL     1      15.377 -34.105  21.561  1.00  0.00     0.000 C 
BRANCH   2   3
ATOM      3  C   UNL     1      15.230 -32.574  21.488  1.00  0.00     0.000 C 
BRANCH   3   4
ATOM      4  C   UNL     1      13.825 -32.089  21.880  1.00  0.00     0.000 C 
BRANCH   4   5
ATOM      5  C   UNL     1      13.810 -31.358  23.234  1.00  0.00     0.000 C 
BRANCH   5   6
ATOM      6  C   UNL     1      13.430 -29.871  23.110  1.00  0.00     0.000 C 
BRANCH   6   7
ATOM      7  C   UNL     1      14.606 -28.883  23.239  1.00  0.00     0.000 C 
BRANCH   7   8
ATOM      8  C   UNL     1      15.435 -28.766  21.950  1.00  0.00     0.000 C 
BRANCH   8   9
ATOM      9  C   UNL     1      16.800 -29.453  22.106  1.00  0.00     0.000 C 
BRANCH   9  10
ATOM     10  C   UNL     1      17.959 -28.443  22.173  1.00  0.00     0.000 C 
BRANCH  10  11
ATOM     11  C   UNL     1      18.794 -28.423  20.881  1.00  0.00     0.000 C 
BRANCH  11  12
ATOM     12  C   UNL     1      20.257 -28.008  21.121  1.00  0.00     0.000 C 
BRANCH  12  13
ATOM     13  C   UNL     1      20.634 -26.614  20.586  1.00  0.00     0.006 C 
BRANCH  13  14
ATOM     14  C   UNL     1      21.901 -26.046  21.238  1.00  0.00     0.053 C 
BRANCH  14  15
ATOM     15  C   UNL     1      23.023 -25.997  20.249  1.00  0.00     0.041 C 
ATOM     16  O   UNL     1      23.860 -26.934  20.192  1.00  0.00    -0.550 OA
ATOM     17  O   UNL     1      23.127 -24.926  19.368  1.00  0.00    -0.550 OA
ENDBRANCH  14  15
ENDBRANCH  13  14
ENDBRANCH  12  13
ENDBRANCH  11  12
ENDBRANCH  10  11
ENDBRANCH   9  10
ENDBRANCH   8   9
ENDBRANCH   7   8
ENDBRANCH   6   7
ENDBRANCH   5   6
ENDBRANCH   4   5
ENDBRANCH   3   4
ENDBRANCH   2   3
ENDBRANCH   1   2
BRANCH   1  18
ATOM     18  C   UNL     1      16.544 -34.325  19.298  1.00  0.00     0.000 C 
BRANCH  18  19
ATOM     19  C   UNL     1      17.678 -35.357  19.326  1.00  0.00     0.000 C 
BRANCH  19  20
ATOM     20  C   UNL     1      17.155 -36.730  19.775  1.00  0.00     0.000 C 
BRANCH  20  21
ATOM     21  C   UNL     1      18.027 -37.373  20.873  1.00  0.00     0.000 C 
BRANCH  21  22
ATOM     22  C   UNL     1      18.674 -36.356  21.832  1.00  0.00     0.000 C 
BRANCH  22  23
ATOM     23  C   UNL     1      19.039 -36.902  23.224  1.00  0.00     0.000 C 
BRANCH  23  24
ATOM     24  C   UNL     1      19.222 -35.832  24.317  1.00  0.00    -0.000 C 
BRANCH  24  25
ATOM     25  C   UNL     1      18.054 -35.788  25.317  1.00  0.00    -0.000 C 
BRANCH  25  26
ATOM     26  C   UNL     1      16.846 -34.987  24.797  1.00  0.00    -0.000 C 
BRANCH  26  27
ATOM     27  C   UNL     1      16.744 -33.542  25.319  1.00  0.00    -0.000 C 
BRANCH  27  28
ATOM     28  C   UNL     1      17.273 -32.500  24.319  1.00  0.00    -0.000 C 
BRANCH  28  29
ATOM     29  C   UNL     1      18.722 -32.084  24.617  1.00  0.00    -0.000 C 
BRANCH  29  30
ATOM     30  C   UNL     1      19.509 -31.726  23.347  1.00  0.00    -0.000 C 
BRANCH  30  31
ATOM     31  C   UNL     1      19.295 -32.781  22.257  1.00  0.00    -0.003 C 
ATOM     32  C   UNL     1      18.967 -32.131  20.916  1.00  0.00     0.004 C 
ENDBRANCH  30  31
ENDBRANCH  29  30
ENDBRANCH  28  29
ENDBRANCH  27  28
ENDBRANCH  26  27
ENDBRANCH  25  26
ENDBRANCH  24  25
ENDBRANCH  23  24
ENDBRANCH  22  23
ENDBRANCH  21  22
ENDBRANCH  20  21
ENDBRANCH  19  20
ENDBRANCH  18  19
ENDBRANCH   1  18
TORSDOF 28
ENDMDL
MODEL 9
REMARK VINA RESULT:    -5.030      2.483      7.093
REMARK INTER + INTRA:         -18.271
REMARK INTER:                 -12.320
REMARK INTRA:                  -5.951
REMARK UNBOUND:                -5.007
REMARK SMILES CCCCCCCCCCCCCCCCCCCCCCCCCCCCCC(=O)[O-]
REMARK SMILES IDX 16 1 17 2 18 3 19 4 20 5 21 6 22 7 23 8 24 9 25 10 26 11
REMARK SMILES IDX 27 12 28 13 29 14 30 15 31 16 32 17 15 18 14 19 13 20 12 21
REMARK SMILES IDX 11 22 10 23 9 24 8 25 7 26 6 27 5 28 4 29 3 30 2 31 1 32
REMARK H PARENT
REMARK Flexibility Score: inf
ROOT
ATOM      1  C   UNL     1      16.394 -34.389  19.607  1.00  0.00     0.000 C 
ENDROOT
BRANCH   1   2
ATOM      2  C   UNL     1      16.269 -35.917  19.734  1.00  0.00     0.000 C 
BRANCH   2   3
ATOM      3  C   UNL     1      17.635 -36.618  19.838  1.00  0.00     0.000 C 
BRANCH   3   4
ATOM      4  C   UNL     1      18.003 -37.003  21.280  1.00  0.00     0.000 C 
BRANCH   4   5
ATOM      5  C   UNL     1      19.158 -36.154  21.840  1.00  0.00     0.000 C 
BRANCH   5   6
ATOM      6  C   UNL     1      18.743 -35.302  23.054  1.00  0.00     0.000 C 
BRANCH   6   7
ATOM      7  C   UNL     1      17.223 -35.107  23.226  1.00  0.00     0.000 C 
BRANCH   7   8
ATOM      8  C   UNL     1      16.815 -34.829  24.682  1.00  0.00     0.000 C 
BRANCH   8   9
ATOM      9  C   UNL     1      15.639 -33.844  24.748  1.00  0.00     0.000 C 
BRANCH   9  10
ATOM     10  C   UNL     1      14.997 -33.604  23.370  1.00  0.00     0.000 C 
BRANCH  10  11
ATOM     11  C   UNL     1      13.900 -32.527  23.415  1.00  0.00     0.000 C 
BRANCH  11  12
ATOM     12  C   UNL     1      13.804 -31.716  22.110  1.00  0.00     0.000 C 
BRANCH  12  13
ATOM     13  C   UNL     1      13.529 -30.213  22.296  1.00  0.00     0.006 C 
BRANCH  13  14
ATOM     14  C   UNL     1      14.379 -29.583  23.407  1.00  0.00     0.053 C 
BRANCH  14  15
ATOM     15  C   UNL     1      15.049 -28.338  22.914  1.00  0.00     0.041 C 
ATOM     16  O   UNL     1      15.105 -27.316  23.646  1.00  0.00    -0.550 OA
ATOM     17  O   UNL     1      15.636 -28.317  21.654  1.00  0.00    -0.550 OA
ENDBRANCH  14  15
ENDBRANCH  13  14
ENDBRANCH  12  13
ENDBRANCH  11  12
ENDBRANCH  10  11
ENDBRANCH   9  10
ENDBRANCH   8   9
ENDBRANCH   7   8
ENDBRANCH   6   7
ENDBRANCH   5   6
ENDBRANCH   4   5
ENDBRANCH   3   4
ENDBRANCH   2   3
ENDBRANCH   1   2
BRANCH   1  18
ATOM     18  C   UNL     1      17.801 -33.949  19.176  1.00  0.00     0.000 C 
BRANCH  18  19
ATOM     19  C   UNL     1      18.391 -32.929  20.158  1.00  0.00     0.000 C 
BRANCH  19  20
ATOM     20  C   UNL     1      17.277 -32.216  20.939  1.00  0.00     0.000 C 
BRANCH  20  21
ATOM     21  C   UNL     1      17.801 -31.040  21.788  1.00  0.00     0.000 C 
BRANCH  21  22
ATOM     22  C   UNL     1      17.540 -31.196  23.299  1.00  0.00     0.000 C 
BRANCH  22  23
ATOM     23  C   UNL     1      18.772 -31.004  24.203  1.00  0.00     0.000 C 
BRANCH  23  24
ATOM     24  C   UNL     1      19.618 -32.271  24.429  1.00  0.00    -0.000 C 
BRANCH  24  25
ATOM     25  C   UNL     1      21.055 -32.137  23.897  1.00  0.00    -0.000 C 
BRANCH  25  26
ATOM     26  C   UNL     1      21.158 -32.362  22.377  1.00  0.00    -0.000 C 
BRANCH  26  27
ATOM     27  C   UNL     1      21.348 -31.085  21.536  1.00  0.00    -0.000 C 
BRANCH  27  28
ATOM     28  C   UNL     1      21.565 -29.826  22.393  1.00  0.00    -0.000 C 
BRANCH  28  29
ATOM     29  C   UNL     1      20.620 -28.680  21.999  1.00  0.00    -0.000 C 
BRANCH  29  30
ATOM     30  C   UNL     1      21.192 -27.801  20.876  1.00  0.00    -0.000 C 
BRANCH  30  31
ATOM     31  C   UNL     1      20.172 -26.746  20.435  1.00  0.00    -0.003 C 
ATOM     32  C   UNL     1      20.464 -25.393  21.076  1.00  0.00     0.004 C 
ENDBRANCH  30  31
ENDBRANCH  29  30
ENDBRANCH  28  29
ENDBRANCH  27  28
ENDBRANCH  26  27
ENDBRANCH  25  26
ENDBRANCH  24  25
ENDBRANCH  23  24
ENDBRANCH  22  23
ENDBRANCH  21  22
ENDBRANCH  20  21
ENDBRANCH  19  20
ENDBRANCH  18  19
ENDBRANCH   1  18
TORSDOF 28
ENDMDL
