MODEL 1
REMARK VINA RESULT:    -3.938      0.000      0.000
REMARK INTER + INTRA:          -5.049
REMARK INTER:                  -4.859
REMARK INTRA:                  -0.190
REMARK UNBOUND:                -0.190
REMARK SMILES Oc1cc(O)c2cc(O)c(-c3cc(O)c(O)c(O)c3)[o+]c2c1
REMARK SMILES IDX 10 1 20 2 21 3 22 4 2 5 3 6 4 7 6 8 7 9 8 10 11 11 12 12
REMARK SMILES IDX 13 13 19 14 15 15 17 16 14 17 16 19 18 21 9 23 1 25 5 27
REMARK H PARENT 14 18 16 20 18 22 9 24 1 26 5 28
REMARK Flexibility Score: inf
ROOT
ATOM      1  C   UNL     1     -17.273  44.750  -8.021  1.00  0.00     0.402 A 
ATOM      2  O   UNL     1     -18.341  45.378  -8.506  1.00  0.00    -0.202 OA
ATOM      3  C   UNL     1     -19.211  44.807  -9.332  1.00  0.00     0.368 A 
ATOM      4  C   UNL     1     -20.302  45.550  -9.791  1.00  0.00     0.162 A 
ATOM      5  C   UNL     1     -21.231  44.975 -10.663  1.00  0.00     0.128 A 
ATOM      6  C   UNL     1     -21.067  43.652 -11.079  1.00  0.00     0.093 A 
ATOM      7  C   UNL     1     -19.982  42.886 -10.634  1.00  0.00     0.136 A 
ATOM      8  C   UNL     1     -19.038  43.464  -9.746  1.00  0.00     0.125 A 
ATOM      9  C   UNL     1     -17.929  42.768  -9.238  1.00  0.00     0.078 A 
ATOM     10  C   UNL     1     -17.043  43.405  -8.362  1.00  0.00     0.223 A 
ENDROOT
BRANCH   1  11
ATOM     11  C   UNL     1     -16.372  45.498  -7.116  1.00  0.00     0.091 A 
ATOM     12  C   UNL     1     -15.690  46.648  -7.549  1.00  0.00     0.068 A 
ATOM     13  C   UNL     1     -14.859  47.356  -6.669  1.00  0.00     0.162 A 
ATOM     14  C   UNL     1     -16.235  45.085  -5.781  1.00  0.00     0.068 A 
ATOM     15  C   UNL     1     -14.710  46.925  -5.344  1.00  0.00     0.200 A 
ATOM     16  C   UNL     1     -15.405  45.788  -4.897  1.00  0.00     0.162 A 
BRANCH  13  17
ATOM     17  O   UNL     1     -14.180  48.493  -7.104  1.00  0.00    -0.504 OA
ATOM     18  H   UNL     1     -13.301  48.777  -6.687  1.00  0.00     0.293 HD
ENDBRANCH  13  17
BRANCH  15  19
ATOM     19  O   UNL     1     -13.875  47.639  -4.485  1.00  0.00    -0.502 OA
ATOM     20  H   UNL     1     -13.774  48.645  -4.544  1.00  0.00     0.293 HD
ENDBRANCH  15  19
BRANCH  16  21
ATOM     21  O   UNL     1     -15.266  45.360  -3.577  1.00  0.00    -0.504 OA
ATOM     22  H   UNL     1     -15.568  45.933  -2.799  1.00  0.00     0.293 HD
ENDBRANCH  16  21
ENDBRANCH   1  11
BRANCH  10  23
ATOM     23  O   UNL     1     -15.970  42.699  -7.819  1.00  0.00    -0.500 OA
ATOM     24  H   UNL     1     -15.897  41.692  -7.904  1.00  0.00     0.294 HD
ENDBRANCH  10  23
BRANCH   5  25
ATOM     25  O   UNL     1     -22.320  45.710 -11.125  1.00  0.00    -0.507 OA
ATOM     26  H   UNL     1     -22.513  45.806 -12.115  1.00  0.00     0.293 HD
ENDBRANCH   5  25
BRANCH   7  27
ATOM     27  O   UNL     1     -19.889  41.571 -11.099  1.00  0.00    -0.507 OA
ATOM     28  H   UNL     1     -19.092  41.196 -11.593  1.00  0.00     0.293 HD
ENDBRANCH   7  27
TORSDOF 7
ENDMDL
MODEL 2
REMARK VINA RESULT:    -3.762      1.223      7.255
REMARK INTER + INTRA:          -4.832
REMARK INTER:                  -4.954
REMARK INTRA:                   0.121
REMARK UNBOUND:                -0.190
REMARK SMILES Oc1cc(O)c2cc(O)c(-c3cc(O)c(O)c(O)c3)[o+]c2c1
REMARK SMILES IDX 10 1 20 2 21 3 22 4 2 5 3 6 4 7 6 8 7 9 8 10 11 11 12 12
REMARK SMILES IDX 13 13 19 14 15 15 17 16 14 17 16 19 18 21 9 23 1 25 5 27
REMARK H PARENT 14 18 16 20 18 22 9 24 1 26 5 28
REMARK Flexibility Score: inf
ROOT
ATOM      1  C   UNL     1     -17.572  45.787  -8.448  1.00  0.00     0.402 A 
ATOM      2  O   UNL     1     -17.099  45.312  -7.298  1.00  0.00    -0.202 OA
ATOM      3  C   UNL     1     -16.133  45.906  -6.605  1.00  0.00     0.368 A 
ATOM      4  C   UNL     1     -15.700  45.328  -5.410  1.00  0.00     0.162 A 
ATOM      5  C   UNL     1     -14.684  45.931  -4.662  1.00  0.00     0.128 A 
ATOM      6  C   UNL     1     -14.098  47.116  -5.115  1.00  0.00     0.093 A 
ATOM      7  C   UNL     1     -14.514  47.715  -6.310  1.00  0.00     0.136 A 
ATOM      8  C   UNL     1     -15.547  47.108  -7.071  1.00  0.00     0.125 A 
ATOM      9  C   UNL     1     -16.038  47.644  -8.273  1.00  0.00     0.078 A 
ATOM     10  C   UNL     1     -17.062  46.991  -8.965  1.00  0.00     0.223 A 
ENDROOT
BRANCH   1  11
ATOM     11  C   UNL     1     -18.644  45.027  -9.131  1.00  0.00     0.091 A 
ATOM     12  C   UNL     1     -19.692  45.681  -9.801  1.00  0.00     0.068 A 
ATOM     13  C   UNL     1     -20.684  44.944 -10.461  1.00  0.00     0.162 A 
ATOM     14  C   UNL     1     -18.586  43.625  -9.160  1.00  0.00     0.068 A 
ATOM     15  C   UNL     1     -20.631  43.544 -10.466  1.00  0.00     0.200 A 
ATOM     16  C   UNL     1     -19.576  42.881  -9.817  1.00  0.00     0.162 A 
BRANCH  13  17
ATOM     17  O   UNL     1     -21.726  45.596 -11.119  1.00  0.00    -0.504 OA
ATOM     18  H   UNL     1     -22.694  45.438 -10.867  1.00  0.00     0.293 HD
ENDBRANCH  13  17
BRANCH  15  19
ATOM     19  O   UNL     1     -21.631  42.826 -11.125  1.00  0.00    -0.502 OA
ATOM     20  H   UNL     1     -21.506  42.466 -12.063  1.00  0.00     0.293 HD
ENDBRANCH  15  19
BRANCH  16  21
ATOM     21  O   UNL     1     -19.514  41.488  -9.827  1.00  0.00    -0.504 OA
ATOM     22  H   UNL     1     -20.125  40.935 -10.415  1.00  0.00     0.293 HD
ENDBRANCH  16  21
ENDBRANCH   1  11
BRANCH  10  23
ATOM     23  O   UNL     1     -17.583  47.549 -10.132  1.00  0.00    -0.500 OA
ATOM     24  H   UNL     1     -18.553  47.832 -10.201  1.00  0.00     0.294 HD
ENDBRANCH  10  23
BRANCH   5  25
ATOM     25  O   UNL     1     -14.247  45.361  -3.469  1.00  0.00    -0.507 OA
ATOM     26  H   UNL     1     -13.393  45.666  -3.017  1.00  0.00     0.293 HD
ENDBRANCH   5  25
BRANCH   7  27
ATOM     27  O   UNL     1     -13.875  48.897  -6.694  1.00  0.00    -0.507 OA
ATOM     28  H   UNL     1     -13.253  48.979  -7.485  1.00  0.00     0.293 HD
ENDBRANCH   7  27
TORSDOF 7
ENDMDL
MODEL 3
REMARK VINA RESULT:    -3.734      1.223      7.394
REMARK INTER + INTRA:          -4.797
REMARK INTER:                  -4.928
REMARK INTRA:                   0.131
REMARK UNBOUND:                -0.190
REMARK SMILES Oc1cc(O)c2cc(O)c(-c3cc(O)c(O)c(O)c3)[o+]c2c1
REMARK SMILES IDX 10 1 20 2 21 3 22 4 2 5 3 6 4 7 6 8 7 9 8 10 11 11 12 12
REMARK SMILES IDX 13 13 19 14 15 15 17 16 14 17 16 19 18 21 9 23 1 25 5 27
REMARK H PARENT 14 18 16 20 18 22 9 24 1 26 5 28
REMARK Flexibility Score: inf
ROOT
ATOM      1  C   UNL     1     -17.493  45.775  -8.566  1.00  0.00     0.402 A 
ATOM      2  O   UNL     1     -17.009  45.319  -7.414  1.00  0.00    -0.202 OA
ATOM      3  C   UNL     1     -16.060  45.942  -6.724  1.00  0.00     0.368 A 
ATOM      4  C   UNL     1     -15.613  45.383  -5.524  1.00  0.00     0.162 A 
ATOM      5  C   UNL     1     -14.613  46.016  -4.780  1.00  0.00     0.128 A 
ATOM      6  C   UNL     1     -14.055  47.211  -5.240  1.00  0.00     0.093 A 
ATOM      7  C   UNL     1     -14.485  47.791  -6.440  1.00  0.00     0.136 A 
ATOM      8  C   UNL     1     -15.503  47.155  -7.197  1.00  0.00     0.125 A 
ATOM      9  C   UNL     1     -16.005  47.670  -8.403  1.00  0.00     0.078 A 
ATOM     10  C   UNL     1     -17.013  46.987  -9.092  1.00  0.00     0.223 A 
ENDROOT
BRANCH   1  11
ATOM     11  C   UNL     1     -18.545  44.984  -9.245  1.00  0.00     0.091 A 
ATOM     12  C   UNL     1     -18.516  43.579  -9.249  1.00  0.00     0.068 A 
ATOM     13  C   UNL     1     -19.534  42.848  -9.879  1.00  0.00     0.162 A 
ATOM     14  C   UNL     1     -19.625  45.646  -9.851  1.00  0.00     0.068 A 
ATOM     15  C   UNL     1     -20.597  43.517 -10.500  1.00  0.00     0.200 A 
ATOM     16  C   UNL     1     -20.645  44.921 -10.483  1.00  0.00     0.162 A 
BRANCH  13  17
ATOM     17  O   UNL     1     -19.499  41.454  -9.886  1.00  0.00    -0.504 OA
ATOM     18  H   UNL     1     -19.886  40.918 -10.653  1.00  0.00     0.293 HD
ENDBRANCH  13  17
BRANCH  15  19
ATOM     19  O   UNL     1     -21.598  42.773 -11.125  1.00  0.00    -0.502 OA
ATOM     20  H   UNL     1     -22.262  43.193 -11.763  1.00  0.00     0.293 HD
ENDBRANCH  15  19
BRANCH  16  21
ATOM     21  O   UNL     1     -21.705  45.591 -11.093  1.00  0.00    -0.504 OA
ATOM     22  H   UNL     1     -22.667  45.323 -10.927  1.00  0.00     0.293 HD
ENDBRANCH  16  21
ENDBRANCH   1  11
BRANCH  10  23
ATOM     23  O   UNL     1     -17.546  47.524 -10.263  1.00  0.00    -0.500 OA
ATOM     24  H   UNL     1     -16.989  47.627 -11.103  1.00  0.00     0.294 HD
ENDBRANCH  10  23
BRANCH   5  25
ATOM     25  O   UNL     1     -14.163  45.464  -3.583  1.00  0.00    -0.507 OA
ATOM     26  H   UNL     1     -13.334  45.814  -3.117  1.00  0.00     0.293 HD
ENDBRANCH   5  25
BRANCH   7  27
ATOM     27  O   UNL     1     -13.875  48.986  -6.831  1.00  0.00    -0.507 OA
ATOM     28  H   UNL     1     -12.957  49.283  -6.532  1.00  0.00     0.293 HD
ENDBRANCH   7  27
TORSDOF 7
ENDMDL
MODEL 4
REMARK VINA RESULT:    -3.545      1.228      7.065
REMARK INTER + INTRA:          -4.564
REMARK INTER:                  -4.640
REMARK INTRA:                   0.075
REMARK UNBOUND:                -0.190
REMARK SMILES Oc1cc(O)c2cc(O)c(-c3cc(O)c(O)c(O)c3)[o+]c2c1
REMARK SMILES IDX 10 1 20 2 21 3 22 4 2 5 3 6 4 7 6 8 7 9 8 10 11 11 12 12
REMARK SMILES IDX 13 13 19 14 15 15 17 16 14 17 16 19 18 21 9 23 1 25 5 27
REMARK H PARENT 14 18 16 20 18 22 9 24 1 26 5 28
REMARK Flexibility Score: inf
ROOT
ATOM      1  C   UNL     1     -17.443  45.053  -7.862  1.00  0.00     0.402 A 
ATOM      2  O   UNL     1     -16.887  46.206  -8.225  1.00  0.00    -0.202 OA
ATOM      3  C   UNL     1     -15.927  46.804  -7.527  1.00  0.00     0.368 A 
ATOM      4  C   UNL     1     -15.407  48.017  -7.987  1.00  0.00     0.162 A 
ATOM      5  C   UNL     1     -14.398  48.669  -7.272  1.00  0.00     0.128 A 
ATOM      6  C   UNL     1     -13.911  48.107  -6.090  1.00  0.00     0.093 A 
ATOM      7  C   UNL     1     -14.415  46.894  -5.607  1.00  0.00     0.136 A 
ATOM      8  C   UNL     1     -15.437  46.226  -6.331  1.00  0.00     0.125 A 
ATOM      9  C   UNL     1     -15.992  45.000  -5.931  1.00  0.00     0.078 A 
ATOM     10  C   UNL     1     -16.994  44.399  -6.700  1.00  0.00     0.223 A 
ENDROOT
BRANCH   1  11
ATOM     11  C   UNL     1     -18.512  44.491  -8.719  1.00  0.00     0.091 A 
ATOM     12  C   UNL     1     -18.581  43.115  -8.995  1.00  0.00     0.068 A 
ATOM     13  C   UNL     1     -19.614  42.600  -9.790  1.00  0.00     0.162 A 
ATOM     14  C   UNL     1     -19.510  45.339  -9.223  1.00  0.00     0.068 A 
ATOM     15  C   UNL     1     -20.594  43.456 -10.308  1.00  0.00     0.200 A 
ATOM     16  C   UNL     1     -20.545  44.830 -10.020  1.00  0.00     0.162 A 
BRANCH  13  17
ATOM     17  O   UNL     1     -19.676  41.235 -10.066  1.00  0.00    -0.504 OA
ATOM     18  H   UNL     1     -19.623  40.542  -9.329  1.00  0.00     0.293 HD
ENDBRANCH  13  17
BRANCH  15  19
ATOM     19  O   UNL     1     -21.612  42.926 -11.102  1.00  0.00    -0.502 OA
ATOM     20  H   UNL     1     -21.866  41.946 -11.068  1.00  0.00     0.293 HD
ENDBRANCH  15  19
BRANCH  16  21
ATOM     21  O   UNL     1     -21.523  45.685 -10.527  1.00  0.00    -0.504 OA
ATOM     22  H   UNL     1     -21.605  45.867 -11.520  1.00  0.00     0.293 HD
ENDBRANCH  16  21
ENDBRANCH   1  11
BRANCH  10  23
ATOM     23  O   UNL     1     -17.511  43.159  -6.329  1.00  0.00    -0.500 OA
ATOM     24  H   UNL     1     -17.090  42.291  -6.642  1.00  0.00     0.294 HD
ENDBRANCH  10  23
BRANCH   5  25
ATOM     25  O   UNL     1     -13.875  49.878  -7.725  1.00  0.00    -0.507 OA
ATOM     26  H   UNL     1     -14.449  50.552  -8.219  1.00  0.00     0.293 HD
ENDBRANCH   5  25
BRANCH   7  27
ATOM     27  O   UNL     1     -13.876  46.401  -4.415  1.00  0.00    -0.507 OA
ATOM     28  H   UNL     1     -12.900  46.177  -4.280  1.00  0.00     0.293 HD
ENDBRANCH   7  27
TORSDOF 7
ENDMDL
MODEL 5
REMARK VINA RESULT:    -3.440      1.219      6.924
REMARK INTER + INTRA:          -4.435
REMARK INTER:                  -4.525
REMARK INTRA:                   0.091
REMARK UNBOUND:                -0.190
REMARK SMILES Oc1cc(O)c2cc(O)c(-c3cc(O)c(O)c(O)c3)[o+]c2c1
REMARK SMILES IDX 10 1 20 2 21 3 22 4 2 5 3 6 4 7 6 8 7 9 8 10 11 11 12 12
REMARK SMILES IDX 13 13 19 14 15 15 17 16 14 17 16 19 18 21 9 23 1 25 5 27
REMARK H PARENT 14 18 16 20 18 22 9 24 1 26 5 28
REMARK Flexibility Score: inf
ROOT
ATOM      1  C   UNL     1     -17.531  44.982  -7.878  1.00  0.00     0.402 A 
ATOM      2  O   UNL     1     -16.959  46.117  -8.274  1.00  0.00    -0.202 OA
ATOM      3  C   UNL     1     -15.979  46.712  -7.603  1.00  0.00     0.368 A 
ATOM      4  C   UNL     1     -15.444  47.905  -8.097  1.00  0.00     0.162 A 
ATOM      5  C   UNL     1     -14.413  48.553  -7.410  1.00  0.00     0.128 A 
ATOM      6  C   UNL     1     -13.918  48.008  -6.223  1.00  0.00     0.093 A 
ATOM      7  C   UNL     1     -14.437  46.814  -5.707  1.00  0.00     0.136 A 
ATOM      8  C   UNL     1     -15.481  46.150  -6.402  1.00  0.00     0.125 A 
ATOM      9  C   UNL     1     -16.053  44.943  -5.968  1.00  0.00     0.078 A 
ATOM     10  C   UNL     1     -17.076  44.345  -6.710  1.00  0.00     0.223 A 
ENDROOT
BRANCH   1  11
ATOM     11  C   UNL     1     -18.622  44.422  -8.707  1.00  0.00     0.091 A 
ATOM     12  C   UNL     1     -19.601  45.249  -9.285  1.00  0.00     0.068 A 
ATOM     13  C   UNL     1     -20.613  44.702 -10.086  1.00  0.00     0.162 A 
ATOM     14  C   UNL     1     -18.653  43.044  -8.970  1.00  0.00     0.068 A 
ATOM     15  C   UNL     1     -20.649  43.322 -10.325  1.00  0.00     0.200 A 
ATOM     16  C   UNL     1     -19.663  42.490  -9.769  1.00  0.00     0.162 A 
BRANCH  13  17
ATOM     17  O   UNL     1     -21.585  45.525 -10.652  1.00  0.00    -0.504 OA
ATOM     18  H   UNL     1     -21.410  46.507 -10.830  1.00  0.00     0.293 HD
ENDBRANCH  13  17
BRANCH  15  19
ATOM     19  O   UNL     1     -21.667  42.795 -11.121  1.00  0.00    -0.502 OA
ATOM     20  H   UNL     1     -22.469  42.320 -10.725  1.00  0.00     0.293 HD
ENDBRANCH  15  19
BRANCH  16  21
ATOM     21  O   UNL     1     -19.690  41.117 -10.011  1.00  0.00    -0.504 OA
ATOM     22  H   UNL     1     -20.486  40.672 -10.450  1.00  0.00     0.293 HD
ENDBRANCH  16  21
ENDBRANCH   1  11
BRANCH  10  23
ATOM     23  O   UNL     1     -17.610  43.122  -6.304  1.00  0.00    -0.500 OA
ATOM     24  H   UNL     1     -17.020  42.323  -6.105  1.00  0.00     0.294 HD
ENDBRANCH  10  23
BRANCH   5  25
ATOM     25  O   UNL     1     -13.875  49.742  -7.896  1.00  0.00    -0.507 OA
ATOM     26  H   UNL     1     -12.878  49.922  -7.872  1.00  0.00     0.293 HD
ENDBRANCH   5  25
BRANCH   7  27
ATOM     27  O   UNL     1     -13.889  46.337  -4.514  1.00  0.00    -0.507 OA
ATOM     28  H   UNL     1     -12.979  45.905  -4.436  1.00  0.00     0.293 HD
ENDBRANCH   7  27
TORSDOF 7
ENDMDL
MODEL 6
REMARK VINA RESULT:    -2.859      1.800      3.072
REMARK INTER + INTRA:          -3.717
REMARK INTER:                  -3.680
REMARK INTRA:                  -0.036
REMARK UNBOUND:                -0.190
REMARK SMILES Oc1cc(O)c2cc(O)c(-c3cc(O)c(O)c(O)c3)[o+]c2c1
REMARK SMILES IDX 10 1 20 2 21 3 22 4 2 5 3 6 4 7 6 8 7 9 8 10 11 11 12 12
REMARK SMILES IDX 13 13 19 14 15 15 17 16 14 17 16 19 18 21 9 23 1 25 5 27
REMARK H PARENT 14 18 16 20 18 22 9 24 1 26 5 28
REMARK Flexibility Score: inf
ROOT
ATOM      1  C   UNL     1     -18.270  45.138  -7.481  1.00  0.00     0.402 A 
ATOM      2  O   UNL     1     -18.103  43.833  -7.680  1.00  0.00    -0.202 OA
ATOM      3  C   UNL     1     -18.803  43.135  -8.568  1.00  0.00     0.368 A 
ATOM      4  C   UNL     1     -18.559  41.766  -8.702  1.00  0.00     0.162 A 
ATOM      5  C   UNL     1     -19.283  41.007  -9.626  1.00  0.00     0.128 A 
ATOM      6  C   UNL     1     -20.258  41.620 -10.416  1.00  0.00     0.093 A 
ATOM      7  C   UNL     1     -20.523  42.990 -10.300  1.00  0.00     0.136 A 
ATOM      8  C   UNL     1     -19.788  43.765  -9.366  1.00  0.00     0.125 A 
ATOM      9  C   UNL     1     -19.976  45.146  -9.191  1.00  0.00     0.078 A 
ATOM     10  C   UNL     1     -19.210  45.844  -8.252  1.00  0.00     0.223 A 
ENDROOT
BRANCH   1  11
ATOM     11  C   UNL     1     -17.434  45.802  -6.455  1.00  0.00     0.091 A 
ATOM     12  C   UNL     1     -16.037  45.652  -6.441  1.00  0.00     0.068 A 
ATOM     13  C   UNL     1     -15.261  46.307  -5.474  1.00  0.00     0.162 A 
ATOM     14  C   UNL     1     -18.040  46.643  -5.509  1.00  0.00     0.068 A 
ATOM     15  C   UNL     1     -15.875  47.128  -4.519  1.00  0.00     0.200 A 
ATOM     16  C   UNL     1     -17.270  47.300  -4.539  1.00  0.00     0.162 A 
BRANCH  13  17
ATOM     17  O   UNL     1     -13.875  46.152  -5.459  1.00  0.00    -0.504 OA
ATOM     18  H   UNL     1     -13.253  46.950  -5.431  1.00  0.00     0.293 HD
ENDBRANCH  13  17
BRANCH  15  19
ATOM     19  O   UNL     1     -15.087  47.769  -3.562  1.00  0.00    -0.502 OA
ATOM     20  H   UNL     1     -14.115  47.996  -3.730  1.00  0.00     0.293 HD
ENDBRANCH  15  19
BRANCH  16  21
ATOM     21  O   UNL     1     -17.885  48.122  -3.596  1.00  0.00    -0.504 OA
ATOM     22  H   UNL     1     -17.354  48.584  -2.868  1.00  0.00     0.293 HD
ENDBRANCH  16  21
ENDBRANCH   1  11
BRANCH  10  23
ATOM     23  O   UNL     1     -19.362  47.224  -8.113  1.00  0.00    -0.500 OA
ATOM     24  H   UNL     1     -19.213  47.857  -8.890  1.00  0.00     0.294 HD
ENDBRANCH  10  23
BRANCH   5  25
ATOM     25  O   UNL     1     -19.044  39.642  -9.766  1.00  0.00    -0.507 OA
ATOM     26  H   UNL     1     -19.788  38.961  -9.669  1.00  0.00     0.293 HD
ENDBRANCH   5  25
BRANCH   7  27
ATOM     27  O   UNL     1     -21.517  43.525 -11.125  1.00  0.00    -0.507 OA
ATOM     28  H   UNL     1     -22.485  43.238 -11.113  1.00  0.00     0.293 HD
ENDBRANCH   7  27
TORSDOF 7
ENDMDL
MODEL 7
REMARK VINA RESULT:    -2.326      2.521      3.253
REMARK INTER + INTRA:          -3.060
REMARK INTER:                  -2.692
REMARK INTRA:                  -0.368
REMARK UNBOUND:                -0.190
REMARK SMILES Oc1cc(O)c2cc(O)c(-c3cc(O)c(O)c(O)c3)[o+]c2c1
REMARK SMILES IDX 10 1 20 2 21 3 22 4 2 5 3 6 4 7 6 8 7 9 8 10 11 11 12 12
REMARK SMILES IDX 13 13 19 14 15 15 17 16 14 17 16 19 18 21 9 23 1 25 5 27
REMARK H PARENT 14 18 16 20 18 22 9 24 1 26 5 28
REMARK Flexibility Score: inf
ROOT
ATOM      1  C   UNL     1     -17.170  46.225  -9.436  1.00  0.00     0.402 A 
ATOM      2  O   UNL     1     -18.299  46.194  -8.732  1.00  0.00    -0.202 OA
ATOM      3  C   UNL     1     -19.155  45.178  -8.770  1.00  0.00     0.368 A 
ATOM      4  C   UNL     1     -20.317  45.239  -7.997  1.00  0.00     0.162 A 
ATOM      5  C   UNL     1     -21.236  44.185  -8.020  1.00  0.00     0.128 A 
ATOM      6  C   UNL     1     -20.991  43.068  -8.821  1.00  0.00     0.093 A 
ATOM      7  C   UNL     1     -19.834  42.982  -9.605  1.00  0.00     0.136 A 
ATOM      8  C   UNL     1     -18.897  44.048  -9.583  1.00  0.00     0.125 A 
ATOM      9  C   UNL     1     -17.704  44.043 -10.324  1.00  0.00     0.078 A 
ATOM     10  C   UNL     1     -16.826  45.129 -10.248  1.00  0.00     0.223 A 
ENDROOT
BRANCH   1  11
ATOM     11  C   UNL     1     -16.303  47.419  -9.316  1.00  0.00     0.091 A 
ATOM     12  C   UNL     1     -16.310  48.429 -10.293  1.00  0.00     0.068 A 
ATOM     13  C   UNL     1     -15.498  49.563 -10.150  1.00  0.00     0.162 A 
ATOM     14  C   UNL     1     -15.497  47.576  -8.177  1.00  0.00     0.068 A 
ATOM     15  C   UNL     1     -14.679  49.702  -9.021  1.00  0.00     0.200 A 
ATOM     16  C   UNL     1     -14.682  48.707  -8.029  1.00  0.00     0.162 A 
BRANCH  13  17
ATOM     17  O   UNL     1     -15.503  50.560 -11.125  1.00  0.00    -0.504 OA
ATOM     18  H   UNL     1     -15.750  50.360 -12.086  1.00  0.00     0.293 HD
ENDBRANCH  13  17
BRANCH  15  19
ATOM     19  O   UNL     1     -13.875  50.836  -8.898  1.00  0.00    -0.502 OA
ATOM     20  H   UNL     1     -12.931  50.789  -8.536  1.00  0.00     0.293 HD
ENDBRANCH  15  19
BRANCH  16  21
ATOM     21  O   UNL     1     -13.875  48.845  -6.900  1.00  0.00    -0.504 OA
ATOM     22  H   UNL     1     -13.723  48.076  -6.260  1.00  0.00     0.293 HD
ENDBRANCH  16  21
ENDBRANCH   1  11
BRANCH  10  23
ATOM     23  O   UNL     1     -15.619  45.102 -10.946  1.00  0.00    -0.500 OA
ATOM     24  H   UNL     1     -15.045  45.931 -11.049  1.00  0.00     0.294 HD
ENDBRANCH  10  23
BRANCH   5  25
ATOM     25  O   UNL     1     -22.396  44.240  -7.252  1.00  0.00    -0.507 OA
ATOM     26  H   UNL     1     -22.366  44.437  -6.259  1.00  0.00     0.293 HD
ENDBRANCH   5  25
BRANCH   7  27
ATOM     27  O   UNL     1     -19.665  41.832 -10.380  1.00  0.00    -0.507 OA
ATOM     28  H   UNL     1     -19.059  41.770 -11.185  1.00  0.00     0.293 HD
ENDBRANCH   7  27
TORSDOF 7
ENDMDL
MODEL 8
REMARK VINA RESULT:    -2.317      2.051      6.974
REMARK INTER + INTRA:          -3.048
REMARK INTER:                  -2.886
REMARK INTRA:                  -0.163
REMARK UNBOUND:                -0.190
REMARK SMILES Oc1cc(O)c2cc(O)c(-c3cc(O)c(O)c(O)c3)[o+]c2c1
REMARK SMILES IDX 10 1 20 2 21 3 22 4 2 5 3 6 4 7 6 8 7 9 8 10 11 11 12 12
REMARK SMILES IDX 13 13 19 14 15 15 17 16 14 17 16 19 18 21 9 23 1 25 5 27
REMARK H PARENT 14 18 16 20 18 22 9 24 1 26 5 28
REMARK Flexibility Score: inf
ROOT
ATOM      1  C   UNL     1     -17.799  44.632  -7.547  1.00  0.00     0.402 A 
ATOM      2  O   UNL     1     -18.517  45.430  -6.761  1.00  0.00    -0.202 OA
ATOM      3  C   UNL     1     -17.975  46.262  -5.877  1.00  0.00     0.368 A 
ATOM      4  C   UNL     1     -18.813  47.059  -5.092  1.00  0.00     0.162 A 
ATOM      5  C   UNL     1     -18.270  47.941  -4.153  1.00  0.00     0.128 A 
ATOM      6  C   UNL     1     -16.885  48.022  -3.996  1.00  0.00     0.093 A 
ATOM      7  C   UNL     1     -16.024  47.234  -4.769  1.00  0.00     0.136 A 
ATOM      8  C   UNL     1     -16.570  46.340  -5.727  1.00  0.00     0.125 A 
ATOM      9  C   UNL     1     -15.784  45.521  -6.555  1.00  0.00     0.078 A 
ATOM     10  C   UNL     1     -16.395  44.668  -7.479  1.00  0.00     0.223 A 
ENDROOT
BRANCH   1  11
ATOM     11  C   UNL     1     -18.520  43.742  -8.486  1.00  0.00     0.091 A 
ATOM     12  C   UNL     1     -18.315  42.352  -8.480  1.00  0.00     0.068 A 
ATOM     13  C   UNL     1     -19.024  41.524  -9.361  1.00  0.00     0.162 A 
ATOM     14  C   UNL     1     -19.470  44.288  -9.363  1.00  0.00     0.068 A 
ATOM     15  C   UNL     1     -19.954  42.079 -10.250  1.00  0.00     0.200 A 
ATOM     16  C   UNL     1     -20.181  43.466 -10.248  1.00  0.00     0.162 A 
BRANCH  13  17
ATOM     17  O   UNL     1     -18.813  40.146  -9.357  1.00  0.00    -0.504 OA
ATOM     18  H   UNL     1     -19.268  39.538 -10.027  1.00  0.00     0.293 HD
ENDBRANCH  13  17
BRANCH  15  19
ATOM     19  O   UNL     1     -20.647  41.240 -11.123  1.00  0.00    -0.502 OA
ATOM     20  H   UNL     1     -21.646  41.093 -11.049  1.00  0.00     0.293 HD
ENDBRANCH  15  19
BRANCH  16  21
ATOM     21  O   UNL     1     -21.112  44.021 -11.125  1.00  0.00    -0.504 OA
ATOM     22  H   UNL     1     -21.072  43.847 -12.122  1.00  0.00     0.293 HD
ENDBRANCH  16  21
ENDBRANCH   1  11
BRANCH  10  23
ATOM     23  O   UNL     1     -15.614  43.892  -8.335  1.00  0.00    -0.500 OA
ATOM     24  H   UNL     1     -15.674  42.880  -8.341  1.00  0.00     0.294 HD
ENDBRANCH  10  23
BRANCH   5  25
ATOM     25  O   UNL     1     -19.098  48.738  -3.367  1.00  0.00    -0.507 OA
ATOM     26  H   UNL     1     -20.015  48.422  -3.072  1.00  0.00     0.293 HD
ENDBRANCH   5  25
BRANCH   7  27
ATOM     27  O   UNL     1     -14.651  47.374  -4.549  1.00  0.00    -0.507 OA
ATOM     28  H   UNL     1     -14.135  48.231  -4.685  1.00  0.00     0.293 HD
ENDBRANCH   7  27
TORSDOF 7
ENDMDL
MODEL 9
REMARK VINA RESULT:    -2.203      2.060      7.406
REMARK INTER + INTRA:          -2.908
REMARK INTER:                  -3.185
REMARK INTRA:                   0.276
REMARK UNBOUND:                -0.190
REMARK SMILES Oc1cc(O)c2cc(O)c(-c3cc(O)c(O)c(O)c3)[o+]c2c1
REMARK SMILES IDX 10 1 20 2 21 3 22 4 2 5 3 6 4 7 6 8 7 9 8 10 11 11 12 12
REMARK SMILES IDX 13 13 19 14 15 15 17 16 14 17 16 19 18 21 9 23 1 25 5 27
REMARK H PARENT 14 18 16 20 18 22 9 24 1 26 5 28
REMARK Flexibility Score: inf
ROOT
ATOM      1  C   UNL     1     -18.680  44.875  -7.327  1.00  0.00     0.402 A 
ATOM      2  O   UNL     1     -17.451  44.825  -6.820  1.00  0.00    -0.202 OA
ATOM      3  C   UNL     1     -16.994  45.699  -5.930  1.00  0.00     0.368 A 
ATOM      4  C   UNL     1     -15.686  45.567  -5.457  1.00  0.00     0.162 A 
ATOM      5  C   UNL     1     -15.178  46.474  -4.522  1.00  0.00     0.128 A 
ATOM      6  C   UNL     1     -15.981  47.519  -4.061  1.00  0.00     0.093 A 
ATOM      7  C   UNL     1     -17.295  47.674  -4.520  1.00  0.00     0.136 A 
ATOM      8  C   UNL     1     -17.816  46.754  -5.466  1.00  0.00     0.125 A 
ATOM      9  C   UNL     1     -19.125  46.823  -5.971  1.00  0.00     0.078 A 
ATOM     10  C   UNL     1     -19.570  45.876  -6.899  1.00  0.00     0.223 A 
ENDROOT
BRANCH   1  11
ATOM     11  C   UNL     1     -19.069  43.847  -8.321  1.00  0.00     0.091 A 
ATOM     12  C   UNL     1     -18.490  42.567  -8.314  1.00  0.00     0.068 A 
ATOM     13  C   UNL     1     -18.889  41.601  -9.248  1.00  0.00     0.162 A 
ATOM     14  C   UNL     1     -20.076  44.136  -9.255  1.00  0.00     0.068 A 
ATOM     15  C   UNL     1     -19.879  41.904 -10.192  1.00  0.00     0.200 A 
ATOM     16  C   UNL     1     -20.479  43.175 -10.193  1.00  0.00     0.162 A 
BRANCH  13  17
ATOM     17  O   UNL     1     -18.308  40.334  -9.243  1.00  0.00    -0.504 OA
ATOM     18  H   UNL     1     -17.773  39.992 -10.032  1.00  0.00     0.293 HD
ENDBRANCH  13  17
BRANCH  15  19
ATOM     19  O   UNL     1     -20.260  40.932 -11.117  1.00  0.00    -0.502 OA
ATOM     20  H   UNL     1     -21.215  40.841 -11.442  1.00  0.00     0.293 HD
ENDBRANCH  15  19
BRANCH  16  21
ATOM     21  O   UNL     1     -21.470  43.479 -11.125  1.00  0.00    -0.504 OA
ATOM     22  H   UNL     1     -21.258  43.974 -11.982  1.00  0.00     0.293 HD
ENDBRANCH  16  21
ENDBRANCH   1  11
BRANCH  10  23
ATOM     23  O   UNL     1     -20.884  45.916  -7.363  1.00  0.00    -0.500 OA
ATOM     24  H   UNL     1     -21.607  46.427  -6.871  1.00  0.00     0.294 HD
ENDBRANCH  10  23
BRANCH   5  25
ATOM     25  O   UNL     1     -13.875  46.348  -4.047  1.00  0.00    -0.507 OA
ATOM     26  H   UNL     1     -13.209  45.722  -4.484  1.00  0.00     0.293 HD
ENDBRANCH   5  25
BRANCH   7  27
ATOM     27  O   UNL     1     -18.032  48.748  -4.011  1.00  0.00    -0.507 OA
ATOM     28  H   UNL     1     -17.911  49.709  -4.297  1.00  0.00     0.293 HD
ENDBRANCH   7  27
TORSDOF 7
ENDMDL
