MODEL 1
REMARK VINA RESULT:    -7.019      0.000      0.000
REMARK INTER + INTRA:          -8.893
REMARK INTER:                  -8.661
REMARK INTRA:                  -0.232
REMARK UNBOUND:                -0.232
REMARK SMILES Oc1cc(O)c2cc(O)c(-c3cc(O)c(O)c(O)c3)[o+]c2c1
REMARK SMILES IDX 10 1 20 2 21 3 22 4 2 5 3 6 4 7 6 8 7 9 8 10 11 11 12 12
REMARK SMILES IDX 13 13 19 14 15 15 17 16 14 17 16 19 18 21 9 23 1 25 5 27
REMARK H PARENT 14 18 16 20 18 22 9 24 1 26 5 28
REMARK Flexibility Score: inf
ROOT
ATOM      1  C   UNL     1      27.657  13.103  65.530  1.00  0.00     0.402 A 
ATOM      2  O   UNL     1      27.074  13.749  64.523  1.00  0.00    -0.202 OA
ATOM      3  C   UNL     1      26.060  14.592  64.689  1.00  0.00     0.368 A 
ATOM      4  C   UNL     1      25.514  15.227  63.570  1.00  0.00     0.162 A 
ATOM      5  C   UNL     1      24.449  16.120  63.715  1.00  0.00     0.128 A 
ATOM      6  C   UNL     1      23.929  16.382  64.984  1.00  0.00     0.093 A 
ATOM      7  C   UNL     1      24.458  15.760  66.122  1.00  0.00     0.136 A 
ATOM      8  C   UNL     1      25.537  14.849  65.979  1.00  0.00     0.125 A 
ATOM      9  C   UNL     1      26.121  14.169  67.060  1.00  0.00     0.078 A 
ATOM     10  C   UNL     1      27.180  13.283  66.842  1.00  0.00     0.223 A 
ENDROOT
BRANCH   1  11
ATOM     11  C   UNL     1      28.786  12.196  65.219  1.00  0.00     0.091 A 
ATOM     12  C   UNL     1      30.071  12.425  65.734  1.00  0.00     0.068 A 
ATOM     13  C   UNL     1      31.130  11.569  65.410  1.00  0.00     0.162 A 
ATOM     14  C   UNL     1      28.584  11.118  64.346  1.00  0.00     0.068 A 
ATOM     15  C   UNL     1      30.921  10.477  64.556  1.00  0.00     0.200 A 
ATOM     16  C   UNL     1      29.633  10.252  64.014  1.00  0.00     0.162 A 
BRANCH  13  17
ATOM     17  O   UNL     1      32.402  11.799  65.932  1.00  0.00    -0.504 OA
ATOM     18  H   UNL     1      33.217  11.307  65.584  1.00  0.00     0.293 HD
ENDBRANCH  13  17
BRANCH  15  19
ATOM     19  O   UNL     1      32.010   9.648  64.271  1.00  0.00    -0.502 OA
ATOM     20  H   UNL     1      32.954   9.979  64.141  1.00  0.00     0.293 HD
ENDBRANCH  15  19
BRANCH  16  21
ATOM     21  O   UNL     1      29.353   9.192  63.149  1.00  0.00    -0.504 OA
ATOM     22  H   UNL     1      29.454   8.219  63.395  1.00  0.00     0.293 HD
ENDBRANCH  16  21
ENDBRANCH   1  11
BRANCH  10  23
ATOM     23  O   UNL     1      27.728  12.570  67.908  1.00  0.00    -0.500 OA
ATOM     24  H   UNL     1      28.677  12.734  68.226  1.00  0.00     0.294 HD
ENDBRANCH  10  23
BRANCH   5  25
ATOM     25  O   UNL     1      23.899  16.756  62.603  1.00  0.00    -0.507 OA
ATOM     26  H   UNL     1      23.529  17.697  62.660  1.00  0.00     0.293 HD
ENDBRANCH   5  25
BRANCH   7  27
ATOM     27  O   UNL     1      23.883  16.077  67.355  1.00  0.00    -0.507 OA
ATOM     28  H   UNL     1      24.209  15.726  68.244  1.00  0.00     0.293 HD
ENDBRANCH   7  27
TORSDOF 7
ENDMDL
MODEL 2
REMARK VINA RESULT:    -6.897      0.317      1.823
REMARK INTER + INTRA:          -8.742
REMARK INTER:                  -8.471
REMARK INTRA:                  -0.271
REMARK UNBOUND:                -0.232
REMARK SMILES Oc1cc(O)c2cc(O)c(-c3cc(O)c(O)c(O)c3)[o+]c2c1
REMARK SMILES IDX 10 1 20 2 21 3 22 4 2 5 3 6 4 7 6 8 7 9 8 10 11 11 12 12
REMARK SMILES IDX 13 13 19 14 15 15 17 16 14 17 16 19 18 21 9 23 1 25 5 27
REMARK H PARENT 14 18 16 20 18 22 9 24 1 26 5 28
REMARK Flexibility Score: inf
ROOT
ATOM      1  C   UNL     1      27.754  13.111  65.524  1.00  0.00     0.402 A 
ATOM      2  O   UNL     1      27.139  13.851  64.606  1.00  0.00    -0.202 OA
ATOM      3  C   UNL     1      26.126  14.666  64.886  1.00  0.00     0.368 A 
ATOM      4  C   UNL     1      25.545  15.407  63.853  1.00  0.00     0.162 A 
ATOM      5  C   UNL     1      24.481  16.273  64.120  1.00  0.00     0.128 A 
ATOM      6  C   UNL     1      23.998  16.401  65.424  1.00  0.00     0.093 A 
ATOM      7  C   UNL     1      24.563  15.671  66.476  1.00  0.00     0.136 A 
ATOM      8  C   UNL     1      25.641  14.787  66.210  1.00  0.00     0.125 A 
ATOM      9  C   UNL     1      26.260  14.005  67.199  1.00  0.00     0.078 A 
ATOM     10  C   UNL     1      27.315  13.153  66.861  1.00  0.00     0.223 A 
ENDROOT
BRANCH   1  11
ATOM     11  C   UNL     1      28.877  12.248  65.090  1.00  0.00     0.091 A 
ATOM     12  C   UNL     1      28.661  11.109  64.301  1.00  0.00     0.068 A 
ATOM     13  C   UNL     1      29.734  10.294  63.920  1.00  0.00     0.162 A 
ATOM     14  C   UNL     1      30.179  12.541  65.524  1.00  0.00     0.068 A 
ATOM     15  C   UNL     1      31.038  10.600  64.334  1.00  0.00     0.200 A 
ATOM     16  C   UNL     1      31.262  11.736  65.150  1.00  0.00     0.162 A 
BRANCH  13  17
ATOM     17  O   UNL     1      29.512   9.167  63.130  1.00  0.00    -0.504 OA
ATOM     18  H   UNL     1      29.851   8.251  63.402  1.00  0.00     0.293 HD
ENDBRANCH  13  17
BRANCH  15  19
ATOM     19  O   UNL     1      32.074   9.759  63.921  1.00  0.00    -0.502 OA
ATOM     20  H   UNL     1      32.869   9.516  64.494  1.00  0.00     0.293 HD
ENDBRANCH  15  19
BRANCH  16  21
ATOM     21  O   UNL     1      32.530  12.097  65.609  1.00  0.00    -0.504 OA
ATOM     22  H   UNL     1      33.179  12.667  65.088  1.00  0.00     0.293 HD
ENDBRANCH  16  21
ENDBRANCH   1  11
BRANCH  10  23
ATOM     23  O   UNL     1      27.898  12.340  67.833  1.00  0.00    -0.500 OA
ATOM     24  H   UNL     1      27.480  12.221  68.748  1.00  0.00     0.294 HD
ENDBRANCH  10  23
BRANCH   5  25
ATOM     25  O   UNL     1      23.896  17.015  63.095  1.00  0.00    -0.507 OA
ATOM     26  H   UNL     1      23.158  16.629  62.517  1.00  0.00     0.293 HD
ENDBRANCH   5  25
BRANCH   7  27
ATOM     27  O   UNL     1      24.024  15.858  67.752  1.00  0.00    -0.507 OA
ATOM     28  H   UNL     1      24.207  15.256  68.542  1.00  0.00     0.293 HD
ENDBRANCH   7  27
TORSDOF 7
ENDMDL
MODEL 3
REMARK VINA RESULT:    -6.777      4.839      8.299
REMARK INTER + INTRA:          -8.594
REMARK INTER:                  -8.213
REMARK INTRA:                  -0.382
REMARK UNBOUND:                -0.232
REMARK SMILES Oc1cc(O)c2cc(O)c(-c3cc(O)c(O)c(O)c3)[o+]c2c1
REMARK SMILES IDX 10 1 20 2 21 3 22 4 2 5 3 6 4 7 6 8 7 9 8 10 11 11 12 12
REMARK SMILES IDX 13 13 19 14 15 15 17 16 14 17 16 19 18 21 9 23 1 25 5 27
REMARK H PARENT 14 18 16 20 18 22 9 24 1 26 5 28
REMARK Flexibility Score: inf
ROOT
ATOM      1  C   UNL     1      33.186  11.281  65.280  1.00  0.00     0.402 A 
ATOM      2  O   UNL     1      33.464  12.545  64.973  1.00  0.00    -0.202 OA
ATOM      3  C   UNL     1      34.649  13.106  65.195  1.00  0.00     0.368 A 
ATOM      4  C   UNL     1      34.847  14.441  64.835  1.00  0.00     0.162 A 
ATOM      5  C   UNL     1      36.084  15.055  65.054  1.00  0.00     0.128 A 
ATOM      6  C   UNL     1      37.127  14.330  65.634  1.00  0.00     0.093 A 
ATOM      7  C   UNL     1      36.954  12.991  66.004  1.00  0.00     0.136 A 
ATOM      8  C   UNL     1      35.700  12.364  65.787  1.00  0.00     0.125 A 
ATOM      9  C   UNL     1      35.431  11.031  66.138  1.00  0.00     0.078 A 
ATOM     10  C   UNL     1      34.168  10.483  65.896  1.00  0.00     0.223 A 
ENDROOT
BRANCH   1  11
ATOM     11  C   UNL     1      31.831  10.768  64.974  1.00  0.00     0.091 A 
ATOM     12  C   UNL     1      31.527  10.204  63.727  1.00  0.00     0.068 A 
ATOM     13  C   UNL     1      30.234   9.745  63.450  1.00  0.00     0.162 A 
ATOM     14  C   UNL     1      30.812  10.899  65.930  1.00  0.00     0.068 A 
ATOM     15  C   UNL     1      29.222   9.855  64.414  1.00  0.00     0.200 A 
ATOM     16  C   UNL     1      29.515  10.443  65.667  1.00  0.00     0.162 A 
BRANCH  13  17
ATOM     17  O   UNL     1      29.942   9.179  62.210  1.00  0.00    -0.504 OA
ATOM     18  H   UNL     1      30.674   8.913  61.561  1.00  0.00     0.293 HD
ENDBRANCH  13  17
BRANCH  15  19
ATOM     19  O   UNL     1      27.951   9.375  64.090  1.00  0.00    -0.502 OA
ATOM     20  H   UNL     1      27.516   9.489  63.186  1.00  0.00     0.293 HD
ENDBRANCH  15  19
BRANCH  16  21
ATOM     21  O   UNL     1      28.557  10.597  66.672  1.00  0.00    -0.504 OA
ATOM     22  H   UNL     1      28.709  11.116  67.524  1.00  0.00     0.293 HD
ENDBRANCH  16  21
ENDBRANCH   1  11
BRANCH  10  23
ATOM     23  O   UNL     1      33.886   9.174  66.289  1.00  0.00    -0.500 OA
ATOM     24  H   UNL     1      32.984   8.918  66.674  1.00  0.00     0.294 HD
ENDBRANCH  10  23
BRANCH   5  25
ATOM     25  O   UNL     1      36.288  16.387  64.697  1.00  0.00    -0.507 OA
ATOM     26  H   UNL     1      36.238  17.132  65.382  1.00  0.00     0.293 HD
ENDBRANCH   5  25
BRANCH   7  27
ATOM     27  O   UNL     1      38.047  12.335  66.577  1.00  0.00    -0.507 OA
ATOM     28  H   UNL     1      38.053  11.940  67.506  1.00  0.00     0.293 HD
ENDBRANCH   7  27
TORSDOF 7
ENDMDL
MODEL 4
REMARK VINA RESULT:    -6.757      6.830      8.781
REMARK INTER + INTRA:          -8.569
REMARK INTER:                  -8.190
REMARK INTRA:                  -0.379
REMARK UNBOUND:                -0.232
REMARK SMILES Oc1cc(O)c2cc(O)c(-c3cc(O)c(O)c(O)c3)[o+]c2c1
REMARK SMILES IDX 10 1 20 2 21 3 22 4 2 5 3 6 4 7 6 8 7 9 8 10 11 11 12 12
REMARK SMILES IDX 13 13 19 14 15 15 17 16 14 17 16 19 18 21 9 23 1 25 5 27
REMARK H PARENT 14 18 16 20 18 22 9 24 1 26 5 28
REMARK Flexibility Score: inf
ROOT
ATOM      1  C   UNL     1      34.245  12.205  63.664  1.00  0.00     0.402 A 
ATOM      2  O   UNL     1      35.318  12.841  63.200  1.00  0.00    -0.202 OA
ATOM      3  C   UNL     1      35.999  13.734  63.911  1.00  0.00     0.368 A 
ATOM      4  C   UNL     1      37.117  14.348  63.338  1.00  0.00     0.162 A 
ATOM      5  C   UNL     1      37.854  15.288  64.064  1.00  0.00     0.128 A 
ATOM      6  C   UNL     1      37.473  15.615  65.367  1.00  0.00     0.093 A 
ATOM      7  C   UNL     1      36.358  15.015  65.963  1.00  0.00     0.136 A 
ATOM      8  C   UNL     1      35.605  14.061  65.230  1.00  0.00     0.125 A 
ATOM      9  C   UNL     1      34.465  13.419  65.742  1.00  0.00     0.078 A 
ATOM     10  C   UNL     1      33.771  12.493  64.958  1.00  0.00     0.223 A 
ENDROOT
BRANCH   1  11
ATOM     11  C   UNL     1      33.576  11.223  62.779  1.00  0.00     0.091 A 
ATOM     12  C   UNL     1      33.841   9.850  62.880  1.00  0.00     0.068 A 
ATOM     13  C   UNL     1      33.215   8.940  62.019  1.00  0.00     0.162 A 
ATOM     14  C   UNL     1      32.702  11.678  61.781  1.00  0.00     0.068 A 
ATOM     15  C   UNL     1      32.323   9.394  61.037  1.00  0.00     0.200 A 
ATOM     16  C   UNL     1      32.068  10.780  60.914  1.00  0.00     0.162 A 
BRANCH  13  17
ATOM     17  O   UNL     1      33.478   7.576  62.130  1.00  0.00    -0.504 OA
ATOM     18  H   UNL     1      33.041   7.006  62.845  1.00  0.00     0.293 HD
ENDBRANCH  13  17
BRANCH  15  19
ATOM     19  O   UNL     1      31.719   8.444  60.209  1.00  0.00    -0.502 OA
ATOM     20  H   UNL     1      30.888   7.927  60.453  1.00  0.00     0.293 HD
ENDBRANCH  15  19
BRANCH  16  21
ATOM     21  O   UNL     1      31.201  11.306  59.954  1.00  0.00    -0.504 OA
ATOM     22  H   UNL     1      30.856  10.789  59.159  1.00  0.00     0.293 HD
ENDBRANCH  16  21
ENDBRANCH   1  11
BRANCH  10  23
ATOM     23  O   UNL     1      32.611  11.891  65.446  1.00  0.00    -0.500 OA
ATOM     24  H   UNL     1      32.228  11.054  65.023  1.00  0.00     0.294 HD
ENDBRANCH  10  23
BRANCH   5  25
ATOM     25  O   UNL     1      38.969  15.905  63.498  1.00  0.00    -0.507 OA
ATOM     26  H   UNL     1      38.959  16.885  63.243  1.00  0.00     0.293 HD
ENDBRANCH   5  25
BRANCH   7  27
ATOM     27  O   UNL     1      36.045  15.394  67.271  1.00  0.00    -0.507 OA
ATOM     28  H   UNL     1      36.608  15.172  68.080  1.00  0.00     0.293 HD
ENDBRANCH   7  27
TORSDOF 7
ENDMDL
MODEL 5
REMARK VINA RESULT:    -6.743      4.884      9.156
REMARK INTER + INTRA:          -8.552
REMARK INTER:                  -8.488
REMARK INTRA:                  -0.065
REMARK UNBOUND:                -0.232
REMARK SMILES Oc1cc(O)c2cc(O)c(-c3cc(O)c(O)c(O)c3)[o+]c2c1
REMARK SMILES IDX 10 1 20 2 21 3 22 4 2 5 3 6 4 7 6 8 7 9 8 10 11 11 12 12
REMARK SMILES IDX 13 13 19 14 15 15 17 16 14 17 16 19 18 21 9 23 1 25 5 27
REMARK H PARENT 14 18 16 20 18 22 9 24 1 26 5 28
REMARK Flexibility Score: inf
ROOT
ATOM      1  C   UNL     1      32.505   9.964  62.706  1.00  0.00     0.402 A 
ATOM      2  O   UNL     1      33.381  10.957  62.577  1.00  0.00    -0.202 OA
ATOM      3  C   UNL     1      34.334  10.972  61.650  1.00  0.00     0.368 A 
ATOM      4  C   UNL     1      35.206  12.063  61.591  1.00  0.00     0.162 A 
ATOM      5  C   UNL     1      36.215  12.107  60.625  1.00  0.00     0.128 A 
ATOM      6  C   UNL     1      36.352  11.058  59.713  1.00  0.00     0.093 A 
ATOM      7  C   UNL     1      35.491   9.954  59.751  1.00  0.00     0.136 A 
ATOM      8  C   UNL     1      34.467   9.903  60.732  1.00  0.00     0.125 A 
ATOM      9  C   UNL     1      33.567   8.831  60.854  1.00  0.00     0.078 A 
ATOM     10  C   UNL     1      32.586   8.849  61.850  1.00  0.00     0.223 A 
ENDROOT
BRANCH   1  11
ATOM     11  C   UNL     1      31.483  10.065  63.773  1.00  0.00     0.091 A 
ATOM     12  C   UNL     1      30.128   9.813  63.512  1.00  0.00     0.068 A 
ATOM     13  C   UNL     1      29.173   9.938  64.529  1.00  0.00     0.162 A 
ATOM     14  C   UNL     1      31.865  10.478  65.057  1.00  0.00     0.068 A 
ATOM     15  C   UNL     1      29.560  10.327  65.819  1.00  0.00     0.200 A 
ATOM     16  C   UNL     1      30.922  10.605  66.084  1.00  0.00     0.162 A 
BRANCH  13  17
ATOM     17  O   UNL     1      27.830   9.678  64.264  1.00  0.00    -0.504 OA
ATOM     18  H   UNL     1      27.338  10.139  63.507  1.00  0.00     0.293 HD
ENDBRANCH  13  17
BRANCH  15  19
ATOM     19  O   UNL     1      28.570  10.429  66.800  1.00  0.00    -0.502 OA
ATOM     20  H   UNL     1      28.370   9.709  67.479  1.00  0.00     0.293 HD
ENDBRANCH  15  19
BRANCH  16  21
ATOM     21  O   UNL     1      31.380  11.009  67.341  1.00  0.00    -0.504 OA
ATOM     22  H   UNL     1      31.533  10.381  68.115  1.00  0.00     0.293 HD
ENDBRANCH  16  21
ENDBRANCH   1  11
BRANCH  10  23
ATOM     23  O   UNL     1      31.724   7.763  62.003  1.00  0.00    -0.500 OA
ATOM     24  H   UNL     1      30.906   7.813  62.600  1.00  0.00     0.294 HD
ENDBRANCH  10  23
BRANCH   5  25
ATOM     25  O   UNL     1      37.089  13.191  60.560  1.00  0.00    -0.507 OA
ATOM     26  H   UNL     1      38.028  13.093  60.194  1.00  0.00     0.293 HD
ENDBRANCH   5  25
BRANCH   7  27
ATOM     27  O   UNL     1      35.693   8.948  58.803  1.00  0.00    -0.507 OA
ATOM     28  H   UNL     1      36.330   9.018  58.024  1.00  0.00     0.293 HD
ENDBRANCH   7  27
TORSDOF 7
ENDMDL
MODEL 6
REMARK VINA RESULT:    -6.741      2.876      7.669
REMARK INTER + INTRA:          -8.550
REMARK INTER:                  -8.182
REMARK INTRA:                  -0.369
REMARK UNBOUND:                -0.232
REMARK SMILES Oc1cc(O)c2cc(O)c(-c3cc(O)c(O)c(O)c3)[o+]c2c1
REMARK SMILES IDX 10 1 20 2 21 3 22 4 2 5 3 6 4 7 6 8 7 9 8 10 11 11 12 12
REMARK SMILES IDX 13 13 19 14 15 15 17 16 14 17 16 19 18 21 9 23 1 25 5 27
REMARK H PARENT 14 18 16 20 18 22 9 24 1 26 5 28
REMARK Flexibility Score: inf
ROOT
ATOM      1  C   UNL     1      30.147  10.870  64.242  1.00  0.00     0.402 A 
ATOM      2  O   UNL     1      31.347  11.373  63.966  1.00  0.00    -0.202 OA
ATOM      3  C   UNL     1      32.092  10.962  62.944  1.00  0.00     0.368 A 
ATOM      4  C   UNL     1      33.339  11.555  62.731  1.00  0.00     0.162 A 
ATOM      5  C   UNL     1      34.142  11.145  61.663  1.00  0.00     0.128 A 
ATOM      6  C   UNL     1      33.695  10.140  60.803  1.00  0.00     0.093 A 
ATOM      7  C   UNL     1      32.449   9.530  60.994  1.00  0.00     0.136 A 
ATOM      8  C   UNL     1      31.631   9.941  62.079  1.00  0.00     0.125 A 
ATOM      9  C   UNL     1      30.375   9.377  62.356  1.00  0.00     0.078 A 
ATOM     10  C   UNL     1      29.628   9.831  63.446  1.00  0.00     0.223 A 
ENDROOT
BRANCH   1  11
ATOM     11  C   UNL     1      29.409  11.417  65.403  1.00  0.00     0.091 A 
ATOM     12  C   UNL     1      28.383  12.360  65.239  1.00  0.00     0.068 A 
ATOM     13  C   UNL     1      27.712  12.882  66.351  1.00  0.00     0.162 A 
ATOM     14  C   UNL     1      29.778  11.031  66.700  1.00  0.00     0.068 A 
ATOM     15  C   UNL     1      28.066  12.477  67.646  1.00  0.00     0.200 A 
ATOM     16  C   UNL     1      29.115  11.544  67.822  1.00  0.00     0.162 A 
BRANCH  13  17
ATOM     17  O   UNL     1      26.689  13.813  66.179  1.00  0.00    -0.504 OA
ATOM     18  H   UNL     1      25.897  13.627  65.574  1.00  0.00     0.293 HD
ENDBRANCH  13  17
BRANCH  15  19
ATOM     19  O   UNL     1      27.361  13.023  68.721  1.00  0.00    -0.502 OA
ATOM     20  H   UNL     1      27.779  13.272  69.605  1.00  0.00     0.293 HD
ENDBRANCH  15  19
BRANCH  16  21
ATOM     21  O   UNL     1      29.531  11.103  69.080  1.00  0.00    -0.504 OA
ATOM     22  H   UNL     1      29.410  10.159  69.417  1.00  0.00     0.293 HD
ENDBRANCH  16  21
ENDBRANCH   1  11
BRANCH  10  23
ATOM     23  O   UNL     1      28.402   9.239  63.751  1.00  0.00    -0.500 OA
ATOM     24  H   UNL     1      28.257   8.239  63.661  1.00  0.00     0.294 HD
ENDBRANCH  10  23
BRANCH   5  25
ATOM     25  O   UNL     1      35.388  11.731  61.445  1.00  0.00    -0.507 OA
ATOM     26  H   UNL     1      36.215  11.416  61.938  1.00  0.00     0.293 HD
ENDBRANCH   5  25
BRANCH   7  27
ATOM     27  O   UNL     1      32.074   8.535  60.088  1.00  0.00    -0.507 OA
ATOM     28  H   UNL     1      32.433   8.454  59.148  1.00  0.00     0.293 HD
ENDBRANCH   7  27
TORSDOF 7
ENDMDL
MODEL 7
REMARK VINA RESULT:    -6.735      4.727      8.167
REMARK INTER + INTRA:          -8.542
REMARK INTER:                  -8.163
REMARK INTRA:                  -0.379
REMARK UNBOUND:                -0.232
REMARK SMILES Oc1cc(O)c2cc(O)c(-c3cc(O)c(O)c(O)c3)[o+]c2c1
REMARK SMILES IDX 10 1 20 2 21 3 22 4 2 5 3 6 4 7 6 8 7 9 8 10 11 11 12 12
REMARK SMILES IDX 13 13 19 14 15 15 17 16 14 17 16 19 18 21 9 23 1 25 5 27
REMARK H PARENT 14 18 16 20 18 22 9 24 1 26 5 28
REMARK Flexibility Score: inf
ROOT
ATOM      1  C   UNL     1      33.073  11.346  65.323  1.00  0.00     0.402 A 
ATOM      2  O   UNL     1      33.392  12.595  64.996  1.00  0.00    -0.202 OA
ATOM      3  C   UNL     1      34.598  13.116  65.201  1.00  0.00     0.368 A 
ATOM      4  C   UNL     1      34.839  14.439  64.820  1.00  0.00     0.162 A 
ATOM      5  C   UNL     1      36.099  15.012  65.020  1.00  0.00     0.128 A 
ATOM      6  C   UNL     1      37.120  14.259  65.602  1.00  0.00     0.093 A 
ATOM      7  C   UNL     1      36.905  12.932  65.992  1.00  0.00     0.136 A 
ATOM      8  C   UNL     1      35.627  12.346  65.794  1.00  0.00     0.125 A 
ATOM      9  C   UNL     1      35.315  11.028  66.166  1.00  0.00     0.078 A 
ATOM     10  C   UNL     1      34.032  10.522  65.943  1.00  0.00     0.223 A 
ENDROOT
BRANCH   1  11
ATOM     11  C   UNL     1      31.698  10.876  65.036  1.00  0.00     0.091 A 
ATOM     12  C   UNL     1      30.670  11.001  65.982  1.00  0.00     0.068 A 
ATOM     13  C   UNL     1      29.382  10.529  65.700  1.00  0.00     0.162 A 
ATOM     14  C   UNL     1      31.428  10.241  63.815  1.00  0.00     0.068 A 
ATOM     15  C   UNL     1      29.107   9.916  64.470  1.00  0.00     0.200 A 
ATOM     16  C   UNL     1      30.144   9.766  63.518  1.00  0.00     0.162 A 
BRANCH  13  17
ATOM     17  O   UNL     1      28.365  10.663  66.643  1.00  0.00    -0.504 OA
ATOM     18  H   UNL     1      28.556  10.962  67.592  1.00  0.00     0.293 HD
ENDBRANCH  13  17
BRANCH  15  19
ATOM     19  O   UNL     1      27.804   9.470  64.235  1.00  0.00    -0.502 OA
ATOM     20  H   UNL     1      27.453   8.569  64.524  1.00  0.00     0.293 HD
ENDBRANCH  15  19
BRANCH  16  21
ATOM     21  O   UNL     1      29.948   9.156  62.277  1.00  0.00    -0.504 OA
ATOM     22  H   UNL     1      29.159   9.339  61.675  1.00  0.00     0.293 HD
ENDBRANCH  16  21
ENDBRANCH   1  11
BRANCH  10  23
ATOM     23  O   UNL     1      33.707   9.230  66.356  1.00  0.00    -0.500 OA
ATOM     24  H   UNL     1      33.227   8.580  65.744  1.00  0.00     0.294 HD
ENDBRANCH  10  23
BRANCH   5  25
ATOM     25  O   UNL     1      36.346  16.331  64.643  1.00  0.00    -0.507 OA
ATOM     26  H   UNL     1      36.001  16.705  63.767  1.00  0.00     0.293 HD
ENDBRANCH   5  25
BRANCH   7  27
ATOM     27  O   UNL     1      37.979  12.246  66.565  1.00  0.00    -0.507 OA
ATOM     28  H   UNL     1      38.440  12.520  67.420  1.00  0.00     0.293 HD
ENDBRANCH   7  27
TORSDOF 7
ENDMDL
MODEL 8
REMARK VINA RESULT:    -6.654      7.410     10.438
REMARK INTER + INTRA:          -8.443
REMARK INTER:                  -8.176
REMARK INTRA:                  -0.266
REMARK UNBOUND:                -0.232
REMARK SMILES Oc1cc(O)c2cc(O)c(-c3cc(O)c(O)c(O)c3)[o+]c2c1
REMARK SMILES IDX 10 1 20 2 21 3 22 4 2 5 3 6 4 7 6 8 7 9 8 10 11 11 12 12
REMARK SMILES IDX 13 13 19 14 15 15 17 16 14 17 16 19 18 21 9 23 1 25 5 27
REMARK H PARENT 14 18 16 20 18 22 9 24 1 26 5 28
REMARK Flexibility Score: inf
ROOT
ATOM      1  C   UNL     1      35.652  13.318  62.004  1.00  0.00     0.402 A 
ATOM      2  O   UNL     1      35.825  12.284  61.185  1.00  0.00    -0.202 OA
ATOM      3  C   UNL     1      35.020  11.226  61.167  1.00  0.00     0.368 A 
ATOM      4  C   UNL     1      35.281  10.189  60.268  1.00  0.00     0.162 A 
ATOM      5  C   UNL     1      34.450   9.066  60.226  1.00  0.00     0.128 A 
ATOM      6  C   UNL     1      33.353   8.980  61.086  1.00  0.00     0.093 A 
ATOM      7  C   UNL     1      33.070  10.005  61.996  1.00  0.00     0.136 A 
ATOM      8  C   UNL     1      33.912  11.146  62.045  1.00  0.00     0.125 A 
ATOM      9  C   UNL     1      33.714  12.215  62.934  1.00  0.00     0.078 A 
ATOM     10  C   UNL     1      34.589  13.305  62.926  1.00  0.00     0.223 A 
ENDROOT
BRANCH   1  11
ATOM     11  C   UNL     1      36.610  14.444  61.922  1.00  0.00     0.091 A 
ATOM     12  C   UNL     1      36.651  15.290  60.803  1.00  0.00     0.068 A 
ATOM     13  C   UNL     1      37.580  16.335  60.735  1.00  0.00     0.162 A 
ATOM     14  C   UNL     1      37.537  14.637  62.956  1.00  0.00     0.068 A 
ATOM     15  C   UNL     1      38.490  16.542  61.781  1.00  0.00     0.200 A 
ATOM     16  C   UNL     1      38.471  15.680  62.903  1.00  0.00     0.162 A 
BRANCH  13  17
ATOM     17  O   UNL     1      37.609  17.175  59.624  1.00  0.00    -0.504 OA
ATOM     18  H   UNL     1      38.183  18.010  59.603  1.00  0.00     0.293 HD
ENDBRANCH  13  17
BRANCH  15  19
ATOM     19  O   UNL     1      39.391  17.604  61.667  1.00  0.00    -0.502 OA
ATOM     20  H   UNL     1      39.426  18.387  62.302  1.00  0.00     0.293 HD
ENDBRANCH  15  19
BRANCH  16  21
ATOM     21  O   UNL     1      39.353  15.817  63.977  1.00  0.00    -0.504 OA
ATOM     22  H   UNL     1      39.575  16.697  64.417  1.00  0.00     0.293 HD
ENDBRANCH  16  21
ENDBRANCH   1  11
BRANCH  10  23
ATOM     23  O   UNL     1      34.421  14.344  63.842  1.00  0.00    -0.500 OA
ATOM     24  H   UNL     1      34.581  14.211  64.834  1.00  0.00     0.294 HD
ENDBRANCH  10  23
BRANCH   5  25
ATOM     25  O   UNL     1      34.705   8.028  59.331  1.00  0.00    -0.507 OA
ATOM     26  H   UNL     1      34.992   8.209  58.377  1.00  0.00     0.293 HD
ENDBRANCH   5  25
BRANCH   7  27
ATOM     27  O   UNL     1      31.952   9.844  62.819  1.00  0.00    -0.507 OA
ATOM     28  H   UNL     1      31.297  10.579  63.041  1.00  0.00     0.293 HD
ENDBRANCH   7  27
TORSDOF 7
ENDMDL
MODEL 9
REMARK VINA RESULT:    -6.579      4.774      9.591
REMARK INTER + INTRA:          -8.350
REMARK INTER:                  -7.993
REMARK INTRA:                  -0.357
REMARK UNBOUND:                -0.232
REMARK SMILES Oc1cc(O)c2cc(O)c(-c3cc(O)c(O)c(O)c3)[o+]c2c1
REMARK SMILES IDX 10 1 20 2 21 3 22 4 2 5 3 6 4 7 6 8 7 9 8 10 11 11 12 12
REMARK SMILES IDX 13 13 19 14 15 15 17 16 14 17 16 19 18 21 9 23 1 25 5 27
REMARK H PARENT 14 18 16 20 18 22 9 24 1 26 5 28
REMARK Flexibility Score: inf
ROOT
ATOM      1  C   UNL     1      32.572  10.048  62.584  1.00  0.00     0.402 A 
ATOM      2  O   UNL     1      33.422   9.036  62.738  1.00  0.00    -0.202 OA
ATOM      3  C   UNL     1      34.397   8.766  61.875  1.00  0.00     0.368 A 
ATOM      4  C   UNL     1      35.244   7.682  62.125  1.00  0.00     0.162 A 
ATOM      5  C   UNL     1      36.279   7.378  61.236  1.00  0.00     0.128 A 
ATOM      6  C   UNL     1      36.470   8.160  60.096  1.00  0.00     0.093 A 
ATOM      7  C   UNL     1      35.637   9.252  59.823  1.00  0.00     0.136 A 
ATOM      8  C   UNL     1      34.582   9.563  60.720  1.00  0.00     0.125 A 
ATOM      9  C   UNL     1      33.689  10.629  60.522  1.00  0.00     0.078 A 
ATOM     10  C   UNL     1      32.670  10.873  61.447  1.00  0.00     0.223 A 
ENDROOT
BRANCH   1  11
ATOM     11  C   UNL     1      31.533  10.252  63.619  1.00  0.00     0.091 A 
ATOM     12  C   UNL     1      31.821  10.912  64.823  1.00  0.00     0.068 A 
ATOM     13  C   UNL     1      30.829  11.075  65.799  1.00  0.00     0.162 A 
ATOM     14  C   UNL     1      30.248   9.727  63.419  1.00  0.00     0.068 A 
ATOM     15  C   UNL     1      29.539  10.571  65.587  1.00  0.00     0.200 A 
ATOM     16  C   UNL     1      29.246   9.885  64.385  1.00  0.00     0.162 A 
BRANCH  13  17
ATOM     17  O   UNL     1      31.121  11.737  66.990  1.00  0.00    -0.504 OA
ATOM     18  H   UNL     1      31.781  12.506  67.023  1.00  0.00     0.293 HD
ENDBRANCH  13  17
BRANCH  15  19
ATOM     19  O   UNL     1      28.584  10.767  66.589  1.00  0.00    -0.502 OA
ATOM     20  H   UNL     1      28.406  11.655  67.035  1.00  0.00     0.293 HD
ENDBRANCH  15  19
BRANCH  16  21
ATOM     21  O   UNL     1      27.988   9.346  64.109  1.00  0.00    -0.504 OA
ATOM     22  H   UNL     1      27.655   8.467  64.479  1.00  0.00     0.293 HD
ENDBRANCH  16  21
ENDBRANCH   1  11
BRANCH  10  23
ATOM     23  O   UNL     1      31.753  11.900  61.226  1.00  0.00    -0.500 OA
ATOM     24  H   UNL     1      31.987  12.870  61.406  1.00  0.00     0.294 HD
ENDBRANCH  10  23
BRANCH   5  25
ATOM     25  O   UNL     1      37.127   6.298  61.478  1.00  0.00    -0.507 OA
ATOM     26  H   UNL     1      37.969   6.153  60.934  1.00  0.00     0.293 HD
ENDBRANCH   5  25
BRANCH   7  27
ATOM     27  O   UNL     1      35.896   9.986  58.663  1.00  0.00    -0.507 OA
ATOM     28  H   UNL     1      35.695  10.969  58.554  1.00  0.00     0.293 HD
ENDBRANCH   7  27
TORSDOF 7
ENDMDL
