MODEL 1
REMARK VINA RESULT:    -3.274      0.000      0.000
REMARK INTER + INTRA:         -12.771
REMARK INTER:                  -8.633
REMARK INTRA:                  -4.139
REMARK UNBOUND:                -4.139
REMARK SMILES CCCCCCCCCCCCCCCCCCCCCCCCCCCCCC(=O)[O-]
REMARK SMILES IDX 16 1 17 2 18 3 19 4 20 5 21 6 22 7 23 8 24 9 25 10 26 11
REMARK SMILES IDX 27 12 28 13 29 14 30 15 31 16 32 17 15 18 14 19 13 20 12 21
REMARK SMILES IDX 11 22 10 23 9 24 8 25 7 26 6 27 5 28 4 29 3 30 2 31 1 32
REMARK H PARENT
REMARK Flexibility Score: inf
ROOT
ATOM      1  C   UNL     1       1.808   3.958   7.563  1.00  0.00     0.000 C 
ENDROOT
BRANCH   1   2
ATOM      2  C   UNL     1       2.649   5.128   8.100  1.00  0.00     0.000 C 
BRANCH   2   3
ATOM      3  C   UNL     1       3.097   4.920   9.554  1.00  0.00     0.000 C 
BRANCH   3   4
ATOM      4  C   UNL     1       4.237   5.863   9.981  1.00  0.00     0.000 C 
BRANCH   4   5
ATOM      5  C   UNL     1       5.482   5.857   9.073  1.00  0.00     0.000 C 
BRANCH   5   6
ATOM      6  C   UNL     1       6.011   7.267   8.754  1.00  0.00     0.000 C 
BRANCH   6   7
ATOM      7  C   UNL     1       6.788   7.328   7.427  1.00  0.00     0.000 C 
BRANCH   7   8
ATOM      8  C   UNL     1       6.044   8.011   6.260  1.00  0.00     0.000 C 
BRANCH   8   9
ATOM      9  C   UNL     1       4.507   7.994   6.358  1.00  0.00     0.000 C 
BRANCH   9  10
ATOM     10  C   UNL     1       3.912   9.385   6.637  1.00  0.00     0.000 C 
BRANCH  10  11
ATOM     11  C   UNL     1       3.225   9.470   8.009  1.00  0.00     0.000 C 
BRANCH  11  12
ATOM     12  C   UNL     1       2.018   8.527   8.131  1.00  0.00     0.000 C 
BRANCH  12  13
ATOM     13  C   UNL     1       1.592   8.377   9.599  1.00  0.00     0.006 C 
BRANCH  13  14
ATOM     14  C   UNL     1       0.244   7.660   9.745  1.00  0.00     0.053 C 
BRANCH  14  15
ATOM     15  C   UNL     1      -0.910   8.559   9.416  1.00  0.00     0.041 C 
ATOM     16  O   UNL     1      -0.703   9.743   9.037  1.00  0.00    -0.550 OA
ATOM     17  O   UNL     1      -2.212   8.095   9.547  1.00  0.00    -0.550 OA
ENDBRANCH  14  15
ENDBRANCH  13  14
ENDBRANCH  12  13
ENDBRANCH  11  12
ENDBRANCH  10  11
ENDBRANCH   9  10
ENDBRANCH   8   9
ENDBRANCH   7   8
ENDBRANCH   6   7
ENDBRANCH   5   6
ENDBRANCH   4   5
ENDBRANCH   3   4
ENDBRANCH   2   3
ENDBRANCH   1   2
BRANCH   1  18
ATOM     18  C   UNL     1       1.053   3.176   8.659  1.00  0.00     0.000 C 
BRANCH  18  19
ATOM     19  C   UNL     1      -0.151   3.957   9.211  1.00  0.00     0.000 C 
BRANCH  19  20
ATOM     20  C   UNL     1      -1.018   3.067  10.116  1.00  0.00     0.000 C 
BRANCH  20  21
ATOM     21  C   UNL     1      -1.187   1.631   9.581  1.00  0.00     0.000 C 
BRANCH  21  22
ATOM     22  C   UNL     1      -2.560   0.978   9.841  1.00  0.00     0.000 C 
BRANCH  22  23
ATOM     23  C   UNL     1      -2.530  -0.553  10.038  1.00  0.00     0.000 C 
BRANCH  23  24
ATOM     24  C   UNL     1      -2.736  -1.353   8.738  1.00  0.00    -0.000 C 
BRANCH  24  25
ATOM     25  C   UNL     1      -1.566  -2.272   8.345  1.00  0.00    -0.000 C 
BRANCH  25  26
ATOM     26  C   UNL     1      -0.240  -2.008   9.088  1.00  0.00    -0.000 C 
BRANCH  26  27
ATOM     27  C   UNL     1       0.887  -1.406   8.227  1.00  0.00    -0.000 C 
BRANCH  27  28
ATOM     28  C   UNL     1       0.430  -1.055   6.800  1.00  0.00    -0.000 C 
BRANCH  28  29
ATOM     29  C   UNL     1       0.503   0.461   6.516  1.00  0.00    -0.000 C 
BRANCH  29  30
ATOM     30  C   UNL     1      -0.855   1.097   6.153  1.00  0.00    -0.000 C 
BRANCH  30  31
ATOM     31  C   UNL     1      -1.926   0.105   5.667  1.00  0.00    -0.003 C 
ATOM     32  C   UNL     1      -3.243   0.783   5.291  1.00  0.00     0.004 C 
ENDBRANCH  30  31
ENDBRANCH  29  30
ENDBRANCH  28  29
ENDBRANCH  27  28
ENDBRANCH  26  27
ENDBRANCH  25  26
ENDBRANCH  24  25
ENDBRANCH  23  24
ENDBRANCH  22  23
ENDBRANCH  21  22
ENDBRANCH  20  21
ENDBRANCH  19  20
ENDBRANCH  18  19
ENDBRANCH   1  18
TORSDOF 28
ENDMDL
MODEL 2
REMARK VINA RESULT:    -3.057      3.333      4.959
REMARK INTER + INTRA:         -12.199
REMARK INTER:                  -9.461
REMARK INTRA:                  -2.739
REMARK UNBOUND:                -4.139
REMARK SMILES CCCCCCCCCCCCCCCCCCCCCCCCCCCCCC(=O)[O-]
REMARK SMILES IDX 16 1 17 2 18 3 19 4 20 5 21 6 22 7 23 8 24 9 25 10 26 11
REMARK SMILES IDX 27 12 28 13 29 14 30 15 31 16 32 17 15 18 14 19 13 20 12 21
REMARK SMILES IDX 11 22 10 23 9 24 8 25 7 26 6 27 5 28 4 29 3 30 2 31 1 32
REMARK H PARENT
REMARK Flexibility Score: inf
ROOT
ATOM      1  C   UNL     1       0.992   4.720   9.628  1.00  0.00     0.000 C 
ENDROOT
BRANCH   1   2
ATOM      2  C   UNL     1       2.369   5.280  10.022  1.00  0.00     0.000 C 
BRANCH   2   3
ATOM      3  C   UNL     1       2.623   6.686   9.457  1.00  0.00     0.000 C 
BRANCH   3   4
ATOM      4  C   UNL     1       1.331   7.425   9.061  1.00  0.00     0.000 C 
BRANCH   4   5
ATOM      5  C   UNL     1       1.492   8.925   8.747  1.00  0.00     0.000 C 
BRANCH   5   6
ATOM      6  C   UNL     1       2.013   9.197   7.324  1.00  0.00     0.000 C 
BRANCH   6   7
ATOM      7  C   UNL     1       3.324  10.002   7.312  1.00  0.00     0.000 C 
BRANCH   7   8
ATOM      8  C   UNL     1       4.079  10.051   8.657  1.00  0.00     0.000 C 
BRANCH   8   9
ATOM      9  C   UNL     1       5.530   9.535   8.618  1.00  0.00     0.000 C 
BRANCH   9  10
ATOM     10  C   UNL     1       5.626   8.062   8.186  1.00  0.00     0.000 C 
BRANCH  10  11
ATOM     11  C   UNL     1       6.621   7.847   7.034  1.00  0.00     0.000 C 
BRANCH  11  12
ATOM     12  C   UNL     1       6.088   8.352   5.684  1.00  0.00     0.000 C 
BRANCH  12  13
ATOM     13  C   UNL     1       7.150   8.193   4.587  1.00  0.00     0.006 C 
BRANCH  13  14
ATOM     14  C   UNL     1       6.981   9.217   3.458  1.00  0.00     0.053 C 
BRANCH  14  15
ATOM     15  C   UNL     1       8.294   9.593   2.838  1.00  0.00     0.041 C 
ATOM     16  O   UNL     1       8.344   9.958   1.633  1.00  0.00    -0.550 OA
ATOM     17  O   UNL     1       9.461   9.522   3.586  1.00  0.00    -0.550 OA
ENDBRANCH  14  15
ENDBRANCH  13  14
ENDBRANCH  12  13
ENDBRANCH  11  12
ENDBRANCH  10  11
ENDBRANCH   9  10
ENDBRANCH   8   9
ENDBRANCH   7   8
ENDBRANCH   6   7
ENDBRANCH   5   6
ENDBRANCH   4   5
ENDBRANCH   3   4
ENDBRANCH   2   3
ENDBRANCH   1   2
BRANCH   1  18
ATOM     18  C   UNL     1       1.057   3.554   8.619  1.00  0.00     0.000 C 
BRANCH  18  19
ATOM     19  C   UNL     1       0.051   2.439   8.949  1.00  0.00     0.000 C 
BRANCH  19  20
ATOM     20  C   UNL     1      -1.128   2.985   9.770  1.00  0.00     0.000 C 
BRANCH  20  21
ATOM     21  C   UNL     1      -2.498   2.459   9.298  1.00  0.00     0.000 C 
BRANCH  21  22
ATOM     22  C   UNL     1      -3.077   1.281  10.109  1.00  0.00     0.000 C 
BRANCH  22  23
ATOM     23  C   UNL     1      -2.207   0.006  10.124  1.00  0.00     0.000 C 
BRANCH  23  24
ATOM     24  C   UNL     1      -2.601  -1.031   9.055  1.00  0.00    -0.000 C 
BRANCH  24  25
ATOM     25  C   UNL     1      -1.483  -2.008   8.650  1.00  0.00    -0.000 C 
BRANCH  25  26
ATOM     26  C   UNL     1      -0.046  -1.460   8.784  1.00  0.00    -0.000 C 
BRANCH  26  27
ATOM     27  C   UNL     1       0.406  -0.519   7.652  1.00  0.00    -0.000 C 
BRANCH  27  28
ATOM     28  C   UNL     1      -0.475  -0.624   6.394  1.00  0.00    -0.000 C 
BRANCH  28  29
ATOM     29  C   UNL     1      -1.304   0.654   6.148  1.00  0.00    -0.000 C 
BRANCH  29  30
ATOM     30  C   UNL     1      -1.030   1.328   4.788  1.00  0.00    -0.000 C 
BRANCH  30  31
ATOM     31  C   UNL     1       0.449   1.353   4.364  1.00  0.00    -0.003 C 
ATOM     32  C   UNL     1       0.757   2.438   3.332  1.00  0.00     0.004 C 
ENDBRANCH  30  31
ENDBRANCH  29  30
ENDBRANCH  28  29
ENDBRANCH  27  28
ENDBRANCH  26  27
ENDBRANCH  25  26
ENDBRANCH  24  25
ENDBRANCH  23  24
ENDBRANCH  22  23
ENDBRANCH  21  22
ENDBRANCH  20  21
ENDBRANCH  19  20
ENDBRANCH  18  19
ENDBRANCH   1  18
TORSDOF 28
ENDMDL
MODEL 3
REMARK VINA RESULT:    -2.942      3.566     10.019
REMARK INTER + INTRA:         -11.898
REMARK INTER:                  -9.124
REMARK INTRA:                  -2.774
REMARK UNBOUND:                -4.139
REMARK SMILES CCCCCCCCCCCCCCCCCCCCCCCCCCCCCC(=O)[O-]
REMARK SMILES IDX 16 1 17 2 18 3 19 4 20 5 21 6 22 7 23 8 24 9 25 10 26 11
REMARK SMILES IDX 27 12 28 13 29 14 30 15 31 16 32 17 15 18 14 19 13 20 12 21
REMARK SMILES IDX 11 22 10 23 9 24 8 25 7 26 6 27 5 28 4 29 3 30 2 31 1 32
REMARK H PARENT
REMARK Flexibility Score: inf
ROOT
ATOM      1  C   UNL     1       1.310   3.733   8.391  1.00  0.00     0.000 C 
ENDROOT
BRANCH   1   2
ATOM      2  C   UNL     1       0.714   4.076   9.767  1.00  0.00     0.000 C 
BRANCH   2   3
ATOM      3  C   UNL     1      -0.498   3.202  10.124  1.00  0.00     0.000 C 
BRANCH   3   4
ATOM      4  C   UNL     1      -0.653   1.972   9.210  1.00  0.00     0.000 C 
BRANCH   4   5
ATOM      5  C   UNL     1      -2.039   1.794   8.561  1.00  0.00     0.000 C 
BRANCH   5   6
ATOM      6  C   UNL     1      -2.080   2.226   7.084  1.00  0.00     0.000 C 
BRANCH   6   7
ATOM      7  C   UNL     1      -2.076   1.033   6.112  1.00  0.00     0.000 C 
BRANCH   7   8
ATOM      8  C   UNL     1      -0.726   0.753   5.420  1.00  0.00     0.000 C 
BRANCH   8   9
ATOM      9  C   UNL     1       0.304  -0.015   6.270  1.00  0.00     0.000 C 
BRANCH   9  10
ATOM     10  C   UNL     1      -0.337  -1.112   7.136  1.00  0.00     0.000 C 
BRANCH  10  11
ATOM     11  C   UNL     1       0.626  -1.666   8.198  1.00  0.00     0.000 C 
BRANCH  11  12
ATOM     12  C   UNL     1      -0.080  -2.018   9.517  1.00  0.00     0.000 C 
BRANCH  12  13
ATOM     13  C   UNL     1      -1.590  -1.754   9.412  1.00  0.00     0.006 C 
BRANCH  13  14
ATOM     14  C   UNL     1      -2.330  -2.881   8.684  1.00  0.00     0.053 C 
BRANCH  14  15
ATOM     15  C   UNL     1      -2.851  -3.918   9.635  1.00  0.00     0.041 C 
ATOM     16  O   UNL     1      -4.045  -3.868  10.035  1.00  0.00    -0.550 OA
ATOM     17  O   UNL     1      -2.013  -4.926  10.091  1.00  0.00    -0.550 OA
ENDBRANCH  14  15
ENDBRANCH  13  14
ENDBRANCH  12  13
ENDBRANCH  11  12
ENDBRANCH  10  11
ENDBRANCH   9  10
ENDBRANCH   8   9
ENDBRANCH   7   8
ENDBRANCH   6   7
ENDBRANCH   5   6
ENDBRANCH   4   5
ENDBRANCH   3   4
ENDBRANCH   2   3
ENDBRANCH   1   2
BRANCH   1  18
ATOM     18  C   UNL     1       2.109   4.888   7.750  1.00  0.00     0.000 C 
BRANCH  18  19
ATOM     19  C   UNL     1       3.581   4.896   8.192  1.00  0.00     0.000 C 
BRANCH  19  20
ATOM     20  C   UNL     1       3.989   6.278   8.726  1.00  0.00     0.000 C 
BRANCH  20  21
ATOM     21  C   UNL     1       3.215   6.698   9.991  1.00  0.00     0.000 C 
BRANCH  21  22
ATOM     22  C   UNL     1       2.919   8.206  10.125  1.00  0.00     0.000 C 
BRANCH  22  23
ATOM     23  C   UNL     1       4.080   9.139   9.718  1.00  0.00     0.000 C 
BRANCH  23  24
ATOM     24  C   UNL     1       5.472   8.617  10.123  1.00  0.00    -0.000 C 
BRANCH  24  25
ATOM     25  C   UNL     1       6.649   9.530   9.737  1.00  0.00    -0.000 C 
BRANCH  25  26
ATOM     26  C   UNL     1       7.170   9.362   8.295  1.00  0.00    -0.000 C 
BRANCH  26  27
ATOM     27  C   UNL     1       6.820   8.021   7.622  1.00  0.00    -0.000 C 
BRANCH  27  28
ATOM     28  C   UNL     1       6.662   8.137   6.096  1.00  0.00    -0.000 C 
BRANCH  28  29
ATOM     29  C   UNL     1       5.192   8.000   5.646  1.00  0.00    -0.000 C 
BRANCH  29  30
ATOM     30  C   UNL     1       4.757   9.043   4.596  1.00  0.00    -0.000 C 
BRANCH  30  31
ATOM     31  C   UNL     1       3.466   9.807   4.937  1.00  0.00    -0.003 C 
ATOM     32  C   UNL     1       2.803   9.320   6.225  1.00  0.00     0.004 C 
ENDBRANCH  30  31
ENDBRANCH  29  30
ENDBRANCH  28  29
ENDBRANCH  27  28
ENDBRANCH  26  27
ENDBRANCH  25  26
ENDBRANCH  24  25
ENDBRANCH  23  24
ENDBRANCH  22  23
ENDBRANCH  21  22
ENDBRANCH  20  21
ENDBRANCH  19  20
ENDBRANCH  18  19
ENDBRANCH   1  18
TORSDOF 28
ENDMDL
MODEL 4
REMARK VINA RESULT:    -2.815      2.575      9.882
REMARK INTER + INTRA:         -11.562
REMARK INTER:                  -8.668
REMARK INTRA:                  -2.893
REMARK UNBOUND:                -4.139
REMARK SMILES CCCCCCCCCCCCCCCCCCCCCCCCCCCCCC(=O)[O-]
REMARK SMILES IDX 16 1 17 2 18 3 19 4 20 5 21 6 22 7 23 8 24 9 25 10 26 11
REMARK SMILES IDX 27 12 28 13 29 14 30 15 31 16 32 17 15 18 14 19 13 20 12 21
REMARK SMILES IDX 11 22 10 23 9 24 8 25 7 26 6 27 5 28 4 29 3 30 2 31 1 32
REMARK H PARENT
REMARK Flexibility Score: inf
ROOT
ATOM      1  C   UNL     1       1.039   3.049   7.694  1.00  0.00     0.000 C 
ENDROOT
BRANCH   1   2
ATOM      2  C   UNL     1       0.216   2.481   8.863  1.00  0.00     0.000 C 
BRANCH   2   3
ATOM      3  C   UNL     1      -0.259   1.043   8.612  1.00  0.00     0.000 C 
BRANCH   3   4
ATOM      4  C   UNL     1       0.596   0.291   7.575  1.00  0.00     0.000 C 
BRANCH   4   5
ATOM      5  C   UNL     1       0.767  -1.221   7.823  1.00  0.00     0.000 C 
BRANCH   5   6
ATOM      6  C   UNL     1       0.235  -1.678   9.193  1.00  0.00     0.000 C 
BRANCH   6   7
ATOM      7  C   UNL     1      -0.822  -2.791   9.083  1.00  0.00     0.000 C 
BRANCH   7   8
ATOM      8  C   UNL     1      -2.150  -2.512   9.817  1.00  0.00     0.000 C 
BRANCH   8   9
ATOM      9  C   UNL     1      -3.028  -1.410   9.195  1.00  0.00     0.000 C 
BRANCH   9  10
ATOM     10  C   UNL     1      -2.847  -1.292   7.672  1.00  0.00     0.000 C 
BRANCH  10  11
ATOM     11  C   UNL     1      -2.691   0.163   7.205  1.00  0.00     0.000 C 
BRANCH  11  12
ATOM     12  C   UNL     1      -2.668   0.299   5.674  1.00  0.00     0.000 C 
BRANCH  12  13
ATOM     13  C   UNL     1      -1.657   1.371   5.239  1.00  0.00     0.006 C 
BRANCH  13  14
ATOM     14  C   UNL     1      -0.623   0.828   4.245  1.00  0.00     0.053 C 
BRANCH  14  15
ATOM     15  C   UNL     1       0.515   1.782   4.040  1.00  0.00     0.041 C 
ATOM     16  O   UNL     1       1.655   1.517   4.509  1.00  0.00    -0.550 OA
ATOM     17  O   UNL     1       0.312   2.968   3.349  1.00  0.00    -0.550 OA
ENDBRANCH  14  15
ENDBRANCH  13  14
ENDBRANCH  12  13
ENDBRANCH  11  12
ENDBRANCH  10  11
ENDBRANCH   9  10
ENDBRANCH   8   9
ENDBRANCH   7   8
ENDBRANCH   6   7
ENDBRANCH   5   6
ENDBRANCH   4   5
ENDBRANCH   3   4
ENDBRANCH   2   3
ENDBRANCH   1   2
BRANCH   1  18
ATOM     18  C   UNL     1       2.009   4.178   8.101  1.00  0.00     0.000 C 
BRANCH  18  19
ATOM     19  C   UNL     1       1.738   4.697   9.523  1.00  0.00     0.000 C 
BRANCH  19  20
ATOM     20  C   UNL     1       2.151   6.172   9.659  1.00  0.00     0.000 C 
BRANCH  20  21
ATOM     21  C   UNL     1       1.165   7.148   8.990  1.00  0.00     0.000 C 
BRANCH  21  22
ATOM     22  C   UNL     1       1.798   8.211   8.068  1.00  0.00     0.000 C 
BRANCH  22  23
ATOM     23  C   UNL     1       3.240   7.905   7.611  1.00  0.00     0.000 C 
BRANCH  23  24
ATOM     24  C   UNL     1       3.768   8.865   6.528  1.00  0.00    -0.000 C 
BRANCH  24  25
ATOM     25  C   UNL     1       4.764   8.242   5.533  1.00  0.00    -0.000 C 
BRANCH  25  26
ATOM     26  C   UNL     1       6.248   8.314   5.950  1.00  0.00    -0.000 C 
BRANCH  26  27
ATOM     27  C   UNL     1       6.760   9.720   6.313  1.00  0.00    -0.000 C 
BRANCH  27  28
ATOM     28  C   UNL     1       6.853   9.953   7.832  1.00  0.00    -0.000 C 
BRANCH  28  29
ATOM     29  C   UNL     1       7.597   8.812   8.557  1.00  0.00    -0.000 C 
BRANCH  29  30
ATOM     30  C   UNL     1       6.910   8.339   9.854  1.00  0.00    -0.000 C 
BRANCH  30  31
ATOM     31  C   UNL     1       6.928   6.817  10.079  1.00  0.00    -0.003 C 
ATOM     32  C   UNL     1       5.741   6.101   9.435  1.00  0.00     0.004 C 
ENDBRANCH  30  31
ENDBRANCH  29  30
ENDBRANCH  28  29
ENDBRANCH  27  28
ENDBRANCH  26  27
ENDBRANCH  25  26
ENDBRANCH  24  25
ENDBRANCH  23  24
ENDBRANCH  22  23
ENDBRANCH  21  22
ENDBRANCH  20  21
ENDBRANCH  19  20
ENDBRANCH  18  19
ENDBRANCH   1  18
TORSDOF 28
ENDMDL
MODEL 5
REMARK VINA RESULT:    -2.515      2.462      9.494
REMARK INTER + INTRA:         -10.771
REMARK INTER:                  -8.135
REMARK INTRA:                  -2.636
REMARK UNBOUND:                -4.139
REMARK SMILES CCCCCCCCCCCCCCCCCCCCCCCCCCCCCC(=O)[O-]
REMARK SMILES IDX 16 1 17 2 18 3 19 4 20 5 21 6 22 7 23 8 24 9 25 10 26 11
REMARK SMILES IDX 27 12 28 13 29 14 30 15 31 16 32 17 15 18 14 19 13 20 12 21
REMARK SMILES IDX 11 22 10 23 9 24 8 25 7 26 6 27 5 28 4 29 3 30 2 31 1 32
REMARK H PARENT
REMARK Flexibility Score: inf
ROOT
ATOM      1  C   UNL     1       0.820   0.723   4.981  1.00  0.00     0.000 C 
ENDROOT
BRANCH   1   2
ATOM      2  C   UNL     1       0.976  -0.670   5.613  1.00  0.00     0.000 C 
BRANCH   2   3
ATOM      3  C   UNL     1       0.559  -0.702   7.091  1.00  0.00     0.000 C 
BRANCH   3   4
ATOM      4  C   UNL     1       1.192  -1.866   7.877  1.00  0.00     0.000 C 
BRANCH   4   5
ATOM      5  C   UNL     1       1.021  -1.807   9.408  1.00  0.00     0.000 C 
BRANCH   5   6
ATOM      6  C   UNL     1       1.211  -3.171  10.095  1.00  0.00     0.000 C 
BRANCH   6   7
ATOM      7  C   UNL     1       0.053  -4.145   9.821  1.00  0.00     0.000 C 
BRANCH   7   8
ATOM      8  C   UNL     1      -1.357  -3.595  10.124  1.00  0.00     0.000 C 
BRANCH   8   9
ATOM      9  C   UNL     1      -2.087  -2.957   8.927  1.00  0.00     0.000 C 
BRANCH   9  10
ATOM     10  C   UNL     1      -2.986  -1.778   9.336  1.00  0.00     0.000 C 
BRANCH  10  11
ATOM     11  C   UNL     1      -2.211  -0.666  10.060  1.00  0.00     0.000 C 
BRANCH  11  12
ATOM     12  C   UNL     1      -2.682   0.742   9.667  1.00  0.00     0.000 C 
BRANCH  12  13
ATOM     13  C   UNL     1      -1.703   1.386   8.673  1.00  0.00     0.006 C 
BRANCH  13  14
ATOM     14  C   UNL     1      -2.422   2.049   7.493  1.00  0.00     0.053 C 
BRANCH  14  15
ATOM     15  C   UNL     1      -2.433   1.172   6.276  1.00  0.00     0.041 C 
ATOM     16  O   UNL     1      -1.843   1.539   5.225  1.00  0.00    -0.550 OA
ATOM     17  O   UNL     1      -3.111  -0.039   6.299  1.00  0.00    -0.550 OA
ENDBRANCH  14  15
ENDBRANCH  13  14
ENDBRANCH  12  13
ENDBRANCH  11  12
ENDBRANCH  10  11
ENDBRANCH   9  10
ENDBRANCH   8   9
ENDBRANCH   7   8
ENDBRANCH   6   7
ENDBRANCH   5   6
ENDBRANCH   4   5
ENDBRANCH   3   4
ENDBRANCH   2   3
ENDBRANCH   1   2
BRANCH   1  18
ATOM     18  C   UNL     1       1.727   1.802   5.611  1.00  0.00     0.000 C 
BRANCH  18  19
ATOM     19  C   UNL     1       0.952   2.747   6.543  1.00  0.00     0.000 C 
BRANCH  19  20
ATOM     20  C   UNL     1       1.906   3.495   7.488  1.00  0.00     0.000 C 
BRANCH  20  21
ATOM     21  C   UNL     1       1.252   3.899   8.824  1.00  0.00     0.000 C 
BRANCH  21  22
ATOM     22  C   UNL     1       1.965   5.023   9.604  1.00  0.00     0.000 C 
BRANCH  22  23
ATOM     23  C   UNL     1       2.252   6.304   8.791  1.00  0.00     0.000 C 
BRANCH  23  24
ATOM     24  C   UNL     1       1.569   7.565   9.353  1.00  0.00    -0.000 C 
BRANCH  24  25
ATOM     25  C   UNL     1       1.494   8.756   8.380  1.00  0.00    -0.000 C 
BRANCH  25  26
ATOM     26  C   UNL     1       1.956   8.460   6.938  1.00  0.00    -0.000 C 
BRANCH  26  27
ATOM     27  C   UNL     1       2.413   9.689   6.130  1.00  0.00    -0.000 C 
BRANCH  27  28
ATOM     28  C   UNL     1       3.728   9.452   5.367  1.00  0.00    -0.000 C 
BRANCH  28  29
ATOM     29  C   UNL     1       4.932   9.264   6.315  1.00  0.00    -0.000 C 
BRANCH  29  30
ATOM     30  C   UNL     1       5.757   7.991   6.037  1.00  0.00    -0.000 C 
BRANCH  30  31
ATOM     31  C   UNL     1       6.614   7.503   7.219  1.00  0.00    -0.003 C 
ATOM     32  C   UNL     1       5.802   6.768   8.285  1.00  0.00     0.004 C 
ENDBRANCH  30  31
ENDBRANCH  29  30
ENDBRANCH  28  29
ENDBRANCH  27  28
ENDBRANCH  26  27
ENDBRANCH  25  26
ENDBRANCH  24  25
ENDBRANCH  23  24
ENDBRANCH  22  23
ENDBRANCH  21  22
ENDBRANCH  20  21
ENDBRANCH  19  20
ENDBRANCH  18  19
ENDBRANCH   1  18
TORSDOF 28
ENDMDL
MODEL 6
REMARK VINA RESULT:    -2.504      4.461     10.590
REMARK INTER + INTRA:         -10.743
REMARK INTER:                  -7.922
REMARK INTRA:                  -2.821
REMARK UNBOUND:                -4.139
REMARK SMILES CCCCCCCCCCCCCCCCCCCCCCCCCCCCCC(=O)[O-]
REMARK SMILES IDX 16 1 17 2 18 3 19 4 20 5 21 6 22 7 23 8 24 9 25 10 26 11
REMARK SMILES IDX 27 12 28 13 29 14 30 15 31 16 32 17 15 18 14 19 13 20 12 21
REMARK SMILES IDX 11 22 10 23 9 24 8 25 7 26 6 27 5 28 4 29 3 30 2 31 1 32
REMARK H PARENT
REMARK Flexibility Score: inf
ROOT
ATOM      1  C   UNL     1      -1.980   0.303   9.740  1.00  0.00     0.000 C 
ENDROOT
BRANCH   1   2
ATOM      2  C   UNL     1      -2.330  -0.701   8.628  1.00  0.00     0.000 C 
BRANCH   2   3
ATOM      3  C   UNL     1      -1.219  -1.734   8.389  1.00  0.00     0.000 C 
BRANCH   3   4
ATOM      4  C   UNL     1      -0.371  -1.439   7.138  1.00  0.00     0.000 C 
BRANCH   4   5
ATOM      5  C   UNL     1       0.277  -0.041   7.087  1.00  0.00     0.000 C 
BRANCH   5   6
ATOM      6  C   UNL     1       0.011   0.706   5.768  1.00  0.00     0.000 C 
BRANCH   6   7
ATOM      7  C   UNL     1      -1.425   1.251   5.669  1.00  0.00     0.000 C 
BRANCH   7   8
ATOM      8  C   UNL     1      -2.396   0.396   4.829  1.00  0.00     0.000 C 
BRANCH   8   9
ATOM      9  C   UNL     1      -3.778   0.152   5.464  1.00  0.00     0.000 C 
BRANCH   9  10
ATOM     10  C   UNL     1      -4.845  -0.256   4.434  1.00  0.00     0.000 C 
BRANCH  10  11
ATOM     11  C   UNL     1      -4.283  -1.161   3.326  1.00  0.00     0.000 C 
BRANCH  11  12
ATOM     12  C   UNL     1      -5.360  -2.037   2.668  1.00  0.00     0.000 C 
BRANCH  12  13
ATOM     13  C   UNL     1      -4.834  -2.658   1.366  1.00  0.00     0.006 C 
BRANCH  13  14
ATOM     14  C   UNL     1      -3.336  -2.979   1.436  1.00  0.00     0.053 C 
BRANCH  14  15
ATOM     15  C   UNL     1      -2.767  -3.307   0.088  1.00  0.00     0.041 C 
ATOM     16  O   UNL     1      -3.045  -2.589  -0.909  1.00  0.00    -0.550 OA
ATOM     17  O   UNL     1      -1.946  -4.416  -0.068  1.00  0.00    -0.550 OA
ENDBRANCH  14  15
ENDBRANCH  13  14
ENDBRANCH  12  13
ENDBRANCH  11  12
ENDBRANCH  10  11
ENDBRANCH   9  10
ENDBRANCH   8   9
ENDBRANCH   7   8
ENDBRANCH   6   7
ENDBRANCH   5   6
ENDBRANCH   4   5
ENDBRANCH   3   4
ENDBRANCH   2   3
ENDBRANCH   1   2
BRANCH   1  18
ATOM     18  C   UNL     1      -2.737   1.644   9.633  1.00  0.00     0.000 C 
BRANCH  18  19
ATOM     19  C   UNL     1      -1.828   2.794   9.172  1.00  0.00     0.000 C 
BRANCH  19  20
ATOM     20  C   UNL     1      -0.427   2.671   9.792  1.00  0.00     0.000 C 
BRANCH  20  21
ATOM     21  C   UNL     1       0.574   3.713   9.254  1.00  0.00     0.000 C 
BRANCH  21  22
ATOM     22  C   UNL     1       1.272   3.347   7.928  1.00  0.00     0.000 C 
BRANCH  22  23
ATOM     23  C   UNL     1       2.513   4.199   7.585  1.00  0.00     0.000 C 
BRANCH  23  24
ATOM     24  C   UNL     1       2.501   5.603   8.221  1.00  0.00    -0.000 C 
BRANCH  24  25
ATOM     25  C   UNL     1       3.598   5.853   9.271  1.00  0.00    -0.000 C 
BRANCH  25  26
ATOM     26  C   UNL     1       5.045   5.824   8.735  1.00  0.00    -0.000 C 
BRANCH  26  27
ATOM     27  C   UNL     1       5.745   7.194   8.660  1.00  0.00    -0.000 C 
BRANCH  27  28
ATOM     28  C   UNL     1       6.626   7.351   7.408  1.00  0.00    -0.000 C 
BRANCH  28  29
ATOM     29  C   UNL     1       6.167   8.517   6.508  1.00  0.00    -0.000 C 
BRANCH  29  30
ATOM     30  C   UNL     1       5.648   8.076   5.125  1.00  0.00    -0.000 C 
BRANCH  30  31
ATOM     31  C   UNL     1       6.304   8.788   3.929  1.00  0.00    -0.003 C 
ATOM     32  C   UNL     1       7.737   9.238   4.211  1.00  0.00     0.004 C 
ENDBRANCH  30  31
ENDBRANCH  29  30
ENDBRANCH  28  29
ENDBRANCH  27  28
ENDBRANCH  26  27
ENDBRANCH  25  26
ENDBRANCH  24  25
ENDBRANCH  23  24
ENDBRANCH  22  23
ENDBRANCH  21  22
ENDBRANCH  20  21
ENDBRANCH  19  20
ENDBRANCH  18  19
ENDBRANCH   1  18
TORSDOF 28
ENDMDL
MODEL 7
REMARK VINA RESULT:    -2.319      2.775      5.121
REMARK INTER + INTRA:         -10.254
REMARK INTER:                  -7.879
REMARK INTRA:                  -2.375
REMARK UNBOUND:                -4.139
REMARK SMILES CCCCCCCCCCCCCCCCCCCCCCCCCCCCCC(=O)[O-]
REMARK SMILES IDX 16 1 17 2 18 3 19 4 20 5 21 6 22 7 23 8 24 9 25 10 26 11
REMARK SMILES IDX 27 12 28 13 29 14 30 15 31 16 32 17 15 18 14 19 13 20 12 21
REMARK SMILES IDX 11 22 10 23 9 24 8 25 7 26 6 27 5 28 4 29 3 30 2 31 1 32
REMARK H PARENT
REMARK Flexibility Score: inf
ROOT
ATOM      1  C   UNL     1       1.513   1.077   5.191  1.00  0.00     0.000 C 
ENDROOT
BRANCH   1   2
ATOM      2  C   UNL     1       1.387   2.540   5.650  1.00  0.00     0.000 C 
BRANCH   2   3
ATOM      3  C   UNL     1       1.040   2.667   7.141  1.00  0.00     0.000 C 
BRANCH   3   4
ATOM      4  C   UNL     1       1.872   3.738   7.871  1.00  0.00     0.000 C 
BRANCH   4   5
ATOM      5  C   UNL     1       1.368   4.132   9.273  1.00  0.00     0.000 C 
BRANCH   5   6
ATOM      6  C   UNL     1       2.071   5.374   9.848  1.00  0.00     0.000 C 
BRANCH   6   7
ATOM      7  C   UNL     1       1.245   6.661   9.677  1.00  0.00     0.000 C 
BRANCH   7   8
ATOM      8  C   UNL     1       1.959   7.808   8.931  1.00  0.00     0.000 C 
BRANCH   8   9
ATOM      9  C   UNL     1       2.679   8.831   9.830  1.00  0.00     0.000 C 
BRANCH   9  10
ATOM     10  C   UNL     1       4.162   8.489  10.053  1.00  0.00     0.000 C 
BRANCH  10  11
ATOM     11  C   UNL     1       5.109   9.505   9.396  1.00  0.00     0.000 C 
BRANCH  11  12
ATOM     12  C   UNL     1       6.221   8.836   8.571  1.00  0.00     0.000 C 
BRANCH  12  13
ATOM     13  C   UNL     1       5.800   8.702   7.100  1.00  0.00     0.006 C 
BRANCH  13  14
ATOM     14  C   UNL     1       6.669   7.698   6.334  1.00  0.00     0.053 C 
BRANCH  14  15
ATOM     15  C   UNL     1       6.753   8.025   4.873  1.00  0.00     0.041 C 
ATOM     16  O   UNL     1       7.863   8.310   4.350  1.00  0.00    -0.550 OA
ATOM     17  O   UNL     1       5.602   8.033   4.096  1.00  0.00    -0.550 OA
ENDBRANCH  14  15
ENDBRANCH  13  14
ENDBRANCH  12  13
ENDBRANCH  11  12
ENDBRANCH  10  11
ENDBRANCH   9  10
ENDBRANCH   8   9
ENDBRANCH   7   8
ENDBRANCH   6   7
ENDBRANCH   5   6
ENDBRANCH   4   5
ENDBRANCH   3   4
ENDBRANCH   2   3
ENDBRANCH   1   2
BRANCH   1  18
ATOM     18  C   UNL     1       0.295   0.566   4.393  1.00  0.00     0.000 C 
BRANCH  18  19
ATOM     19  C   UNL     1      -0.821   0.032   5.305  1.00  0.00     0.000 C 
BRANCH  19  20
ATOM     20  C   UNL     1      -2.070   0.923   5.229  1.00  0.00     0.000 C 
BRANCH  20  21
ATOM     21  C   UNL     1      -3.124   0.593   6.304  1.00  0.00     0.000 C 
BRANCH  21  22
ATOM     22  C   UNL     1      -2.568   0.242   7.699  1.00  0.00     0.000 C 
BRANCH  22  23
ATOM     23  C   UNL     1      -2.287   1.452   8.616  1.00  0.00     0.000 C 
BRANCH  23  24
ATOM     24  C   UNL     1      -1.787   1.068  10.022  1.00  0.00    -0.000 C 
BRANCH  24  25
ATOM     25  C   UNL     1      -1.097  -0.305  10.116  1.00  0.00    -0.000 C 
BRANCH  25  26
ATOM     26  C   UNL     1      -0.086  -0.614   8.992  1.00  0.00    -0.000 C 
BRANCH  26  27
ATOM     27  C   UNL     1       0.089  -2.108   8.659  1.00  0.00    -0.000 C 
BRANCH  27  28
ATOM     28  C   UNL     1       0.267  -2.986   9.910  1.00  0.00    -0.000 C 
BRANCH  28  29
ATOM     29  C   UNL     1      -0.913  -3.959  10.118  1.00  0.00    -0.000 C 
BRANCH  29  30
ATOM     30  C   UNL     1      -1.863  -4.061   8.908  1.00  0.00    -0.000 C 
BRANCH  30  31
ATOM     31  C   UNL     1      -3.208  -3.332   9.076  1.00  0.00    -0.003 C 
ATOM     32  C   UNL     1      -4.366  -4.276   9.399  1.00  0.00     0.004 C 
ENDBRANCH  30  31
ENDBRANCH  29  30
ENDBRANCH  28  29
ENDBRANCH  27  28
ENDBRANCH  26  27
ENDBRANCH  25  26
ENDBRANCH  24  25
ENDBRANCH  23  24
ENDBRANCH  22  23
ENDBRANCH  21  22
ENDBRANCH  20  21
ENDBRANCH  19  20
ENDBRANCH  18  19
ENDBRANCH   1  18
TORSDOF 28
ENDMDL
MODEL 8
REMARK VINA RESULT:    -1.940      1.927      3.998
REMARK INTER + INTRA:          -9.254
REMARK INTER:                  -6.718
REMARK INTRA:                  -2.536
REMARK UNBOUND:                -4.139
REMARK SMILES CCCCCCCCCCCCCCCCCCCCCCCCCCCCCC(=O)[O-]
REMARK SMILES IDX 16 1 17 2 18 3 19 4 20 5 21 6 22 7 23 8 24 9 25 10 26 11
REMARK SMILES IDX 27 12 28 13 29 14 30 15 31 16 32 17 15 18 14 19 13 20 12 21
REMARK SMILES IDX 11 22 10 23 9 24 8 25 7 26 6 27 5 28 4 29 3 30 2 31 1 32
REMARK H PARENT
REMARK Flexibility Score: inf
ROOT
ATOM      1  C   UNL     1       1.408   3.890   7.697  1.00  0.00     0.000 C 
ENDROOT
BRANCH   1   2
ATOM      2  C   UNL     1       1.005   3.549   9.142  1.00  0.00     0.000 C 
BRANCH   2   3
ATOM      3  C   UNL     1       1.188   4.731  10.105  1.00  0.00     0.000 C 
BRANCH   3   4
ATOM      4  C   UNL     1       2.607   5.329  10.072  1.00  0.00     0.000 C 
BRANCH   4   5
ATOM      5  C   UNL     1       2.893   6.304   8.913  1.00  0.00     0.000 C 
BRANCH   5   6
ATOM      6  C   UNL     1       3.896   7.412   9.282  1.00  0.00     0.000 C 
BRANCH   6   7
ATOM      7  C   UNL     1       4.735   7.881   8.081  1.00  0.00     0.000 C 
BRANCH   7   8
ATOM      8  C   UNL     1       6.084   8.541   8.438  1.00  0.00     0.000 C 
BRANCH   8   9
ATOM      9  C   UNL     1       6.931   9.001   7.237  1.00  0.00     0.000 C 
BRANCH   9  10
ATOM     10  C   UNL     1       6.628   8.209   5.954  1.00  0.00     0.000 C 
BRANCH  10  11
ATOM     11  C   UNL     1       6.288   9.118   4.763  1.00  0.00     0.000 C 
BRANCH  11  12
ATOM     12  C   UNL     1       5.171  10.125   5.082  1.00  0.00     0.000 C 
BRANCH  12  13
ATOM     13  C   UNL     1       3.790   9.506   4.816  1.00  0.00     0.006 C 
BRANCH  13  14
ATOM     14  C   UNL     1       2.844   9.657   6.013  1.00  0.00     0.053 C 
BRANCH  14  15
ATOM     15  C   UNL     1       1.413   9.422   5.631  1.00  0.00     0.041 C 
ATOM     16  O   UNL     1       0.696   8.641   6.311  1.00  0.00    -0.550 OA
ATOM     17  O   UNL     1       0.879  10.052   4.515  1.00  0.00    -0.550 OA
ENDBRANCH  14  15
ENDBRANCH  13  14
ENDBRANCH  12  13
ENDBRANCH  11  12
ENDBRANCH  10  11
ENDBRANCH   9  10
ENDBRANCH   8   9
ENDBRANCH   7   8
ENDBRANCH   6   7
ENDBRANCH   5   6
ENDBRANCH   4   5
ENDBRANCH   3   4
ENDBRANCH   2   3
ENDBRANCH   1   2
BRANCH   1  18
ATOM     18  C   UNL     1       1.372   2.683   6.736  1.00  0.00     0.000 C 
BRANCH  18  19
ATOM     19  C   UNL     1       0.674   1.462   7.355  1.00  0.00     0.000 C 
BRANCH  19  20
ATOM     20  C   UNL     1       0.941   0.195   6.527  1.00  0.00     0.000 C 
BRANCH  20  21
ATOM     21  C   UNL     1      -0.318  -0.355   5.827  1.00  0.00     0.000 C 
BRANCH  21  22
ATOM     22  C   UNL     1      -1.279   0.705   5.251  1.00  0.00     0.000 C 
BRANCH  22  23
ATOM     23  C   UNL     1      -2.704   0.688   5.845  1.00  0.00     0.000 C 
BRANCH  23  24
ATOM     24  C   UNL     1      -3.035   1.921   6.707  1.00  0.00    -0.000 C 
BRANCH  24  25
ATOM     25  C   UNL     1      -2.122   2.128   7.928  1.00  0.00    -0.000 C 
BRANCH  25  26
ATOM     26  C   UNL     1      -2.553   1.384   9.210  1.00  0.00    -0.000 C 
BRANCH  26  27
ATOM     27  C   UNL     1      -1.439   0.583   9.909  1.00  0.00    -0.000 C 
BRANCH  27  28
ATOM     28  C   UNL     1      -1.798  -0.901  10.103  1.00  0.00    -0.000 C 
BRANCH  28  29
ATOM     29  C   UNL     1      -0.987  -1.829   9.175  1.00  0.00    -0.000 C 
BRANCH  29  30
ATOM     30  C   UNL     1      -1.853  -2.678   8.223  1.00  0.00    -0.000 C 
BRANCH  30  31
ATOM     31  C   UNL     1      -2.322  -4.025   8.802  1.00  0.00    -0.003 C 
ATOM     32  C   UNL     1      -1.317  -4.642   9.774  1.00  0.00     0.004 C 
ENDBRANCH  30  31
ENDBRANCH  29  30
ENDBRANCH  28  29
ENDBRANCH  27  28
ENDBRANCH  26  27
ENDBRANCH  25  26
ENDBRANCH  24  25
ENDBRANCH  23  24
ENDBRANCH  22  23
ENDBRANCH  21  22
ENDBRANCH  20  21
ENDBRANCH  19  20
ENDBRANCH  18  19
ENDBRANCH   1  18
TORSDOF 28
ENDMDL
