MODEL 1
REMARK VINA RESULT:     5.622      0.000      0.000
REMARK INTER + INTRA:           6.790
REMARK INTER:                   6.772
REMARK INTRA:                   0.018
REMARK UNBOUND:                 0.018
REMARK SMILES Oc1cc(O)c2cc(O)c(-c3ccc(O)c(O)c3)[o+]c2c1
REMARK SMILES IDX 10 1 19 2 20 3 21 4 2 5 3 6 4 7 6 8 7 9 8 10 11 11 12 12
REMARK SMILES IDX 13 13 14 14 18 15 16 16 15 17 17 19 9 21 1 23 5 25
REMARK H PARENT 15 18 17 20 9 22 1 24 5 26
REMARK Flexibility Score: inf
ROOT
ATOM      1  C   UNL     1       0.725  20.501  12.162  1.00  0.00     0.402 A 
ATOM      2  O   UNL     1       0.865  20.599  13.481  1.00  0.00    -0.202 OA
ATOM      3  C   UNL     1      -0.157  20.766  14.314  1.00  0.00     0.368 A 
ATOM      4  C   UNL     1       0.091  20.855  15.686  1.00  0.00     0.162 A 
ATOM      5  C   UNL     1      -0.962  21.027  16.584  1.00  0.00     0.128 A 
ATOM      6  C   UNL     1      -2.276  21.111  16.109  1.00  0.00     0.093 A 
ATOM      7  C   UNL     1      -2.552  21.024  14.738  1.00  0.00     0.136 A 
ATOM      8  C   UNL     1      -1.482  20.851  13.822  1.00  0.00     0.125 A 
ATOM      9  C   UNL     1      -1.662  20.768  12.431  1.00  0.00     0.078 A 
ATOM     10  C   UNL     1      -0.557  20.602  11.590  1.00  0.00     0.223 A 
ENDROOT
BRANCH   1  11
ATOM     11  C   UNL     1       1.942  20.307  11.341  1.00  0.00     0.087 A 
ATOM     12  C   UNL     1       3.074  21.125  11.504  1.00  0.00     0.022 A 
ATOM     13  C   UNL     1       4.202  20.938  10.702  1.00  0.00     0.051 A 
ATOM     14  C   UNL     1       4.213  19.942   9.717  1.00  0.00     0.157 A 
ATOM     15  C   UNL     1       1.949  19.325  10.338  1.00  0.00     0.068 A 
ATOM     16  C   UNL     1       3.078  19.135   9.532  1.00  0.00     0.158 A 
BRANCH  14  17
ATOM     17  O   UNL     1       5.340  19.757   8.919  1.00  0.00    -0.504 OA
ATOM     18  H   UNL     1       5.313  19.176   8.088  1.00  0.00     0.293 HD
ENDBRANCH  14  17
BRANCH  16  19
ATOM     19  O   UNL     1       3.054  18.139   8.556  1.00  0.00    -0.504 OA
ATOM     20  H   UNL     1       2.194  17.688   8.267  1.00  0.00     0.293 HD
ENDBRANCH  16  19
ENDBRANCH   1  11
BRANCH  10  21
ATOM     21  O   UNL     1      -0.730  20.570  10.207  1.00  0.00    -0.500 OA
ATOM     22  H   UNL     1      -1.325  21.236   9.728  1.00  0.00     0.294 HD
ENDBRANCH  10  21
BRANCH   5  23
ATOM     23  O   UNL     1      -0.695  21.115  17.948  1.00  0.00    -0.507 OA
ATOM     24  H   UNL     1      -0.232  21.923  18.348  1.00  0.00     0.293 HD
ENDBRANCH   5  23
BRANCH   7  25
ATOM     25  O   UNL     1      -3.890  21.112  14.343  1.00  0.00    -0.507 OA
ATOM     26  H   UNL     1      -4.285  21.892  13.838  1.00  0.00     0.293 HD
ENDBRANCH   7  25
TORSDOF 6
ENDMDL
MODEL 2
REMARK VINA RESULT:     6.831      1.135      1.581
REMARK INTER + INTRA:           8.247
REMARK INTER:                   7.838
REMARK INTRA:                   0.409
REMARK UNBOUND:                 0.018
REMARK SMILES Oc1cc(O)c2cc(O)c(-c3ccc(O)c(O)c3)[o+]c2c1
REMARK SMILES IDX 10 1 19 2 20 3 21 4 2 5 3 6 4 7 6 8 7 9 8 10 11 11 12 12
REMARK SMILES IDX 13 13 14 14 18 15 16 16 15 17 17 19 9 21 1 23 5 25
REMARK H PARENT 15 18 17 20 9 22 1 24 5 26
REMARK Flexibility Score: inf
ROOT
ATOM      1  C   UNL     1       0.484  21.087  12.263  1.00  0.00     0.402 A 
ATOM      2  O   UNL     1       0.669  21.110  13.581  1.00  0.00    -0.202 OA
ATOM      3  C   UNL     1      -0.328  21.095  14.459  1.00  0.00     0.368 A 
ATOM      4  C   UNL     1      -0.032  21.118  15.824  1.00  0.00     0.162 A 
ATOM      5  C   UNL     1      -1.059  21.101  16.769  1.00  0.00     0.128 A 
ATOM      6  C   UNL     1      -2.393  21.060  16.347  1.00  0.00     0.093 A 
ATOM      7  C   UNL     1      -2.716  21.036  14.984  1.00  0.00     0.136 A 
ATOM      8  C   UNL     1      -1.674  21.056  14.021  1.00  0.00     0.125 A 
ATOM      9  C   UNL     1      -1.904  21.048  12.635  1.00  0.00     0.078 A 
ATOM     10  C   UNL     1      -0.825  21.074  11.746  1.00  0.00     0.223 A 
ENDROOT
BRANCH   1  11
ATOM     11  C   UNL     1       1.678  21.097  11.388  1.00  0.00     0.087 A 
ATOM     12  C   UNL     1       1.559  21.124   9.987  1.00  0.00     0.022 A 
ATOM     13  C   UNL     1       2.700  21.110   9.181  1.00  0.00     0.051 A 
ATOM     14  C   UNL     1       3.974  21.055   9.759  1.00  0.00     0.157 A 
ATOM     15  C   UNL     1       2.957  21.020  11.962  1.00  0.00     0.068 A 
ATOM     16  C   UNL     1       4.102  21.005  11.158  1.00  0.00     0.158 A 
BRANCH  14  17
ATOM     17  O   UNL     1       5.111  21.041   8.952  1.00  0.00    -0.504 OA
ATOM     18  H   UNL     1       6.018  20.775   9.319  1.00  0.00     0.293 HD
ENDBRANCH  14  17
BRANCH  16  19
ATOM     19  O   UNL     1       5.356  20.943  11.765  1.00  0.00    -0.504 OA
ATOM     20  H   UNL     1       6.131  21.520  11.460  1.00  0.00     0.293 HD
ENDBRANCH  16  19
ENDBRANCH   1  11
BRANCH  10  21
ATOM     21  O   UNL     1      -1.053  21.117  10.371  1.00  0.00    -0.500 OA
ATOM     22  H   UNL     1      -0.507  20.561   9.723  1.00  0.00     0.294 HD
ENDBRANCH  10  21
BRANCH   5  23
ATOM     23  O   UNL     1      -0.744  21.125  18.125  1.00  0.00    -0.507 OA
ATOM     24  H   UNL     1       0.130  20.751  18.475  1.00  0.00     0.293 HD
ENDBRANCH   5  23
BRANCH   7  25
ATOM     25  O   UNL     1      -4.071  20.991  14.644  1.00  0.00    -0.507 OA
ATOM     26  H   UNL     1      -4.444  21.270  13.749  1.00  0.00     0.293 HD
ENDBRANCH   7  25
TORSDOF 6
ENDMDL
