MODEL 1
REMARK VINA RESULT:    -4.627      0.000      0.000
REMARK INTER + INTRA:         -14.067
REMARK INTER:                 -10.577
REMARK INTRA:                  -3.490
REMARK UNBOUND:                -3.490
REMARK SMILES CCCCCCCCCCCCCCCCCCCCCCCC(=O)[O-]
REMARK SMILES IDX 13 1 14 2 15 3 16 4 17 5 18 6 19 7 20 8 21 9 22 10 23 11
REMARK SMILES IDX 24 12 25 13 26 14 12 15 11 16 10 17 9 18 8 19 7 20 6 21 5 22
REMARK SMILES IDX 4 23 3 24 2 25 1 26
REMARK H PARENT
REMARK Flexibility Score: inf
ROOT
ATOM      1  C   UNL     1     -38.348  19.308 -31.122  1.00  0.00     0.000 C 
ENDROOT
BRANCH   1   2
ATOM      2  C   UNL     1     -37.028  20.067 -30.888  1.00  0.00     0.000 C 
BRANCH   2   3
ATOM      3  C   UNL     1     -36.799  21.234 -31.867  1.00  0.00     0.000 C 
BRANCH   3   4
ATOM      4  C   UNL     1     -35.332  21.690 -31.933  1.00  0.00     0.000 C 
BRANCH   4   5
ATOM      5  C   UNL     1     -35.024  22.865 -30.978  1.00  0.00     0.000 C 
BRANCH   5   6
ATOM      6  C   UNL     1     -34.829  22.444 -29.507  1.00  0.00     0.000 C 
BRANCH   6   7
ATOM      7  C   UNL     1     -35.167  23.524 -28.462  1.00  0.00     0.000 C 
BRANCH   7   8
ATOM      8  C   UNL     1     -36.531  23.355 -27.764  1.00  0.00     0.000 C 
BRANCH   8   9
ATOM      9  C   UNL     1     -37.505  22.466 -28.557  1.00  0.00     0.000 C 
BRANCH   9  10
ATOM     10  C   UNL     1     -38.968  22.908 -28.387  1.00  0.00     0.006 C 
BRANCH  10  11
ATOM     11  C   UNL     1     -39.928  22.112 -29.281  1.00  0.00     0.053 C 
BRANCH  11  12
ATOM     12  C   UNL     1     -41.078  22.969 -29.708  1.00  0.00     0.041 C 
ATOM     13  O   UNL     1     -41.607  22.805 -30.840  1.00  0.00    -0.550 OA
ATOM     14  O   UNL     1     -41.543  23.976 -28.871  1.00  0.00    -0.550 OA
ENDBRANCH  11  12
ENDBRANCH  10  11
ENDBRANCH   9  10
ENDBRANCH   8   9
ENDBRANCH   7   8
ENDBRANCH   6   7
ENDBRANCH   5   6
ENDBRANCH   4   5
ENDBRANCH   3   4
ENDBRANCH   2   3
ENDBRANCH   1   2
BRANCH   1  15
ATOM     15  C   UNL     1     -38.782  18.481 -29.897  1.00  0.00     0.000 C 
BRANCH  15  16
ATOM     16  C   UNL     1     -38.307  19.109 -28.569  1.00  0.00     0.000 C 
BRANCH  16  17
ATOM     17  C   UNL     1     -37.651  18.103 -27.606  1.00  0.00     0.000 C 
BRANCH  17  18
ATOM     18  C   UNL     1     -36.347  18.630 -26.986  1.00  0.00    -0.000 C 
BRANCH  18  19
ATOM     19  C   UNL     1     -35.483  19.411 -27.988  1.00  0.00    -0.000 C 
BRANCH  19  20
ATOM     20  C   UNL     1     -34.227  18.633 -28.423  1.00  0.00    -0.000 C 
BRANCH  20  21
ATOM     21  C   UNL     1     -34.067  18.579 -29.951  1.00  0.00    -0.000 C 
BRANCH  21  22
ATOM     22  C   UNL     1     -34.371  17.187 -30.533  1.00  0.00    -0.000 C 
BRANCH  22  23
ATOM     23  C   UNL     1     -35.823  16.748 -30.280  1.00  0.00    -0.000 C 
BRANCH  23  24
ATOM     24  C   UNL     1     -35.963  15.222 -30.129  1.00  0.00    -0.000 C 
BRANCH  24  25
ATOM     25  C   UNL     1     -37.146  14.829 -29.232  1.00  0.00    -0.003 C 
ATOM     26  C   UNL     1     -37.393  13.320 -29.209  1.00  0.00     0.004 C 
ENDBRANCH  24  25
ENDBRANCH  23  24
ENDBRANCH  22  23
ENDBRANCH  21  22
ENDBRANCH  20  21
ENDBRANCH  19  20
ENDBRANCH  18  19
ENDBRANCH  17  18
ENDBRANCH  16  17
ENDBRANCH  15  16
ENDBRANCH   1  15
TORSDOF 22
ENDMDL
MODEL 2
REMARK VINA RESULT:    -4.533     14.279     16.697
REMARK INTER + INTRA:         -13.854
REMARK INTER:                  -9.846
REMARK INTRA:                  -4.007
REMARK UNBOUND:                -3.490
REMARK SMILES CCCCCCCCCCCCCCCCCCCCCCCC(=O)[O-]
REMARK SMILES IDX 13 1 14 2 15 3 16 4 17 5 18 6 19 7 20 8 21 9 22 10 23 11
REMARK SMILES IDX 24 12 25 13 26 14 12 15 11 16 10 17 9 18 8 19 7 20 6 21 5 22
REMARK SMILES IDX 4 23 3 24 2 25 1 26
REMARK H PARENT
REMARK Flexibility Score: inf
ROOT
ATOM      1  C   UNL     1     -49.702   9.928 -32.452  1.00  0.00     0.000 C 
ENDROOT
BRANCH   1   2
ATOM      2  C   UNL     1     -51.144   9.397 -32.331  1.00  0.00     0.000 C 
BRANCH   2   3
ATOM      3  C   UNL     1     -51.399   8.576 -31.053  1.00  0.00     0.000 C 
BRANCH   3   4
ATOM      4  C   UNL     1     -52.706   8.958 -30.338  1.00  0.00     0.000 C 
BRANCH   4   5
ATOM      5  C   UNL     1     -53.372  10.216 -30.938  1.00  0.00     0.000 C 
BRANCH   5   6
ATOM      6  C   UNL     1     -53.466  11.404 -29.959  1.00  0.00     0.000 C 
BRANCH   6   7
ATOM      7  C   UNL     1     -53.372  12.800 -30.604  1.00  0.00     0.000 C 
BRANCH   7   8
ATOM      8  C   UNL     1     -52.228  12.976 -31.621  1.00  0.00     0.000 C 
BRANCH   8   9
ATOM      9  C   UNL     1     -51.643  14.399 -31.628  1.00  0.00     0.000 C 
BRANCH   9  10
ATOM     10  C   UNL     1     -51.921  15.149 -30.315  1.00  0.00     0.006 C 
BRANCH  10  11
ATOM     11  C   UNL     1     -52.753  16.420 -30.532  1.00  0.00     0.053 C 
BRANCH  11  12
ATOM     12  C   UNL     1     -52.053  17.610 -29.954  1.00  0.00     0.041 C 
ATOM     13  O   UNL     1     -52.388  18.057 -28.824  1.00  0.00    -0.550 OA
ATOM     14  O   UNL     1     -51.053  18.248 -30.678  1.00  0.00    -0.550 OA
ENDBRANCH  11  12
ENDBRANCH  10  11
ENDBRANCH   9  10
ENDBRANCH   8   9
ENDBRANCH   7   8
ENDBRANCH   6   7
ENDBRANCH   5   6
ENDBRANCH   4   5
ENDBRANCH   3   4
ENDBRANCH   2   3
ENDBRANCH   1   2
BRANCH   1  15
ATOM     15  C   UNL     1     -48.916   9.252 -33.591  1.00  0.00     0.000 C 
BRANCH  15  16
ATOM     16  C   UNL     1     -48.031   8.093 -33.085  1.00  0.00     0.000 C 
BRANCH  16  17
ATOM     17  C   UNL     1     -48.668   6.703 -33.258  1.00  0.00     0.000 C 
BRANCH  17  18
ATOM     18  C   UNL     1     -48.696   5.890 -31.954  1.00  0.00    -0.000 C 
BRANCH  18  19
ATOM     19  C   UNL     1     -47.397   6.017 -31.145  1.00  0.00    -0.000 C 
BRANCH  19  20
ATOM     20  C   UNL     1     -47.650   6.312 -29.654  1.00  0.00    -0.000 C 
BRANCH  20  21
ATOM     21  C   UNL     1     -48.163   7.741 -29.416  1.00  0.00    -0.000 C 
BRANCH  21  22
ATOM     22  C   UNL     1     -47.102   8.813 -29.724  1.00  0.00    -0.000 C 
BRANCH  22  23
ATOM     23  C   UNL     1     -47.636  10.241 -29.532  1.00  0.00    -0.000 C 
BRANCH  23  24
ATOM     24  C   UNL     1     -48.876  10.294 -28.620  1.00  0.00    -0.000 C 
BRANCH  24  25
ATOM     25  C   UNL     1     -49.882  11.368 -29.059  1.00  0.00    -0.003 C 
ATOM     26  C   UNL     1     -49.207  12.676 -29.472  1.00  0.00     0.004 C 
ENDBRANCH  24  25
ENDBRANCH  23  24
ENDBRANCH  22  23
ENDBRANCH  21  22
ENDBRANCH  20  21
ENDBRANCH  19  20
ENDBRANCH  18  19
ENDBRANCH  17  18
ENDBRANCH  16  17
ENDBRANCH  15  16
ENDBRANCH   1  15
TORSDOF 22
ENDMDL
MODEL 3
REMARK VINA RESULT:    -4.495      0.793      1.703
REMARK INTER + INTRA:         -13.766
REMARK INTER:                 -10.001
REMARK INTRA:                  -3.765
REMARK UNBOUND:                -3.490
REMARK SMILES CCCCCCCCCCCCCCCCCCCCCCCC(=O)[O-]
REMARK SMILES IDX 13 1 14 2 15 3 16 4 17 5 18 6 19 7 20 8 21 9 22 10 23 11
REMARK SMILES IDX 24 12 25 13 26 14 12 15 11 16 10 17 9 18 8 19 7 20 6 21 5 22
REMARK SMILES IDX 4 23 3 24 2 25 1 26
REMARK H PARENT
REMARK Flexibility Score: inf
ROOT
ATOM      1  C   UNL     1     -38.154  20.513 -31.653  1.00  0.00     0.000 C 
ENDROOT
BRANCH   1   2
ATOM      2  C   UNL     1     -36.871  21.248 -32.085  1.00  0.00     0.000 C 
BRANCH   2   3
ATOM      3  C   UNL     1     -35.714  21.124 -31.076  1.00  0.00     0.000 C 
BRANCH   3   4
ATOM      4  C   UNL     1     -34.818  22.373 -31.026  1.00  0.00     0.000 C 
BRANCH   4   5
ATOM      5  C   UNL     1     -34.006  22.478 -29.716  1.00  0.00     0.000 C 
BRANCH   5   6
ATOM      6  C   UNL     1     -34.630  23.416 -28.664  1.00  0.00     0.000 C 
BRANCH   6   7
ATOM      7  C   UNL     1     -35.674  22.767 -27.736  1.00  0.00     0.000 C 
BRANCH   7   8
ATOM      8  C   UNL     1     -37.090  23.370 -27.821  1.00  0.00     0.000 C 
BRANCH   8   9
ATOM      9  C   UNL     1     -38.036  22.558 -28.724  1.00  0.00     0.000 C 
BRANCH   9  10
ATOM     10  C   UNL     1     -39.511  22.934 -28.510  1.00  0.00     0.006 C 
BRANCH  10  11
ATOM     11  C   UNL     1     -40.443  22.240 -29.513  1.00  0.00     0.053 C 
BRANCH  11  12
ATOM     12  C   UNL     1     -41.601  23.126 -29.850  1.00  0.00     0.041 C 
ATOM     13  O   UNL     1     -42.040  23.176 -31.030  1.00  0.00    -0.550 OA
ATOM     14  O   UNL     1     -42.173  23.927 -28.869  1.00  0.00    -0.550 OA
ENDBRANCH  11  12
ENDBRANCH  10  11
ENDBRANCH   9  10
ENDBRANCH   8   9
ENDBRANCH   7   8
ENDBRANCH   6   7
ENDBRANCH   5   6
ENDBRANCH   4   5
ENDBRANCH   3   4
ENDBRANCH   2   3
ENDBRANCH   1   2
BRANCH   1  15
ATOM     15  C   UNL     1     -37.861  19.219 -30.870  1.00  0.00     0.000 C 
BRANCH  15  16
ATOM     16  C   UNL     1     -39.145  18.561 -30.322  1.00  0.00     0.000 C 
BRANCH  16  17
ATOM     17  C   UNL     1     -39.427  18.884 -28.844  1.00  0.00     0.000 C 
BRANCH  17  18
ATOM     18  C   UNL     1     -38.192  19.419 -28.101  1.00  0.00    -0.000 C 
BRANCH  18  19
ATOM     19  C   UNL     1     -37.451  18.328 -27.314  1.00  0.00    -0.000 C 
BRANCH  19  20
ATOM     20  C   UNL     1     -36.022  18.746 -26.920  1.00  0.00    -0.000 C 
BRANCH  20  21
ATOM     21  C   UNL     1     -35.249  19.378 -28.088  1.00  0.00    -0.000 C 
BRANCH  21  22
ATOM     22  C   UNL     1     -33.987  18.581 -28.466  1.00  0.00    -0.000 C 
BRANCH  22  23
ATOM     23  C   UNL     1     -34.111  17.899 -29.838  1.00  0.00    -0.000 C 
BRANCH  23  24
ATOM     24  C   UNL     1     -35.564  17.520 -30.183  1.00  0.00    -0.000 C 
BRANCH  24  25
ATOM     25  C   UNL     1     -35.774  16.001 -30.245  1.00  0.00    -0.003 C 
ATOM     26  C   UNL     1     -37.051  15.552 -29.533  1.00  0.00     0.004 C 
ENDBRANCH  24  25
ENDBRANCH  23  24
ENDBRANCH  22  23
ENDBRANCH  21  22
ENDBRANCH  20  21
ENDBRANCH  19  20
ENDBRANCH  18  19
ENDBRANCH  17  18
ENDBRANCH  16  17
ENDBRANCH  15  16
ENDBRANCH   1  15
TORSDOF 22
ENDMDL
MODEL 4
REMARK VINA RESULT:    -4.469     14.633     17.025
REMARK INTER + INTRA:         -13.707
REMARK INTER:                  -9.640
REMARK INTRA:                  -4.067
REMARK UNBOUND:                -3.490
REMARK SMILES CCCCCCCCCCCCCCCCCCCCCCCC(=O)[O-]
REMARK SMILES IDX 13 1 14 2 15 3 16 4 17 5 18 6 19 7 20 8 21 9 22 10 23 11
REMARK SMILES IDX 24 12 25 13 26 14 12 15 11 16 10 17 9 18 8 19 7 20 6 21 5 22
REMARK SMILES IDX 4 23 3 24 2 25 1 26
REMARK H PARENT
REMARK Flexibility Score: inf
ROOT
ATOM      1  C   UNL     1     -49.646  11.204 -28.894  1.00  0.00     0.000 C 
ENDROOT
BRANCH   1   2
ATOM      2  C   UNL     1     -49.624  12.684 -29.323  1.00  0.00     0.000 C 
BRANCH   2   3
ATOM      3  C   UNL     1     -50.198  12.932 -30.730  1.00  0.00     0.000 C 
BRANCH   3   4
ATOM      4  C   UNL     1     -51.231  11.877 -31.158  1.00  0.00     0.000 C 
BRANCH   4   5
ATOM      5  C   UNL     1     -52.523  12.499 -31.733  1.00  0.00     0.000 C 
BRANCH   5   6
ATOM      6  C   UNL     1     -53.729  12.442 -30.775  1.00  0.00     0.000 C 
BRANCH   6   7
ATOM      7  C   UNL     1     -53.393  12.099 -29.311  1.00  0.00     0.000 C 
BRANCH   7   8
ATOM      8  C   UNL     1     -53.681  13.220 -28.293  1.00  0.00     0.000 C 
BRANCH   8   9
ATOM      9  C   UNL     1     -52.788  14.457 -28.493  1.00  0.00     0.000 C 
BRANCH   9  10
ATOM     10  C   UNL     1     -53.575  15.663 -29.031  1.00  0.00     0.006 C 
BRANCH  10  11
ATOM     11  C   UNL     1     -52.857  16.359 -30.195  1.00  0.00     0.053 C 
BRANCH  11  12
ATOM     12  C   UNL     1     -52.161  17.595 -29.717  1.00  0.00     0.041 C 
ATOM     13  O   UNL     1     -52.510  18.143 -28.637  1.00  0.00    -0.550 OA
ATOM     14  O   UNL     1     -51.151  18.164 -30.482  1.00  0.00    -0.550 OA
ENDBRANCH  11  12
ENDBRANCH  10  11
ENDBRANCH   9  10
ENDBRANCH   8   9
ENDBRANCH   7   8
ENDBRANCH   6   7
ENDBRANCH   5   6
ENDBRANCH   4   5
ENDBRANCH   3   4
ENDBRANCH   2   3
ENDBRANCH   1   2
BRANCH   1  15
ATOM     15  C   UNL     1     -48.386  10.439 -29.339  1.00  0.00     0.000 C 
BRANCH  15  16
ATOM     16  C   UNL     1     -48.720   9.231 -30.240  1.00  0.00     0.000 C 
BRANCH  16  17
ATOM     17  C   UNL     1     -47.559   8.795 -31.152  1.00  0.00     0.000 C 
BRANCH  17  18
ATOM     18  C   UNL     1     -47.635   7.314 -31.554  1.00  0.00    -0.000 C 
BRANCH  18  19
ATOM     19  C   UNL     1     -48.709   6.540 -30.775  1.00  0.00    -0.000 C 
BRANCH  19  20
ATOM     20  C   UNL     1     -49.802   5.954 -31.689  1.00  0.00    -0.000 C 
BRANCH  20  21
ATOM     21  C   UNL     1     -49.747   6.528 -33.114  1.00  0.00    -0.000 C 
BRANCH  21  22
ATOM     22  C   UNL     1     -51.077   7.171 -33.547  1.00  0.00    -0.000 C 
BRANCH  22  23
ATOM     23  C   UNL     1     -51.431   8.411 -32.711  1.00  0.00    -0.000 C 
BRANCH  23  24
ATOM     24  C   UNL     1     -52.950   8.592 -32.530  1.00  0.00    -0.000 C 
BRANCH  24  25
ATOM     25  C   UNL     1     -53.348   8.767 -31.057  1.00  0.00    -0.003 C 
ATOM     26  C   UNL     1     -52.252   8.317 -30.091  1.00  0.00     0.004 C 
ENDBRANCH  24  25
ENDBRANCH  23  24
ENDBRANCH  22  23
ENDBRANCH  21  22
ENDBRANCH  20  21
ENDBRANCH  19  20
ENDBRANCH  18  19
ENDBRANCH  17  18
ENDBRANCH  16  17
ENDBRANCH  15  16
ENDBRANCH   1  15
TORSDOF 22
ENDMDL
MODEL 5
REMARK VINA RESULT:    -4.327     14.896     18.430
REMARK INTER + INTRA:         -13.383
REMARK INTER:                 -10.089
REMARK INTRA:                  -3.293
REMARK UNBOUND:                -3.490
REMARK SMILES CCCCCCCCCCCCCCCCCCCCCCCC(=O)[O-]
REMARK SMILES IDX 13 1 14 2 15 3 16 4 17 5 18 6 19 7 20 8 21 9 22 10 23 11
REMARK SMILES IDX 24 12 25 13 26 14 12 15 11 16 10 17 9 18 8 19 7 20 6 21 5 22
REMARK SMILES IDX 4 23 3 24 2 25 1 26
REMARK H PARENT
REMARK Flexibility Score: inf
ROOT
ATOM      1  C   UNL     1     -50.447  10.548 -31.574  1.00  0.00     0.000 C 
ENDROOT
BRANCH   1   2
ATOM      2  C   UNL     1     -51.706  10.424 -32.455  1.00  0.00     0.000 C 
BRANCH   2   3
ATOM      3  C   UNL     1     -52.822   9.567 -31.828  1.00  0.00     0.000 C 
BRANCH   3   4
ATOM      4  C   UNL     1     -52.286   8.435 -30.934  1.00  0.00     0.000 C 
BRANCH   4   5
ATOM      5  C   UNL     1     -52.719   7.033 -31.417  1.00  0.00     0.000 C 
BRANCH   5   6
ATOM      6  C   UNL     1     -53.117   6.977 -32.906  1.00  0.00     0.000 C 
BRANCH   6   7
ATOM      7  C   UNL     1     -51.944   6.873 -33.899  1.00  0.00     0.000 C 
BRANCH   7   8
ATOM      8  C   UNL     1     -50.647   6.273 -33.321  1.00  0.00     0.000 C 
BRANCH   8   9
ATOM      9  C   UNL     1     -49.479   7.274 -33.302  1.00  0.00     0.000 C 
BRANCH   9  10
ATOM     10  C   UNL     1     -48.365   6.852 -32.330  1.00  0.00     0.006 C 
BRANCH  10  11
ATOM     11  C   UNL     1     -48.623   7.337 -30.897  1.00  0.00     0.053 C 
BRANCH  11  12
ATOM     12  C   UNL     1     -47.581   8.328 -30.483  1.00  0.00     0.041 C 
ATOM     13  O   UNL     1     -47.076   9.110 -31.333  1.00  0.00    -0.550 OA
ATOM     14  O   UNL     1     -47.139   8.363 -29.166  1.00  0.00    -0.550 OA
ENDBRANCH  11  12
ENDBRANCH  10  11
ENDBRANCH   9  10
ENDBRANCH   8   9
ENDBRANCH   7   8
ENDBRANCH   6   7
ENDBRANCH   5   6
ENDBRANCH   4   5
ENDBRANCH   3   4
ENDBRANCH   2   3
ENDBRANCH   1   2
BRANCH   1  15
ATOM     15  C   UNL     1     -50.441  11.837 -30.729  1.00  0.00     0.000 C 
BRANCH  15  16
ATOM     16  C   UNL     1     -50.759  11.566 -29.243  1.00  0.00     0.000 C 
BRANCH  16  17
ATOM     17  C   UNL     1     -52.230  11.815 -28.867  1.00  0.00     0.000 C 
BRANCH  17  18
ATOM     18  C   UNL     1     -52.789  13.117 -29.463  1.00  0.00    -0.000 C 
BRANCH  18  19
ATOM     19  C   UNL     1     -53.576  13.950 -28.440  1.00  0.00    -0.000 C 
BRANCH  19  20
ATOM     20  C   UNL     1     -52.898  15.297 -28.123  1.00  0.00    -0.000 C 
BRANCH  20  21
ATOM     21  C   UNL     1     -53.889  16.473 -28.138  1.00  0.00    -0.000 C 
BRANCH  21  22
ATOM     22  C   UNL     1     -53.597  17.481 -29.264  1.00  0.00    -0.000 C 
BRANCH  22  23
ATOM     23  C   UNL     1     -52.107  17.851 -29.352  1.00  0.00    -0.000 C 
BRANCH  23  24
ATOM     24  C   UNL     1     -51.565  17.793 -30.792  1.00  0.00    -0.000 C 
BRANCH  24  25
ATOM     25  C   UNL     1     -51.923  16.479 -31.501  1.00  0.00    -0.003 C 
ATOM     26  C   UNL     1     -50.736  15.520 -31.602  1.00  0.00     0.004 C 
ENDBRANCH  24  25
ENDBRANCH  23  24
ENDBRANCH  22  23
ENDBRANCH  21  22
ENDBRANCH  20  21
ENDBRANCH  19  20
ENDBRANCH  18  19
ENDBRANCH  17  18
ENDBRANCH  16  17
ENDBRANCH  15  16
ENDBRANCH   1  15
TORSDOF 22
ENDMDL
MODEL 6
REMARK VINA RESULT:    -4.312     14.812     17.589
REMARK INTER + INTRA:         -13.347
REMARK INTER:                  -9.888
REMARK INTRA:                  -3.458
REMARK UNBOUND:                -3.490
REMARK SMILES CCCCCCCCCCCCCCCCCCCCCCCC(=O)[O-]
REMARK SMILES IDX 13 1 14 2 15 3 16 4 17 5 18 6 19 7 20 8 21 9 22 10 23 11
REMARK SMILES IDX 24 12 25 13 26 14 12 15 11 16 10 17 9 18 8 19 7 20 6 21 5 22
REMARK SMILES IDX 4 23 3 24 2 25 1 26
REMARK H PARENT
REMARK Flexibility Score: inf
ROOT
ATOM      1  C   UNL     1     -49.258   9.603 -33.323  1.00  0.00     0.000 C 
ENDROOT
BRANCH   1   2
ATOM      2  C   UNL     1     -50.229   9.982 -32.188  1.00  0.00     0.000 C 
BRANCH   2   3
ATOM      3  C   UNL     1     -51.554  10.593 -32.681  1.00  0.00     0.000 C 
BRANCH   3   4
ATOM      4  C   UNL     1     -52.216  11.520 -31.647  1.00  0.00     0.000 C 
BRANCH   4   5
ATOM      5  C   UNL     1     -51.393  11.652 -30.346  1.00  0.00     0.000 C 
BRANCH   5   6
ATOM      6  C   UNL     1     -52.251  11.806 -29.074  1.00  0.00     0.000 C 
BRANCH   6   7
ATOM      7  C   UNL     1     -53.564  12.590 -29.254  1.00  0.00     0.000 C 
BRANCH   7   8
ATOM      8  C   UNL     1     -53.800  13.716 -28.229  1.00  0.00     0.000 C 
BRANCH   8   9
ATOM      9  C   UNL     1     -52.723  14.813 -28.283  1.00  0.00     0.000 C 
BRANCH   9  10
ATOM     10  C   UNL     1     -52.531  15.372 -29.702  1.00  0.00     0.006 C 
BRANCH  10  11
ATOM     11  C   UNL     1     -52.481  16.905 -29.727  1.00  0.00     0.053 C 
BRANCH  11  12
ATOM     12  C   UNL     1     -51.496  17.381 -30.747  1.00  0.00     0.041 C 
ATOM     13  O   UNL     1     -51.397  18.610 -31.011  1.00  0.00    -0.550 OA
ATOM     14  O   UNL     1     -50.711  16.465 -31.437  1.00  0.00    -0.550 OA
ENDBRANCH  11  12
ENDBRANCH  10  11
ENDBRANCH   9  10
ENDBRANCH   8   9
ENDBRANCH   7   8
ENDBRANCH   6   7
ENDBRANCH   5   6
ENDBRANCH   4   5
ENDBRANCH   3   4
ENDBRANCH   2   3
ENDBRANCH   1   2
BRANCH   1  15
ATOM     15  C   UNL     1     -48.337   8.428 -32.946  1.00  0.00     0.000 C 
BRANCH  15  16
ATOM     16  C   UNL     1     -48.020   8.392 -31.435  1.00  0.00     0.000 C 
BRANCH  16  17
ATOM     17  C   UNL     1     -47.830   6.972 -30.874  1.00  0.00     0.000 C 
BRANCH  17  18
ATOM     18  C   UNL     1     -48.861   6.612 -29.792  1.00  0.00    -0.000 C 
BRANCH  18  19
ATOM     19  C   UNL     1     -50.002   7.636 -29.692  1.00  0.00    -0.000 C 
BRANCH  19  20
ATOM     20  C   UNL     1     -51.346   7.079 -30.196  1.00  0.00    -0.000 C 
BRANCH  20  21
ATOM     21  C   UNL     1     -52.491   8.097 -30.070  1.00  0.00    -0.000 C 
BRANCH  21  22
ATOM     22  C   UNL     1     -53.627   7.843 -31.077  1.00  0.00    -0.000 C 
BRANCH  22  23
ATOM     23  C   UNL     1     -53.401   6.570 -31.908  1.00  0.00    -0.000 C 
BRANCH  23  24
ATOM     24  C   UNL     1     -53.709   6.776 -33.404  1.00  0.00    -0.000 C 
BRANCH  24  25
ATOM     25  C   UNL     1     -52.459   7.154 -34.212  1.00  0.00    -0.003 C 
ATOM     26  C   UNL     1     -51.228   6.341 -33.812  1.00  0.00     0.004 C 
ENDBRANCH  24  25
ENDBRANCH  23  24
ENDBRANCH  22  23
ENDBRANCH  21  22
ENDBRANCH  20  21
ENDBRANCH  19  20
ENDBRANCH  18  19
ENDBRANCH  17  18
ENDBRANCH  16  17
ENDBRANCH  15  16
ENDBRANCH   1  15
TORSDOF 22
ENDMDL
MODEL 7
REMARK VINA RESULT:    -4.293     14.311     17.361
REMARK INTER + INTRA:         -13.303
REMARK INTER:                  -9.300
REMARK INTRA:                  -4.003
REMARK UNBOUND:                -3.490
REMARK SMILES CCCCCCCCCCCCCCCCCCCCCCCC(=O)[O-]
REMARK SMILES IDX 13 1 14 2 15 3 16 4 17 5 18 6 19 7 20 8 21 9 22 10 23 11
REMARK SMILES IDX 24 12 25 13 26 14 12 15 11 16 10 17 9 18 8 19 7 20 6 21 5 22
REMARK SMILES IDX 4 23 3 24 2 25 1 26
REMARK H PARENT
REMARK Flexibility Score: inf
ROOT
ATOM      1  C   UNL     1     -52.601   9.702 -32.467  1.00  0.00     0.000 C 
ENDROOT
BRANCH   1   2
ATOM      2  C   UNL     1     -52.044  11.130 -32.299  1.00  0.00     0.000 C 
BRANCH   2   3
ATOM      3  C   UNL     1     -50.671  11.185 -31.604  1.00  0.00     0.000 C 
BRANCH   3   4
ATOM      4  C   UNL     1     -50.619  12.193 -30.444  1.00  0.00     0.000 C 
BRANCH   4   5
ATOM      5  C   UNL     1     -50.806  11.528 -29.062  1.00  0.00     0.000 C 
BRANCH   5   6
ATOM      6  C   UNL     1     -52.255  11.571 -28.535  1.00  0.00     0.000 C 
BRANCH   6   7
ATOM      7  C   UNL     1     -53.152  12.657 -29.158  1.00  0.00     0.000 C 
BRANCH   7   8
ATOM      8  C   UNL     1     -53.741  13.671 -28.158  1.00  0.00     0.000 C 
BRANCH   8   9
ATOM      9  C   UNL     1     -53.079  15.058 -28.248  1.00  0.00     0.000 C 
BRANCH   9  10
ATOM     10  C   UNL     1     -52.859  15.505 -29.702  1.00  0.00     0.006 C 
BRANCH  10  11
ATOM     11  C   UNL     1     -52.509  16.996 -29.809  1.00  0.00     0.053 C 
BRANCH  11  12
ATOM     12  C   UNL     1     -51.406  17.204 -30.799  1.00  0.00     0.041 C 
ATOM     13  O   UNL     1     -50.808  18.312 -30.860  1.00  0.00    -0.550 OA
ATOM     14  O   UNL     1     -51.062  16.187 -31.682  1.00  0.00    -0.550 OA
ENDBRANCH  11  12
ENDBRANCH  10  11
ENDBRANCH   9  10
ENDBRANCH   8   9
ENDBRANCH   7   8
ENDBRANCH   6   7
ENDBRANCH   5   6
ENDBRANCH   4   5
ENDBRANCH   3   4
ENDBRANCH   2   3
ENDBRANCH   1   2
BRANCH   1  15
ATOM     15  C   UNL     1     -53.358   9.211 -31.219  1.00  0.00     0.000 C 
BRANCH  15  16
ATOM     16  C   UNL     1     -52.538   8.193 -30.398  1.00  0.00     0.000 C 
BRANCH  16  17
ATOM     17  C   UNL     1     -53.002   6.736 -30.574  1.00  0.00     0.000 C 
BRANCH  17  18
ATOM     18  C   UNL     1     -52.060   5.911 -31.467  1.00  0.00    -0.000 C 
BRANCH  18  19
ATOM     19  C   UNL     1     -52.443   5.973 -32.953  1.00  0.00    -0.000 C 
BRANCH  19  20
ATOM     20  C   UNL     1     -51.327   6.573 -33.830  1.00  0.00    -0.000 C 
BRANCH  20  21
ATOM     21  C   UNL     1     -49.974   6.631 -33.104  1.00  0.00    -0.000 C 
BRANCH  21  22
ATOM     22  C   UNL     1     -49.350   8.038 -33.121  1.00  0.00    -0.000 C 
BRANCH  22  23
ATOM     23  C   UNL     1     -48.350   8.252 -31.973  1.00  0.00    -0.000 C 
BRANCH  23  24
ATOM     24  C   UNL     1     -48.924   7.848 -30.602  1.00  0.00    -0.000 C 
BRANCH  24  25
ATOM     25  C   UNL     1     -48.295   8.640 -29.447  1.00  0.00    -0.003 C 
ATOM     26  C   UNL     1     -47.447   9.817 -29.931  1.00  0.00     0.004 C 
ENDBRANCH  24  25
ENDBRANCH  23  24
ENDBRANCH  22  23
ENDBRANCH  21  22
ENDBRANCH  20  21
ENDBRANCH  19  20
ENDBRANCH  18  19
ENDBRANCH  17  18
ENDBRANCH  16  17
ENDBRANCH  15  16
ENDBRANCH   1  15
TORSDOF 22
ENDMDL
MODEL 8
REMARK VINA RESULT:    -4.202     14.865     18.540
REMARK INTER + INTRA:         -13.097
REMARK INTER:                  -9.294
REMARK INTRA:                  -3.803
REMARK UNBOUND:                -3.490
REMARK SMILES CCCCCCCCCCCCCCCCCCCCCCCC(=O)[O-]
REMARK SMILES IDX 13 1 14 2 15 3 16 4 17 5 18 6 19 7 20 8 21 9 22 10 23 11
REMARK SMILES IDX 24 12 25 13 26 14 12 15 11 16 10 17 9 18 8 19 7 20 6 21 5 22
REMARK SMILES IDX 4 23 3 24 2 25 1 26
REMARK H PARENT
REMARK Flexibility Score: inf
ROOT
ATOM      1  C   UNL     1     -48.114   7.996 -32.653  1.00  0.00     0.000 C 
ENDROOT
BRANCH   1   2
ATOM      2  C   UNL     1     -48.361   6.656 -33.373  1.00  0.00     0.000 C 
BRANCH   2   3
ATOM      3  C   UNL     1     -49.654   5.943 -32.934  1.00  0.00     0.000 C 
BRANCH   3   4
ATOM      4  C   UNL     1     -50.717   5.879 -34.043  1.00  0.00     0.000 C 
BRANCH   4   5
ATOM      5  C   UNL     1     -52.016   6.629 -33.674  1.00  0.00     0.000 C 
BRANCH   5   6
ATOM      6  C   UNL     1     -52.425   6.486 -32.194  1.00  0.00     0.000 C 
BRANCH   6   7
ATOM      7  C   UNL     1     -52.745   7.806 -31.467  1.00  0.00     0.000 C 
BRANCH   7   8
ATOM      8  C   UNL     1     -52.180   7.919 -30.037  1.00  0.00     0.000 C 
BRANCH   8   9
ATOM      9  C   UNL     1     -51.059   6.905 -29.751  1.00  0.00     0.000 C 
BRANCH   9  10
ATOM     10  C   UNL     1     -49.681   7.576 -29.637  1.00  0.00     0.006 C 
BRANCH  10  11
ATOM     11  C   UNL     1     -48.561   6.568 -29.348  1.00  0.00     0.053 C 
BRANCH  11  12
ATOM     12  C   UNL     1     -47.283   7.281 -29.035  1.00  0.00     0.041 C 
ATOM     13  O   UNL     1     -46.335   6.669 -28.473  1.00  0.00    -0.550 OA
ATOM     14  O   UNL     1     -47.150   8.632 -29.331  1.00  0.00    -0.550 OA
ENDBRANCH  11  12
ENDBRANCH  10  11
ENDBRANCH   9  10
ENDBRANCH   8   9
ENDBRANCH   7   8
ENDBRANCH   6   7
ENDBRANCH   5   6
ENDBRANCH   4   5
ENDBRANCH   3   4
ENDBRANCH   2   3
ENDBRANCH   1   2
BRANCH   1  15
ATOM     15  C   UNL     1     -48.695   9.197 -33.421  1.00  0.00     0.000 C 
BRANCH  15  16
ATOM     16  C   UNL     1     -50.070   9.635 -32.874  1.00  0.00     0.000 C 
BRANCH  16  17
ATOM     17  C   UNL     1     -49.984  10.552 -31.640  1.00  0.00     0.000 C 
BRANCH  17  18
ATOM     18  C   UNL     1     -51.307  11.271 -31.333  1.00  0.00    -0.000 C 
BRANCH  18  19
ATOM     19  C   UNL     1     -51.399  11.755 -29.878  1.00  0.00    -0.000 C 
BRANCH  19  20
ATOM     20  C   UNL     1     -52.795  11.539 -29.266  1.00  0.00    -0.000 C 
BRANCH  20  21
ATOM     21  C   UNL     1     -53.407  12.839 -28.719  1.00  0.00    -0.000 C 
BRANCH  21  22
ATOM     22  C   UNL     1     -52.390  13.992 -28.653  1.00  0.00    -0.000 C 
BRANCH  22  23
ATOM     23  C   UNL     1     -53.020  15.353 -28.991  1.00  0.00    -0.000 C 
BRANCH  23  24
ATOM     24  C   UNL     1     -52.235  16.119 -30.072  1.00  0.00    -0.000 C 
BRANCH  24  25
ATOM     25  C   UNL     1     -51.839  15.223 -31.254  1.00  0.00    -0.003 C 
ATOM     26  C   UNL     1     -50.340  15.271 -31.555  1.00  0.00     0.004 C 
ENDBRANCH  24  25
ENDBRANCH  23  24
ENDBRANCH  22  23
ENDBRANCH  21  22
ENDBRANCH  20  21
ENDBRANCH  19  20
ENDBRANCH  18  19
ENDBRANCH  17  18
ENDBRANCH  16  17
ENDBRANCH  15  16
ENDBRANCH   1  15
TORSDOF 22
ENDMDL
MODEL 9
REMARK VINA RESULT:    -4.193     14.566     16.854
REMARK INTER + INTRA:         -13.075
REMARK INTER:                  -9.973
REMARK INTRA:                  -3.102
REMARK UNBOUND:                -3.490
REMARK SMILES CCCCCCCCCCCCCCCCCCCCCCCC(=O)[O-]
REMARK SMILES IDX 13 1 14 2 15 3 16 4 17 5 18 6 19 7 20 8 21 9 22 10 23 11
REMARK SMILES IDX 24 12 25 13 26 14 12 15 11 16 10 17 9 18 8 19 7 20 6 21 5 22
REMARK SMILES IDX 4 23 3 24 2 25 1 26
REMARK H PARENT
REMARK Flexibility Score: inf
ROOT
ATOM      1  C   UNL     1     -50.754  12.245 -30.853  1.00  0.00     0.000 C 
ENDROOT
BRANCH   1   2
ATOM      2  C   UNL     1     -51.329  12.676 -29.490  1.00  0.00     0.000 C 
BRANCH   2   3
ATOM      3  C   UNL     1     -52.661  11.990 -29.133  1.00  0.00     0.000 C 
BRANCH   3   4
ATOM      4  C   UNL     1     -53.773  12.984 -28.758  1.00  0.00     0.000 C 
BRANCH   4   5
ATOM      5  C   UNL     1     -53.235  14.248 -28.052  1.00  0.00     0.000 C 
BRANCH   5   6
ATOM      6  C   UNL     1     -54.021  15.534 -28.379  1.00  0.00     0.000 C 
BRANCH   6   7
ATOM      7  C   UNL     1     -53.630  16.775 -27.555  1.00  0.00     0.000 C 
BRANCH   7   8
ATOM      8  C   UNL     1     -52.957  17.907 -28.355  1.00  0.00     0.000 C 
BRANCH   8   9
ATOM      9  C   UNL     1     -53.646  18.182 -29.703  1.00  0.00     0.000 C 
BRANCH   9  10
ATOM     10  C   UNL     1     -52.646  18.232 -30.870  1.00  0.00     0.006 C 
BRANCH  10  11
ATOM     11  C   UNL     1     -51.354  17.461 -30.568  1.00  0.00     0.053 C 
BRANCH  11  12
ATOM     12  C   UNL     1     -51.352  16.145 -31.280  1.00  0.00     0.041 C 
ATOM     13  O   UNL     1     -52.406  15.458 -31.349  1.00  0.00    -0.550 OA
ATOM     14  O   UNL     1     -50.175  15.657 -31.835  1.00  0.00    -0.550 OA
ENDBRANCH  11  12
ENDBRANCH  10  11
ENDBRANCH   9  10
ENDBRANCH   8   9
ENDBRANCH   7   8
ENDBRANCH   6   7
ENDBRANCH   5   6
ENDBRANCH   4   5
ENDBRANCH   3   4
ENDBRANCH   2   3
ENDBRANCH   1   2
BRANCH   1  15
ATOM     15  C   UNL     1     -51.831  11.688 -31.802  1.00  0.00     0.000 C 
BRANCH  15  16
ATOM     16  C   UNL     1     -51.353  10.430 -32.559  1.00  0.00     0.000 C 
BRANCH  16  17
ATOM     17  C   UNL     1     -52.429   9.339 -32.693  1.00  0.00     0.000 C 
BRANCH  17  18
ATOM     18  C   UNL     1     -52.262   8.203 -31.671  1.00  0.00    -0.000 C 
BRANCH  18  19
ATOM     19  C   UNL     1     -51.986   6.843 -32.331  1.00  0.00    -0.000 C 
BRANCH  19  20
ATOM     20  C   UNL     1     -50.807   6.892 -33.321  1.00  0.00    -0.000 C 
BRANCH  20  21
ATOM     21  C   UNL     1     -49.542   6.220 -32.764  1.00  0.00    -0.000 C 
BRANCH  21  22
ATOM     22  C   UNL     1     -48.254   6.975 -33.138  1.00  0.00    -0.000 C 
BRANCH  22  23
ATOM     23  C   UNL     1     -48.324   8.469 -32.784  1.00  0.00    -0.000 C 
BRANCH  23  24
ATOM     24  C   UNL     1     -47.484   8.824 -31.542  1.00  0.00    -0.000 C 
BRANCH  24  25
ATOM     25  C   UNL     1     -48.332   9.427 -30.413  1.00  0.00    -0.003 C 
ATOM     26  C   UNL     1     -49.267   8.404 -29.767  1.00  0.00     0.004 C 
ENDBRANCH  24  25
ENDBRANCH  23  24
ENDBRANCH  22  23
ENDBRANCH  21  22
ENDBRANCH  20  21
ENDBRANCH  19  20
ENDBRANCH  18  19
ENDBRANCH  17  18
ENDBRANCH  16  17
ENDBRANCH  15  16
ENDBRANCH   1  15
TORSDOF 22
ENDMDL
