MODEL 1
REMARK VINA RESULT:    -3.810      0.000      0.000
REMARK INTER + INTRA:          -9.102
REMARK INTER:                  -6.928
REMARK INTRA:                  -2.174
REMARK UNBOUND:                -2.174
REMARK SMILES CCCCCCCCCCCCCCCC(=O)[O-]
REMARK SMILES IDX 9 1 10 2 11 3 12 4 13 5 14 6 15 7 16 8 17 9 18 10 8 11 7 12
REMARK SMILES IDX 6 13 5 14 4 15 3 16 2 17 1 18
REMARK H PARENT
REMARK Flexibility Score: inf
ROOT
ATOM      1  C   UNL     1       1.473   7.298  -8.660  1.00  0.00     0.000 C 
ENDROOT
BRANCH   1   2
ATOM      2  C   UNL     1       0.467   8.207  -7.922  1.00  0.00     0.000 C 
BRANCH   2   3
ATOM      3  C   UNL     1      -0.978   8.087  -8.446  1.00  0.00     0.000 C 
BRANCH   3   4
ATOM      4  C   UNL     1      -1.251   6.846  -9.311  1.00  0.00     0.000 C 
BRANCH   4   5
ATOM      5  C   UNL     1      -2.267   7.115 -10.432  1.00  0.00     0.000 C 
BRANCH   5   6
ATOM      6  C   UNL     1      -2.803   8.552 -10.351  1.00  0.00     0.006 C 
BRANCH   6   7
ATOM      7  C   UNL     1      -4.218   8.678 -10.929  1.00  0.00     0.053 C 
BRANCH   7   8
ATOM      8  C   UNL     1      -4.825  10.014 -10.625  1.00  0.00     0.041 C 
ATOM      9  O   UNL     1      -6.073  10.166 -10.654  1.00  0.00    -0.550 OA
ATOM     10  O   UNL     1      -4.009  11.083 -10.277  1.00  0.00    -0.550 OA
ENDBRANCH   7   8
ENDBRANCH   6   7
ENDBRANCH   5   6
ENDBRANCH   4   5
ENDBRANCH   3   4
ENDBRANCH   2   3
ENDBRANCH   1   2
BRANCH   1  11
ATOM     11  C   UNL     1       2.299   8.071  -9.703  1.00  0.00     0.000 C 
BRANCH  11  12
ATOM     12  C   UNL     1       1.891   7.737 -11.146  1.00  0.00    -0.000 C 
BRANCH  12  13
ATOM     13  C   UNL     1       1.596   8.995 -11.981  1.00  0.00    -0.000 C 
BRANCH  13  14
ATOM     14  C   UNL     1       0.438   9.825 -11.406  1.00  0.00    -0.000 C 
BRANCH  14  15
ATOM     15  C   UNL     1       0.866  11.252 -11.026  1.00  0.00    -0.000 C 
BRANCH  15  16
ATOM     16  C   UNL     1       2.381  11.480 -11.166  1.00  0.00    -0.000 C 
BRANCH  16  17
ATOM     17  C   UNL     1       3.024  12.132  -9.924  1.00  0.00    -0.003 C 
ATOM     18  C   UNL     1       2.423  11.616  -8.617  1.00  0.00     0.004 C 
ENDBRANCH  16  17
ENDBRANCH  15  16
ENDBRANCH  14  15
ENDBRANCH  13  14
ENDBRANCH  12  13
ENDBRANCH  11  12
ENDBRANCH   1  11
TORSDOF 14
ENDMDL
MODEL 2
REMARK VINA RESULT:    -3.694      1.324      2.180
REMARK INTER + INTRA:          -8.891
REMARK INTER:                  -6.943
REMARK INTRA:                  -1.948
REMARK UNBOUND:                -2.174
REMARK SMILES CCCCCCCCCCCCCCCC(=O)[O-]
REMARK SMILES IDX 9 1 10 2 11 3 12 4 13 5 14 6 15 7 16 8 17 9 18 10 8 11 7 12
REMARK SMILES IDX 6 13 5 14 4 15 3 16 2 17 1 18
REMARK H PARENT
REMARK Flexibility Score: inf
ROOT
ATOM      1  C   UNL     1       0.214   6.845  -8.765  1.00  0.00     0.000 C 
ENDROOT
BRANCH   1   2
ATOM      2  C   UNL     1      -1.039   7.747  -8.781  1.00  0.00     0.000 C 
BRANCH   2   3
ATOM      3  C   UNL     1      -2.252   7.111  -9.490  1.00  0.00     0.000 C 
BRANCH   3   4
ATOM      4  C   UNL     1      -2.116   6.986 -11.016  1.00  0.00     0.000 C 
BRANCH   4   5
ATOM      5  C   UNL     1      -3.393   7.401 -11.763  1.00  0.00     0.000 C 
BRANCH   5   6
ATOM      6  C   UNL     1      -4.119   8.530 -11.017  1.00  0.00     0.006 C 
BRANCH   6   7
ATOM      7  C   UNL     1      -4.732   9.560 -11.974  1.00  0.00     0.053 C 
BRANCH   7   8
ATOM      8  C   UNL     1      -5.502  10.613 -11.238  1.00  0.00     0.041 C 
ATOM      9  O   UNL     1      -6.578  10.322 -10.655  1.00  0.00    -0.550 OA
ATOM     10  O   UNL     1      -5.012  11.911 -11.170  1.00  0.00    -0.550 OA
ENDBRANCH   7   8
ENDBRANCH   6   7
ENDBRANCH   5   6
ENDBRANCH   4   5
ENDBRANCH   3   4
ENDBRANCH   2   3
ENDBRANCH   1   2
BRANCH   1  11
ATOM     11  C   UNL     1       1.480   7.616  -8.353  1.00  0.00     0.000 C 
BRANCH  11  12
ATOM     12  C   UNL     1       2.249   8.177  -9.559  1.00  0.00    -0.000 C 
BRANCH  12  13
ATOM     13  C   UNL     1       1.827   7.519 -10.884  1.00  0.00    -0.000 C 
BRANCH  13  14
ATOM     14  C   UNL     1       1.477   8.549 -11.968  1.00  0.00    -0.000 C 
BRANCH  14  15
ATOM     15  C   UNL     1       2.007   9.955 -11.640  1.00  0.00    -0.000 C 
BRANCH  15  16
ATOM     16  C   UNL     1       0.890  10.946 -11.276  1.00  0.00    -0.000 C 
BRANCH  16  17
ATOM     17  C   UNL     1      -0.524  10.331 -11.331  1.00  0.00    -0.003 C 
ATOM     18  C   UNL     1      -1.584  11.341 -11.771  1.00  0.00     0.004 C 
ENDBRANCH  16  17
ENDBRANCH  15  16
ENDBRANCH  14  15
ENDBRANCH  13  14
ENDBRANCH  12  13
ENDBRANCH  11  12
ENDBRANCH   1  11
TORSDOF 14
ENDMDL
MODEL 3
REMARK VINA RESULT:    -3.648      2.986      5.692
REMARK INTER + INTRA:          -8.807
REMARK INTER:                  -6.721
REMARK INTRA:                  -2.086
REMARK UNBOUND:                -2.174
REMARK SMILES CCCCCCCCCCCCCCCC(=O)[O-]
REMARK SMILES IDX 9 1 10 2 11 3 12 4 13 5 14 6 15 7 16 8 17 9 18 10 8 11 7 12
REMARK SMILES IDX 6 13 5 14 4 15 3 16 2 17 1 18
REMARK H PARENT
REMARK Flexibility Score: inf
ROOT
ATOM      1  C   UNL     1       1.532   7.347  -8.555  1.00  0.00     0.000 C 
ENDROOT
BRANCH   1   2
ATOM      2  C   UNL     1       2.311   8.120  -9.640  1.00  0.00     0.000 C 
BRANCH   2   3
ATOM      3  C   UNL     1       1.969   7.685 -11.079  1.00  0.00     0.000 C 
BRANCH   3   4
ATOM      4  C   UNL     1       1.470   8.815 -11.994  1.00  0.00     0.000 C 
BRANCH   4   5
ATOM      5  C   UNL     1       0.668   9.884 -11.236  1.00  0.00     0.000 C 
BRANCH   5   6
ATOM      6  C   UNL     1       1.203  11.290 -11.547  1.00  0.00     0.006 C 
BRANCH   6   7
ATOM      7  C   UNL     1       1.576  12.064 -10.276  1.00  0.00     0.053 C 
BRANCH   7   8
ATOM      8  C   UNL     1       2.963  11.737  -9.814  1.00  0.00     0.041 C 
ATOM      9  O   UNL     1       3.806  11.266 -10.620  1.00  0.00    -0.550 OA
ATOM     10  O   UNL     1       3.332  11.984  -8.498  1.00  0.00    -0.550 OA
ENDBRANCH   7   8
ENDBRANCH   6   7
ENDBRANCH   5   6
ENDBRANCH   4   5
ENDBRANCH   3   4
ENDBRANCH   2   3
ENDBRANCH   1   2
BRANCH   1  11
ATOM     11  C   UNL     1       0.496   8.233  -7.840  1.00  0.00     0.000 C 
BRANCH  11  12
ATOM     12  C   UNL     1      -0.931   8.015  -8.366  1.00  0.00    -0.000 C 
BRANCH  12  13
ATOM     13  C   UNL     1      -1.050   6.755  -9.242  1.00  0.00    -0.000 C 
BRANCH  13  14
ATOM     14  C   UNL     1      -1.936   6.979 -10.477  1.00  0.00    -0.000 C 
BRANCH  14  15
ATOM     15  C   UNL     1      -2.608   8.361 -10.479  1.00  0.00    -0.000 C 
BRANCH  15  16
ATOM     16  C   UNL     1      -3.978   8.359 -11.177  1.00  0.00    -0.000 C 
BRANCH  16  17
ATOM     17  C   UNL     1      -4.354   9.719 -11.802  1.00  0.00    -0.003 C 
ATOM     18  C   UNL     1      -3.156  10.663 -11.911  1.00  0.00     0.004 C 
ENDBRANCH  16  17
ENDBRANCH  15  16
ENDBRANCH  14  15
ENDBRANCH  13  14
ENDBRANCH  12  13
ENDBRANCH  11  12
ENDBRANCH   1  11
TORSDOF 14
ENDMDL
MODEL 4
REMARK VINA RESULT:    -3.607      0.915      2.494
REMARK INTER + INTRA:          -8.733
REMARK INTER:                  -6.897
REMARK INTRA:                  -1.836
REMARK UNBOUND:                -2.174
REMARK SMILES CCCCCCCCCCCCCCCC(=O)[O-]
REMARK SMILES IDX 9 1 10 2 11 3 12 4 13 5 14 6 15 7 16 8 17 9 18 10 8 11 7 12
REMARK SMILES IDX 6 13 5 14 4 15 3 16 2 17 1 18
REMARK H PARENT
REMARK Flexibility Score: inf
ROOT
ATOM      1  C   UNL     1      -0.994   8.137  -8.541  1.00  0.00     0.000 C 
ENDROOT
BRANCH   1   2
ATOM      2  C   UNL     1      -1.204   6.800  -9.284  1.00  0.00     0.000 C 
BRANCH   2   3
ATOM      3  C   UNL     1      -2.108   6.916 -10.527  1.00  0.00     0.000 C 
BRANCH   3   4
ATOM      4  C   UNL     1      -2.570   8.344 -10.860  1.00  0.00     0.000 C 
BRANCH   4   5
ATOM      5  C   UNL     1      -4.097   8.502 -10.812  1.00  0.00     0.000 C 
BRANCH   5   6
ATOM      6  C   UNL     1      -4.627   9.098 -12.124  1.00  0.00     0.006 C 
BRANCH   6   7
ATOM      7  C   UNL     1      -4.743  10.627 -12.063  1.00  0.00     0.053 C 
BRANCH   7   8
ATOM      8  C   UNL     1      -5.643  11.071 -10.951  1.00  0.00     0.041 C 
ATOM      9  O   UNL     1      -5.231  11.890 -10.089  1.00  0.00    -0.550 OA
ATOM     10  O   UNL     1      -6.950  10.604 -10.887  1.00  0.00    -0.550 OA
ENDBRANCH   7   8
ENDBRANCH   6   7
ENDBRANCH   5   6
ENDBRANCH   4   5
ENDBRANCH   3   4
ENDBRANCH   2   3
ENDBRANCH   1   2
BRANCH   1  11
ATOM     11  C   UNL     1       0.411   8.246  -7.925  1.00  0.00     0.000 C 
BRANCH  11  12
ATOM     12  C   UNL     1       1.423   7.298  -8.588  1.00  0.00    -0.000 C 
BRANCH  12  13
ATOM     13  C   UNL     1       2.428   8.043  -9.484  1.00  0.00    -0.000 C 
BRANCH  13  14
ATOM     14  C   UNL     1       2.231   7.733 -10.975  1.00  0.00    -0.000 C 
BRANCH  14  15
ATOM     15  C   UNL     1       1.062   8.518 -11.592  1.00  0.00    -0.000 C 
BRANCH  15  16
ATOM     16  C   UNL     1       1.432   9.971 -11.935  1.00  0.00    -0.000 C 
BRANCH  16  17
ATOM     17  C   UNL     1       0.668  11.016 -11.096  1.00  0.00    -0.003 C 
ATOM     18  C   UNL     1       1.602  11.878 -10.246  1.00  0.00     0.004 C 
ENDBRANCH  16  17
ENDBRANCH  15  16
ENDBRANCH  14  15
ENDBRANCH  13  14
ENDBRANCH  12  13
ENDBRANCH  11  12
ENDBRANCH   1  11
TORSDOF 14
ENDMDL
MODEL 5
REMARK VINA RESULT:    -3.385     15.031     16.136
REMARK INTER + INTRA:          -8.330
REMARK INTER:                  -7.572
REMARK INTRA:                  -0.758
REMARK UNBOUND:                -2.174
REMARK SMILES CCCCCCCCCCCCCCCC(=O)[O-]
REMARK SMILES IDX 9 1 10 2 11 3 12 4 13 5 14 6 15 7 16 8 17 9 18 10 8 11 7 12
REMARK SMILES IDX 6 13 5 14 4 15 3 16 2 17 1 18
REMARK H PARENT
REMARK Flexibility Score: inf
ROOT
ATOM      1  C   UNL     1      -0.390  11.426   4.573  1.00  0.00     0.000 C 
ENDROOT
BRANCH   1   2
ATOM      2  C   UNL     1      -1.699  10.962   5.248  1.00  0.00     0.000 C 
BRANCH   2   3
ATOM      3  C   UNL     1      -2.788  12.053   5.302  1.00  0.00     0.000 C 
BRANCH   3   4
ATOM      4  C   UNL     1      -4.232  11.524   5.303  1.00  0.00     0.000 C 
BRANCH   4   5
ATOM      5  C   UNL     1      -4.339  10.086   4.772  1.00  0.00     0.000 C 
BRANCH   5   6
ATOM      6  C   UNL     1      -5.119   9.199   5.753  1.00  0.00     0.006 C 
BRANCH   6   7
ATOM      7  C   UNL     1      -6.428   8.674   5.149  1.00  0.00     0.053 C 
BRANCH   7   8
ATOM      8  C   UNL     1      -6.456   7.177   5.099  1.00  0.00     0.041 C 
ATOM      9  O   UNL     1      -6.621   6.582   4.002  1.00  0.00    -0.550 OA
ATOM     10  O   UNL     1      -6.267   6.440   6.260  1.00  0.00    -0.550 OA
ENDBRANCH   7   8
ENDBRANCH   6   7
ENDBRANCH   5   6
ENDBRANCH   4   5
ENDBRANCH   3   4
ENDBRANCH   2   3
ENDBRANCH   1   2
BRANCH   1  11
ATOM     11  C   UNL     1      -0.438  12.909   4.168  1.00  0.00     0.000 C 
BRANCH  11  12
ATOM     12  C   UNL     1       0.500  13.784   5.014  1.00  0.00    -0.000 C 
BRANCH  12  13
ATOM     13  C   UNL     1       1.452  12.950   5.890  1.00  0.00    -0.000 C 
BRANCH  13  14
ATOM     14  C   UNL     1       2.909  13.022   5.409  1.00  0.00    -0.000 C 
BRANCH  14  15
ATOM     15  C   UNL     1       3.912  13.085   6.572  1.00  0.00    -0.000 C 
BRANCH  15  16
ATOM     16  C   UNL     1       4.712  11.782   6.744  1.00  0.00    -0.000 C 
BRANCH  16  17
ATOM     17  C   UNL     1       6.092  11.810   6.054  1.00  0.00    -0.003 C 
ATOM     18  C   UNL     1       6.595  10.410   5.700  1.00  0.00     0.004 C 
ENDBRANCH  16  17
ENDBRANCH  15  16
ENDBRANCH  14  15
ENDBRANCH  13  14
ENDBRANCH  12  13
ENDBRANCH  11  12
ENDBRANCH   1  11
TORSDOF 14
ENDMDL
MODEL 6
REMARK VINA RESULT:    -3.321     15.037     16.187
REMARK INTER + INTRA:          -8.213
REMARK INTER:                  -7.543
REMARK INTRA:                  -0.670
REMARK UNBOUND:                -2.174
REMARK SMILES CCCCCCCCCCCCCCCC(=O)[O-]
REMARK SMILES IDX 9 1 10 2 11 3 12 4 13 5 14 6 15 7 16 8 17 9 18 10 8 11 7 12
REMARK SMILES IDX 6 13 5 14 4 15 3 16 2 17 1 18
REMARK H PARENT
REMARK Flexibility Score: inf
ROOT
ATOM      1  C   UNL     1      -0.371  11.866   4.410  1.00  0.00     0.000 C 
ENDROOT
BRANCH   1   2
ATOM      2  C   UNL     1      -1.435  11.403   5.428  1.00  0.00     0.000 C 
BRANCH   2   3
ATOM      3  C   UNL     1      -1.940   9.966   5.187  1.00  0.00     0.000 C 
BRANCH   3   4
ATOM      4  C   UNL     1      -3.320   9.656   5.789  1.00  0.00     0.000 C 
BRANCH   4   5
ATOM      5  C   UNL     1      -4.473   9.957   4.820  1.00  0.00     0.000 C 
BRANCH   5   6
ATOM      6  C   UNL     1      -5.737   9.179   5.216  1.00  0.00     0.006 C 
BRANCH   6   7
ATOM      7  C   UNL     1      -5.409   7.809   5.822  1.00  0.00     0.053 C 
BRANCH   7   8
ATOM      8  C   UNL     1      -6.378   6.757   5.374  1.00  0.00     0.041 C 
ATOM      9  O   UNL     1      -6.978   6.045   6.220  1.00  0.00    -0.550 OA
ATOM     10  O   UNL     1      -6.641   6.588   4.021  1.00  0.00    -0.550 OA
ENDBRANCH   7   8
ENDBRANCH   6   7
ENDBRANCH   5   6
ENDBRANCH   4   5
ENDBRANCH   3   4
ENDBRANCH   2   3
ENDBRANCH   1   2
BRANCH   1  11
ATOM     11  C   UNL     1       0.180  13.265   4.740  1.00  0.00     0.000 C 
BRANCH  11  12
ATOM     12  C   UNL     1       1.659  13.423   4.358  1.00  0.00    -0.000 C 
BRANCH  12  13
ATOM     13  C   UNL     1       2.567  13.618   5.585  1.00  0.00    -0.000 C 
BRANCH  13  14
ATOM     14  C   UNL     1       2.471  12.451   6.579  1.00  0.00    -0.000 C 
BRANCH  14  15
ATOM     15  C   UNL     1       3.813  11.726   6.772  1.00  0.00    -0.000 C 
BRANCH  15  16
ATOM     16  C   UNL     1       5.004  12.511   6.198  1.00  0.00    -0.000 C 
BRANCH  16  17
ATOM     17  C   UNL     1       6.370  11.848   6.476  1.00  0.00    -0.003 C 
ATOM     18  C   UNL     1       6.570  10.564   5.670  1.00  0.00     0.004 C 
ENDBRANCH  16  17
ENDBRANCH  15  16
ENDBRANCH  14  15
ENDBRANCH  13  14
ENDBRANCH  12  13
ENDBRANCH  11  12
ENDBRANCH   1  11
TORSDOF 14
ENDMDL
MODEL 7
REMARK VINA RESULT:    -3.296     15.466     17.609
REMARK INTER + INTRA:          -8.167
REMARK INTER:                  -6.851
REMARK INTRA:                  -1.316
REMARK UNBOUND:                -2.174
REMARK SMILES CCCCCCCCCCCCCCCC(=O)[O-]
REMARK SMILES IDX 9 1 10 2 11 3 12 4 13 5 14 6 15 7 16 8 17 9 18 10 8 11 7 12
REMARK SMILES IDX 6 13 5 14 4 15 3 16 2 17 1 18
REMARK H PARENT
REMARK Flexibility Score: inf
ROOT
ATOM      1  C   UNL     1      -0.120  12.087   4.570  1.00  0.00     0.000 C 
ENDROOT
BRANCH   1   2
ATOM      2  C   UNL     1       1.164  12.375   5.376  1.00  0.00     0.000 C 
BRANCH   2   3
ATOM      3  C   UNL     1       2.069  13.448   4.739  1.00  0.00     0.000 C 
BRANCH   3   4
ATOM      4  C   UNL     1       3.386  13.711   5.488  1.00  0.00     0.000 C 
BRANCH   4   5
ATOM      5  C   UNL     1       3.325  13.288   6.964  1.00  0.00     0.000 C 
BRANCH   5   6
ATOM      6  C   UNL     1       4.611  12.558   7.377  1.00  0.00     0.006 C 
BRANCH   6   7
ATOM      7  C   UNL     1       5.540  12.297   6.183  1.00  0.00     0.053 C 
BRANCH   7   8
ATOM      8  C   UNL     1       5.881  10.844   6.053  1.00  0.00     0.041 C 
ATOM      9  O   UNL     1       5.023   9.964   6.324  1.00  0.00    -0.550 OA
ATOM     10  O   UNL     1       7.138  10.464   5.601  1.00  0.00    -0.550 OA
ENDBRANCH   7   8
ENDBRANCH   6   7
ENDBRANCH   5   6
ENDBRANCH   4   5
ENDBRANCH   3   4
ENDBRANCH   2   3
ENDBRANCH   1   2
BRANCH   1  11
ATOM     11  C   UNL     1      -0.718  13.363   3.954  1.00  0.00     0.000 C 
BRANCH  11  12
ATOM     12  C   UNL     1      -1.804  13.994   4.839  1.00  0.00    -0.000 C 
BRANCH  12  13
ATOM     13  C   UNL     1      -3.049  13.099   4.973  1.00  0.00    -0.000 C 
BRANCH  13  14
ATOM     14  C   UNL     1      -3.295  12.646   6.419  1.00  0.00    -0.000 C 
BRANCH  14  15
ATOM     15  C   UNL     1      -3.204  11.120   6.584  1.00  0.00    -0.000 C 
BRANCH  15  16
ATOM     16  C   UNL     1      -3.362  10.364   5.255  1.00  0.00    -0.000 C 
BRANCH  16  17
ATOM     17  C   UNL     1      -4.754   9.723   5.072  1.00  0.00    -0.003 C 
ATOM     18  C   UNL     1      -5.629  10.499   4.087  1.00  0.00     0.004 C 
ENDBRANCH  16  17
ENDBRANCH  15  16
ENDBRANCH  14  15
ENDBRANCH  13  14
ENDBRANCH  12  13
ENDBRANCH  11  12
ENDBRANCH   1  11
TORSDOF 14
ENDMDL
MODEL 8
REMARK VINA RESULT:    -3.246      1.290      3.879
REMARK INTER + INTRA:          -8.077
REMARK INTER:                  -6.419
REMARK INTRA:                  -1.657
REMARK UNBOUND:                -2.174
REMARK SMILES CCCCCCCCCCCCCCCC(=O)[O-]
REMARK SMILES IDX 9 1 10 2 11 3 12 4 13 5 14 6 15 7 16 8 17 9 18 10 8 11 7 12
REMARK SMILES IDX 6 13 5 14 4 15 3 16 2 17 1 18
REMARK H PARENT
REMARK Flexibility Score: inf
ROOT
ATOM      1  C   UNL     1       2.511  11.138 -10.452  1.00  0.00     0.000 C 
ENDROOT
BRANCH   1   2
ATOM      2  C   UNL     1       1.187  11.862 -10.775  1.00  0.00     0.000 C 
BRANCH   2   3
ATOM      3  C   UNL     1       0.339  11.153 -11.851  1.00  0.00     0.000 C 
BRANCH   3   4
ATOM      4  C   UNL     1      -0.852  10.348 -11.308  1.00  0.00     0.000 C 
BRANCH   4   5
ATOM      5  C   UNL     1      -2.190  11.088 -11.463  1.00  0.00     0.000 C 
BRANCH   5   6
ATOM      6  C   UNL     1      -3.299  10.123 -11.908  1.00  0.00     0.006 C 
BRANCH   6   7
ATOM      7  C   UNL     1      -4.360   9.915 -10.819  1.00  0.00     0.053 C 
BRANCH   7   8
ATOM      8  C   UNL     1      -5.588  10.734 -11.077  1.00  0.00     0.041 C 
ATOM      9  O   UNL     1      -5.807  11.777 -10.407  1.00  0.00    -0.550 OA
ATOM     10  O   UNL     1      -6.474  10.361 -12.079  1.00  0.00    -0.550 OA
ENDBRANCH   7   8
ENDBRANCH   6   7
ENDBRANCH   5   6
ENDBRANCH   4   5
ENDBRANCH   3   4
ENDBRANCH   2   3
ENDBRANCH   1   2
BRANCH   1  11
ATOM     11  C   UNL     1       2.969  10.223 -11.601  1.00  0.00     0.000 C 
BRANCH  11  12
ATOM     12  C   UNL     1       3.257   8.788 -11.135  1.00  0.00    -0.000 C 
BRANCH  12  13
ATOM     13  C   UNL     1       1.977   8.028 -10.744  1.00  0.00    -0.000 C 
BRANCH  13  14
ATOM     14  C   UNL     1       1.903   7.737  -9.238  1.00  0.00    -0.000 C 
BRANCH  14  15
ATOM     15  C   UNL     1       0.885   8.632  -8.513  1.00  0.00    -0.000 C 
BRANCH  15  16
ATOM     16  C   UNL     1      -0.419   7.895  -8.165  1.00  0.00    -0.000 C 
BRANCH  16  17
ATOM     17  C   UNL     1      -0.795   6.793  -9.177  1.00  0.00    -0.003 C 
ATOM     18  C   UNL     1      -1.996   7.180 -10.041  1.00  0.00     0.004 C 
ENDBRANCH  16  17
ENDBRANCH  15  16
ENDBRANCH  14  15
ENDBRANCH  13  14
ENDBRANCH  12  13
ENDBRANCH  11  12
ENDBRANCH   1  11
TORSDOF 14
ENDMDL
MODEL 9
REMARK VINA RESULT:    -3.130     10.079     12.457
REMARK INTER + INTRA:          -7.865
REMARK INTER:                  -5.679
REMARK INTRA:                  -2.186
REMARK UNBOUND:                -2.174
REMARK SMILES CCCCCCCCCCCCCCCC(=O)[O-]
REMARK SMILES IDX 9 1 10 2 11 3 12 4 13 5 14 6 15 7 16 8 17 9 18 10 8 11 7 12
REMARK SMILES IDX 6 13 5 14 4 15 3 16 2 17 1 18
REMARK H PARENT
REMARK Flexibility Score: inf
ROOT
ATOM      1  C   UNL     1       7.657  12.452  -4.590  1.00  0.00     0.000 C 
ENDROOT
BRANCH   1   2
ATOM      2  C   UNL     1       8.434  13.673  -4.054  1.00  0.00     0.000 C 
BRANCH   2   3
ATOM      3  C   UNL     1       9.924  13.388  -3.779  1.00  0.00     0.000 C 
BRANCH   3   4
ATOM      4  C   UNL     1      10.878  13.776  -4.920  1.00  0.00     0.000 C 
BRANCH   4   5
ATOM      5  C   UNL     1      11.760  12.606  -5.383  1.00  0.00     0.000 C 
BRANCH   5   6
ATOM      6  C   UNL     1      11.482  11.349  -4.546  1.00  0.00     0.006 C 
BRANCH   6   7
ATOM      7  C   UNL     1      11.668  10.059  -5.356  1.00  0.00     0.053 C 
BRANCH   7   8
ATOM      8  C   UNL     1      10.601   9.052  -5.049  1.00  0.00     0.041 C 
ATOM      9  O   UNL     1       9.386   9.363  -5.156  1.00  0.00    -0.550 OA
ATOM     10  O   UNL     1      10.952   7.761  -4.677  1.00  0.00    -0.550 OA
ENDBRANCH   7   8
ENDBRANCH   6   7
ENDBRANCH   5   6
ENDBRANCH   4   5
ENDBRANCH   3   4
ENDBRANCH   2   3
ENDBRANCH   1   2
BRANCH   1  11
ATOM     11  C   UNL     1       6.648  12.840  -5.685  1.00  0.00     0.000 C 
BRANCH  11  12
ATOM     12  C   UNL     1       7.282  12.884  -7.085  1.00  0.00    -0.000 C 
BRANCH  12  13
ATOM     13  C   UNL     1       8.464  11.908  -7.227  1.00  0.00    -0.000 C 
BRANCH  13  14
ATOM     14  C   UNL     1       9.524  12.408  -8.220  1.00  0.00    -0.000 C 
BRANCH  14  15
ATOM     15  C   UNL     1      10.440  11.281  -8.723  1.00  0.00    -0.000 C 
BRANCH  15  16
ATOM     16  C   UNL     1       9.685   9.969  -8.989  1.00  0.00    -0.000 C 
BRANCH  16  17
ATOM     17  C   UNL     1      10.525   8.705  -8.711  1.00  0.00    -0.003 C 
ATOM     18  C   UNL     1      11.721   8.580  -9.656  1.00  0.00     0.004 C 
ENDBRANCH  16  17
ENDBRANCH  15  16
ENDBRANCH  14  15
ENDBRANCH  13  14
ENDBRANCH  12  13
ENDBRANCH  11  12
ENDBRANCH   1  11
TORSDOF 14
ENDMDL
