MODEL 1
REMARK VINA RESULT:     9.295      0.000      0.000
REMARK INTER + INTRA:          16.185
REMARK INTER:                  16.902
REMARK INTRA:                  -0.717
REMARK UNBOUND:                -0.717
REMARK SMILES CCCCCCCCCCCCCCCC(=O)[O-]
REMARK SMILES IDX 9 1 10 2 11 3 12 4 13 5 14 6 15 7 16 8 17 9 18 10 8 11 7 12
REMARK SMILES IDX 6 13 5 14 4 15 3 16 2 17 1 18
REMARK H PARENT
REMARK Flexibility Score: inf
ROOT
ATOM      1  C   UNL     1       6.984  40.777  13.765  1.00  0.00     0.000 C 
ENDROOT
BRANCH   1   2
ATOM      2  C   UNL     1       7.625  41.199  12.426  1.00  0.00     0.000 C 
BRANCH   2   3
ATOM      3  C   UNL     1       6.669  41.212  11.220  1.00  0.00     0.000 C 
BRANCH   3   4
ATOM      4  C   UNL     1       6.935  42.383  10.261  1.00  0.00     0.000 C 
BRANCH   4   5
ATOM      5  C   UNL     1       5.817  42.503   9.219  1.00  0.00     0.000 C 
BRANCH   5   6
ATOM      6  C   UNL     1       6.394  42.677   7.810  1.00  0.00     0.006 C 
BRANCH   6   7
ATOM      7  C   UNL     1       7.888  42.342   7.783  1.00  0.00     0.053 C 
BRANCH   7   8
ATOM      8  C   UNL     1       8.387  42.287   6.373  1.00  0.00     0.041 C 
ATOM      9  O   UNL     1       9.167  43.176   5.942  1.00  0.00    -0.550 OA
ATOM     10  O   UNL     1       8.031  41.225   5.551  1.00  0.00    -0.550 OA
ENDBRANCH   7   8
ENDBRANCH   6   7
ENDBRANCH   5   6
ENDBRANCH   4   5
ENDBRANCH   3   4
ENDBRANCH   2   3
ENDBRANCH   1   2
BRANCH   1  11
ATOM     11  C   UNL     1       7.840  41.045  15.015  1.00  0.00     0.000 C 
BRANCH  11  12
ATOM     12  C   UNL     1       8.826  39.908  15.320  1.00  0.00    -0.000 C 
BRANCH  12  13
ATOM     13  C   UNL     1       8.153  38.538  15.146  1.00  0.00    -0.000 C 
BRANCH  13  14
ATOM     14  C   UNL     1       6.986  38.312  16.125  1.00  0.00    -0.000 C 
BRANCH  14  15
ATOM     15  C   UNL     1       5.661  37.875  15.473  1.00  0.00    -0.000 C 
BRANCH  15  16
ATOM     16  C   UNL     1       4.443  38.628  16.025  1.00  0.00    -0.000 C 
BRANCH  16  17
ATOM     17  C   UNL     1       3.260  38.545  15.053  1.00  0.00    -0.003 C 
ATOM     18  C   UNL     1       1.971  38.178  15.784  1.00  0.00     0.004 C 
ENDBRANCH  16  17
ENDBRANCH  15  16
ENDBRANCH  14  15
ENDBRANCH  13  14
ENDBRANCH  12  13
ENDBRANCH  11  12
ENDBRANCH   1  11
TORSDOF 14
ENDMDL
MODEL 2
REMARK VINA RESULT:     9.468      1.793      3.728
REMARK INTER + INTRA:          16.500
REMARK INTER:                  17.055
REMARK INTRA:                  -0.554
REMARK UNBOUND:                -0.717
REMARK SMILES CCCCCCCCCCCCCCCC(=O)[O-]
REMARK SMILES IDX 9 1 10 2 11 3 12 4 13 5 14 6 15 7 16 8 17 9 18 10 8 11 7 12
REMARK SMILES IDX 6 13 5 14 4 15 3 16 2 17 1 18
REMARK H PARENT
REMARK Flexibility Score: inf
ROOT
ATOM      1  C   UNL     1       4.016  41.591  11.814  1.00  0.00     0.000 C 
ENDROOT
BRANCH   1   2
ATOM      2  C   UNL     1       4.884  42.189  10.687  1.00  0.00     0.000 C 
BRANCH   2   3
ATOM      3  C   UNL     1       4.142  43.126   9.718  1.00  0.00     0.000 C 
BRANCH   3   4
ATOM      4  C   UNL     1       4.901  43.344   8.400  1.00  0.00     0.000 C 
BRANCH   4   5
ATOM      5  C   UNL     1       6.269  42.652   8.435  1.00  0.00     0.000 C 
BRANCH   5   6
ATOM      6  C   UNL     1       6.837  42.484   7.021  1.00  0.00     0.006 C 
BRANCH   6   7
ATOM      7  C   UNL     1       8.285  41.990   7.067  1.00  0.00     0.053 C 
BRANCH   7   8
ATOM      8  C   UNL     1       9.234  43.133   6.881  1.00  0.00     0.041 C 
ATOM      9  O   UNL     1      10.339  43.143   7.484  1.00  0.00    -0.550 OA
ATOM     10  O   UNL     1       8.919  44.162   6.003  1.00  0.00    -0.550 OA
ENDBRANCH   7   8
ENDBRANCH   6   7
ENDBRANCH   5   6
ENDBRANCH   4   5
ENDBRANCH   3   4
ENDBRANCH   2   3
ENDBRANCH   1   2
BRANCH   1  11
ATOM     11  C   UNL     1       4.777  41.209  13.095  1.00  0.00     0.000 C 
BRANCH  11  12
ATOM     12  C   UNL     1       3.844  40.788  14.241  1.00  0.00    -0.000 C 
BRANCH  12  13
ATOM     13  C   UNL     1       4.519  39.743  15.141  1.00  0.00    -0.000 C 
BRANCH  13  14
ATOM     14  C   UNL     1       6.042  39.662  14.933  1.00  0.00    -0.000 C 
BRANCH  14  15
ATOM     15  C   UNL     1       6.862  40.726  15.687  1.00  0.00    -0.000 C 
BRANCH  15  16
ATOM     16  C   UNL     1       8.378  40.539  15.531  1.00  0.00    -0.000 C 
BRANCH  16  17
ATOM     17  C   UNL     1       8.714  39.100  15.126  1.00  0.00    -0.003 C 
ATOM     18  C   UNL     1      10.218  38.915  14.942  1.00  0.00     0.004 C 
ENDBRANCH  16  17
ENDBRANCH  15  16
ENDBRANCH  14  15
ENDBRANCH  13  14
ENDBRANCH  12  13
ENDBRANCH  11  12
ENDBRANCH   1  11
TORSDOF 14
ENDMDL
MODEL 3
REMARK VINA RESULT:     9.835      1.814      3.761
REMARK INTER + INTRA:          17.166
REMARK INTER:                  17.778
REMARK INTRA:                  -0.611
REMARK UNBOUND:                -0.717
REMARK SMILES CCCCCCCCCCCCCCCC(=O)[O-]
REMARK SMILES IDX 9 1 10 2 11 3 12 4 13 5 14 6 15 7 16 8 17 9 18 10 8 11 7 12
REMARK SMILES IDX 6 13 5 14 4 15 3 16 2 17 1 18
REMARK H PARENT
REMARK Flexibility Score: inf
ROOT
ATOM      1  C   UNL     1       4.891  42.039  11.152  1.00  0.00     0.000 C 
ENDROOT
BRANCH   1   2
ATOM      2  C   UNL     1       4.032  42.691  10.048  1.00  0.00     0.000 C 
BRANCH   2   3
ATOM      3  C   UNL     1       4.822  43.249   8.850  1.00  0.00     0.000 C 
BRANCH   3   4
ATOM      4  C   UNL     1       6.218  42.624   8.714  1.00  0.00     0.000 C 
BRANCH   4   5
ATOM      5  C   UNL     1       6.695  42.661   7.257  1.00  0.00     0.000 C 
BRANCH   5   6
ATOM      6  C   UNL     1       8.058  41.975   7.106  1.00  0.00     0.006 C 
BRANCH   6   7
ATOM      7  C   UNL     1       8.682  42.289   5.743  1.00  0.00     0.053 C 
BRANCH   7   8
ATOM      8  C   UNL     1       9.024  41.024   5.020  1.00  0.00     0.041 C 
ATOM      9  O   UNL     1       8.950  39.915   5.612  1.00  0.00    -0.550 OA
ATOM     10  O   UNL     1       9.376  41.064   3.677  1.00  0.00    -0.550 OA
ENDBRANCH   7   8
ENDBRANCH   6   7
ENDBRANCH   5   6
ENDBRANCH   4   5
ENDBRANCH   3   4
ENDBRANCH   2   3
ENDBRANCH   1   2
BRANCH   1  11
ATOM     11  C   UNL     1       4.120  41.606  12.412  1.00  0.00     0.000 C 
BRANCH  11  12
ATOM     12  C   UNL     1       5.043  41.124  13.540  1.00  0.00    -0.000 C 
BRANCH  12  13
ATOM     13  C   UNL     1       4.271  40.258  14.548  1.00  0.00    -0.000 C 
BRANCH  13  14
ATOM     14  C   UNL     1       5.192  39.532  15.546  1.00  0.00    -0.000 C 
BRANCH  14  15
ATOM     15  C   UNL     1       6.353  40.378  16.098  1.00  0.00    -0.000 C 
BRANCH  15  16
ATOM     16  C   UNL     1       7.689  39.622  16.123  1.00  0.00    -0.000 C 
BRANCH  16  17
ATOM     17  C   UNL     1       8.379  39.684  14.756  1.00  0.00    -0.003 C 
ATOM     18  C   UNL     1       9.746  39.005  14.796  1.00  0.00     0.004 C 
ENDBRANCH  16  17
ENDBRANCH  15  16
ENDBRANCH  14  15
ENDBRANCH  13  14
ENDBRANCH  12  13
ENDBRANCH  11  12
ENDBRANCH   1  11
TORSDOF 14
ENDMDL
MODEL 4
REMARK VINA RESULT:    10.005      3.556      8.746
REMARK INTER + INTRA:          17.476
REMARK INTER:                  18.055
REMARK INTRA:                  -0.578
REMARK UNBOUND:                -0.717
REMARK SMILES CCCCCCCCCCCCCCCC(=O)[O-]
REMARK SMILES IDX 9 1 10 2 11 3 12 4 13 5 14 6 15 7 16 8 17 9 18 10 8 11 7 12
REMARK SMILES IDX 6 13 5 14 4 15 3 16 2 17 1 18
REMARK H PARENT
REMARK Flexibility Score: inf
ROOT
ATOM      1  C   UNL     1       4.961  42.133  10.797  1.00  0.00     0.000 C 
ENDROOT
BRANCH   1   2
ATOM      2  C   UNL     1       4.174  41.612  12.018  1.00  0.00     0.000 C 
BRANCH   2   3
ATOM      3  C   UNL     1       5.039  41.070  13.170  1.00  0.00     0.000 C 
BRANCH   3   4
ATOM      4  C   UNL     1       4.213  40.688  14.407  1.00  0.00     0.000 C 
BRANCH   4   5
ATOM      5  C   UNL     1       4.872  39.533  15.171  1.00  0.00     0.000 C 
BRANCH   5   6
ATOM      6  C   UNL     1       6.177  39.985  15.836  1.00  0.00     0.006 C 
BRANCH   6   7
ATOM      7  C   UNL     1       7.308  38.993  15.555  1.00  0.00     0.053 C 
BRANCH   7   8
ATOM      8  C   UNL     1       8.492  39.699  14.971  1.00  0.00     0.041 C 
ATOM      9  O   UNL     1       8.433  40.931  14.717  1.00  0.00    -0.550 OA
ATOM     10  O   UNL     1       9.677  39.007  14.755  1.00  0.00    -0.550 OA
ENDBRANCH   7   8
ENDBRANCH   6   7
ENDBRANCH   5   6
ENDBRANCH   4   5
ENDBRANCH   3   4
ENDBRANCH   2   3
ENDBRANCH   1   2
BRANCH   1  11
ATOM     11  C   UNL     1       4.168  43.050   9.849  1.00  0.00     0.000 C 
BRANCH  11  12
ATOM     12  C   UNL     1       4.874  43.270   8.503  1.00  0.00    -0.000 C 
BRANCH  12  13
ATOM     13  C   UNL     1       6.264  42.617   8.499  1.00  0.00    -0.000 C 
BRANCH  13  14
ATOM     14  C   UNL     1       6.989  42.753   7.148  1.00  0.00    -0.000 C 
BRANCH  14  15
ATOM     15  C   UNL     1       8.223  41.847   6.975  1.00  0.00    -0.000 C 
BRANCH  15  16
ATOM     16  C   UNL     1       8.865  41.966   5.586  1.00  0.00    -0.000 C 
BRANCH  16  17
ATOM     17  C   UNL     1       9.027  40.587   4.937  1.00  0.00    -0.003 C 
ATOM     18  C   UNL     1       9.838  40.676   3.647  1.00  0.00     0.004 C 
ENDBRANCH  16  17
ENDBRANCH  15  16
ENDBRANCH  14  15
ENDBRANCH  13  14
ENDBRANCH  12  13
ENDBRANCH  11  12
ENDBRANCH   1  11
TORSDOF 14
ENDMDL
MODEL 5
REMARK VINA RESULT:    10.667      3.775      8.874
REMARK INTER + INTRA:          18.681
REMARK INTER:                  19.075
REMARK INTRA:                  -0.394
REMARK UNBOUND:                -0.717
REMARK SMILES CCCCCCCCCCCCCCCC(=O)[O-]
REMARK SMILES IDX 9 1 10 2 11 3 12 4 13 5 14 6 15 7 16 8 17 9 18 10 8 11 7 12
REMARK SMILES IDX 6 13 5 14 4 15 3 16 2 17 1 18
REMARK H PARENT
REMARK Flexibility Score: inf
ROOT
ATOM      1  C   UNL     1       6.526  41.166  11.760  1.00  0.00     0.000 C 
ENDROOT
BRANCH   1   2
ATOM      2  C   UNL     1       7.714  41.099  12.742  1.00  0.00     0.000 C 
BRANCH   2   3
ATOM      3  C   UNL     1       7.374  40.564  14.145  1.00  0.00     0.000 C 
BRANCH   3   4
ATOM      4  C   UNL     1       8.529  39.775  14.778  1.00  0.00     0.000 C 
BRANCH   4   5
ATOM      5  C   UNL     1       7.998  38.636  15.658  1.00  0.00     0.000 C 
BRANCH   5   6
ATOM      6  C   UNL     1       6.709  38.046  15.076  1.00  0.00     0.006 C 
BRANCH   6   7
ATOM      7  C   UNL     1       5.588  38.042  16.118  1.00  0.00     0.053 C 
BRANCH   7   8
ATOM      8  C   UNL     1       4.486  38.967  15.706  1.00  0.00     0.041 C 
ATOM      9  O   UNL     1       3.299  38.552  15.648  1.00  0.00    -0.550 OA
ATOM     10  O   UNL     1       4.764  40.301  15.435  1.00  0.00    -0.550 OA
ENDBRANCH   7   8
ENDBRANCH   6   7
ENDBRANCH   5   6
ENDBRANCH   4   5
ENDBRANCH   3   4
ENDBRANCH   2   3
ENDBRANCH   1   2
BRANCH   1  11
ATOM     11  C   UNL     1       6.832  41.825  10.404  1.00  0.00     0.000 C 
BRANCH  11  12
ATOM     12  C   UNL     1       5.577  42.375   9.710  1.00  0.00    -0.000 C 
BRANCH  12  13
ATOM     13  C   UNL     1       5.954  43.237   8.496  1.00  0.00    -0.000 C 
BRANCH  13  14
ATOM     14  C   UNL     1       6.790  42.473   7.452  1.00  0.00    -0.000 C 
BRANCH  14  15
ATOM     15  C   UNL     1       7.989  43.250   6.880  1.00  0.00    -0.000 C 
BRANCH  15  16
ATOM     16  C   UNL     1       9.170  42.343   6.505  1.00  0.00    -0.000 C 
BRANCH  16  17
ATOM     17  C   UNL     1       8.676  40.997   5.963  1.00  0.00    -0.003 C 
ATOM     18  C   UNL     1       9.326  40.670   4.622  1.00  0.00     0.004 C 
ENDBRANCH  16  17
ENDBRANCH  15  16
ENDBRANCH  14  15
ENDBRANCH  13  14
ENDBRANCH  12  13
ENDBRANCH  11  12
ENDBRANCH   1  11
TORSDOF 14
ENDMDL
MODEL 6
REMARK VINA RESULT:    10.742      3.429      8.373
REMARK INTER + INTRA:          18.817
REMARK INTER:                  19.352
REMARK INTRA:                  -0.535
REMARK UNBOUND:                -0.717
REMARK SMILES CCCCCCCCCCCCCCCC(=O)[O-]
REMARK SMILES IDX 9 1 10 2 11 3 12 4 13 5 14 6 15 7 16 8 17 9 18 10 8 11 7 12
REMARK SMILES IDX 6 13 5 14 4 15 3 16 2 17 1 18
REMARK H PARENT
REMARK Flexibility Score: inf
ROOT
ATOM      1  C   UNL     1       4.038  41.933  12.682  1.00  0.00     0.000 C 
ENDROOT
BRANCH   1   2
ATOM      2  C   UNL     1       4.538  40.753  13.541  1.00  0.00     0.000 C 
BRANCH   2   3
ATOM      3  C   UNL     1       3.458  40.063  14.395  1.00  0.00     0.000 C 
BRANCH   3   4
ATOM      4  C   UNL     1       4.048  39.216  15.532  1.00  0.00     0.000 C 
BRANCH   4   5
ATOM      5  C   UNL     1       5.471  38.755  15.191  1.00  0.00     0.000 C 
BRANCH   5   6
ATOM      6  C   UNL     1       6.500  39.416  16.116  1.00  0.00     0.006 C 
BRANCH   6   7
ATOM      7  C   UNL     1       7.864  38.732  15.996  1.00  0.00     0.053 C 
BRANCH   7   8
ATOM      8  C   UNL     1       8.759  39.505  15.079  1.00  0.00     0.041 C 
ATOM      9  O   UNL     1       9.908  39.072  14.801  1.00  0.00    -0.550 OA
ATOM     10  O   UNL     1       8.304  40.678  14.490  1.00  0.00    -0.550 OA
ENDBRANCH   7   8
ENDBRANCH   6   7
ENDBRANCH   5   6
ENDBRANCH   4   5
ENDBRANCH   3   4
ENDBRANCH   2   3
ENDBRANCH   1   2
BRANCH   1  11
ATOM     11  C   UNL     1       4.555  41.954  11.233  1.00  0.00     0.000 C 
BRANCH  11  12
ATOM     12  C   UNL     1       4.014  43.142  10.423  1.00  0.00    -0.000 C 
BRANCH  12  13
ATOM     13  C   UNL     1       4.600  43.149   9.003  1.00  0.00    -0.000 C 
BRANCH  13  14
ATOM     14  C   UNL     1       6.053  42.642   8.949  1.00  0.00    -0.000 C 
BRANCH  14  15
ATOM     15  C   UNL     1       6.614  42.419   7.533  1.00  0.00    -0.000 C 
BRANCH  15  16
ATOM     16  C   UNL     1       8.120  42.120   7.523  1.00  0.00    -0.000 C 
BRANCH  16  17
ATOM     17  C   UNL     1       8.747  42.502   6.178  1.00  0.00    -0.003 C 
ATOM     18  C   UNL     1       9.063  41.263   5.345  1.00  0.00     0.004 C 
ENDBRANCH  16  17
ENDBRANCH  15  16
ENDBRANCH  14  15
ENDBRANCH  13  14
ENDBRANCH  12  13
ENDBRANCH  11  12
ENDBRANCH   1  11
TORSDOF 14
ENDMDL
MODEL 7
REMARK VINA RESULT:    11.248      2.188      4.104
REMARK INTER + INTRA:          19.737
REMARK INTER:                  20.292
REMARK INTRA:                  -0.555
REMARK UNBOUND:                -0.717
REMARK SMILES CCCCCCCCCCCCCCCC(=O)[O-]
REMARK SMILES IDX 9 1 10 2 11 3 12 4 13 5 14 6 15 7 16 8 17 9 18 10 8 11 7 12
REMARK SMILES IDX 6 13 5 14 4 15 3 16 2 17 1 18
REMARK H PARENT
REMARK Flexibility Score: inf
ROOT
ATOM      1  C   UNL     1       6.372  42.020  10.363  1.00  0.00     0.000 C 
ENDROOT
BRANCH   1   2
ATOM      2  C   UNL     1       7.170  42.055   9.043  1.00  0.00     0.000 C 
BRANCH   2   3
ATOM      3  C   UNL     1       6.459  42.748   7.867  1.00  0.00     0.000 C 
BRANCH   3   4
ATOM      4  C   UNL     1       7.315  42.790   6.593  1.00  0.00     0.000 C 
BRANCH   4   5
ATOM      5  C   UNL     1       8.377  41.684   6.610  1.00  0.00     0.000 C 
BRANCH   5   6
ATOM      6  C   UNL     1       8.510  41.027   5.231  1.00  0.00     0.006 C 
BRANCH   6   7
ATOM      7  C   UNL     1       9.909  41.250   4.649  1.00  0.00     0.053 C 
BRANCH   7   8
ATOM      8  C   UNL     1      10.067  40.501   3.363  1.00  0.00     0.041 C 
ATOM      9  O   UNL     1      10.619  39.369   3.353  1.00  0.00    -0.550 OA
ATOM     10  O   UNL     1       9.558  41.030   2.183  1.00  0.00    -0.550 OA
ENDBRANCH   7   8
ENDBRANCH   6   7
ENDBRANCH   5   6
ENDBRANCH   4   5
ENDBRANCH   3   4
ENDBRANCH   2   3
ENDBRANCH   1   2
BRANCH   1  11
ATOM     11  C   UNL     1       7.149  41.500  11.585  1.00  0.00     0.000 C 
BRANCH  11  12
ATOM     12  C   UNL     1       6.236  40.890  12.659  1.00  0.00    -0.000 C 
BRANCH  12  13
ATOM     13  C   UNL     1       7.052  40.432  13.877  1.00  0.00    -0.000 C 
BRANCH  13  14
ATOM     14  C   UNL     1       6.190  40.231  15.137  1.00  0.00    -0.000 C 
BRANCH  14  15
ATOM     15  C   UNL     1       6.602  39.044  16.027  1.00  0.00    -0.000 C 
BRANCH  15  16
ATOM     16  C   UNL     1       7.694  38.169  15.395  1.00  0.00    -0.000 C 
BRANCH  16  17
ATOM     17  C   UNL     1       9.051  38.418  16.062  1.00  0.00    -0.003 C 
ATOM     18  C   UNL     1      10.141  38.660  15.021  1.00  0.00     0.004 C 
ENDBRANCH  16  17
ENDBRANCH  15  16
ENDBRANCH  14  15
ENDBRANCH  13  14
ENDBRANCH  12  13
ENDBRANCH  11  12
ENDBRANCH   1  11
TORSDOF 14
ENDMDL
