MODEL 1
REMARK VINA RESULT:    -3.244      0.000      0.000
REMARK INTER + INTRA:         -13.918
REMARK INTER:                  -8.554
REMARK INTRA:                  -5.364
REMARK UNBOUND:                -5.364
REMARK SMILES CCCCCCCCCCCCCCCCCCCCCCCCCCCCCC(=O)[O-]
REMARK SMILES IDX 16 1 17 2 18 3 19 4 20 5 21 6 22 7 23 8 24 9 25 10 26 11
REMARK SMILES IDX 27 12 28 13 29 14 30 15 31 16 32 17 15 18 14 19 13 20 12 21
REMARK SMILES IDX 11 22 10 23 9 24 8 25 7 26 6 27 5 28 4 29 3 30 2 31 1 32
REMARK H PARENT
REMARK Flexibility Score: inf
ROOT
ATOM      1  C   UNL     1      57.888  29.196  50.133  1.00  0.00     0.000 C 
ENDROOT
BRANCH   1   2
ATOM      2  C   UNL     1      59.142  29.097  49.250  1.00  0.00     0.000 C 
BRANCH   2   3
ATOM      3  C   UNL     1      59.706  27.667  49.174  1.00  0.00     0.000 C 
BRANCH   3   4
ATOM      4  C   UNL     1      61.223  27.625  49.416  1.00  0.00     0.000 C 
BRANCH   4   5
ATOM      5  C   UNL     1      61.602  26.721  50.603  1.00  0.00     0.000 C 
BRANCH   5   6
ATOM      6  C   UNL     1      60.767  27.011  51.860  1.00  0.00     0.000 C 
BRANCH   6   7
ATOM      7  C   UNL     1      61.579  27.730  52.952  1.00  0.00     0.000 C 
BRANCH   7   8
ATOM      8  C   UNL     1      62.985  28.132  52.479  1.00  0.00     0.000 C 
BRANCH   8   9
ATOM      9  C   UNL     1      63.250  29.639  52.626  1.00  0.00     0.000 C 
BRANCH   9  10
ATOM     10  C   UNL     1      61.948  30.442  52.496  1.00  0.00     0.000 C 
BRANCH  10  11
ATOM     11  C   UNL     1      61.698  30.938  51.062  1.00  0.00     0.000 C 
BRANCH  11  12
ATOM     12  C   UNL     1      62.952  30.843  50.175  1.00  0.00     0.000 C 
BRANCH  12  13
ATOM     13  C   UNL     1      63.361  32.202  49.584  1.00  0.00     0.006 C 
BRANCH  13  14
ATOM     14  C   UNL     1      62.865  33.388  50.423  1.00  0.00     0.053 C 
BRANCH  14  15
ATOM     15  C   UNL     1      62.038  34.309  49.582  1.00  0.00     0.041 C 
ATOM     16  O   UNL     1      61.332  35.199  50.125  1.00  0.00    -0.550 OA
ATOM     17  O   UNL     1      61.999  34.145  48.205  1.00  0.00    -0.550 OA
ENDBRANCH  14  15
ENDBRANCH  13  14
ENDBRANCH  12  13
ENDBRANCH  11  12
ENDBRANCH  10  11
ENDBRANCH   9  10
ENDBRANCH   8   9
ENDBRANCH   7   8
ENDBRANCH   6   7
ENDBRANCH   5   6
ENDBRANCH   4   5
ENDBRANCH   3   4
ENDBRANCH   2   3
ENDBRANCH   1   2
BRANCH   1  18
ATOM     18  C   UNL     1      58.154  29.568  51.606  1.00  0.00     0.000 C 
BRANCH  18  19
ATOM     19  C   UNL     1      57.059  29.159  52.615  1.00  0.00     0.000 C 
BRANCH  19  20
ATOM     20  C   UNL     1      55.733  29.944  52.522  1.00  0.00     0.000 C 
BRANCH  20  21
ATOM     21  C   UNL     1      54.551  29.140  51.950  1.00  0.00     0.000 C 
BRANCH  21  22
ATOM     22  C   UNL     1      54.195  29.522  50.504  1.00  0.00     0.000 C 
BRANCH  22  23
ATOM     23  C   UNL     1      53.327  28.463  49.806  1.00  0.00     0.000 C 
BRANCH  23  24
ATOM     24  C   UNL     1      53.488  27.066  50.428  1.00  0.00    -0.000 C 
BRANCH  24  25
ATOM     25  C   UNL     1      54.282  26.111  49.521  1.00  0.00    -0.000 C 
BRANCH  25  26
ATOM     26  C   UNL     1      55.801  26.205  49.745  1.00  0.00    -0.000 C 
BRANCH  26  27
ATOM     27  C   UNL     1      56.210  25.880  51.193  1.00  0.00    -0.000 C 
BRANCH  27  28
ATOM     28  C   UNL     1      57.683  25.462  51.377  1.00  0.00    -0.000 C 
BRANCH  28  29
ATOM     29  C   UNL     1      58.012  24.799  52.727  1.00  0.00    -0.000 C 
BRANCH  29  30
ATOM     30  C   UNL     1      58.594  23.386  52.573  1.00  0.00    -0.000 C 
BRANCH  30  31
ATOM     31  C   UNL     1      59.781  23.385  51.603  1.00  0.00    -0.003 C 
ATOM     32  C   UNL     1      61.108  23.404  52.356  1.00  0.00     0.004 C 
ENDBRANCH  30  31
ENDBRANCH  29  30
ENDBRANCH  28  29
ENDBRANCH  27  28
ENDBRANCH  26  27
ENDBRANCH  25  26
ENDBRANCH  24  25
ENDBRANCH  23  24
ENDBRANCH  22  23
ENDBRANCH  21  22
ENDBRANCH  20  21
ENDBRANCH  19  20
ENDBRANCH  18  19
ENDBRANCH   1  18
TORSDOF 28
ENDMDL
MODEL 2
REMARK VINA RESULT:    -3.211     10.199     12.650
REMARK INTER + INTRA:         -13.832
REMARK INTER:                  -8.705
REMARK INTRA:                  -5.127
REMARK UNBOUND:                -5.364
REMARK SMILES CCCCCCCCCCCCCCCCCCCCCCCCCCCCCC(=O)[O-]
REMARK SMILES IDX 16 1 17 2 18 3 19 4 20 5 21 6 22 7 23 8 24 9 25 10 26 11
REMARK SMILES IDX 27 12 28 13 29 14 30 15 31 16 32 17 15 18 14 19 13 20 12 21
REMARK SMILES IDX 11 22 10 23 9 24 8 25 7 26 6 27 5 28 4 29 3 30 2 31 1 32
REMARK H PARENT
REMARK Flexibility Score: inf
ROOT
ATOM      1  C   UNL     1      62.127  33.941  60.657  1.00  0.00     0.000 C 
ENDROOT
BRANCH   1   2
ATOM      2  C   UNL     1      61.919  35.464  60.647  1.00  0.00     0.000 C 
BRANCH   2   3
ATOM      3  C   UNL     1      63.140  36.235  61.179  1.00  0.00     0.000 C 
BRANCH   3   4
ATOM      4  C   UNL     1      64.359  35.322  61.392  1.00  0.00     0.000 C 
BRANCH   4   5
ATOM      5  C   UNL     1      65.606  35.825  60.643  1.00  0.00     0.000 C 
BRANCH   5   6
ATOM      6  C   UNL     1      65.314  36.181  59.176  1.00  0.00     0.000 C 
BRANCH   6   7
ATOM      7  C   UNL     1      65.442  34.966  58.240  1.00  0.00     0.000 C 
BRANCH   7   8
ATOM      8  C   UNL     1      66.791  34.922  57.505  1.00  0.00     0.000 C 
BRANCH   8   9
ATOM      9  C   UNL     1      67.286  33.488  57.262  1.00  0.00     0.000 C 
BRANCH   9  10
ATOM     10  C   UNL     1      68.764  33.480  56.845  1.00  0.00     0.000 C 
BRANCH  10  11
ATOM     11  C   UNL     1      69.575  34.602  57.513  1.00  0.00     0.000 C 
BRANCH  11  12
ATOM     12  C   UNL     1      70.931  34.113  58.053  1.00  0.00     0.000 C 
BRANCH  12  13
ATOM     13  C   UNL     1      70.846  32.716  58.687  1.00  0.00     0.006 C 
BRANCH  13  14
ATOM     14  C   UNL     1      71.334  32.694  60.142  1.00  0.00     0.053 C 
BRANCH  14  15
ATOM     15  C   UNL     1      71.764  31.312  60.524  1.00  0.00     0.041 C 
ATOM     16  O   UNL     1      71.075  30.634  61.331  1.00  0.00    -0.550 OA
ATOM     17  O   UNL     1      72.958  30.796  60.037  1.00  0.00    -0.550 OA
ENDBRANCH  14  15
ENDBRANCH  13  14
ENDBRANCH  12  13
ENDBRANCH  11  12
ENDBRANCH  10  11
ENDBRANCH   9  10
ENDBRANCH   8   9
ENDBRANCH   7   8
ENDBRANCH   6   7
ENDBRANCH   5   6
ENDBRANCH   4   5
ENDBRANCH   3   4
ENDBRANCH   2   3
ENDBRANCH   1   2
BRANCH   1  18
ATOM     18  C   UNL     1      61.497  33.189  59.468  1.00  0.00     0.000 C 
BRANCH  18  19
ATOM     19  C   UNL     1      61.147  31.705  59.715  1.00  0.00     0.000 C 
BRANCH  19  20
ATOM     20  C   UNL     1      60.854  31.318  61.181  1.00  0.00     0.000 C 
BRANCH  20  21
ATOM     21  C   UNL     1      61.940  30.453  61.845  1.00  0.00     0.000 C 
BRANCH  21  22
ATOM     22  C   UNL     1      62.524  29.381  60.910  1.00  0.00     0.000 C 
BRANCH  22  23
ATOM     23  C   UNL     1      64.041  29.527  60.711  1.00  0.00     0.000 C 
BRANCH  23  24
ATOM     24  C   UNL     1      64.521  30.978  60.887  1.00  0.00    -0.000 C 
BRANCH  24  25
ATOM     25  C   UNL     1      65.042  31.584  59.574  1.00  0.00    -0.000 C 
BRANCH  25  26
ATOM     26  C   UNL     1      64.312  31.035  58.336  1.00  0.00    -0.000 C 
BRANCH  26  27
ATOM     27  C   UNL     1      65.278  30.563  57.235  1.00  0.00    -0.000 C 
BRANCH  27  28
ATOM     28  C   UNL     1      66.167  29.363  57.617  1.00  0.00    -0.000 C 
BRANCH  28  29
ATOM     29  C   UNL     1      67.684  29.624  57.549  1.00  0.00    -0.000 C 
BRANCH  29  30
ATOM     30  C   UNL     1      68.302  29.917  58.924  1.00  0.00    -0.000 C 
BRANCH  30  31
ATOM     31  C   UNL     1      67.679  29.028  60.006  1.00  0.00    -0.003 C 
ATOM     32  C   UNL     1      68.703  28.048  60.572  1.00  0.00     0.004 C 
ENDBRANCH  30  31
ENDBRANCH  29  30
ENDBRANCH  28  29
ENDBRANCH  27  28
ENDBRANCH  26  27
ENDBRANCH  25  26
ENDBRANCH  24  25
ENDBRANCH  23  24
ENDBRANCH  22  23
ENDBRANCH  21  22
ENDBRANCH  20  21
ENDBRANCH  19  20
ENDBRANCH  18  19
ENDBRANCH   1  18
TORSDOF 28
ENDMDL
MODEL 3
REMARK VINA RESULT:    -3.070      1.624      3.165
REMARK INTER + INTRA:         -13.461
REMARK INTER:                  -8.557
REMARK INTRA:                  -4.904
REMARK UNBOUND:                -5.364
REMARK SMILES CCCCCCCCCCCCCCCCCCCCCCCCCCCCCC(=O)[O-]
REMARK SMILES IDX 16 1 17 2 18 3 19 4 20 5 21 6 22 7 23 8 24 9 25 10 26 11
REMARK SMILES IDX 27 12 28 13 29 14 30 15 31 16 32 17 15 18 14 19 13 20 12 21
REMARK SMILES IDX 11 22 10 23 9 24 8 25 7 26 6 27 5 28 4 29 3 30 2 31 1 32
REMARK H PARENT
REMARK Flexibility Score: inf
ROOT
ATOM      1  C   UNL     1      56.406  27.464  53.782  1.00  0.00     0.000 C 
ENDROOT
BRANCH   1   2
ATOM      2  C   UNL     1      57.493  28.547  53.885  1.00  0.00     0.000 C 
BRANCH   2   3
ATOM      3  C   UNL     1      58.663  28.309  52.914  1.00  0.00     0.000 C 
BRANCH   3   4
ATOM      4  C   UNL     1      58.944  29.533  52.028  1.00  0.00     0.000 C 
BRANCH   4   5
ATOM      5  C   UNL     1      58.062  29.558  50.767  1.00  0.00     0.000 C 
BRANCH   5   6
ATOM      6  C   UNL     1      58.842  29.203  49.490  1.00  0.00     0.000 C 
BRANCH   6   7
ATOM      7  C   UNL     1      60.356  29.083  49.742  1.00  0.00     0.000 C 
BRANCH   7   8
ATOM      8  C   UNL     1      60.901  27.681  49.427  1.00  0.00     0.000 C 
BRANCH   8   9
ATOM      9  C   UNL     1      62.187  27.359  50.204  1.00  0.00     0.000 C 
BRANCH   9  10
ATOM     10  C   UNL     1      63.302  26.896  49.255  1.00  0.00     0.000 C 
BRANCH  10  11
ATOM     11  C   UNL     1      63.965  28.062  48.505  1.00  0.00     0.000 C 
BRANCH  11  12
ATOM     12  C   UNL     1      64.425  29.189  49.449  1.00  0.00     0.000 C 
BRANCH  12  13
ATOM     13  C   UNL     1      63.885  30.566  49.032  1.00  0.00     0.006 C 
BRANCH  13  14
ATOM     14  C   UNL     1      64.123  31.644  50.098  1.00  0.00     0.053 C 
BRANCH  14  15
ATOM     15  C   UNL     1      62.998  32.632  50.098  1.00  0.00     0.041 C 
ATOM     16  O   UNL     1      62.682  33.232  51.159  1.00  0.00    -0.550 OA
ATOM     17  O   UNL     1      62.261  32.845  48.941  1.00  0.00    -0.550 OA
ENDBRANCH  14  15
ENDBRANCH  13  14
ENDBRANCH  12  13
ENDBRANCH  11  12
ENDBRANCH  10  11
ENDBRANCH   9  10
ENDBRANCH   8   9
ENDBRANCH   7   8
ENDBRANCH   6   7
ENDBRANCH   5   6
ENDBRANCH   4   5
ENDBRANCH   3   4
ENDBRANCH   2   3
ENDBRANCH   1   2
BRANCH   1  18
ATOM     18  C   UNL     1      55.018  27.974  53.345  1.00  0.00     0.000 C 
BRANCH  18  19
ATOM     19  C   UNL     1      54.956  29.442  52.870  1.00  0.00     0.000 C 
BRANCH  19  20
ATOM     20  C   UNL     1      54.565  29.654  51.391  1.00  0.00     0.000 C 
BRANCH  20  21
ATOM     21  C   UNL     1      53.506  28.672  50.861  1.00  0.00     0.000 C 
BRANCH  21  22
ATOM     22  C   UNL     1      54.016  27.782  49.715  1.00  0.00     0.000 C 
BRANCH  22  23
ATOM     23  C   UNL     1      53.875  26.282  50.019  1.00  0.00     0.000 C 
BRANCH  23  24
ATOM     24  C   UNL     1      55.220  25.621  50.364  1.00  0.00    -0.000 C 
BRANCH  24  25
ATOM     25  C   UNL     1      56.414  26.553  50.097  1.00  0.00    -0.000 C 
BRANCH  25  26
ATOM     26  C   UNL     1      57.764  25.817  50.156  1.00  0.00    -0.000 C 
BRANCH  26  27
ATOM     27  C   UNL     1      58.011  25.132  51.511  1.00  0.00    -0.000 C 
BRANCH  27  28
ATOM     28  C   UNL     1      59.244  24.206  51.560  1.00  0.00    -0.000 C 
BRANCH  28  29
ATOM     29  C   UNL     1      60.073  24.150  50.263  1.00  0.00    -0.000 C 
BRANCH  29  30
ATOM     30  C   UNL     1      61.547  23.802  50.511  1.00  0.00    -0.000 C 
BRANCH  30  31
ATOM     31  C   UNL     1      61.850  22.362  50.079  1.00  0.00    -0.003 C 
ATOM     32  C   UNL     1      60.764  21.825  49.152  1.00  0.00     0.004 C 
ENDBRANCH  30  31
ENDBRANCH  29  30
ENDBRANCH  28  29
ENDBRANCH  27  28
ENDBRANCH  26  27
ENDBRANCH  25  26
ENDBRANCH  24  25
ENDBRANCH  23  24
ENDBRANCH  22  23
ENDBRANCH  21  22
ENDBRANCH  20  21
ENDBRANCH  19  20
ENDBRANCH  18  19
ENDBRANCH   1  18
TORSDOF 28
ENDMDL
MODEL 4
REMARK VINA RESULT:    -3.067      7.991     11.098
REMARK INTER + INTRA:         -13.450
REMARK INTER:                  -7.638
REMARK INTRA:                  -5.812
REMARK UNBOUND:                -5.364
REMARK SMILES CCCCCCCCCCCCCCCCCCCCCCCCCCCCCC(=O)[O-]
REMARK SMILES IDX 16 1 17 2 18 3 19 4 20 5 21 6 22 7 23 8 24 9 25 10 26 11
REMARK SMILES IDX 27 12 28 13 29 14 30 15 31 16 32 17 15 18 14 19 13 20 12 21
REMARK SMILES IDX 11 22 10 23 9 24 8 25 7 26 6 27 5 28 4 29 3 30 2 31 1 32
REMARK H PARENT
REMARK Flexibility Score: inf
ROOT
ATOM      1  C   UNL     1      65.672  34.045  57.783  1.00  0.00     0.000 C 
ENDROOT
BRANCH   1   2
ATOM      2  C   UNL     1      64.631  35.159  57.592  1.00  0.00     0.000 C 
BRANCH   2   3
ATOM      3  C   UNL     1      64.868  36.361  58.523  1.00  0.00     0.000 C 
BRANCH   3   4
ATOM      4  C   UNL     1      65.768  36.004  59.718  1.00  0.00     0.000 C 
BRANCH   4   5
ATOM      5  C   UNL     1      64.985  35.937  61.041  1.00  0.00     0.000 C 
BRANCH   5   6
ATOM      6  C   UNL     1      64.439  34.531  61.336  1.00  0.00     0.000 C 
BRANCH   6   7
ATOM      7  C   UNL     1      62.958  34.381  60.943  1.00  0.00     0.000 C 
BRANCH   7   8
ATOM      8  C   UNL     1      62.203  35.720  60.951  1.00  0.00     0.000 C 
BRANCH   8   9
ATOM      9  C   UNL     1      60.908  35.674  60.126  1.00  0.00     0.000 C 
BRANCH   9  10
ATOM     10  C   UNL     1      61.212  35.444  58.638  1.00  0.00     0.000 C 
BRANCH  10  11
ATOM     11  C   UNL     1      60.225  34.469  57.975  1.00  0.00     0.000 C 
BRANCH  11  12
ATOM     12  C   UNL     1      60.277  34.528  56.437  1.00  0.00     0.000 C 
BRANCH  12  13
ATOM     13  C   UNL     1      59.293  33.551  55.775  1.00  0.00     0.006 C 
BRANCH  13  14
ATOM     14  C   UNL     1      58.136  33.154  56.702  1.00  0.00     0.053 C 
BRANCH  14  15
ATOM     15  C   UNL     1      58.125  31.673  56.916  1.00  0.00     0.041 C 
ATOM     16  O   UNL     1      58.733  30.913  56.117  1.00  0.00    -0.550 OA
ATOM     17  O   UNL     1      57.394  31.127  57.962  1.00  0.00    -0.550 OA
ENDBRANCH  14  15
ENDBRANCH  13  14
ENDBRANCH  12  13
ENDBRANCH  11  12
ENDBRANCH  10  11
ENDBRANCH   9  10
ENDBRANCH   8   9
ENDBRANCH   7   8
ENDBRANCH   6   7
ENDBRANCH   5   6
ENDBRANCH   4   5
ENDBRANCH   3   4
ENDBRANCH   2   3
ENDBRANCH   1   2
BRANCH   1  18
ATOM     18  C   UNL     1      65.087  32.649  58.077  1.00  0.00     0.000 C 
BRANCH  18  19
ATOM     19  C   UNL     1      63.550  32.529  57.992  1.00  0.00     0.000 C 
BRANCH  19  20
ATOM     20  C   UNL     1      63.012  31.279  57.261  1.00  0.00     0.000 C 
BRANCH  20  21
ATOM     21  C   UNL     1      61.870  30.551  57.993  1.00  0.00     0.000 C 
BRANCH  21  22
ATOM     22  C   UNL     1      61.061  31.467  58.926  1.00  0.00     0.000 C 
BRANCH  22  23
ATOM     23  C   UNL     1      60.477  30.718  60.134  1.00  0.00     0.000 C 
BRANCH  23  24
ATOM     24  C   UNL     1      61.213  31.049  61.444  1.00  0.00    -0.000 C 
BRANCH  24  25
ATOM     25  C   UNL     1      62.408  30.115  61.695  1.00  0.00    -0.000 C 
BRANCH  25  26
ATOM     26  C   UNL     1      63.755  30.768  61.340  1.00  0.00    -0.000 C 
BRANCH  26  27
ATOM     27  C   UNL     1      64.647  29.861  60.474  1.00  0.00    -0.000 C 
BRANCH  27  28
ATOM     28  C   UNL     1      64.714  28.387  60.925  1.00  0.00    -0.000 C 
BRANCH  28  29
ATOM     29  C   UNL     1      64.172  27.365  59.908  1.00  0.00    -0.000 C 
BRANCH  29  30
ATOM     30  C   UNL     1      63.522  26.145  60.575  1.00  0.00    -0.000 C 
BRANCH  30  31
ATOM     31  C   UNL     1      62.588  26.575  61.713  1.00  0.00    -0.003 C 
ATOM     32  C   UNL     1      61.136  26.621  61.246  1.00  0.00     0.004 C 
ENDBRANCH  30  31
ENDBRANCH  29  30
ENDBRANCH  28  29
ENDBRANCH  27  28
ENDBRANCH  26  27
ENDBRANCH  25  26
ENDBRANCH  24  25
ENDBRANCH  23  24
ENDBRANCH  22  23
ENDBRANCH  21  22
ENDBRANCH  20  21
ENDBRANCH  19  20
ENDBRANCH  18  19
ENDBRANCH   1  18
TORSDOF 28
ENDMDL
MODEL 5
REMARK VINA RESULT:    -3.055      8.287     10.900
REMARK INTER + INTRA:         -13.421
REMARK INTER:                  -7.497
REMARK INTRA:                  -5.924
REMARK UNBOUND:                -5.364
REMARK SMILES CCCCCCCCCCCCCCCCCCCCCCCCCCCCCC(=O)[O-]
REMARK SMILES IDX 16 1 17 2 18 3 19 4 20 5 21 6 22 7 23 8 24 9 25 10 26 11
REMARK SMILES IDX 27 12 28 13 29 14 30 15 31 16 32 17 15 18 14 19 13 20 12 21
REMARK SMILES IDX 11 22 10 23 9 24 8 25 7 26 6 27 5 28 4 29 3 30 2 31 1 32
REMARK H PARENT
REMARK Flexibility Score: inf
ROOT
ATOM      1  C   UNL     1      65.254  35.304  59.580  1.00  0.00     0.000 C 
ENDROOT
BRANCH   1   2
ATOM      2  C   UNL     1      64.502  35.428  58.246  1.00  0.00     0.000 C 
BRANCH   2   3
ATOM      3  C   UNL     1      63.650  34.187  57.925  1.00  0.00     0.000 C 
BRANCH   3   4
ATOM      4  C   UNL     1      64.236  32.904  58.535  1.00  0.00     0.000 C 
BRANCH   4   5
ATOM      5  C   UNL     1      63.145  31.937  59.027  1.00  0.00     0.000 C 
BRANCH   5   6
ATOM      6  C   UNL     1      62.787  32.148  60.507  1.00  0.00     0.000 C 
BRANCH   6   7
ATOM      7  C   UNL     1      61.285  31.952  60.781  1.00  0.00     0.000 C 
BRANCH   7   8
ATOM      8  C   UNL     1      60.945  30.524  61.234  1.00  0.00     0.000 C 
BRANCH   8   9
ATOM      9  C   UNL     1      62.128  29.825  61.923  1.00  0.00     0.000 C 
BRANCH   9  10
ATOM     10  C   UNL     1      62.356  28.424  61.337  1.00  0.00     0.000 C 
BRANCH  10  11
ATOM     11  C   UNL     1      62.607  28.449  59.820  1.00  0.00     0.000 C 
BRANCH  11  12
ATOM     12  C   UNL     1      64.057  28.085  59.453  1.00  0.00     0.000 C 
BRANCH  12  13
ATOM     13  C   UNL     1      65.036  28.310  60.616  1.00  0.00     0.006 C 
BRANCH  13  14
ATOM     14  C   UNL     1      65.783  29.646  60.513  1.00  0.00     0.053 C 
BRANCH  14  15
ATOM     15  C   UNL     1      66.775  29.601  59.392  1.00  0.00     0.041 C 
ATOM     16  O   UNL     1      66.757  30.482  58.494  1.00  0.00    -0.550 OA
ATOM     17  O   UNL     1      67.680  28.551  59.308  1.00  0.00    -0.550 OA
ENDBRANCH  14  15
ENDBRANCH  13  14
ENDBRANCH  12  13
ENDBRANCH  11  12
ENDBRANCH  10  11
ENDBRANCH   9  10
ENDBRANCH   8   9
ENDBRANCH   7   8
ENDBRANCH   6   7
ENDBRANCH   5   6
ENDBRANCH   4   5
ENDBRANCH   3   4
ENDBRANCH   2   3
ENDBRANCH   1   2
BRANCH   1  18
ATOM     18  C   UNL     1      64.700  36.177  60.725  1.00  0.00     0.000 C 
BRANCH  18  19
ATOM     19  C   UNL     1      63.397  35.678  61.385  1.00  0.00     0.000 C 
BRANCH  19  20
ATOM     20  C   UNL     1      62.104  36.405  60.955  1.00  0.00     0.000 C 
BRANCH  20  21
ATOM     21  C   UNL     1      61.027  35.491  60.345  1.00  0.00     0.000 C 
BRANCH  21  22
ATOM     22  C   UNL     1      60.264  36.140  59.179  1.00  0.00     0.000 C 
BRANCH  22  23
ATOM     23  C   UNL     1      59.398  35.135  58.402  1.00  0.00     0.000 C 
BRANCH  23  24
ATOM     24  C   UNL     1      60.213  33.945  57.867  1.00  0.00    -0.000 C 
BRANCH  24  25
ATOM     25  C   UNL     1      59.346  32.695  57.647  1.00  0.00    -0.000 C 
BRANCH  25  26
ATOM     26  C   UNL     1      60.078  31.597  56.856  1.00  0.00    -0.000 C 
BRANCH  26  27
ATOM     27  C   UNL     1      60.067  30.236  57.575  1.00  0.00    -0.000 C 
BRANCH  27  28
ATOM     28  C   UNL     1      58.673  29.597  57.741  1.00  0.00    -0.000 C 
BRANCH  28  29
ATOM     29  C   UNL     1      58.439  28.874  59.080  1.00  0.00    -0.000 C 
BRANCH  29  30
ATOM     30  C   UNL     1      59.262  27.585  59.215  1.00  0.00    -0.000 C 
BRANCH  30  31
ATOM     31  C   UNL     1      59.019  26.918  60.574  1.00  0.00    -0.003 C 
ATOM     32  C   UNL     1      57.959  27.670  61.374  1.00  0.00     0.004 C 
ENDBRANCH  30  31
ENDBRANCH  29  30
ENDBRANCH  28  29
ENDBRANCH  27  28
ENDBRANCH  26  27
ENDBRANCH  25  26
ENDBRANCH  24  25
ENDBRANCH  23  24
ENDBRANCH  22  23
ENDBRANCH  21  22
ENDBRANCH  20  21
ENDBRANCH  19  20
ENDBRANCH  18  19
ENDBRANCH   1  18
TORSDOF 28
ENDMDL
MODEL 6
REMARK VINA RESULT:    -3.042      7.517     10.936
REMARK INTER + INTRA:         -13.384
REMARK INTER:                  -6.827
REMARK INTRA:                  -6.557
REMARK UNBOUND:                -5.364
REMARK SMILES CCCCCCCCCCCCCCCCCCCCCCCCCCCCCC(=O)[O-]
REMARK SMILES IDX 16 1 17 2 18 3 19 4 20 5 21 6 22 7 23 8 24 9 25 10 26 11
REMARK SMILES IDX 27 12 28 13 29 14 30 15 31 16 32 17 15 18 14 19 13 20 12 21
REMARK SMILES IDX 11 22 10 23 9 24 8 25 7 26 6 27 5 28 4 29 3 30 2 31 1 32
REMARK H PARENT
REMARK Flexibility Score: inf
ROOT
ATOM      1  C   UNL     1      64.639  31.819  59.766  1.00  0.00     0.000 C 
ENDROOT
BRANCH   1   2
ATOM      2  C   UNL     1      64.109  32.623  60.964  1.00  0.00     0.000 C 
BRANCH   2   3
ATOM      3  C   UNL     1      62.942  33.553  60.586  1.00  0.00     0.000 C 
BRANCH   3   4
ATOM      4  C   UNL     1      63.199  35.010  61.004  1.00  0.00     0.000 C 
BRANCH   4   5
ATOM      5  C   UNL     1      64.547  35.183  61.727  1.00  0.00     0.000 C 
BRANCH   5   6
ATOM      6  C   UNL     1      65.564  35.988  60.902  1.00  0.00     0.000 C 
BRANCH   6   7
ATOM      7  C   UNL     1      64.886  36.989  59.950  1.00  0.00     0.000 C 
BRANCH   7   8
ATOM      8  C   UNL     1      65.282  36.772  58.480  1.00  0.00     0.000 C 
BRANCH   8   9
ATOM      9  C   UNL     1      65.724  35.328  58.195  1.00  0.00     0.000 C 
BRANCH   9  10
ATOM     10  C   UNL     1      64.723  34.618  57.273  1.00  0.00     0.000 C 
BRANCH  10  11
ATOM     11  C   UNL     1      63.329  35.266  57.299  1.00  0.00     0.000 C 
BRANCH  11  12
ATOM     12  C   UNL     1      62.231  34.335  56.753  1.00  0.00     0.000 C 
BRANCH  12  13
ATOM     13  C   UNL     1      62.408  34.028  55.257  1.00  0.00     0.006 C 
BRANCH  13  14
ATOM     14  C   UNL     1      62.512  32.524  54.969  1.00  0.00     0.053 C 
BRANCH  14  15
ATOM     15  C   UNL     1      61.147  31.913  54.893  1.00  0.00     0.041 C 
ATOM     16  O   UNL     1      60.966  30.720  55.252  1.00  0.00    -0.550 OA
ATOM     17  O   UNL     1      60.089  32.643  54.369  1.00  0.00    -0.550 OA
ENDBRANCH  14  15
ENDBRANCH  13  14
ENDBRANCH  12  13
ENDBRANCH  11  12
ENDBRANCH  10  11
ENDBRANCH   9  10
ENDBRANCH   8   9
ENDBRANCH   7   8
ENDBRANCH   6   7
ENDBRANCH   5   6
ENDBRANCH   4   5
ENDBRANCH   3   4
ENDBRANCH   2   3
ENDBRANCH   1   2
BRANCH   1  18
ATOM     18  C   UNL     1      63.597  31.517  58.670  1.00  0.00     0.000 C 
BRANCH  18  19
ATOM     19  C   UNL     1      63.961  30.385  57.685  1.00  0.00     0.000 C 
BRANCH  19  20
ATOM     20  C   UNL     1      63.025  29.157  57.697  1.00  0.00     0.000 C 
BRANCH  20  21
ATOM     21  C   UNL     1      63.654  27.878  58.277  1.00  0.00     0.000 C 
BRANCH  21  22
ATOM     22  C   UNL     1      64.874  28.149  59.173  1.00  0.00     0.000 C 
BRANCH  22  23
ATOM     23  C   UNL     1      64.519  28.181  60.668  1.00  0.00     0.000 C 
BRANCH  23  24
ATOM     24  C   UNL     1      63.376  27.215  61.023  1.00  0.00    -0.000 C 
BRANCH  24  25
ATOM     25  C   UNL     1      62.190  27.932  61.690  1.00  0.00    -0.000 C 
BRANCH  25  26
ATOM     26  C   UNL     1      62.385  29.456  61.763  1.00  0.00    -0.000 C 
BRANCH  26  27
ATOM     27  C   UNL     1      61.274  30.234  61.036  1.00  0.00    -0.000 C 
BRANCH  27  28
ATOM     28  C   UNL     1      60.107  29.371  60.515  1.00  0.00    -0.000 C 
BRANCH  28  29
ATOM     29  C   UNL     1      59.648  29.688  59.079  1.00  0.00    -0.000 C 
BRANCH  29  30
ATOM     30  C   UNL     1      59.944  31.135  58.663  1.00  0.00    -0.000 C 
BRANCH  30  31
ATOM     31  C   UNL     1      58.780  31.723  57.856  1.00  0.00    -0.003 C 
ATOM     32  C   UNL     1      58.925  33.234  57.701  1.00  0.00     0.004 C 
ENDBRANCH  30  31
ENDBRANCH  29  30
ENDBRANCH  28  29
ENDBRANCH  27  28
ENDBRANCH  26  27
ENDBRANCH  25  26
ENDBRANCH  24  25
ENDBRANCH  23  24
ENDBRANCH  22  23
ENDBRANCH  21  22
ENDBRANCH  20  21
ENDBRANCH  19  20
ENDBRANCH  18  19
ENDBRANCH   1  18
TORSDOF 28
ENDMDL
MODEL 7
REMARK VINA RESULT:    -3.017      7.521     11.113
REMARK INTER + INTRA:         -13.319
REMARK INTER:                  -6.474
REMARK INTRA:                  -6.845
REMARK UNBOUND:                -5.364
REMARK SMILES CCCCCCCCCCCCCCCCCCCCCCCCCCCCCC(=O)[O-]
REMARK SMILES IDX 16 1 17 2 18 3 19 4 20 5 21 6 22 7 23 8 24 9 25 10 26 11
REMARK SMILES IDX 27 12 28 13 29 14 30 15 31 16 32 17 15 18 14 19 13 20 12 21
REMARK SMILES IDX 11 22 10 23 9 24 8 25 7 26 6 27 5 28 4 29 3 30 2 31 1 32
REMARK H PARENT
REMARK Flexibility Score: inf
ROOT
ATOM      1  C   UNL     1      62.188  33.162  60.535  1.00  0.00     0.000 C 
ENDROOT
BRANCH   1   2
ATOM      2  C   UNL     1      61.208  32.002  60.296  1.00  0.00     0.000 C 
BRANCH   2   3
ATOM      3  C   UNL     1      61.026  31.111  61.538  1.00  0.00     0.000 C 
BRANCH   3   4
ATOM      4  C   UNL     1      61.757  29.766  61.401  1.00  0.00     0.000 C 
BRANCH   4   5
ATOM      5  C   UNL     1      63.264  29.885  61.692  1.00  0.00     0.000 C 
BRANCH   5   6
ATOM      6  C   UNL     1      64.133  29.474  60.493  1.00  0.00     0.000 C 
BRANCH   6   7
ATOM      7  C   UNL     1      65.160  30.557  60.114  1.00  0.00     0.000 C 
BRANCH   7   8
ATOM      8  C   UNL     1      64.815  31.267  58.796  1.00  0.00     0.000 C 
BRANCH   8   9
ATOM      9  C   UNL     1      64.022  30.372  57.831  1.00  0.00     0.000 C 
BRANCH   9  10
ATOM     10  C   UNL     1      62.873  31.151  57.175  1.00  0.00     0.000 C 
BRANCH  10  11
ATOM     11  C   UNL     1      61.583  30.322  57.060  1.00  0.00     0.000 C 
BRANCH  11  12
ATOM     12  C   UNL     1      61.677  28.974  57.797  1.00  0.00     0.000 C 
BRANCH  12  13
ATOM     13  C   UNL     1      60.298  28.407  58.171  1.00  0.00     0.006 C 
BRANCH  13  14
ATOM     14  C   UNL     1      59.278  29.503  58.509  1.00  0.00     0.053 C 
BRANCH  14  15
ATOM     15  C   UNL     1      57.924  28.903  58.728  1.00  0.00     0.041 C 
ATOM     16  O   UNL     1      56.960  29.228  57.987  1.00  0.00    -0.550 OA
ATOM     17  O   UNL     1      57.714  28.031  59.787  1.00  0.00    -0.550 OA
ENDBRANCH  14  15
ENDBRANCH  13  14
ENDBRANCH  12  13
ENDBRANCH  11  12
ENDBRANCH  10  11
ENDBRANCH   9  10
ENDBRANCH   8   9
ENDBRANCH   7   8
ENDBRANCH   6   7
ENDBRANCH   5   6
ENDBRANCH   4   5
ENDBRANCH   3   4
ENDBRANCH   2   3
ENDBRANCH   1   2
BRANCH   1  18
ATOM     18  C   UNL     1      61.536  34.555  60.641  1.00  0.00     0.000 C 
BRANCH  18  19
ATOM     19  C   UNL     1      62.488  35.722  60.983  1.00  0.00     0.000 C 
BRANCH  19  20
ATOM     20  C   UNL     1      63.996  35.431  60.818  1.00  0.00     0.000 C 
BRANCH  20  21
ATOM     21  C   UNL     1      64.626  36.019  59.544  1.00  0.00     0.000 C 
BRANCH  21  22
ATOM     22  C   UNL     1      65.266  34.958  58.633  1.00  0.00     0.000 C 
BRANCH  22  23
ATOM     23  C   UNL     1      64.367  34.569  57.449  1.00  0.00     0.000 C 
BRANCH  23  24
ATOM     24  C   UNL     1      63.149  35.498  57.304  1.00  0.00    -0.000 C 
BRANCH  24  25
ATOM     25  C   UNL     1      61.832  34.717  57.158  1.00  0.00    -0.000 C 
BRANCH  25  26
ATOM     26  C   UNL     1      60.596  35.633  57.158  1.00  0.00    -0.000 C 
BRANCH  26  27
ATOM     27  C   UNL     1      59.291  34.872  57.448  1.00  0.00    -0.000 C 
BRANCH  27  28
ATOM     28  C   UNL     1      59.430  33.337  57.508  1.00  0.00    -0.000 C 
BRANCH  28  29
ATOM     29  C   UNL     1      58.661  32.567  56.419  1.00  0.00    -0.000 C 
BRANCH  29  30
ATOM     30  C   UNL     1      58.971  33.068  55.001  1.00  0.00    -0.000 C 
BRANCH  30  31
ATOM     31  C   UNL     1      60.117  32.266  54.374  1.00  0.00    -0.003 C 
ATOM     32  C   UNL     1      61.228  33.187  53.878  1.00  0.00     0.004 C 
ENDBRANCH  30  31
ENDBRANCH  29  30
ENDBRANCH  28  29
ENDBRANCH  27  28
ENDBRANCH  26  27
ENDBRANCH  25  26
ENDBRANCH  24  25
ENDBRANCH  23  24
ENDBRANCH  22  23
ENDBRANCH  21  22
ENDBRANCH  20  21
ENDBRANCH  19  20
ENDBRANCH  18  19
ENDBRANCH   1  18
TORSDOF 28
ENDMDL
MODEL 8
REMARK VINA RESULT:    -3.009      8.263     11.897
REMARK INTER + INTRA:         -13.298
REMARK INTER:                  -7.865
REMARK INTRA:                  -5.432
REMARK UNBOUND:                -5.364
REMARK SMILES CCCCCCCCCCCCCCCCCCCCCCCCCCCCCC(=O)[O-]
REMARK SMILES IDX 16 1 17 2 18 3 19 4 20 5 21 6 22 7 23 8 24 9 25 10 26 11
REMARK SMILES IDX 27 12 28 13 29 14 30 15 31 16 32 17 15 18 14 19 13 20 12 21
REMARK SMILES IDX 11 22 10 23 9 24 8 25 7 26 6 27 5 28 4 29 3 30 2 31 1 32
REMARK H PARENT
REMARK Flexibility Score: inf
ROOT
ATOM      1  C   UNL     1      63.710  30.397  61.523  1.00  0.00     0.000 C 
ENDROOT
BRANCH   1   2
ATOM      2  C   UNL     1      62.397  29.624  61.326  1.00  0.00     0.000 C 
BRANCH   2   3
ATOM      3  C   UNL     1      61.157  30.445  61.721  1.00  0.00     0.000 C 
BRANCH   3   4
ATOM      4  C   UNL     1      61.004  31.715  60.867  1.00  0.00     0.000 C 
BRANCH   4   5
ATOM      5  C   UNL     1      60.490  31.409  59.449  1.00  0.00     0.000 C 
BRANCH   5   6
ATOM      6  C   UNL     1      61.420  31.949  58.351  1.00  0.00     0.000 C 
BRANCH   6   7
ATOM      7  C   UNL     1      61.829  30.862  57.341  1.00  0.00     0.000 C 
BRANCH   7   8
ATOM      8  C   UNL     1      61.438  29.449  57.799  1.00  0.00     0.000 C 
BRANCH   8   9
ATOM      9  C   UNL     1      60.392  28.797  56.881  1.00  0.00     0.000 C 
BRANCH   9  10
ATOM     10  C   UNL     1      59.660  27.657  57.603  1.00  0.00     0.000 C 
BRANCH  10  11
ATOM     11  C   UNL     1      59.889  27.674  59.123  1.00  0.00     0.000 C 
BRANCH  11  12
ATOM     12  C   UNL     1      58.765  28.399  59.884  1.00  0.00     0.000 C 
BRANCH  12  13
ATOM     13  C   UNL     1      58.039  27.481  60.881  1.00  0.00     0.006 C 
BRANCH  13  14
ATOM     14  C   UNL     1      56.578  27.219  60.490  1.00  0.00     0.053 C 
BRANCH  14  15
ATOM     15  C   UNL     1      55.655  27.979  61.390  1.00  0.00     0.041 C 
ATOM     16  O   UNL     1      54.746  28.701  60.902  1.00  0.00    -0.550 OA
ATOM     17  O   UNL     1      55.837  27.939  62.766  1.00  0.00    -0.550 OA
ENDBRANCH  14  15
ENDBRANCH  13  14
ENDBRANCH  12  13
ENDBRANCH  11  12
ENDBRANCH  10  11
ENDBRANCH   9  10
ENDBRANCH   8   9
ENDBRANCH   7   8
ENDBRANCH   6   7
ENDBRANCH   5   6
ENDBRANCH   4   5
ENDBRANCH   3   4
ENDBRANCH   2   3
ENDBRANCH   1   2
BRANCH   1  18
ATOM     18  C   UNL     1      64.440  30.785  60.221  1.00  0.00     0.000 C 
BRANCH  18  19
ATOM     19  C   UNL     1      64.628  32.298  59.977  1.00  0.00     0.000 C 
BRANCH  19  20
ATOM     20  C   UNL     1      64.055  33.232  61.066  1.00  0.00     0.000 C 
BRANCH  20  21
ATOM     21  C   UNL     1      64.579  34.678  61.011  1.00  0.00     0.000 C 
BRANCH  21  22
ATOM     22  C   UNL     1      63.479  35.734  61.208  1.00  0.00     0.000 C 
BRANCH  22  23
ATOM     23  C   UNL     1      62.101  35.255  60.725  1.00  0.00     0.000 C 
BRANCH  23  24
ATOM     24  C   UNL     1      61.886  35.501  59.222  1.00  0.00    -0.000 C 
BRANCH  24  25
ATOM     25  C   UNL     1      60.817  36.574  58.952  1.00  0.00    -0.000 C 
BRANCH  25  26
ATOM     26  C   UNL     1      59.860  36.183  57.813  1.00  0.00    -0.000 C 
BRANCH  26  27
ATOM     27  C   UNL     1      59.055  34.908  58.121  1.00  0.00    -0.000 C 
BRANCH  27  28
ATOM     28  C   UNL     1      58.601  34.108  56.884  1.00  0.00    -0.000 C 
BRANCH  28  29
ATOM     29  C   UNL     1      57.502  33.062  57.148  1.00  0.00    -0.000 C 
BRANCH  29  30
ATOM     30  C   UNL     1      57.986  31.620  56.936  1.00  0.00    -0.000 C 
BRANCH  30  31
ATOM     31  C   UNL     1      56.807  30.682  56.653  1.00  0.00    -0.003 C 
ATOM     32  C   UNL     1      56.245  30.097  57.945  1.00  0.00     0.004 C 
ENDBRANCH  30  31
ENDBRANCH  29  30
ENDBRANCH  28  29
ENDBRANCH  27  28
ENDBRANCH  26  27
ENDBRANCH  25  26
ENDBRANCH  24  25
ENDBRANCH  23  24
ENDBRANCH  22  23
ENDBRANCH  21  22
ENDBRANCH  20  21
ENDBRANCH  19  20
ENDBRANCH  18  19
ENDBRANCH   1  18
TORSDOF 28
ENDMDL
MODEL 9
REMARK VINA RESULT:    -2.998      1.898      4.142
REMARK INTER + INTRA:         -13.271
REMARK INTER:                  -7.136
REMARK INTRA:                  -6.135
REMARK UNBOUND:                -5.364
REMARK SMILES CCCCCCCCCCCCCCCCCCCCCCCCCCCCCC(=O)[O-]
REMARK SMILES IDX 16 1 17 2 18 3 19 4 20 5 21 6 22 7 23 8 24 9 25 10 26 11
REMARK SMILES IDX 27 12 28 13 29 14 30 15 31 16 32 17 15 18 14 19 13 20 12 21
REMARK SMILES IDX 11 22 10 23 9 24 8 25 7 26 6 27 5 28 4 29 3 30 2 31 1 32
REMARK H PARENT
REMARK Flexibility Score: inf
ROOT
ATOM      1  C   UNL     1      54.386  29.417  52.728  1.00  0.00     0.000 C 
ENDROOT
BRANCH   1   2
ATOM      2  C   UNL     1      55.276  30.657  52.910  1.00  0.00     0.000 C 
BRANCH   2   3
ATOM      3  C   UNL     1      56.774  30.310  52.981  1.00  0.00     0.000 C 
BRANCH   3   4
ATOM      4  C   UNL     1      57.135  29.105  52.098  1.00  0.00     0.000 C 
BRANCH   4   5
ATOM      5  C   UNL     1      58.394  29.357  51.250  1.00  0.00     0.000 C 
BRANCH   5   6
ATOM      6  C   UNL     1      58.145  29.166  49.745  1.00  0.00     0.000 C 
BRANCH   6   7
ATOM      7  C   UNL     1      59.249  28.335  49.068  1.00  0.00     0.000 C 
BRANCH   7   8
ATOM      8  C   UNL     1      59.390  26.929  49.671  1.00  0.00     0.000 C 
BRANCH   8   9
ATOM      9  C   UNL     1      60.853  26.470  49.769  1.00  0.00     0.000 C 
BRANCH   9  10
ATOM     10  C   UNL     1      61.811  27.667  49.689  1.00  0.00     0.000 C 
BRANCH  10  11
ATOM     11  C   UNL     1      62.322  28.111  51.070  1.00  0.00     0.000 C 
BRANCH  11  12
ATOM     12  C   UNL     1      62.743  29.591  51.099  1.00  0.00     0.000 C 
BRANCH  12  13
ATOM     13  C   UNL     1      61.857  30.475  50.206  1.00  0.00     0.006 C 
BRANCH  13  14
ATOM     14  C   UNL     1      62.107  31.974  50.421  1.00  0.00     0.053 C 
BRANCH  14  15
ATOM     15  C   UNL     1      62.826  32.555  49.243  1.00  0.00     0.041 C 
ATOM     16  O   UNL     1      62.280  33.452  48.547  1.00  0.00    -0.550 OA
ATOM     17  O   UNL     1      64.071  32.063  48.877  1.00  0.00    -0.550 OA
ENDBRANCH  14  15
ENDBRANCH  13  14
ENDBRANCH  12  13
ENDBRANCH  11  12
ENDBRANCH  10  11
ENDBRANCH   9  10
ENDBRANCH   8   9
ENDBRANCH   7   8
ENDBRANCH   6   7
ENDBRANCH   5   6
ENDBRANCH   4   5
ENDBRANCH   3   4
ENDBRANCH   2   3
ENDBRANCH   1   2
BRANCH   1  18
ATOM     18  C   UNL     1      53.464  29.453  51.492  1.00  0.00     0.000 C 
BRANCH  18  19
ATOM     19  C   UNL     1      54.096  28.984  50.163  1.00  0.00     0.000 C 
BRANCH  19  20
ATOM     20  C   UNL     1      53.989  27.473  49.864  1.00  0.00     0.000 C 
BRANCH  20  21
ATOM     21  C   UNL     1      55.338  26.736  49.797  1.00  0.00     0.000 C 
BRANCH  21  22
ATOM     22  C   UNL     1      55.638  25.896  51.049  1.00  0.00     0.000 C 
BRANCH  22  23
ATOM     23  C   UNL     1      54.364  25.443  51.781  1.00  0.00     0.000 C 
BRANCH  23  24
ATOM     24  C   UNL     1      54.404  25.758  53.286  1.00  0.00    -0.000 C 
BRANCH  24  25
ATOM     25  C   UNL     1      55.793  26.234  53.746  1.00  0.00    -0.000 C 
BRANCH  25  26
ATOM     26  C   UNL     1      55.900  26.359  55.275  1.00  0.00    -0.000 C 
BRANCH  26  27
ATOM     27  C   UNL     1      56.165  27.803  55.738  1.00  0.00    -0.000 C 
BRANCH  27  28
ATOM     28  C   UNL     1      57.528  28.029  56.422  1.00  0.00    -0.000 C 
BRANCH  28  29
ATOM     29  C   UNL     1      58.659  28.501  55.489  1.00  0.00    -0.000 C 
BRANCH  29  30
ATOM     30  C   UNL     1      59.733  27.427  55.261  1.00  0.00    -0.000 C 
BRANCH  30  31
ATOM     31  C   UNL     1      60.003  27.232  53.765  1.00  0.00    -0.003 C 
ATOM     32  C   UNL     1      59.304  25.982  53.237  1.00  0.00     0.004 C 
ENDBRANCH  30  31
ENDBRANCH  29  30
ENDBRANCH  28  29
ENDBRANCH  27  28
ENDBRANCH  26  27
ENDBRANCH  25  26
ENDBRANCH  24  25
ENDBRANCH  23  24
ENDBRANCH  22  23
ENDBRANCH  21  22
ENDBRANCH  20  21
ENDBRANCH  19  20
ENDBRANCH  18  19
ENDBRANCH   1  18
TORSDOF 28
ENDMDL
