MODEL 1
REMARK VINA RESULT:    -7.072      0.000      0.000
REMARK INTER + INTRA:          -8.506
REMARK INTER:                  -8.313
REMARK INTRA:                  -0.193
REMARK UNBOUND:                -0.193
REMARK SMILES O=c1c(O)c(-c2ccc(O)cc2)oc2cc(O)cc(O)c12
REMARK SMILES IDX 5 1 3 2 2 3 1 4 21 5 19 6 18 7 16 8 15 9 14 10 13 11 6 12
REMARK SMILES IDX 7 13 8 14 9 15 12 16 11 17 10 18 4 20 20 22 17 24
REMARK H PARENT 10 19 4 21 20 23 17 25
REMARK Flexibility Score: inf
ROOT
ATOM      1  C   UNL     1      -4.874  35.948  60.064  1.00  0.00     0.180 A 
ATOM      2  C   UNL     1      -6.087  35.853  59.360  1.00  0.00     0.208 A 
ATOM      3  C   UNL     1      -6.905  36.990  59.256  1.00  0.00     0.238 A 
ATOM      4  O   UNL     1      -7.964  36.913  58.580  1.00  0.00    -0.285 OA
ATOM      5  C   UNL     1      -6.508  38.202  59.871  1.00  0.00     0.111 A 
ATOM      6  C   UNL     1      -7.278  39.405  59.863  1.00  0.00     0.134 A 
ATOM      7  C   UNL     1      -6.728  40.579  60.390  1.00  0.00     0.093 A 
ATOM      8  C   UNL     1      -5.462  40.580  60.982  1.00  0.00     0.123 A 
ATOM      9  C   UNL     1      -4.728  39.398  61.047  1.00  0.00     0.094 A 
ATOM     10  C   UNL     1      -5.235  38.218  60.498  1.00  0.00     0.146 A 
ATOM     11  O   UNL     1      -4.498  37.116  60.572  1.00  0.00    -0.452 OA
ENDROOT
BRANCH   1  12
ATOM     12  C   UNL     1      -3.971  34.788  60.236  1.00  0.00     0.021 A 
ATOM     13  C   UNL     1      -3.226  34.321  59.141  1.00  0.00     0.016 A 
ATOM     14  C   UNL     1      -2.350  33.241  59.287  1.00  0.00     0.047 A 
ATOM     15  C   UNL     1      -2.196  32.625  60.536  1.00  0.00     0.115 A 
ATOM     16  C   UNL     1      -3.795  34.177  61.491  1.00  0.00     0.016 A 
ATOM     17  C   UNL     1      -2.917  33.098  61.636  1.00  0.00     0.047 A 
BRANCH  15  18
ATOM     18  O   UNL     1      -1.326  31.549  60.694  1.00  0.00    -0.508 OA
ATOM     19  H   UNL     1      -1.209  30.851  59.969  1.00  0.00     0.293 HD
ENDBRANCH  15  18
ENDBRANCH   1  12
BRANCH   2  20
ATOM     20  O   UNL     1      -6.450  34.653  58.743  1.00  0.00    -0.502 OA
ATOM     21  H   UNL     1      -7.159  34.606  58.021  1.00  0.00     0.293 HD
ENDBRANCH   2  20
BRANCH   6  22
ATOM     22  O   UNL     1      -8.586  39.490  59.381  1.00  0.00    -0.507 OA
ATOM     23  H   UNL     1      -8.841  39.823  58.463  1.00  0.00     0.293 HD
ENDBRANCH   6  22
BRANCH   8  24
ATOM     24  O   UNL     1      -4.929  41.750  61.518  1.00  0.00    -0.508 OA
ATOM     25  H   UNL     1      -5.229  42.664  61.199  1.00  0.00     0.293 HD
ENDBRANCH   8  24
TORSDOF 5
ENDMDL
MODEL 2
REMARK VINA RESULT:    -6.485     15.583     16.947
REMARK INTER + INTRA:          -7.816
REMARK INTER:                  -7.526
REMARK INTRA:                  -0.290
REMARK UNBOUND:                -0.193
REMARK SMILES O=c1c(O)c(-c2ccc(O)cc2)oc2cc(O)cc(O)c12
REMARK SMILES IDX 5 1 3 2 2 3 1 4 21 5 19 6 18 7 16 8 15 9 14 10 13 11 6 12
REMARK SMILES IDX 7 13 8 14 9 15 12 16 11 17 10 18 4 20 20 22 17 24
REMARK H PARENT 10 19 4 21 20 23 17 25
REMARK Flexibility Score: inf
ROOT
ATOM      1  C   UNL     1     -16.234  27.921  51.865  1.00  0.00     0.180 A 
ATOM      2  C   UNL     1     -15.379  27.873  50.751  1.00  0.00     0.208 A 
ATOM      3  C   UNL     1     -15.663  28.681  49.638  1.00  0.00     0.238 A 
ATOM      4  O   UNL     1     -14.865  28.674  48.665  1.00  0.00    -0.285 OA
ATOM      5  C   UNL     1     -16.808  29.514  49.646  1.00  0.00     0.111 A 
ATOM      6  C   UNL     1     -17.215  30.344  48.558  1.00  0.00     0.134 A 
ATOM      7  C   UNL     1     -18.290  31.224  48.726  1.00  0.00     0.093 A 
ATOM      8  C   UNL     1     -19.014  31.258  49.920  1.00  0.00     0.123 A 
ATOM      9  C   UNL     1     -18.662  30.409  50.967  1.00  0.00     0.094 A 
ATOM     10  C   UNL     1     -17.571  29.546  50.843  1.00  0.00     0.146 A 
ATOM     11  O   UNL     1     -17.263  28.761  51.868  1.00  0.00    -0.452 OA
ENDROOT
BRANCH   1  12
ATOM     12  C   UNL     1     -16.014  27.082  53.064  1.00  0.00     0.021 A 
ATOM     13  C   UNL     1     -15.392  27.638  54.194  1.00  0.00     0.016 A 
ATOM     14  C   UNL     1     -15.194  26.870  55.345  1.00  0.00     0.047 A 
ATOM     15  C   UNL     1     -15.630  25.540  55.386  1.00  0.00     0.115 A 
ATOM     16  C   UNL     1     -16.467  25.751  53.121  1.00  0.00     0.016 A 
ATOM     17  C   UNL     1     -16.270  24.985  54.274  1.00  0.00     0.047 A 
BRANCH  15  18
ATOM     18  O   UNL     1     -15.440  24.765  56.528  1.00  0.00    -0.508 OA
ATOM     19  H   UNL     1     -15.592  25.142  57.456  1.00  0.00     0.293 HD
ENDBRANCH  15  18
ENDBRANCH   1  12
BRANCH   2  20
ATOM     20  O   UNL     1     -14.242  27.060  50.771  1.00  0.00    -0.502 OA
ATOM     21  H   UNL     1     -13.716  26.839  49.934  1.00  0.00     0.293 HD
ENDBRANCH   2  20
BRANCH   6  22
ATOM     22  O   UNL     1     -16.619  30.320  47.294  1.00  0.00    -0.507 OA
ATOM     23  H   UNL     1     -15.703  29.945  47.097  1.00  0.00     0.293 HD
ENDBRANCH   6  22
BRANCH   8  24
ATOM     24  O   UNL     1     -20.093  32.126  50.073  1.00  0.00    -0.508 OA
ATOM     25  H   UNL     1     -19.958  33.126  50.176  1.00  0.00     0.293 HD
ENDBRANCH   8  24
TORSDOF 5
ENDMDL
MODEL 3
REMARK VINA RESULT:    -6.453     15.657     17.056
REMARK INTER + INTRA:          -7.778
REMARK INTER:                  -7.547
REMARK INTRA:                  -0.231
REMARK UNBOUND:                -0.193
REMARK SMILES O=c1c(O)c(-c2ccc(O)cc2)oc2cc(O)cc(O)c12
REMARK SMILES IDX 5 1 3 2 2 3 1 4 21 5 19 6 18 7 16 8 15 9 14 10 13 11 6 12
REMARK SMILES IDX 7 13 8 14 9 15 12 16 11 17 10 18 4 20 20 22 17 24
REMARK H PARENT 10 19 4 21 20 23 17 25
REMARK Flexibility Score: inf
ROOT
ATOM      1  C   UNL     1     -16.942  27.751  52.123  1.00  0.00     0.180 A 
ATOM      2  C   UNL     1     -17.655  27.139  51.078  1.00  0.00     0.208 A 
ATOM      3  C   UNL     1     -18.055  27.916  49.979  1.00  0.00     0.238 A 
ATOM      4  O   UNL     1     -18.647  27.352  49.022  1.00  0.00    -0.285 OA
ATOM      5  C   UNL     1     -17.751  29.299  49.946  1.00  0.00     0.111 A 
ATOM      6  C   UNL     1     -18.141  30.190  48.901  1.00  0.00     0.134 A 
ATOM      7  C   UNL     1     -17.673  31.509  48.909  1.00  0.00     0.093 A 
ATOM      8  C   UNL     1     -16.882  31.987  49.956  1.00  0.00     0.123 A 
ATOM      9  C   UNL     1     -16.545  31.142  51.010  1.00  0.00     0.094 A 
ATOM     10  C   UNL     1     -16.967  29.810  51.013  1.00  0.00     0.146 A 
ATOM     11  O   UNL     1     -16.614  29.035  52.032  1.00  0.00    -0.452 OA
ENDROOT
BRANCH   1  12
ATOM     12  C   UNL     1     -16.508  27.004  53.325  1.00  0.00     0.021 A 
ATOM     13  C   UNL     1     -17.232  27.136  54.522  1.00  0.00     0.016 A 
ATOM     14  C   UNL     1     -16.853  26.422  55.662  1.00  0.00     0.047 A 
ATOM     15  C   UNL     1     -15.755  25.553  55.616  1.00  0.00     0.115 A 
ATOM     16  C   UNL     1     -15.419  26.114  53.281  1.00  0.00     0.016 A 
ATOM     17  C   UNL     1     -15.043  25.399  54.423  1.00  0.00     0.047 A 
BRANCH  15  18
ATOM     18  O   UNL     1     -15.368  24.836  56.745  1.00  0.00    -0.508 OA
ATOM     19  H   UNL     1     -15.350  23.823  56.749  1.00  0.00     0.293 HD
ENDBRANCH  15  18
ENDBRANCH   1  12
BRANCH   2  20
ATOM     20  O   UNL     1     -17.927  25.769  51.120  1.00  0.00    -0.502 OA
ATOM     21  H   UNL     1     -17.290  25.101  51.539  1.00  0.00     0.293 HD
ENDBRANCH   2  20
BRANCH   6  22
ATOM     22  O   UNL     1     -19.003  29.839  47.859  1.00  0.00    -0.507 OA
ATOM     23  H   UNL     1     -18.951  28.980  47.334  1.00  0.00     0.293 HD
ENDBRANCH   6  22
BRANCH   8  24
ATOM     24  O   UNL     1     -16.433  33.306  49.963  1.00  0.00    -0.508 OA
ATOM     25  H   UNL     1     -17.067  34.081  50.123  1.00  0.00     0.293 HD
ENDBRANCH   8  24
TORSDOF 5
ENDMDL
MODEL 4
REMARK VINA RESULT:    -6.290     15.894     17.212
REMARK INTER + INTRA:          -7.586
REMARK INTER:                  -7.299
REMARK INTRA:                  -0.286
REMARK UNBOUND:                -0.193
REMARK SMILES O=c1c(O)c(-c2ccc(O)cc2)oc2cc(O)cc(O)c12
REMARK SMILES IDX 5 1 3 2 2 3 1 4 21 5 19 6 18 7 16 8 15 9 14 10 13 11 6 12
REMARK SMILES IDX 7 13 8 14 9 15 12 16 11 17 10 18 4 20 20 22 17 24
REMARK H PARENT 10 19 4 21 20 23 17 25
REMARK Flexibility Score: inf
ROOT
ATOM      1  C   UNL     1     -16.461  28.307  50.600  1.00  0.00     0.180 A 
ATOM      2  C   UNL     1     -16.354  27.877  49.266  1.00  0.00     0.208 A 
ATOM      3  C   UNL     1     -16.425  28.829  48.236  1.00  0.00     0.238 A 
ATOM      4  O   UNL     1     -16.276  28.446  47.046  1.00  0.00    -0.285 OA
ATOM      5  C   UNL     1     -16.620  30.195  48.552  1.00  0.00     0.111 A 
ATOM      6  C   UNL     1     -16.747  31.240  47.587  1.00  0.00     0.134 A 
ATOM      7  C   UNL     1     -16.804  32.571  48.016  1.00  0.00     0.093 A 
ATOM      8  C   UNL     1     -16.804  32.892  49.375  1.00  0.00     0.123 A 
ATOM      9  C   UNL     1     -16.741  31.876  50.325  1.00  0.00     0.094 A 
ATOM     10  C   UNL     1     -16.646  30.540  49.928  1.00  0.00     0.146 A 
ATOM     11  O   UNL     1     -16.576  29.602  50.866  1.00  0.00    -0.452 OA
ENDROOT
BRANCH   1  12
ATOM     12  C   UNL     1     -16.420  27.361  51.738  1.00  0.00     0.021 A 
ATOM     13  C   UNL     1     -17.599  26.715  52.145  1.00  0.00     0.016 A 
ATOM     14  C   UNL     1     -17.578  25.801  53.203  1.00  0.00     0.047 A 
ATOM     15  C   UNL     1     -16.374  25.509  53.856  1.00  0.00     0.115 A 
ATOM     16  C   UNL     1     -15.211  27.047  52.386  1.00  0.00     0.016 A 
ATOM     17  C   UNL     1     -15.192  26.131  53.443  1.00  0.00     0.047 A 
BRANCH  15  18
ATOM     18  O   UNL     1     -16.340  24.600  54.911  1.00  0.00    -0.508 OA
ATOM     19  H   UNL     1     -16.826  24.780  55.782  1.00  0.00     0.293 HD
ENDBRANCH  15  18
ENDBRANCH   1  12
BRANCH   2  20
ATOM     20  O   UNL     1     -16.141  26.527  48.977  1.00  0.00    -0.502 OA
ATOM     21  H   UNL     1     -16.546  26.073  48.166  1.00  0.00     0.293 HD
ENDBRANCH   2  20
BRANCH   6  22
ATOM     22  O   UNL     1     -16.849  31.022  46.210  1.00  0.00    -0.507 OA
ATOM     23  H   UNL     1     -17.155  31.711  45.540  1.00  0.00     0.293 HD
ENDBRANCH   6  22
BRANCH   8  24
ATOM     24  O   UNL     1     -16.878  34.219  49.793  1.00  0.00    -0.508 OA
ATOM     25  H   UNL     1     -17.244  34.468  50.705  1.00  0.00     0.293 HD
ENDBRANCH   8  24
TORSDOF 5
ENDMDL
MODEL 5
REMARK VINA RESULT:    -6.280      1.399      3.127
REMARK INTER + INTRA:          -7.574
REMARK INTER:                  -7.287
REMARK INTRA:                  -0.287
REMARK UNBOUND:                -0.193
REMARK SMILES O=c1c(O)c(-c2ccc(O)cc2)oc2cc(O)cc(O)c12
REMARK SMILES IDX 5 1 3 2 2 3 1 4 21 5 19 6 18 7 16 8 15 9 14 10 13 11 6 12
REMARK SMILES IDX 7 13 8 14 9 15 12 16 11 17 10 18 4 20 20 22 17 24
REMARK H PARENT 10 19 4 21 20 23 17 25
REMARK Flexibility Score: inf
ROOT
ATOM      1  C   UNL     1      -3.742  35.470  60.798  1.00  0.00     0.180 A 
ATOM      2  C   UNL     1      -3.154  36.626  61.341  1.00  0.00     0.208 A 
ATOM      3  C   UNL     1      -3.816  37.856  61.203  1.00  0.00     0.238 A 
ATOM      4  O   UNL     1      -3.311  38.879  61.737  1.00  0.00    -0.285 OA
ATOM      5  C   UNL     1      -5.049  37.919  60.509  1.00  0.00     0.111 A 
ATOM      6  C   UNL     1      -5.787  39.119  60.275  1.00  0.00     0.134 A 
ATOM      7  C   UNL     1      -7.058  39.044  59.693  1.00  0.00     0.093 A 
ATOM      8  C   UNL     1      -7.590  37.821  59.277  1.00  0.00     0.123 A 
ATOM      9  C   UNL     1      -6.852  36.652  59.448  1.00  0.00     0.094 A 
ATOM     10  C   UNL     1      -5.596  36.690  60.058  1.00  0.00     0.146 A 
ATOM     11  O   UNL     1      -4.931  35.551  60.212  1.00  0.00    -0.452 OA
ENDROOT
BRANCH   1  12
ATOM     12  C   UNL     1      -3.093  34.143  60.882  1.00  0.00     0.021 A 
ATOM     13  C   UNL     1      -2.223  33.731  59.859  1.00  0.00     0.016 A 
ATOM     14  C   UNL     1      -1.582  32.490  59.930  1.00  0.00     0.047 A 
ATOM     15  C   UNL     1      -1.792  31.652  61.033  1.00  0.00     0.115 A 
ATOM     16  C   UNL     1      -3.283  33.304  61.996  1.00  0.00     0.016 A 
ATOM     17  C   UNL     1      -2.640  32.064  62.065  1.00  0.00     0.047 A 
BRANCH  15  18
ATOM     18  O   UNL     1      -1.159  30.414  61.114  1.00  0.00    -0.508 OA
ATOM     19  H   UNL     1      -1.049  29.932  61.999  1.00  0.00     0.293 HD
ENDBRANCH  15  18
ENDBRANCH   1  12
BRANCH   2  20
ATOM     20  O   UNL     1      -1.947  36.539  62.040  1.00  0.00    -0.502 OA
ATOM     21  H   UNL     1      -1.842  36.882  62.988  1.00  0.00     0.293 HD
ENDBRANCH   2  20
BRANCH   6  22
ATOM     22  O   UNL     1      -5.308  40.399  60.567  1.00  0.00    -0.507 OA
ATOM     23  H   UNL     1      -5.583  41.240  60.083  1.00  0.00     0.293 HD
ENDBRANCH   6  22
BRANCH   8  24
ATOM     24  O   UNL     1      -8.849  37.758  58.684  1.00  0.00    -0.508 OA
ATOM     25  H   UNL     1      -8.966  37.828  57.680  1.00  0.00     0.293 HD
ENDBRANCH   8  24
TORSDOF 5
ENDMDL
MODEL 6
REMARK VINA RESULT:    -6.194     16.016     17.691
REMARK INTER + INTRA:          -7.473
REMARK INTER:                  -7.193
REMARK INTRA:                  -0.280
REMARK UNBOUND:                -0.193
REMARK SMILES O=c1c(O)c(-c2ccc(O)cc2)oc2cc(O)cc(O)c12
REMARK SMILES IDX 5 1 3 2 2 3 1 4 21 5 19 6 18 7 16 8 15 9 14 10 13 11 6 12
REMARK SMILES IDX 7 13 8 14 9 15 12 16 11 17 10 18 4 20 20 22 17 24
REMARK H PARENT 10 19 4 21 20 23 17 25
REMARK Flexibility Score: inf
ROOT
ATOM      1  C   UNL     1     -17.022  26.754  52.541  1.00  0.00     0.180 A 
ATOM      2  C   UNL     1     -17.800  25.884  51.757  1.00  0.00     0.208 A 
ATOM      3  C   UNL     1     -18.076  26.230  50.425  1.00  0.00     0.238 A 
ATOM      4  O   UNL     1     -18.728  25.422  49.713  1.00  0.00    -0.285 OA
ATOM      5  C   UNL     1     -17.586  27.449  49.897  1.00  0.00     0.111 A 
ATOM      6  C   UNL     1     -17.838  27.919  48.573  1.00  0.00     0.134 A 
ATOM      7  C   UNL     1     -17.195  29.075  48.117  1.00  0.00     0.093 A 
ATOM      8  C   UNL     1     -16.358  29.814  48.958  1.00  0.00     0.123 A 
ATOM      9  C   UNL     1     -16.153  29.396  50.270  1.00  0.00     0.094 A 
ATOM     10  C   UNL     1     -16.753  28.227  50.743  1.00  0.00     0.146 A 
ATOM     11  O   UNL     1     -16.521  27.858  51.998  1.00  0.00    -0.452 OA
ENDROOT
BRANCH   1  12
ATOM     12  C   UNL     1     -16.709  26.470  53.959  1.00  0.00     0.021 A 
ATOM     13  C   UNL     1     -15.595  25.675  54.277  1.00  0.00     0.016 A 
ATOM     14  C   UNL     1     -15.268  25.413  55.611  1.00  0.00     0.047 A 
ATOM     15  C   UNL     1     -16.042  25.955  56.644  1.00  0.00     0.115 A 
ATOM     16  C   UNL     1     -17.469  27.028  55.003  1.00  0.00     0.016 A 
ATOM     17  C   UNL     1     -17.139  26.765  56.337  1.00  0.00     0.047 A 
BRANCH  15  18
ATOM     18  O   UNL     1     -15.726  25.701  57.977  1.00  0.00    -0.508 OA
ATOM     19  H   UNL     1     -14.772  25.525  58.271  1.00  0.00     0.293 HD
ENDBRANCH  15  18
ENDBRANCH   1  12
BRANCH   2  20
ATOM     20  O   UNL     1     -18.256  24.676  52.291  1.00  0.00    -0.502 OA
ATOM     21  H   UNL     1     -19.237  24.424  52.307  1.00  0.00     0.293 HD
ENDBRANCH   2  20
BRANCH   6  22
ATOM     22  O   UNL     1     -18.727  27.308  47.685  1.00  0.00    -0.507 OA
ATOM     23  H   UNL     1     -18.479  26.582  47.031  1.00  0.00     0.293 HD
ENDBRANCH   6  22
BRANCH   8  24
ATOM     24  O   UNL     1     -15.734  30.973  48.500  1.00  0.00    -0.508 OA
ATOM     25  H   UNL     1     -14.757  30.977  48.229  1.00  0.00     0.293 HD
ENDBRANCH   8  24
TORSDOF 5
ENDMDL
MODEL 7
REMARK VINA RESULT:    -6.149     16.083     17.311
REMARK INTER + INTRA:          -7.420
REMARK INTER:                  -7.302
REMARK INTRA:                  -0.118
REMARK UNBOUND:                -0.193
REMARK SMILES O=c1c(O)c(-c2ccc(O)cc2)oc2cc(O)cc(O)c12
REMARK SMILES IDX 5 1 3 2 2 3 1 4 21 5 19 6 18 7 16 8 15 9 14 10 13 11 6 12
REMARK SMILES IDX 7 13 8 14 9 15 12 16 11 17 10 18 4 20 20 22 17 24
REMARK H PARENT 10 19 4 21 20 23 17 25
REMARK Flexibility Score: inf
ROOT
ATOM      1  C   UNL     1     -16.516  27.765  52.607  1.00  0.00     0.180 A 
ATOM      2  C   UNL     1     -15.535  26.774  52.783  1.00  0.00     0.208 A 
ATOM      3  C   UNL     1     -15.514  26.043  53.982  1.00  0.00     0.238 A 
ATOM      4  O   UNL     1     -14.666  25.120  54.113  1.00  0.00    -0.285 OA
ATOM      5  C   UNL     1     -16.462  26.323  54.995  1.00  0.00     0.111 A 
ATOM      6  C   UNL     1     -16.507  25.671  56.265  1.00  0.00     0.134 A 
ATOM      7  C   UNL     1     -17.569  25.936  57.138  1.00  0.00     0.093 A 
ATOM      8  C   UNL     1     -18.550  26.876  56.816  1.00  0.00     0.123 A 
ATOM      9  C   UNL     1     -18.481  27.560  55.605  1.00  0.00     0.094 A 
ATOM     10  C   UNL     1     -17.455  27.292  54.696  1.00  0.00     0.146 A 
ATOM     11  O   UNL     1     -17.432  27.958  53.548  1.00  0.00    -0.452 OA
ENDROOT
BRANCH   1  12
ATOM     12  C   UNL     1     -16.588  28.593  51.382  1.00  0.00     0.021 A 
ATOM     13  C   UNL     1     -16.330  29.971  51.461  1.00  0.00     0.016 A 
ATOM     14  C   UNL     1     -16.370  30.768  50.313  1.00  0.00     0.047 A 
ATOM     15  C   UNL     1     -16.654  30.193  49.068  1.00  0.00     0.115 A 
ATOM     16  C   UNL     1     -16.853  28.020  50.125  1.00  0.00     0.016 A 
ATOM     17  C   UNL     1     -16.891  28.818  48.977  1.00  0.00     0.047 A 
BRANCH  15  18
ATOM     18  O   UNL     1     -16.697  30.976  47.917  1.00  0.00    -0.508 OA
ATOM     19  H   UNL     1     -15.850  31.270  47.445  1.00  0.00     0.293 HD
ENDBRANCH  15  18
ENDBRANCH   1  12
BRANCH   2  20
ATOM     20  O   UNL     1     -14.622  26.498  51.762  1.00  0.00    -0.502 OA
ATOM     21  H   UNL     1     -14.858  26.594  50.781  1.00  0.00     0.293 HD
ENDBRANCH   2  20
BRANCH   6  22
ATOM     22  O   UNL     1     -15.528  24.786  56.723  1.00  0.00    -0.507 OA
ATOM     23  H   UNL     1     -14.641  25.062  57.115  1.00  0.00     0.293 HD
ENDBRANCH   6  22
BRANCH   8  24
ATOM     24  O   UNL     1     -19.595  27.145  57.698  1.00  0.00    -0.508 OA
ATOM     25  H   UNL     1     -19.427  27.565  58.605  1.00  0.00     0.293 HD
ENDBRANCH   8  24
TORSDOF 5
ENDMDL
MODEL 8
REMARK VINA RESULT:    -6.147     16.458     17.412
REMARK INTER + INTRA:          -7.418
REMARK INTER:                  -7.324
REMARK INTRA:                  -0.094
REMARK UNBOUND:                -0.193
REMARK SMILES O=c1c(O)c(-c2ccc(O)cc2)oc2cc(O)cc(O)c12
REMARK SMILES IDX 5 1 3 2 2 3 1 4 21 5 19 6 18 7 16 8 15 9 14 10 13 11 6 12
REMARK SMILES IDX 7 13 8 14 9 15 12 16 11 17 10 18 4 20 20 22 17 24
REMARK H PARENT 10 19 4 21 20 23 17 25
REMARK Flexibility Score: inf
ROOT
ATOM      1  C   UNL     1     -16.211  27.197  51.582  1.00  0.00     0.180 A 
ATOM      2  C   UNL     1     -17.255  28.092  51.875  1.00  0.00     0.208 A 
ATOM      3  C   UNL     1     -17.790  28.113  53.173  1.00  0.00     0.238 A 
ATOM      4  O   UNL     1     -18.688  28.953  53.444  1.00  0.00    -0.285 OA
ATOM      5  C   UNL     1     -17.287  27.228  54.157  1.00  0.00     0.111 A 
ATOM      6  C   UNL     1     -17.782  27.135  55.493  1.00  0.00     0.134 A 
ATOM      7  C   UNL     1     -17.123  26.317  56.418  1.00  0.00     0.093 A 
ATOM      8  C   UNL     1     -16.026  25.539  56.039  1.00  0.00     0.123 A 
ATOM      9  C   UNL     1     -15.573  25.578  54.723  1.00  0.00     0.094 A 
ATOM     10  C   UNL     1     -16.187  26.412  53.786  1.00  0.00     0.146 A 
ATOM     11  O   UNL     1     -15.717  26.427  52.544  1.00  0.00    -0.452 OA
ENDROOT
BRANCH   1  12
ATOM     12  C   UNL     1     -15.612  27.100  50.232  1.00  0.00     0.021 A 
ATOM     13  C   UNL     1     -14.226  27.269  50.075  1.00  0.00     0.016 A 
ATOM     14  C   UNL     1     -13.637  27.159  48.812  1.00  0.00     0.047 A 
ATOM     15  C   UNL     1     -14.425  26.863  47.692  1.00  0.00     0.115 A 
ATOM     16  C   UNL     1     -16.393  26.783  49.106  1.00  0.00     0.016 A 
ATOM     17  C   UNL     1     -15.801  26.672  47.843  1.00  0.00     0.047 A 
BRANCH  15  18
ATOM     18  O   UNL     1     -13.848  26.750  46.429  1.00  0.00    -0.508 OA
ATOM     19  H   UNL     1     -14.287  26.210  45.693  1.00  0.00     0.293 HD
ENDBRANCH  15  18
ENDBRANCH   1  12
BRANCH   2  20
ATOM     20  O   UNL     1     -17.722  28.972  50.896  1.00  0.00    -0.502 OA
ATOM     21  H   UNL     1     -18.528  28.766  50.318  1.00  0.00     0.293 HD
ENDBRANCH   2  20
BRANCH   6  22
ATOM     22  O   UNL     1     -18.925  27.798  55.949  1.00  0.00    -0.507 OA
ATOM     23  H   UNL     1     -19.852  27.671  55.573  1.00  0.00     0.293 HD
ENDBRANCH   6  22
BRANCH   8  24
ATOM     24  O   UNL     1     -15.385  24.716  56.962  1.00  0.00    -0.508 OA
ATOM     25  H   UNL     1     -15.539  24.817  57.959  1.00  0.00     0.293 HD
ENDBRANCH   8  24
TORSDOF 5
ENDMDL
MODEL 9
REMARK VINA RESULT:    -6.060     15.790     17.611
REMARK INTER + INTRA:          -7.316
REMARK INTER:                  -7.119
REMARK INTRA:                  -0.197
REMARK UNBOUND:                -0.193
REMARK SMILES O=c1c(O)c(-c2ccc(O)cc2)oc2cc(O)cc(O)c12
REMARK SMILES IDX 5 1 3 2 2 3 1 4 21 5 19 6 18 7 16 8 15 9 14 10 13 11 6 12
REMARK SMILES IDX 7 13 8 14 9 15 12 16 11 17 10 18 4 20 20 22 17 24
REMARK H PARENT 10 19 4 21 20 23 17 25
REMARK Flexibility Score: inf
ROOT
ATOM      1  C   UNL     1     -16.232  26.521  52.329  1.00  0.00     0.180 A 
ATOM      2  C   UNL     1     -17.463  26.323  51.682  1.00  0.00     0.208 A 
ATOM      3  C   UNL     1     -17.545  26.530  50.295  1.00  0.00     0.238 A 
ATOM      4  O   UNL     1     -18.637  26.301  49.712  1.00  0.00    -0.285 OA
ATOM      5  C   UNL     1     -16.398  26.949  49.577  1.00  0.00     0.111 A 
ATOM      6  C   UNL     1     -16.376  27.226  48.177  1.00  0.00     0.134 A 
ATOM      7  C   UNL     1     -15.157  27.506  47.548  1.00  0.00     0.093 A 
ATOM      8  C   UNL     1     -13.969  27.581  48.280  1.00  0.00     0.123 A 
ATOM      9  C   UNL     1     -13.990  27.370  49.656  1.00  0.00     0.094 A 
ATOM     10  C   UNL     1     -15.185  27.053  50.306  1.00  0.00     0.146 A 
ATOM     11  O   UNL     1     -15.160  26.849  51.618  1.00  0.00    -0.452 OA
ENDROOT
BRANCH   1  12
ATOM     12  C   UNL     1     -16.073  26.346  53.791  1.00  0.00     0.021 A 
ATOM     13  C   UNL     1     -16.660  27.275  54.667  1.00  0.00     0.016 A 
ATOM     14  C   UNL     1     -16.542  27.116  56.051  1.00  0.00     0.047 A 
ATOM     15  C   UNL     1     -15.848  26.018  56.576  1.00  0.00     0.115 A 
ATOM     16  C   UNL     1     -15.396  25.235  54.327  1.00  0.00     0.016 A 
ATOM     17  C   UNL     1     -15.281  25.078  55.712  1.00  0.00     0.047 A 
BRANCH  15  18
ATOM     18  O   UNL     1     -15.725  25.849  57.954  1.00  0.00    -0.508 OA
ATOM     19  H   UNL     1     -14.846  26.014  58.431  1.00  0.00     0.293 HD
ENDBRANCH  15  18
ENDBRANCH   1  12
BRANCH   2  20
ATOM     20  O   UNL     1     -18.577  25.890  52.406  1.00  0.00    -0.502 OA
ATOM     21  H   UNL     1     -19.456  25.653  51.961  1.00  0.00     0.293 HD
ENDBRANCH   2  20
BRANCH   6  22
ATOM     22  O   UNL     1     -17.518  27.269  47.372  1.00  0.00    -0.507 OA
ATOM     23  H   UNL     1     -17.596  27.791  46.512  1.00  0.00     0.293 HD
ENDBRANCH   6  22
BRANCH   8  24
ATOM     24  O   UNL     1     -12.762  27.875  47.648  1.00  0.00    -0.508 OA
ATOM     25  H   UNL     1     -11.989  28.292  48.152  1.00  0.00     0.293 HD
ENDBRANCH   8  24
TORSDOF 5
ENDMDL
