MODEL 1
REMARK VINA RESULT:    -4.738      0.000      0.000
REMARK INTER + INTRA:          -8.188
REMARK INTER:                  -7.507
REMARK INTRA:                  -0.681
REMARK UNBOUND:                -0.681
REMARK SMILES CCCCCCCCCCCC(=O)[O-]
REMARK SMILES IDX 7 1 8 2 9 3 10 4 11 5 12 6 13 7 14 8 6 9 5 10 4 11 3 12 2 13
REMARK SMILES IDX 1 14
REMARK H PARENT
REMARK Flexibility Score: inf
ROOT
ATOM      1  C   UNL     1     -17.498 -12.349 -21.806  1.00  0.00     0.000 C 
ENDROOT
BRANCH   1   2
ATOM      2  C   UNL     1     -18.676 -13.338 -21.816  1.00  0.00     0.000 C 
BRANCH   2   3
ATOM      3  C   UNL     1     -19.534 -13.223 -23.087  1.00  0.00     0.000 C 
BRANCH   3   4
ATOM      4  C   UNL     1     -18.835 -13.795 -24.329  1.00  0.00     0.006 C 
BRANCH   4   5
ATOM      5  C   UNL     1     -19.088 -12.911 -25.555  1.00  0.00     0.053 C 
BRANCH   5   6
ATOM      6  C   UNL     1     -17.812 -12.289 -26.026  1.00  0.00     0.041 C 
ATOM      7  O   UNL     1     -17.807 -11.548 -27.043  1.00  0.00    -0.550 OA
ATOM      8  O   UNL     1     -16.619 -12.569 -25.370  1.00  0.00    -0.550 OA
ENDBRANCH   5   6
ENDBRANCH   4   5
ENDBRANCH   3   4
ENDBRANCH   2   3
ENDBRANCH   1   2
BRANCH   1   9
ATOM      9  C   UNL     1     -16.505 -12.626 -20.667  1.00  0.00     0.000 C 
BRANCH   9  10
ATOM     10  C   UNL     1     -16.621 -14.059 -20.115  1.00  0.00    -0.000 C 
BRANCH  10  11
ATOM     11  C   UNL     1     -16.956 -14.087 -18.615  1.00  0.00    -0.000 C 
BRANCH  11  12
ATOM     12  C   UNL     1     -16.946 -12.685 -17.982  1.00  0.00    -0.000 C 
BRANCH  12  13
ATOM     13  C   UNL     1     -17.312 -12.709 -16.490  1.00  0.00    -0.003 C 
ATOM     14  C   UNL     1     -17.369 -14.125 -15.920  1.00  0.00     0.004 C 
ENDBRANCH  12  13
ENDBRANCH  11  12
ENDBRANCH  10  11
ENDBRANCH   9  10
ENDBRANCH   1   9
TORSDOF 10
ENDMDL
MODEL 2
REMARK VINA RESULT:    -4.667      1.063      1.291
REMARK INTER + INTRA:          -8.076
REMARK INTER:                  -7.351
REMARK INTRA:                  -0.725
REMARK UNBOUND:                -0.681
REMARK SMILES CCCCCCCCCCCC(=O)[O-]
REMARK SMILES IDX 7 1 8 2 9 3 10 4 11 5 12 6 13 7 14 8 6 9 5 10 4 11 3 12 2 13
REMARK SMILES IDX 1 14
REMARK H PARENT
REMARK Flexibility Score: inf
ROOT
ATOM      1  C   UNL     1     -18.384 -12.751 -21.591  1.00  0.00     0.000 C 
ENDROOT
BRANCH   1   2
ATOM      2  C   UNL     1     -19.633 -13.042 -22.440  1.00  0.00     0.000 C 
BRANCH   2   3
ATOM      3  C   UNL     1     -19.386 -14.125 -23.503  1.00  0.00     0.000 C 
BRANCH   3   4
ATOM      4  C   UNL     1     -18.846 -13.551 -24.822  1.00  0.00     0.006 C 
BRANCH   4   5
ATOM      5  C   UNL     1     -17.383 -13.953 -25.035  1.00  0.00     0.053 C 
BRANCH   5   6
ATOM      6  C   UNL     1     -16.583 -12.786 -25.519  1.00  0.00     0.041 C 
ATOM      7  O   UNL     1     -17.163 -11.765 -25.972  1.00  0.00    -0.550 OA
ATOM      8  O   UNL     1     -15.195 -12.845 -25.516  1.00  0.00    -0.550 OA
ENDBRANCH   5   6
ENDBRANCH   4   5
ENDBRANCH   3   4
ENDBRANCH   2   3
ENDBRANCH   1   2
BRANCH   1   9
ATOM      9  C   UNL     1     -17.597 -14.025 -21.246  1.00  0.00     0.000 C 
BRANCH   9  10
ATOM     10  C   UNL     1     -16.621 -13.820 -20.073  1.00  0.00    -0.000 C 
BRANCH  10  11
ATOM     11  C   UNL     1     -16.690 -12.399 -19.492  1.00  0.00    -0.000 C 
BRANCH  11  12
ATOM     12  C   UNL     1     -17.126 -12.385 -18.017  1.00  0.00    -0.000 C 
BRANCH  12  13
ATOM     13  C   UNL     1     -17.084 -13.781 -17.376  1.00  0.00    -0.003 C 
ATOM     14  C   UNL     1     -17.022 -13.728 -15.850  1.00  0.00     0.004 C 
ENDBRANCH  12  13
ENDBRANCH  11  12
ENDBRANCH  10  11
ENDBRANCH   9  10
ENDBRANCH   1   9
TORSDOF 10
ENDMDL
MODEL 3
REMARK VINA RESULT:    -4.636      3.398      6.948
REMARK INTER + INTRA:          -8.027
REMARK INTER:                  -7.232
REMARK INTRA:                  -0.795
REMARK UNBOUND:                -0.681
REMARK SMILES CCCCCCCCCCCC(=O)[O-]
REMARK SMILES IDX 7 1 8 2 9 3 10 4 11 5 12 6 13 7 14 8 6 9 5 10 4 11 3 12 2 13
REMARK SMILES IDX 1 14
REMARK H PARENT
REMARK Flexibility Score: inf
ROOT
ATOM      1  C   UNL     1     -19.342 -13.784 -22.333  1.00  0.00     0.000 C 
ENDROOT
BRANCH   1   2
ATOM      2  C   UNL     1     -17.953 -14.113 -21.760  1.00  0.00     0.000 C 
BRANCH   2   3
ATOM      3  C   UNL     1     -17.292 -12.901 -21.082  1.00  0.00     0.000 C 
BRANCH   3   4
ATOM      4  C   UNL     1     -16.284 -13.306 -19.996  1.00  0.00     0.006 C 
BRANCH   4   5
ATOM      5  C   UNL     1     -16.965 -14.125 -18.894  1.00  0.00     0.053 C 
BRANCH   5   6
ATOM      6  C   UNL     1     -16.959 -13.373 -17.602  1.00  0.00     0.041 C 
ATOM      7  O   UNL     1     -16.982 -12.114 -17.601  1.00  0.00    -0.550 OA
ATOM      8  O   UNL     1     -16.876 -14.061 -16.398  1.00  0.00    -0.550 OA
ENDBRANCH   5   6
ENDBRANCH   4   5
ENDBRANCH   3   4
ENDBRANCH   2   3
ENDBRANCH   1   2
BRANCH   1   9
ATOM      9  C   UNL     1     -19.272 -12.836 -23.540  1.00  0.00     0.000 C 
BRANCH   9  10
ATOM     10  C   UNL     1     -19.016 -13.579 -24.864  1.00  0.00    -0.000 C 
BRANCH  10  11
ATOM     11  C   UNL     1     -18.848 -12.621 -26.054  1.00  0.00    -0.000 C 
BRANCH  11  12
ATOM     12  C   UNL     1     -17.448 -11.984 -26.106  1.00  0.00    -0.000 C 
BRANCH  12  13
ATOM     13  C   UNL     1     -16.331 -12.992 -25.797  1.00  0.00    -0.003 C 
ATOM     14  C   UNL     1     -15.621 -12.699 -24.476  1.00  0.00     0.004 C 
ENDBRANCH  12  13
ENDBRANCH  11  12
ENDBRANCH  10  11
ENDBRANCH   9  10
ENDBRANCH   1   9
TORSDOF 10
ENDMDL
MODEL 4
REMARK VINA RESULT:    -4.421      3.134      6.514
REMARK INTER + INTRA:          -7.687
REMARK INTER:                  -6.851
REMARK INTRA:                  -0.836
REMARK UNBOUND:                -0.681
REMARK SMILES CCCCCCCCCCCC(=O)[O-]
REMARK SMILES IDX 7 1 8 2 9 3 10 4 11 5 12 6 13 7 14 8 6 9 5 10 4 11 3 12 2 13
REMARK SMILES IDX 1 14
REMARK H PARENT
REMARK Flexibility Score: inf
ROOT
ATOM      1  C   UNL     1     -19.100 -14.125 -23.984  1.00  0.00     0.000 C 
ENDROOT
BRANCH   1   2
ATOM      2  C   UNL     1     -19.205 -14.079 -22.450  1.00  0.00     0.000 C 
BRANCH   2   3
ATOM      3  C   UNL     1     -17.828 -14.059 -21.764  1.00  0.00     0.000 C 
BRANCH   3   4
ATOM      4  C   UNL     1     -17.130 -12.695 -21.874  1.00  0.00     0.006 C 
BRANCH   4   5
ATOM      5  C   UNL     1     -16.107 -12.512 -20.748  1.00  0.00     0.053 C 
BRANCH   5   6
ATOM      6  C   UNL     1     -16.768 -11.971 -19.521  1.00  0.00     0.041 C 
ATOM      7  O   UNL     1     -16.757 -12.634 -18.451  1.00  0.00    -0.550 OA
ATOM      8  O   UNL     1     -17.440 -10.756 -19.572  1.00  0.00    -0.550 OA
ENDBRANCH   5   6
ENDBRANCH   4   5
ENDBRANCH   3   4
ENDBRANCH   2   3
ENDBRANCH   1   2
BRANCH   1   9
ATOM      9  C   UNL     1     -19.349 -12.754 -24.632  1.00  0.00     0.000 C 
BRANCH   9  10
ATOM     10  C   UNL     1     -19.199 -12.786 -26.164  1.00  0.00    -0.000 C 
BRANCH  10  11
ATOM     11  C   UNL     1     -17.919 -12.085 -26.645  1.00  0.00    -0.000 C 
BRANCH  11  12
ATOM     12  C   UNL     1     -16.842 -12.007 -25.550  1.00  0.00    -0.000 C 
BRANCH  12  13
ATOM     13  C   UNL     1     -15.832 -13.162 -25.632  1.00  0.00    -0.003 C 
ATOM     14  C   UNL     1     -14.436 -12.760 -25.158  1.00  0.00     0.004 C 
ENDBRANCH  12  13
ENDBRANCH  11  12
ENDBRANCH  10  11
ENDBRANCH   9  10
ENDBRANCH   1   9
TORSDOF 10
ENDMDL
MODEL 5
REMARK VINA RESULT:    -4.183      8.495      9.753
REMARK INTER + INTRA:          -7.310
REMARK INTER:                  -6.758
REMARK INTRA:                  -0.551
REMARK UNBOUND:                -0.681
REMARK SMILES CCCCCCCCCCCC(=O)[O-]
REMARK SMILES IDX 7 1 8 2 9 3 10 4 11 5 12 6 13 7 14 8 6 9 5 10 4 11 3 12 2 13
REMARK SMILES IDX 1 14
REMARK H PARENT
REMARK Flexibility Score: inf
ROOT
ATOM      1  C   UNL     1     -14.192  -5.610 -17.166  1.00  0.00     0.000 C 
ENDROOT
BRANCH   1   2
ATOM      2  C   UNL     1     -13.960  -6.293 -18.525  1.00  0.00     0.000 C 
BRANCH   2   3
ATOM      3  C   UNL     1     -14.603  -5.522 -19.690  1.00  0.00     0.000 C 
BRANCH   3   4
ATOM      4  C   UNL     1     -15.608  -6.372 -20.482  1.00  0.00     0.006 C 
BRANCH   4   5
ATOM      5  C   UNL     1     -16.984  -5.698 -20.520  1.00  0.00     0.053 C 
BRANCH   5   6
ATOM      6  C   UNL     1     -17.106  -4.823 -21.727  1.00  0.00     0.041 C 
ATOM      7  O   UNL     1     -17.568  -5.288 -22.802  1.00  0.00    -0.550 OA
ATOM      8  O   UNL     1     -16.663  -3.507 -21.679  1.00  0.00    -0.550 OA
ENDBRANCH   5   6
ENDBRANCH   4   5
ENDBRANCH   3   4
ENDBRANCH   2   3
ENDBRANCH   1   2
BRANCH   1   9
ATOM      9  C   UNL     1     -13.974  -6.566 -15.983  1.00  0.00     0.000 C 
BRANCH   9  10
ATOM     10  C   UNL     1     -14.278  -5.908 -14.625  1.00  0.00    -0.000 C 
BRANCH  10  11
ATOM     11  C   UNL     1     -14.554  -4.401 -14.750  1.00  0.00    -0.000 C 
BRANCH  11  12
ATOM     12  C   UNL     1     -13.936  -3.590 -13.599  1.00  0.00    -0.000 C 
BRANCH  12  13
ATOM     13  C   UNL     1     -13.456  -2.201 -14.047  1.00  0.00    -0.003 C 
ATOM     14  C   UNL     1     -13.788  -1.906 -15.509  1.00  0.00     0.004 C 
ENDBRANCH  12  13
ENDBRANCH  11  12
ENDBRANCH  10  11
ENDBRANCH   9  10
ENDBRANCH   1   9
TORSDOF 10
ENDMDL
MODEL 6
REMARK VINA RESULT:    -4.073     10.230     12.707
REMARK INTER + INTRA:          -7.135
REMARK INTER:                  -6.792
REMARK INTRA:                  -0.343
REMARK UNBOUND:                -0.681
REMARK SMILES CCCCCCCCCCCC(=O)[O-]
REMARK SMILES IDX 7 1 8 2 9 3 10 4 11 5 12 6 13 7 14 8 6 9 5 10 4 11 3 12 2 13
REMARK SMILES IDX 1 14
REMARK H PARENT
REMARK Flexibility Score: inf
ROOT
ATOM      1  C   UNL     1     -14.423  -4.502 -17.245  1.00  0.00     0.000 C 
ENDROOT
BRANCH   1   2
ATOM      2  C   UNL     1     -14.455  -4.025 -15.783  1.00  0.00     0.000 C 
BRANCH   2   3
ATOM      3  C   UNL     1     -14.185  -2.517 -15.647  1.00  0.00     0.000 C 
BRANCH   3   4
ATOM      4  C   UNL     1     -13.602  -2.139 -14.277  1.00  0.00     0.006 C 
BRANCH   4   5
ATOM      5  C   UNL     1     -13.544  -3.358 -13.352  1.00  0.00     0.053 C 
BRANCH   5   6
ATOM      6  C   UNL     1     -14.684  -3.336 -12.384  1.00  0.00     0.041 C 
ATOM      7  O   UNL     1     -15.825  -2.955 -12.757  1.00  0.00    -0.550 OA
ATOM      8  O   UNL     1     -14.476  -3.688 -11.056  1.00  0.00    -0.550 OA
ENDBRANCH   5   6
ENDBRANCH   4   5
ENDBRANCH   3   4
ENDBRANCH   2   3
ENDBRANCH   1   2
BRANCH   1   9
ATOM      9  C   UNL     1     -14.043  -5.985 -17.372  1.00  0.00     0.000 C 
BRANCH   9  10
ATOM     10  C   UNL     1     -13.972  -6.456 -18.836  1.00  0.00    -0.000 C 
BRANCH  10  11
ATOM     11  C   UNL     1     -14.735  -5.524 -19.791  1.00  0.00    -0.000 C 
BRANCH  11  12
ATOM     12  C   UNL     1     -15.887  -6.239 -20.518  1.00  0.00    -0.000 C 
BRANCH  12  13
ATOM     13  C   UNL     1     -17.108  -5.330 -20.725  1.00  0.00    -0.003 C 
ATOM     14  C   UNL     1     -17.508  -5.207 -22.195  1.00  0.00     0.004 C 
ENDBRANCH  12  13
ENDBRANCH  11  12
ENDBRANCH  10  11
ENDBRANCH   9  10
ENDBRANCH   1   9
TORSDOF 10
ENDMDL
MODEL 7
REMARK VINA RESULT:    -3.755      9.020     10.316
REMARK INTER + INTRA:          -6.631
REMARK INTER:                  -6.215
REMARK INTRA:                  -0.417
REMARK UNBOUND:                -0.681
REMARK SMILES CCCCCCCCCCCC(=O)[O-]
REMARK SMILES IDX 7 1 8 2 9 3 10 4 11 5 12 6 13 7 14 8 6 9 5 10 4 11 3 12 2 13
REMARK SMILES IDX 1 14
REMARK H PARENT
REMARK Flexibility Score: inf
ROOT
ATOM      1  C   UNL     1     -14.439  -4.595 -17.341  1.00  0.00     0.000 C 
ENDROOT
BRANCH   1   2
ATOM      2  C   UNL     1     -13.963  -6.041 -17.563  1.00  0.00     0.000 C 
BRANCH   2   3
ATOM      3  C   UNL     1     -14.059  -6.475 -19.035  1.00  0.00     0.000 C 
BRANCH   3   4
ATOM      4  C   UNL     1     -14.854  -5.482 -19.896  1.00  0.00     0.006 C 
BRANCH   4   5
ATOM      5  C   UNL     1     -16.100  -6.148 -20.489  1.00  0.00     0.053 C 
BRANCH   5   6
ATOM      6  C   UNL     1     -16.886  -5.165 -21.297  1.00  0.00     0.041 C 
ATOM      7  O   UNL     1     -16.580  -3.944 -21.282  1.00  0.00    -0.550 OA
ATOM      8  O   UNL     1     -17.989  -5.590 -22.028  1.00  0.00    -0.550 OA
ENDBRANCH   5   6
ENDBRANCH   4   5
ENDBRANCH   3   4
ENDBRANCH   2   3
ENDBRANCH   1   2
BRANCH   1   9
ATOM      9  C   UNL     1     -14.390  -4.179 -15.862  1.00  0.00     0.000 C 
BRANCH   9  10
ATOM     10  C   UNL     1     -14.269  -2.655 -15.678  1.00  0.00    -0.000 C 
BRANCH  10  11
ATOM     11  C   UNL     1     -14.228  -2.243 -14.198  1.00  0.00    -0.000 C 
BRANCH  11  12
ATOM     12  C   UNL     1     -13.571  -3.310 -13.306  1.00  0.00    -0.000 C 
BRANCH  12  13
ATOM     13  C   UNL     1     -14.432  -3.671 -12.086  1.00  0.00    -0.003 C 
ATOM     14  C   UNL     1     -13.639  -3.661 -10.781  1.00  0.00     0.004 C 
ENDBRANCH  12  13
ENDBRANCH  11  12
ENDBRANCH  10  11
ENDBRANCH   9  10
ENDBRANCH   1   9
TORSDOF 10
ENDMDL
MODEL 8
REMARK VINA RESULT:    -2.557      3.183      6.578
REMARK INTER + INTRA:          -4.733
REMARK INTER:                  -3.858
REMARK INTRA:                  -0.875
REMARK UNBOUND:                -0.681
REMARK SMILES CCCCCCCCCCCC(=O)[O-]
REMARK SMILES IDX 7 1 8 2 9 3 10 4 11 5 12 6 13 7 14 8 6 9 5 10 4 11 3 12 2 13
REMARK SMILES IDX 1 14
REMARK H PARENT
REMARK Flexibility Score: inf
ROOT
ATOM      1  C   UNL     1     -19.371 -12.811 -23.651  1.00  0.00     0.000 C 
ENDROOT
BRANCH   1   2
ATOM      2  C   UNL     1     -19.492 -12.920 -22.121  1.00  0.00     0.000 C 
BRANCH   2   3
ATOM      3  C   UNL     1     -18.650 -14.070 -21.543  1.00  0.00     0.000 C 
BRANCH   3   4
ATOM      4  C   UNL     1     -17.470 -13.573 -20.695  1.00  0.00     0.006 C 
BRANCH   4   5
ATOM      5  C   UNL     1     -17.030 -12.173 -21.137  1.00  0.00     0.053 C 
BRANCH   5   6
ATOM      6  C   UNL     1     -16.750 -11.311 -19.947  1.00  0.00     0.041 C 
ATOM      7  O   UNL     1     -16.355 -10.126 -20.102  1.00  0.00    -0.550 OA
ATOM      8  O   UNL     1     -16.877 -11.833 -18.666  1.00  0.00    -0.550 OA
ENDBRANCH   5   6
ENDBRANCH   4   5
ENDBRANCH   3   4
ENDBRANCH   2   3
ENDBRANCH   1   2
BRANCH   1   9
ATOM      9  C   UNL     1     -18.910 -14.125 -24.300  1.00  0.00     0.000 C 
BRANCH   9  10
ATOM     10  C   UNL     1     -17.542 -13.994 -24.995  1.00  0.00    -0.000 C 
BRANCH  10  11
ATOM     11  C   UNL     1     -17.087 -12.532 -25.128  1.00  0.00    -0.000 C 
BRANCH  11  12
ATOM     12  C   UNL     1     -17.182 -12.013 -26.573  1.00  0.00    -0.000 C 
BRANCH  12  13
ATOM     13  C   UNL     1     -18.591 -11.514 -26.928  1.00  0.00    -0.003 C 
ATOM     14  C   UNL     1     -19.485 -12.619 -27.488  1.00  0.00     0.004 C 
ENDBRANCH  12  13
ENDBRANCH  11  12
ENDBRANCH  10  11
ENDBRANCH   9  10
ENDBRANCH   1   9
TORSDOF 10
ENDMDL
