MODEL 1
REMARK VINA RESULT:    27.599      0.000      0.000
REMARK INTER + INTRA:          32.943
REMARK INTER:                  33.246
REMARK INTRA:                  -0.302
REMARK UNBOUND:                -0.302
REMARK SMILES Oc1cc(O)c2cc(O)c(-c3ccc(O)c(O)c3)[o+]c2c1
REMARK SMILES IDX 10 1 19 2 20 3 21 4 2 5 3 6 4 7 6 8 7 9 8 10 11 11 12 12
REMARK SMILES IDX 13 13 14 14 18 15 16 16 15 17 17 19 9 21 1 23 5 25
REMARK H PARENT 15 18 17 20 9 22 1 24 5 26
REMARK Flexibility Score: inf
ROOT
ATOM      1  C   UNL     1      20.087 -12.605 -15.451  1.00  0.00     0.402 A 
ATOM      2  O   UNL     1      20.151 -12.728 -16.773  1.00  0.00    -0.202 OA
ATOM      3  C   UNL     1      21.229 -12.417 -17.484  1.00  0.00     0.368 A 
ATOM      4  C   UNL     1      21.200 -12.579 -18.872  1.00  0.00     0.162 A 
ATOM      5  C   UNL     1      22.317 -12.257 -19.644  1.00  0.00     0.128 A 
ATOM      6  C   UNL     1      23.474 -11.770 -19.025  1.00  0.00     0.093 A 
ATOM      7  C   UNL     1      23.529 -11.598 -17.636  1.00  0.00     0.136 A 
ATOM      8  C   UNL     1      22.395 -11.927 -16.848  1.00  0.00     0.125 A 
ATOM      9  C   UNL     1      22.365 -11.800 -15.450  1.00  0.00     0.078 A 
ATOM     10  C   UNL     1      21.213 -12.148 -14.739  1.00  0.00     0.223 A 
ENDROOT
BRANCH   1  11
ATOM     11  C   UNL     1      18.824 -12.975 -14.773  1.00  0.00     0.087 A 
ATOM     12  C   UNL     1      17.971 -11.963 -14.303  1.00  0.00     0.022 A 
ATOM     13  C   UNL     1      16.783 -12.289 -13.641  1.00  0.00     0.051 A 
ATOM     14  C   UNL     1      16.439 -13.630 -13.427  1.00  0.00     0.157 A 
ATOM     15  C   UNL     1      18.484 -14.320 -14.537  1.00  0.00     0.068 A 
ATOM     16  C   UNL     1      17.293 -14.646 -13.871  1.00  0.00     0.158 A 
BRANCH  14  17
ATOM     17  O   UNL     1      15.255 -13.959 -12.770  1.00  0.00    -0.504 OA
ATOM     18  H   UNL     1      14.965 -14.923 -12.651  1.00  0.00     0.293 HD
ENDBRANCH  14  17
BRANCH  16  19
ATOM     19  O   UNL     1      16.956 -15.980 -13.644  1.00  0.00    -0.504 OA
ATOM     20  H   UNL     1      17.196 -16.708 -14.307  1.00  0.00     0.293 HD
ENDBRANCH  16  19
ENDBRANCH   1  11
BRANCH  10  21
ATOM     21  O   UNL     1      21.198 -12.070 -13.347  1.00  0.00    -0.500 OA
ATOM     22  H   UNL     1      20.350 -12.227 -12.814  1.00  0.00     0.294 HD
ENDBRANCH  10  21
BRANCH   5  23
ATOM     23  O   UNL     1      22.268 -12.426 -21.025  1.00  0.00    -0.507 OA
ATOM     24  H   UNL     1      22.515 -13.306 -21.461  1.00  0.00     0.293 HD
ENDBRANCH   5  23
BRANCH   7  25
ATOM     25  O   UNL     1      24.719 -11.103 -17.096  1.00  0.00    -0.507 OA
ATOM     26  H   UNL     1      25.434 -11.676 -16.670  1.00  0.00     0.293 HD
ENDBRANCH   7  25
TORSDOF 6
ENDMDL
MODEL 2
REMARK VINA RESULT:    28.435      1.074      2.614
REMARK INTER + INTRA:          33.950
REMARK INTER:                  34.283
REMARK INTRA:                  -0.332
REMARK UNBOUND:                -0.302
REMARK SMILES Oc1cc(O)c2cc(O)c(-c3ccc(O)c(O)c3)[o+]c2c1
REMARK SMILES IDX 10 1 19 2 20 3 21 4 2 5 3 6 4 7 6 8 7 9 8 10 11 11 12 12
REMARK SMILES IDX 13 13 14 14 18 15 16 16 15 17 17 19 9 21 1 23 5 25
REMARK H PARENT 15 18 17 20 9 22 1 24 5 26
REMARK Flexibility Score: inf
ROOT
ATOM      1  C   UNL     1      19.929 -12.704 -16.293  1.00  0.00     0.402 A 
ATOM      2  O   UNL     1      21.095 -12.244 -15.850  1.00  0.00    -0.202 OA
ATOM      3  C   UNL     1      22.100 -11.910 -16.652  1.00  0.00     0.368 A 
ATOM      4  C   UNL     1      23.290 -11.437 -16.092  1.00  0.00     0.162 A 
ATOM      5  C   UNL     1      24.364 -11.083 -16.910  1.00  0.00     0.128 A 
ATOM      6  C   UNL     1      24.248 -11.201 -18.299  1.00  0.00     0.093 A 
ATOM      7  C   UNL     1      23.067 -11.672 -18.886  1.00  0.00     0.136 A 
ATOM      8  C   UNL     1      21.973 -12.031 -18.057  1.00  0.00     0.125 A 
ATOM      9  C   UNL     1      20.747 -12.499 -18.558  1.00  0.00     0.078 A 
ATOM     10  C   UNL     1      19.711 -12.830 -17.679  1.00  0.00     0.223 A 
ENDROOT
BRANCH   1  11
ATOM     11  C   UNL     1      18.889 -13.051 -15.299  1.00  0.00     0.087 A 
ATOM     12  C   UNL     1      18.172 -12.025 -14.663  1.00  0.00     0.022 A 
ATOM     13  C   UNL     1      17.200 -12.328 -13.705  1.00  0.00     0.051 A 
ATOM     14  C   UNL     1      16.941 -13.660 -13.359  1.00  0.00     0.157 A 
ATOM     15  C   UNL     1      18.640 -14.387 -14.932  1.00  0.00     0.068 A 
ATOM     16  C   UNL     1      17.666 -14.691 -13.970  1.00  0.00     0.158 A 
BRANCH  14  17
ATOM     17  O   UNL     1      15.971 -13.967 -12.407  1.00  0.00    -0.504 OA
ATOM     18  H   UNL     1      14.999 -14.098 -12.663  1.00  0.00     0.293 HD
ENDBRANCH  14  17
BRANCH  16  19
ATOM     19  O   UNL     1      17.417 -16.015 -13.614  1.00  0.00    -0.504 OA
ATOM     20  H   UNL     1      16.885 -16.635 -14.213  1.00  0.00     0.293 HD
ENDBRANCH  16  19
ENDBRANCH   1  11
BRANCH  10  21
ATOM     21  O   UNL     1      18.477 -13.247 -18.176  1.00  0.00    -0.500 OA
ATOM     22  H   UNL     1      18.148 -12.961 -19.091  1.00  0.00     0.294 HD
ENDBRANCH  10  21
BRANCH   5  23
ATOM     23  O   UNL     1      25.541 -10.614 -16.332  1.00  0.00    -0.507 OA
ATOM     24  H   UNL     1      26.256 -10.155 -16.884  1.00  0.00     0.293 HD
ENDBRANCH   5  23
BRANCH   7  25
ATOM     25  O   UNL     1      23.034 -11.763 -20.281  1.00  0.00    -0.507 OA
ATOM     26  H   UNL     1      23.310 -11.021 -20.908  1.00  0.00     0.293 HD
ENDBRANCH   7  25
TORSDOF 6
ENDMDL
MODEL 3
REMARK VINA RESULT:    29.359      4.858      7.727
REMARK INTER + INTRA:          35.064
REMARK INTER:                  35.413
REMARK INTRA:                  -0.350
REMARK UNBOUND:                -0.302
REMARK SMILES Oc1cc(O)c2cc(O)c(-c3ccc(O)c(O)c3)[o+]c2c1
REMARK SMILES IDX 10 1 19 2 20 3 21 4 2 5 3 6 4 7 6 8 7 9 8 10 11 11 12 12
REMARK SMILES IDX 13 13 14 14 18 15 16 16 15 17 17 19 9 21 1 23 5 25
REMARK H PARENT 15 18 17 20 9 22 1 24 5 26
REMARK Flexibility Score: inf
ROOT
ATOM      1  C   UNL     1      22.475  -8.166 -18.359  1.00  0.00     0.402 A 
ATOM      2  O   UNL     1      22.158  -9.169 -19.172  1.00  0.00    -0.202 OA
ATOM      3  C   UNL     1      22.382 -10.445 -18.879  1.00  0.00     0.368 A 
ATOM      4  C   UNL     1      22.014 -11.430 -19.801  1.00  0.00     0.162 A 
ATOM      5  C   UNL     1      22.241 -12.778 -19.521  1.00  0.00     0.128 A 
ATOM      6  C   UNL     1      22.839 -13.147 -18.311  1.00  0.00     0.093 A 
ATOM      7  C   UNL     1      23.217 -12.180 -17.371  1.00  0.00     0.136 A 
ATOM      8  C   UNL     1      22.986 -10.808 -17.651  1.00  0.00     0.125 A 
ATOM      9  C   UNL     1      23.319  -9.772 -16.763  1.00  0.00     0.078 A 
ATOM     10  C   UNL     1      23.056  -8.443 -17.107  1.00  0.00     0.223 A 
ENDROOT
BRANCH   1  11
ATOM     11  C   UNL     1      22.184  -6.784 -18.804  1.00  0.00     0.087 A 
ATOM     12  C   UNL     1      20.881  -6.277 -18.671  1.00  0.00     0.022 A 
ATOM     13  C   UNL     1      20.578  -4.983 -19.103  1.00  0.00     0.051 A 
ATOM     14  C   UNL     1      21.568  -4.183 -19.687  1.00  0.00     0.157 A 
ATOM     15  C   UNL     1      23.170  -5.985 -19.410  1.00  0.00     0.068 A 
ATOM     16  C   UNL     1      22.865  -4.686 -19.845  1.00  0.00     0.158 A 
BRANCH  14  17
ATOM     17  O   UNL     1      21.271  -2.891 -20.116  1.00  0.00    -0.504 OA
ATOM     18  H   UNL     1      21.504  -2.079 -19.556  1.00  0.00     0.293 HD
ENDBRANCH  14  17
BRANCH  16  19
ATOM     19  O   UNL     1      23.846  -3.894 -20.440  1.00  0.00    -0.504 OA
ATOM     20  H   UNL     1      23.662  -2.935 -20.710  1.00  0.00     0.293 HD
ENDBRANCH  16  19
ENDBRANCH   1  11
BRANCH  10  21
ATOM     21  O   UNL     1      23.340  -7.417 -16.206  1.00  0.00    -0.500 OA
ATOM     22  H   UNL     1      23.522  -6.470 -16.517  1.00  0.00     0.294 HD
ENDBRANCH  10  21
BRANCH   5  23
ATOM     23  O   UNL     1      21.868 -13.744 -20.451  1.00  0.00    -0.507 OA
ATOM     24  H   UNL     1      21.110 -13.586 -21.105  1.00  0.00     0.293 HD
ENDBRANCH   5  23
BRANCH   7  25
ATOM     25  O   UNL     1      23.811 -12.630 -16.188  1.00  0.00    -0.507 OA
ATOM     26  H   UNL     1      24.793 -12.530 -15.969  1.00  0.00     0.293 HD
ENDBRANCH   7  25
TORSDOF 6
ENDMDL
MODEL 4
REMARK VINA RESULT:    29.967      5.148      8.349
REMARK INTER + INTRA:          35.796
REMARK INTER:                  36.100
REMARK INTRA:                  -0.304
REMARK UNBOUND:                -0.302
REMARK SMILES Oc1cc(O)c2cc(O)c(-c3ccc(O)c(O)c3)[o+]c2c1
REMARK SMILES IDX 10 1 19 2 20 3 21 4 2 5 3 6 4 7 6 8 7 9 8 10 11 11 12 12
REMARK SMILES IDX 13 13 14 14 18 15 16 16 15 17 17 19 9 21 1 23 5 25
REMARK H PARENT 15 18 17 20 9 22 1 24 5 26
REMARK Flexibility Score: inf
ROOT
ATOM      1  C   UNL     1      22.070  -7.884 -19.087  1.00  0.00     0.402 A 
ATOM      2  O   UNL     1      22.778  -8.352 -18.064  1.00  0.00    -0.202 OA
ATOM      3  C   UNL     1      23.028  -9.644 -17.880  1.00  0.00     0.368 A 
ATOM      4  C   UNL     1      23.783 -10.041 -16.772  1.00  0.00     0.162 A 
ATOM      5  C   UNL     1      24.057 -11.391 -16.552  1.00  0.00     0.128 A 
ATOM      6  C   UNL     1      23.577 -12.354 -17.446  1.00  0.00     0.093 A 
ATOM      7  C   UNL     1      22.819 -11.983 -18.564  1.00  0.00     0.136 A 
ATOM      8  C   UNL     1      22.539 -10.610 -18.792  1.00  0.00     0.125 A 
ATOM      9  C   UNL     1      21.800 -10.146 -19.892  1.00  0.00     0.078 A 
ATOM     10  C   UNL     1      21.568  -8.777 -20.053  1.00  0.00     0.223 A 
ENDROOT
BRANCH   1  11
ATOM     11  C   UNL     1      21.851  -6.422 -19.177  1.00  0.00     0.087 A 
ATOM     12  C   UNL     1      20.595  -5.891 -18.838  1.00  0.00     0.022 A 
ATOM     13  C   UNL     1      20.359  -4.516 -18.936  1.00  0.00     0.051 A 
ATOM     14  C   UNL     1      21.369  -3.657 -19.386  1.00  0.00     0.157 A 
ATOM     15  C   UNL     1      22.855  -5.557 -19.649  1.00  0.00     0.068 A 
ATOM     16  C   UNL     1      22.617  -4.178 -19.747  1.00  0.00     0.158 A 
BRANCH  14  17
ATOM     17  O   UNL     1      21.138  -2.285 -19.482  1.00  0.00    -0.504 OA
ATOM     18  H   UNL     1      21.306  -1.664 -18.699  1.00  0.00     0.293 HD
ENDBRANCH  14  17
BRANCH  16  19
ATOM     19  O   UNL     1      23.616  -3.323 -20.209  1.00  0.00    -0.504 OA
ATOM     20  H   UNL     1      24.595  -3.576 -20.160  1.00  0.00     0.293 HD
ENDBRANCH  16  19
ENDBRANCH   1  11
BRANCH  10  21
ATOM     21  O   UNL     1      20.878  -8.310 -21.171  1.00  0.00    -0.500 OA
ATOM     22  H   UNL     1      21.349  -7.813 -21.918  1.00  0.00     0.294 HD
ENDBRANCH  10  21
BRANCH   5  23
ATOM     23  O   UNL     1      24.810 -11.766 -15.442  1.00  0.00    -0.507 OA
ATOM     24  H   UNL     1      24.538 -11.502 -14.503  1.00  0.00     0.293 HD
ENDBRANCH   5  23
BRANCH   7  25
ATOM     25  O   UNL     1      22.373 -13.005 -19.407  1.00  0.00    -0.507 OA
ATOM     26  H   UNL     1      21.400 -13.225 -19.572  1.00  0.00     0.293 HD
ENDBRANCH   7  25
TORSDOF 6
ENDMDL
