MODEL 1
REMARK VINA RESULT:    -5.021      0.000      0.000
REMARK INTER + INTRA:          -6.586
REMARK INTER:                  -7.222
REMARK INTRA:                   0.636
REMARK UNBOUND:                 0.636
REMARK SMILES O=c1cc(-c2ccc(O)c(O)c2)oc2cc(O[C@H]3O[C@@H](CO)[C@H](O)[C@H](O)[C@H]3O)cc(O)c12
REMARK SMILES IDX 17 1 16 2 4 3 3 4 13 5 2 6 14 7 1 8 32 9 15 10 30 11 29 12
REMARK SMILES IDX 5 13 6 14 7 15 8 16 12 17 10 18 9 19 11 21 31 23 18 25 27 26
REMARK SMILES IDX 19 27 25 28 20 29 23 30 28 31 26 33 21 35 22 36 24 38
REMARK H PARENT 9 20 11 22 31 24 28 32 26 34 22 37 24 39
REMARK Flexibility Score: inf
ROOT
ATOM      1  O   UNL     1     -32.948  12.915  56.736  1.00  0.00    -0.462 OA
ENDROOT
BRANCH   1   2
ATOM      2  C   UNL     1     -32.489  14.194  57.092  1.00  0.00     0.130 A 
ATOM      3  C   UNL     1     -29.855  17.966  55.848  1.00  0.00     0.138 A 
ATOM      4  C   UNL     1     -30.128  18.638  57.049  1.00  0.00     0.100 A 
ATOM      5  O   UNL     1     -30.392  16.771  55.620  1.00  0.00    -0.456 OA
ATOM      6  C   UNL     1     -30.927  18.020  58.009  1.00  0.00     0.197 A 
ATOM      7  C   UNL     1     -31.183  16.155  56.494  1.00  0.00     0.146 A 
ATOM      8  O   UNL     1     -31.138  18.612  59.101  1.00  0.00    -0.289 OA
ATOM      9  C   UNL     1     -31.470  16.745  57.746  1.00  0.00     0.107 A 
ATOM     10  C   UNL     1     -31.715  14.905  56.170  1.00  0.00     0.094 A 
ATOM     11  C   UNL     1     -32.270  16.041  58.674  1.00  0.00     0.134 A 
ATOM     12  C   UNL     1     -32.766  14.772  58.341  1.00  0.00     0.093 A 
BRANCH   3  13
ATOM     13  C   UNL     1     -28.947  18.550  54.841  1.00  0.00     0.021 A 
ATOM     14  C   UNL     1     -27.563  18.347  54.954  1.00  0.00     0.016 A 
ATOM     15  C   UNL     1     -26.685  18.937  54.040  1.00  0.00     0.051 A 
ATOM     16  C   UNL     1     -27.178  19.713  52.984  1.00  0.00     0.157 A 
ATOM     17  C   UNL     1     -29.443  19.323  53.776  1.00  0.00     0.062 A 
ATOM     18  C   UNL     1     -28.565  19.896  52.846  1.00  0.00     0.158 A 
BRANCH  16  19
ATOM     19  O   UNL     1     -26.297  20.303  52.079  1.00  0.00    -0.504 OA
ATOM     20  H   UNL     1     -26.132  21.301  52.077  1.00  0.00     0.293 HD
ENDBRANCH  16  19
BRANCH  18  21
ATOM     21  O   UNL     1     -29.090  20.650  51.796  1.00  0.00    -0.504 OA
ATOM     22  H   UNL     1     -29.707  20.244  51.101  1.00  0.00     0.293 HD
ENDBRANCH  18  21
ENDBRANCH   3  13
BRANCH  11  23
ATOM     23  O   UNL     1     -32.569  16.588  59.921  1.00  0.00    -0.507 OA
ATOM     24  H   UNL     1     -32.537  16.036  60.770  1.00  0.00     0.293 HD
ENDBRANCH  11  23
ENDBRANCH   1   2
BRANCH   1  25
ATOM     25  C   UNL     1     -34.325  12.550  56.607  1.00  0.00     0.339 C 
ATOM     26  C   UNL     1     -35.005  13.416  55.523  1.00  0.00     0.214 C 
ATOM     27  O   UNL     1     -34.977  12.772  57.840  1.00  0.00    -0.332 OA
ATOM     28  C   UNL     1     -36.551  13.285  55.605  1.00  0.00     0.180 C 
ATOM     29  C   UNL     1     -36.249  12.125  57.878  1.00  0.00     0.179 C 
ATOM     30  C   UNL     1     -37.018  12.124  56.510  1.00  0.00     0.177 C 
BRANCH  26  31
ATOM     31  O   UNL     1     -34.662  14.771  55.712  1.00  0.00    -0.384 OA
ATOM     32  H   UNL     1     -33.671  14.825  55.775  1.00  0.00     0.211 HD
ENDBRANCH  26  31
BRANCH  28  33
ATOM     33  O   UNL     1     -37.125  13.190  54.320  1.00  0.00    -0.387 OA
ATOM     34  H   UNL     1     -38.110  13.117  54.428  1.00  0.00     0.211 HD
ENDBRANCH  28  33
BRANCH  29  35
ATOM     35  C   UNL     1     -37.070  12.789  58.997  1.00  0.00     0.191 C 
BRANCH  35  36
ATOM     36  O   UNL     1     -36.677  12.344  60.270  1.00  0.00    -0.394 OA
ATOM     37  H   UNL     1     -35.951  12.945  60.569  1.00  0.00     0.210 HD
ENDBRANCH  35  36
ENDBRANCH  29  35
BRANCH  30  38
ATOM     38  O   UNL     1     -36.797  10.890  55.866  1.00  0.00    -0.387 OA
ATOM     39  H   UNL     1     -35.834  10.845  55.630  1.00  0.00     0.211 HD
ENDBRANCH  30  38
ENDBRANCH   1  25
TORSDOF 11
ENDMDL
MODEL 2
REMARK VINA RESULT:    -4.517      3.284      4.957
REMARK INTER + INTRA:          -5.862
REMARK INTER:                  -5.164
REMARK INTRA:                  -0.698
REMARK UNBOUND:                 0.636
REMARK SMILES O=c1cc(-c2ccc(O)c(O)c2)oc2cc(O[C@H]3O[C@@H](CO)[C@H](O)[C@H](O)[C@H]3O)cc(O)c12
REMARK SMILES IDX 17 1 16 2 4 3 3 4 13 5 2 6 14 7 1 8 32 9 15 10 30 11 29 12
REMARK SMILES IDX 5 13 6 14 7 15 8 16 12 17 10 18 9 19 11 21 31 23 18 25 27 26
REMARK SMILES IDX 19 27 25 28 20 29 23 30 28 31 26 33 21 35 22 36 24 38
REMARK H PARENT 9 20 11 22 31 24 28 32 26 34 22 37 24 39
REMARK Flexibility Score: inf
ROOT
ATOM      1  O   UNL     1     -32.150  15.588  55.724  1.00  0.00    -0.462 OA
ENDROOT
BRANCH   1   2
ATOM      2  C   UNL     1     -31.153  16.334  56.373  1.00  0.00     0.130 A 
ATOM      3  C   UNL     1     -29.957  20.499  58.359  1.00  0.00     0.138 A 
ATOM      4  C   UNL     1     -28.652  20.066  58.641  1.00  0.00     0.100 A 
ATOM      5  O   UNL     1     -30.817  19.670  57.775  1.00  0.00    -0.456 OA
ATOM      6  C   UNL     1     -28.263  18.782  58.264  1.00  0.00     0.197 A 
ATOM      7  C   UNL     1     -30.501  18.427  57.422  1.00  0.00     0.146 A 
ATOM      8  O   UNL     1     -27.079  18.412  58.486  1.00  0.00    -0.289 OA
ATOM      9  C   UNL     1     -29.194  17.931  57.632  1.00  0.00     0.107 A 
ATOM     10  C   UNL     1     -31.470  17.619  56.824  1.00  0.00     0.094 A 
ATOM     11  C   UNL     1     -28.874  16.625  57.197  1.00  0.00     0.134 A 
ATOM     12  C   UNL     1     -29.853  15.842  56.568  1.00  0.00     0.093 A 
BRANCH   3  13
ATOM     13  C   UNL     1     -30.382  21.878  58.668  1.00  0.00     0.021 A 
ATOM     14  C   UNL     1     -30.419  22.838  57.645  1.00  0.00     0.016 A 
ATOM     15  C   UNL     1     -30.768  24.161  57.930  1.00  0.00     0.051 A 
ATOM     16  C   UNL     1     -31.114  24.537  59.233  1.00  0.00     0.157 A 
ATOM     17  C   UNL     1     -30.737  22.253  59.975  1.00  0.00     0.062 A 
ATOM     18  C   UNL     1     -31.110  23.574  60.257  1.00  0.00     0.158 A 
BRANCH  16  19
ATOM     19  O   UNL     1     -31.456  25.860  59.512  1.00  0.00    -0.504 OA
ATOM     20  H   UNL     1     -32.408  26.191  59.415  1.00  0.00     0.293 HD
ENDBRANCH  16  19
BRANCH  18  21
ATOM     21  O   UNL     1     -31.465  23.912  61.564  1.00  0.00    -0.504 OA
ATOM     22  H   UNL     1     -31.556  23.213  62.292  1.00  0.00     0.293 HD
ENDBRANCH  18  21
ENDBRANCH   3  13
BRANCH  11  23
ATOM     23  O   UNL     1     -27.593  16.104  57.380  1.00  0.00    -0.507 OA
ATOM     24  H   UNL     1     -26.825  16.339  56.762  1.00  0.00     0.293 HD
ENDBRANCH  11  23
ENDBRANCH   1   2
BRANCH   1  25
ATOM     25  C   UNL     1     -33.155  14.818  56.389  1.00  0.00     0.339 C 
ATOM     26  C   UNL     1     -34.541  15.102  55.768  1.00  0.00     0.214 C 
ATOM     27  O   UNL     1     -33.187  15.184  57.753  1.00  0.00    -0.332 OA
ATOM     28  C   UNL     1     -35.675  14.558  56.679  1.00  0.00     0.180 C 
ATOM     29  C   UNL     1     -33.919  14.235  58.528  1.00  0.00     0.179 C 
ATOM     30  C   UNL     1     -35.163  13.620  57.795  1.00  0.00     0.177 C 
BRANCH  26  31
ATOM     31  O   UNL     1     -34.719  16.493  55.617  1.00  0.00    -0.384 OA
ATOM     32  H   UNL     1     -35.594  16.731  56.022  1.00  0.00     0.211 HD
ENDBRANCH  26  31
BRANCH  28  33
ATOM     33  O   UNL     1     -36.689  13.937  55.920  1.00  0.00    -0.387 OA
ATOM     34  H   UNL     1     -36.307  13.699  55.034  1.00  0.00     0.211 HD
ENDBRANCH  28  33
BRANCH  29  35
ATOM     35  C   UNL     1     -34.312  14.923  59.847  1.00  0.00     0.191 C 
BRANCH  35  36
ATOM     36  O   UNL     1     -33.259  14.914  60.777  1.00  0.00    -0.394 OA
ATOM     37  H   UNL     1     -32.932  13.982  60.826  1.00  0.00     0.210 HD
ENDBRANCH  35  36
ENDBRANCH  29  35
BRANCH  30  38
ATOM     38  O   UNL     1     -34.797  12.373  57.250  1.00  0.00    -0.387 OA
ATOM     39  H   UNL     1     -33.954  12.091  57.690  1.00  0.00     0.211 HD
ENDBRANCH  30  38
ENDBRANCH   1  25
TORSDOF 11
ENDMDL
MODEL 3
REMARK VINA RESULT:    -4.482      2.831      4.150
REMARK INTER + INTRA:          -5.812
REMARK INTER:                  -5.060
REMARK INTRA:                  -0.752
REMARK UNBOUND:                 0.636
REMARK SMILES O=c1cc(-c2ccc(O)c(O)c2)oc2cc(O[C@H]3O[C@@H](CO)[C@H](O)[C@H](O)[C@H]3O)cc(O)c12
REMARK SMILES IDX 17 1 16 2 4 3 3 4 13 5 2 6 14 7 1 8 32 9 15 10 30 11 29 12
REMARK SMILES IDX 5 13 6 14 7 15 8 16 12 17 10 18 9 19 11 21 31 23 18 25 27 26
REMARK SMILES IDX 19 27 25 28 20 29 23 30 28 31 26 33 21 35 22 36 24 38
REMARK H PARENT 9 20 11 22 31 24 28 32 26 34 22 37 24 39
REMARK Flexibility Score: inf
ROOT
ATOM      1  O   UNL     1     -33.813  14.898  55.842  1.00  0.00    -0.462 OA
ENDROOT
BRANCH   1   2
ATOM      2  C   UNL     1     -32.609  15.472  56.281  1.00  0.00     0.130 A 
ATOM      3  C   UNL     1     -30.409  19.401  57.842  1.00  0.00     0.138 A 
ATOM      4  C   UNL     1     -29.167  18.754  57.925  1.00  0.00     0.100 A 
ATOM      5  O   UNL     1     -31.483  18.724  57.448  1.00  0.00    -0.456 OA
ATOM      6  C   UNL     1     -29.069  17.415  57.549  1.00  0.00     0.197 A 
ATOM      7  C   UNL     1     -31.445  17.439  57.107  1.00  0.00     0.146 A 
ATOM      8  O   UNL     1     -27.944  16.850  57.590  1.00  0.00    -0.289 OA
ATOM      9  C   UNL     1     -30.223  16.728  57.121  1.00  0.00     0.107 A 
ATOM     10  C   UNL     1     -32.624  16.801  56.717  1.00  0.00     0.094 A 
ATOM     11  C   UNL     1     -30.206  15.378  56.702  1.00  0.00     0.134 A 
ATOM     12  C   UNL     1     -31.396  14.766  56.281  1.00  0.00     0.093 A 
BRANCH   3  13
ATOM     13  C   UNL     1     -30.538  20.839  58.151  1.00  0.00     0.021 A 
ATOM     14  C   UNL     1     -30.330  21.788  57.138  1.00  0.00     0.016 A 
ATOM     15  C   UNL     1     -30.395  23.154  57.426  1.00  0.00     0.051 A 
ATOM     16  C   UNL     1     -30.699  23.592  58.721  1.00  0.00     0.157 A 
ATOM     17  C   UNL     1     -30.850  21.278  59.450  1.00  0.00     0.062 A 
ATOM     18  C   UNL     1     -30.939  22.647  59.733  1.00  0.00     0.158 A 
BRANCH  16  19
ATOM     19  O   UNL     1     -30.757  24.956  59.002  1.00  0.00    -0.504 OA
ATOM     20  H   UNL     1     -30.572  25.312  59.931  1.00  0.00     0.293 HD
ENDBRANCH  16  19
BRANCH  18  21
ATOM     21  O   UNL     1     -31.260  23.049  61.031  1.00  0.00    -0.504 OA
ATOM     22  H   UNL     1     -30.893  23.904  61.433  1.00  0.00     0.293 HD
ENDBRANCH  18  21
ENDBRANCH   3  13
BRANCH  11  23
ATOM     23  O   UNL     1     -29.019  14.646  56.695  1.00  0.00    -0.507 OA
ATOM     24  H   UNL     1     -28.116  15.091  56.580  1.00  0.00     0.293 HD
ENDBRANCH  11  23
ENDBRANCH   1   2
BRANCH   1  25
ATOM     25  C   UNL     1     -34.451  13.773  56.453  1.00  0.00     0.339 C 
ATOM     26  C   UNL     1     -35.701  13.364  55.641  1.00  0.00     0.214 C 
ATOM     27  O   UNL     1     -34.854  14.127  57.759  1.00  0.00    -0.332 OA
ATOM     28  C   UNL     1     -36.591  12.387  56.457  1.00  0.00     0.180 C 
ATOM     29  C   UNL     1     -35.187  12.972  58.529  1.00  0.00     0.179 C 
ATOM     30  C   UNL     1     -35.889  11.828  57.715  1.00  0.00     0.177 C 
BRANCH  26  31
ATOM     31  O   UNL     1     -36.463  14.510  55.333  1.00  0.00    -0.384 OA
ATOM     32  H   UNL     1     -36.571  15.035  56.169  1.00  0.00     0.211 HD
ENDBRANCH  26  31
BRANCH  28  33
ATOM     33  O   UNL     1     -37.083  11.344  55.645  1.00  0.00    -0.387 OA
ATOM     34  H   UNL     1     -36.408  10.615  55.638  1.00  0.00     0.211 HD
ENDBRANCH  28  33
BRANCH  29  35
ATOM     35  C   UNL     1     -36.048  13.442  59.716  1.00  0.00     0.191 C 
BRANCH  35  36
ATOM     36  O   UNL     1     -36.487  12.366  60.504  1.00  0.00    -0.394 OA
ATOM     37  H   UNL     1     -35.698  12.037  61.000  1.00  0.00     0.210 HD
ENDBRANCH  35  36
ENDBRANCH  29  35
BRANCH  30  38
ATOM     38  O   UNL     1     -34.920  10.875  57.345  1.00  0.00    -0.387 OA
ATOM     39  H   UNL     1     -34.357  10.697  58.142  1.00  0.00     0.211 HD
ENDBRANCH  30  38
ENDBRANCH   1  25
TORSDOF 11
ENDMDL
MODEL 4
REMARK VINA RESULT:    -4.206      3.224      5.118
REMARK INTER + INTRA:          -5.414
REMARK INTER:                  -4.660
REMARK INTRA:                  -0.753
REMARK UNBOUND:                 0.636
REMARK SMILES O=c1cc(-c2ccc(O)c(O)c2)oc2cc(O[C@H]3O[C@@H](CO)[C@H](O)[C@H](O)[C@H]3O)cc(O)c12
REMARK SMILES IDX 17 1 16 2 4 3 3 4 13 5 2 6 14 7 1 8 32 9 15 10 30 11 29 12
REMARK SMILES IDX 5 13 6 14 7 15 8 16 12 17 10 18 9 19 11 21 31 23 18 25 27 26
REMARK SMILES IDX 19 27 25 28 20 29 23 30 28 31 26 33 21 35 22 36 24 38
REMARK H PARENT 9 20 11 22 31 24 28 32 26 34 22 37 24 39
REMARK Flexibility Score: inf
ROOT
ATOM      1  O   UNL     1     -32.230  15.438  56.068  1.00  0.00    -0.462 OA
ENDROOT
BRANCH   1   2
ATOM      2  C   UNL     1     -31.202  16.224  56.613  1.00  0.00     0.130 A 
ATOM      3  C   UNL     1     -29.944  20.474  58.366  1.00  0.00     0.138 A 
ATOM      4  C   UNL     1     -28.612  20.075  58.559  1.00  0.00     0.100 A 
ATOM      5  O   UNL     1     -30.829  19.610  57.878  1.00  0.00    -0.456 OA
ATOM      6  C   UNL     1     -28.227  18.787  58.193  1.00  0.00     0.197 A 
ATOM      7  C   UNL     1     -30.514  18.363  57.541  1.00  0.00     0.146 A 
ATOM      8  O   UNL     1     -27.022  18.447  58.334  1.00  0.00    -0.289 OA
ATOM      9  C   UNL     1     -29.185  17.898  57.663  1.00  0.00     0.107 A 
ATOM     10  C   UNL     1     -31.510  17.517  57.047  1.00  0.00     0.094 A 
ATOM     11  C   UNL     1     -28.872  16.585  57.247  1.00  0.00     0.134 A 
ATOM     12  C   UNL     1     -29.880  15.763  56.721  1.00  0.00     0.093 A 
BRANCH   3  13
ATOM     13  C   UNL     1     -30.373  21.854  58.663  1.00  0.00     0.021 A 
ATOM     14  C   UNL     1     -30.407  22.807  57.633  1.00  0.00     0.016 A 
ATOM     15  C   UNL     1     -30.759  24.132  57.908  1.00  0.00     0.051 A 
ATOM     16  C   UNL     1     -31.112  24.516  59.206  1.00  0.00     0.157 A 
ATOM     17  C   UNL     1     -30.735  22.238  59.966  1.00  0.00     0.062 A 
ATOM     18  C   UNL     1     -31.111  23.561  60.237  1.00  0.00     0.158 A 
BRANCH  16  19
ATOM     19  O   UNL     1     -31.459  25.841  59.474  1.00  0.00    -0.504 OA
ATOM     20  H   UNL     1     -32.403  26.177  59.338  1.00  0.00     0.293 HD
ENDBRANCH  16  19
BRANCH  18  21
ATOM     21  O   UNL     1     -31.473  23.907  61.540  1.00  0.00    -0.504 OA
ATOM     22  H   UNL     1     -31.299  23.292  62.326  1.00  0.00     0.293 HD
ENDBRANCH  18  21
ENDBRANCH   3  13
BRANCH  11  23
ATOM     23  O   UNL     1     -27.571  16.094  57.346  1.00  0.00    -0.507 OA
ATOM     24  H   UNL     1     -26.777  16.705  57.500  1.00  0.00     0.293 HD
ENDBRANCH  11  23
ENDBRANCH   1   2
BRANCH   1  25
ATOM     25  C   UNL     1     -33.073  14.562  56.821  1.00  0.00     0.339 C 
ATOM     26  C   UNL     1     -32.650  13.093  56.596  1.00  0.00     0.214 C 
ATOM     27  O   UNL     1     -34.408  14.721  56.386  1.00  0.00    -0.332 OA
ATOM     28  C   UNL     1     -33.744  12.120  57.115  1.00  0.00     0.180 C 
ATOM     29  C   UNL     1     -35.327  14.136  57.308  1.00  0.00     0.179 C 
ATOM     30  C   UNL     1     -34.816  12.814  57.984  1.00  0.00     0.177 C 
BRANCH  26  31
ATOM     31  O   UNL     1     -32.461  12.858  55.219  1.00  0.00    -0.384 OA
ATOM     32  H   UNL     1     -32.630  13.713  54.741  1.00  0.00     0.211 HD
ENDBRANCH  26  31
BRANCH  28  33
ATOM     33  O   UNL     1     -33.174  11.023  57.793  1.00  0.00    -0.387 OA
ATOM     34  H   UNL     1     -32.768  11.359  58.636  1.00  0.00     0.211 HD
ENDBRANCH  28  33
BRANCH  29  35
ATOM     35  C   UNL     1     -36.655  13.922  56.561  1.00  0.00     0.191 C 
BRANCH  35  36
ATOM     36  O   UNL     1     -36.557  14.281  55.206  1.00  0.00    -0.394 OA
ATOM     37  H   UNL     1     -37.382  14.781  54.985  1.00  0.00     0.210 HD
ENDBRANCH  35  36
ENDBRANCH  29  35
BRANCH  30  38
ATOM     38  O   UNL     1     -34.284  13.129  59.250  1.00  0.00    -0.387 OA
ATOM     39  H   UNL     1     -33.531  12.506  59.420  1.00  0.00     0.211 HD
ENDBRANCH  30  38
ENDBRANCH   1  25
TORSDOF 11
ENDMDL
MODEL 5
REMARK VINA RESULT:    -4.104      2.931      4.454
REMARK INTER + INTRA:          -5.267
REMARK INTER:                  -4.473
REMARK INTRA:                  -0.794
REMARK UNBOUND:                 0.636
REMARK SMILES O=c1cc(-c2ccc(O)c(O)c2)oc2cc(O[C@H]3O[C@@H](CO)[C@H](O)[C@H](O)[C@H]3O)cc(O)c12
REMARK SMILES IDX 17 1 16 2 4 3 3 4 13 5 2 6 14 7 1 8 32 9 15 10 30 11 29 12
REMARK SMILES IDX 5 13 6 14 7 15 8 16 12 17 10 18 9 19 11 21 31 23 18 25 27 26
REMARK SMILES IDX 19 27 25 28 20 29 23 30 28 31 26 33 21 35 22 36 24 38
REMARK H PARENT 9 20 11 22 31 24 28 32 26 34 22 37 24 39
REMARK Flexibility Score: inf
ROOT
ATOM      1  O   UNL     1     -34.231  14.864  58.001  1.00  0.00    -0.462 OA
ENDROOT
BRANCH   1   2
ATOM      2  C   UNL     1     -33.270  15.665  57.360  1.00  0.00     0.130 A 
ATOM      3  C   UNL     1     -28.895  17.546  57.544  1.00  0.00     0.138 A 
ATOM      4  C   UNL     1     -29.059  18.217  56.323  1.00  0.00     0.100 A 
ATOM      5  O   UNL     1     -29.875  16.782  58.017  1.00  0.00    -0.456 OA
ATOM      6  C   UNL     1     -30.271  18.109  55.643  1.00  0.00     0.197 A 
ATOM      7  C   UNL     1     -31.038  16.626  57.390  1.00  0.00     0.146 A 
ATOM      8  O   UNL     1     -30.426  18.744  54.567  1.00  0.00    -0.289 OA
ATOM      9  C   UNL     1     -31.298  17.304  56.178  1.00  0.00     0.107 A 
ATOM     10  C   UNL     1     -32.010  15.795  57.952  1.00  0.00     0.094 A 
ATOM     11  C   UNL     1     -32.563  17.159  55.565  1.00  0.00     0.134 A 
ATOM     12  C   UNL     1     -33.537  16.347  56.163  1.00  0.00     0.093 A 
BRANCH   3  13
ATOM     13  C   UNL     1     -27.658  17.701  58.335  1.00  0.00     0.021 A 
ATOM     14  C   UNL     1     -27.543  18.768  59.240  1.00  0.00     0.016 A 
ATOM     15  C   UNL     1     -26.359  18.961  59.957  1.00  0.00     0.051 A 
ATOM     16  C   UNL     1     -25.286  18.075  59.805  1.00  0.00     0.157 A 
ATOM     17  C   UNL     1     -26.583  16.807  58.188  1.00  0.00     0.062 A 
ATOM     18  C   UNL     1     -25.405  16.986  58.924  1.00  0.00     0.158 A 
BRANCH  16  19
ATOM     19  O   UNL     1     -24.105  18.276  60.520  1.00  0.00    -0.504 OA
ATOM     20  H   UNL     1     -24.065  18.917  61.302  1.00  0.00     0.293 HD
ENDBRANCH  16  19
BRANCH  18  21
ATOM     21  O   UNL     1     -24.361  16.075  58.761  1.00  0.00    -0.504 OA
ATOM     22  H   UNL     1     -23.899  15.642  59.552  1.00  0.00     0.293 HD
ENDBRANCH  18  21
ENDBRANCH   3  13
BRANCH  11  23
ATOM     23  O   UNL     1     -32.859  17.818  54.372  1.00  0.00    -0.507 OA
ATOM     24  H   UNL     1     -33.648  18.449  54.289  1.00  0.00     0.293 HD
ENDBRANCH  11  23
ENDBRANCH   1   2
BRANCH   1  25
ATOM     25  C   UNL     1     -34.863  13.724  57.414  1.00  0.00     0.339 C 
ATOM     26  C   UNL     1     -35.490  12.838  58.514  1.00  0.00     0.214 C 
ATOM     27  O   UNL     1     -33.894  12.966  56.720  1.00  0.00    -0.332 OA
ATOM     28  C   UNL     1     -35.872  11.444  57.947  1.00  0.00     0.180 C 
ATOM     29  C   UNL     1     -34.505  12.016  55.847  1.00  0.00     0.179 C 
ATOM     30  C   UNL     1     -35.827  11.380  56.404  1.00  0.00     0.177 C 
BRANCH  26  31
ATOM     31  O   UNL     1     -34.565  12.656  59.562  1.00  0.00    -0.384 OA
ATOM     32  H   UNL     1     -34.112  11.783  59.417  1.00  0.00     0.211 HD
ENDBRANCH  26  31
BRANCH  28  33
ATOM     33  O   UNL     1     -37.125  11.018  58.436  1.00  0.00    -0.387 OA
ATOM     34  H   UNL     1     -37.369  10.178  57.964  1.00  0.00     0.211 HD
ENDBRANCH  28  33
BRANCH  29  35
ATOM     35  C   UNL     1     -33.448  10.948  55.517  1.00  0.00     0.191 C 
BRANCH  35  36
ATOM     36  O   UNL     1     -32.155  11.360  55.880  1.00  0.00    -0.394 OA
ATOM     37  H   UNL     1     -32.041  11.130  56.835  1.00  0.00     0.210 HD
ENDBRANCH  35  36
ENDBRANCH  29  35
BRANCH  30  38
ATOM     38  O   UNL     1     -36.927  12.070  55.858  1.00  0.00    -0.387 OA
ATOM     39  H   UNL     1     -37.745  11.558  56.089  1.00  0.00     0.211 HD
ENDBRANCH  30  38
ENDBRANCH   1  25
TORSDOF 11
ENDMDL
MODEL 6
REMARK VINA RESULT:    -3.893      3.487      5.230
REMARK INTER + INTRA:          -4.965
REMARK INTER:                  -4.243
REMARK INTRA:                  -0.722
REMARK UNBOUND:                 0.636
REMARK SMILES O=c1cc(-c2ccc(O)c(O)c2)oc2cc(O[C@H]3O[C@@H](CO)[C@H](O)[C@H](O)[C@H]3O)cc(O)c12
REMARK SMILES IDX 17 1 16 2 4 3 3 4 13 5 2 6 14 7 1 8 32 9 15 10 30 11 29 12
REMARK SMILES IDX 5 13 6 14 7 15 8 16 12 17 10 18 9 19 11 21 31 23 18 25 27 26
REMARK SMILES IDX 19 27 25 28 20 29 23 30 28 31 26 33 21 35 22 36 24 38
REMARK H PARENT 9 20 11 22 31 24 28 32 26 34 22 37 24 39
REMARK Flexibility Score: inf
ROOT
ATOM      1  O   UNL     1     -33.274  16.134  57.553  1.00  0.00    -0.462 OA
ENDROOT
BRANCH   1   2
ATOM      2  C   UNL     1     -32.131  16.769  57.040  1.00  0.00     0.130 A 
ATOM      3  C   UNL     1     -27.534  17.837  57.710  1.00  0.00     0.138 A 
ATOM      4  C   UNL     1     -27.458  18.561  56.511  1.00  0.00     0.100 A 
ATOM      5  O   UNL     1     -28.674  17.247  58.057  1.00  0.00    -0.456 OA
ATOM      6  C   UNL     1     -28.597  18.688  55.718  1.00  0.00     0.197 A 
ATOM      7  C   UNL     1     -29.779  17.317  57.319  1.00  0.00     0.146 A 
ATOM      8  O   UNL     1     -28.532  19.371  54.661  1.00  0.00    -0.289 OA
ATOM      9  C   UNL     1     -29.796  18.064  56.119  1.00  0.00     0.107 A 
ATOM     10  C   UNL     1     -30.931  16.657  57.751  1.00  0.00     0.094 A 
ATOM     11  C   UNL     1     -31.000  18.163  55.386  1.00  0.00     0.134 A 
ATOM     12  C   UNL     1     -32.155  17.521  55.855  1.00  0.00     0.093 A 
BRANCH   3  13
ATOM     13  C   UNL     1     -26.374  17.749  58.618  1.00  0.00     0.021 A 
ATOM     14  C   UNL     1     -26.230  18.685  59.654  1.00  0.00     0.016 A 
ATOM     15  C   UNL     1     -25.109  18.648  60.489  1.00  0.00     0.051 A 
ATOM     16  C   UNL     1     -24.133  17.659  60.322  1.00  0.00     0.157 A 
ATOM     17  C   UNL     1     -25.397  16.750  58.455  1.00  0.00     0.062 A 
ATOM     18  C   UNL     1     -24.286  16.698  59.307  1.00  0.00     0.158 A 
BRANCH  16  19
ATOM     19  O   UNL     1     -23.016  17.630  61.156  1.00  0.00    -0.504 OA
ATOM     20  H   UNL     1     -22.343  18.386  61.162  1.00  0.00     0.293 HD
ENDBRANCH  16  19
BRANCH  18  21
ATOM     21  O   UNL     1     -23.340  15.689  59.123  1.00  0.00    -0.504 OA
ATOM     22  H   UNL     1     -23.351  15.086  58.308  1.00  0.00     0.293 HD
ENDBRANCH  18  21
ENDBRANCH   3  13
BRANCH  11  23
ATOM     23  O   UNL     1     -31.058  18.897  54.201  1.00  0.00    -0.507 OA
ATOM     24  H   UNL     1     -31.492  19.812  54.158  1.00  0.00     0.293 HD
ENDBRANCH  11  23
ENDBRANCH   1   2
BRANCH   1  25
ATOM     25  C   UNL     1     -33.607  14.760  57.340  1.00  0.00     0.339 C 
ATOM     26  C   UNL     1     -33.958  14.084  58.685  1.00  0.00     0.214 C 
ATOM     27  O   UNL     1     -32.493  14.098  56.778  1.00  0.00    -0.332 OA
ATOM     28  C   UNL     1     -33.983  12.539  58.534  1.00  0.00     0.180 C 
ATOM     29  C   UNL     1     -32.862  12.828  56.239  1.00  0.00     0.179 C 
ATOM     30  C   UNL     1     -33.961  12.069  57.062  1.00  0.00     0.177 C 
BRANCH  26  31
ATOM     31  O   UNL     1     -32.990  14.422  59.654  1.00  0.00    -0.384 OA
ATOM     32  H   UNL     1     -32.782  13.600  60.173  1.00  0.00     0.211 HD
ENDBRANCH  26  31
BRANCH  28  33
ATOM     33  O   UNL     1     -35.072  11.973  59.231  1.00  0.00    -0.387 OA
ATOM     34  H   UNL     1     -35.015  12.266  60.179  1.00  0.00     0.211 HD
ENDBRANCH  28  33
BRANCH  29  35
ATOM     35  C   UNL     1     -31.574  11.997  56.098  1.00  0.00     0.191 C 
BRANCH  35  36
ATOM     36  O   UNL     1     -30.812  12.397  54.988  1.00  0.00    -0.394 OA
ATOM     37  H   UNL     1     -30.117  11.705  54.857  1.00  0.00     0.210 HD
ENDBRANCH  35  36
ENDBRANCH  29  35
BRANCH  30  38
ATOM     38  O   UNL     1     -35.216  12.299  56.462  1.00  0.00    -0.387 OA
ATOM     39  H   UNL     1     -35.365  11.578  55.797  1.00  0.00     0.211 HD
ENDBRANCH  30  38
ENDBRANCH   1  25
TORSDOF 11
ENDMDL
MODEL 7
REMARK VINA RESULT:    -3.778      2.120      2.477
REMARK INTER + INTRA:          -4.798
REMARK INTER:                  -5.541
REMARK INTRA:                   0.743
REMARK UNBOUND:                 0.636
REMARK SMILES O=c1cc(-c2ccc(O)c(O)c2)oc2cc(O[C@H]3O[C@@H](CO)[C@H](O)[C@H](O)[C@H]3O)cc(O)c12
REMARK SMILES IDX 17 1 16 2 4 3 3 4 13 5 2 6 14 7 1 8 32 9 15 10 30 11 29 12
REMARK SMILES IDX 5 13 6 14 7 15 8 16 12 17 10 18 9 19 11 21 31 23 18 25 27 26
REMARK SMILES IDX 19 27 25 28 20 29 23 30 28 31 26 33 21 35 22 36 24 38
REMARK H PARENT 9 20 11 22 31 24 28 32 26 34 22 37 24 39
REMARK Flexibility Score: inf
ROOT
ATOM      1  O   UNL     1     -32.450  14.424  55.286  1.00  0.00    -0.462 OA
ENDROOT
BRANCH   1   2
ATOM      2  C   UNL     1     -32.112  15.424  56.213  1.00  0.00     0.130 A 
ATOM      3  C   UNL     1     -29.392  19.223  57.154  1.00  0.00     0.138 A 
ATOM      4  C   UNL     1     -29.925  19.370  58.444  1.00  0.00     0.100 A 
ATOM      5  O   UNL     1     -29.835  18.253  56.361  1.00  0.00    -0.456 OA
ATOM      6  C   UNL     1     -30.886  18.464  58.891  1.00  0.00     0.197 A 
ATOM      7  C   UNL     1     -30.769  17.382  56.733  1.00  0.00     0.146 A 
ATOM      8  O   UNL     1     -31.334  18.578  60.063  1.00  0.00    -0.289 OA
ATOM      9  C   UNL     1     -31.325  17.435  58.032  1.00  0.00     0.107 A 
ATOM     10  C   UNL     1     -31.186  16.401  55.831  1.00  0.00     0.094 A 
ATOM     11  C   UNL     1     -32.276  16.464  58.415  1.00  0.00     0.134 A 
ATOM     12  C   UNL     1     -32.656  15.465  57.506  1.00  0.00     0.093 A 
BRANCH   3  13
ATOM     13  C   UNL     1     -28.315  20.110  56.673  1.00  0.00     0.021 A 
ATOM     14  C   UNL     1     -27.983  20.123  55.310  1.00  0.00     0.016 A 
ATOM     15  C   UNL     1     -26.930  20.916  54.846  1.00  0.00     0.051 A 
ATOM     16  C   UNL     1     -26.214  21.731  55.731  1.00  0.00     0.157 A 
ATOM     17  C   UNL     1     -27.600  20.934  57.561  1.00  0.00     0.062 A 
ATOM     18  C   UNL     1     -26.560  21.748  57.093  1.00  0.00     0.158 A 
BRANCH  16  19
ATOM     19  O   UNL     1     -25.161  22.517  55.262  1.00  0.00    -0.504 OA
ATOM     20  H   UNL     1     -25.184  22.934  54.341  1.00  0.00     0.293 HD
ENDBRANCH  16  19
BRANCH  18  21
ATOM     21  O   UNL     1     -25.877  22.560  57.999  1.00  0.00    -0.504 OA
ATOM     22  H   UNL     1     -26.280  22.825  58.891  1.00  0.00     0.293 HD
ENDBRANCH  18  21
ENDBRANCH   3  13
BRANCH  11  23
ATOM     23  O   UNL     1     -32.841  16.479  59.690  1.00  0.00    -0.507 OA
ATOM     24  H   UNL     1     -32.935  15.637  60.245  1.00  0.00     0.293 HD
ENDBRANCH  11  23
ENDBRANCH   1   2
BRANCH   1  25
ATOM     25  C   UNL     1     -33.679  13.694  55.286  1.00  0.00     0.339 C 
ATOM     26  C   UNL     1     -34.840  14.607  54.832  1.00  0.00     0.214 C 
ATOM     27  O   UNL     1     -33.945  13.242  56.598  1.00  0.00    -0.332 OA
ATOM     28  C   UNL     1     -36.212  13.953  55.152  1.00  0.00     0.180 C 
ATOM     29  C   UNL     1     -34.963  12.241  56.605  1.00  0.00     0.179 C 
ATOM     30  C   UNL     1     -36.100  12.464  55.548  1.00  0.00     0.177 C 
BRANCH  26  31
ATOM     31  O   UNL     1     -34.766  15.842  55.508  1.00  0.00    -0.384 OA
ATOM     32  H   UNL     1     -35.410  16.463  55.074  1.00  0.00     0.211 HD
ENDBRANCH  26  31
BRANCH  28  33
ATOM     33  O   UNL     1     -37.123  14.128  54.089  1.00  0.00    -0.387 OA
ATOM     34  H   UNL     1     -38.042  14.024  54.452  1.00  0.00     0.211 HD
ENDBRANCH  28  33
BRANCH  29  35
ATOM     35  C   UNL     1     -35.518  12.160  58.038  1.00  0.00     0.191 C 
BRANCH  35  36
ATOM     36  O   UNL     1     -34.512  11.875  58.975  1.00  0.00    -0.394 OA
ATOM     37  H   UNL     1     -34.490  10.891  59.077  1.00  0.00     0.210 HD
ENDBRANCH  35  36
ENDBRANCH  29  35
BRANCH  30  38
ATOM     38  O   UNL     1     -35.822  11.680  54.410  1.00  0.00    -0.387 OA
ATOM     39  H   UNL     1     -36.506  10.962  54.368  1.00  0.00     0.211 HD
ENDBRANCH  30  38
ENDBRANCH   1  25
TORSDOF 11
ENDMDL
MODEL 8
REMARK VINA RESULT:    -3.494      3.363      4.633
REMARK INTER + INTRA:          -4.390
REMARK INTER:                  -3.681
REMARK INTRA:                  -0.709
REMARK UNBOUND:                 0.636
REMARK SMILES O=c1cc(-c2ccc(O)c(O)c2)oc2cc(O[C@H]3O[C@@H](CO)[C@H](O)[C@H](O)[C@H]3O)cc(O)c12
REMARK SMILES IDX 17 1 16 2 4 3 3 4 13 5 2 6 14 7 1 8 32 9 15 10 30 11 29 12
REMARK SMILES IDX 5 13 6 14 7 15 8 16 12 17 10 18 9 19 11 21 31 23 18 25 27 26
REMARK SMILES IDX 19 27 25 28 20 29 23 30 28 31 26 33 21 35 22 36 24 38
REMARK H PARENT 9 20 11 22 31 24 28 32 26 34 22 37 24 39
REMARK Flexibility Score: inf
ROOT
ATOM      1  O   UNL     1     -33.388  15.900  57.564  1.00  0.00    -0.462 OA
ENDROOT
BRANCH   1   2
ATOM      2  C   UNL     1     -32.264  16.571  57.054  1.00  0.00     0.130 A 
ATOM      3  C   UNL     1     -27.696  17.756  57.721  1.00  0.00     0.138 A 
ATOM      4  C   UNL     1     -27.644  18.496  56.529  1.00  0.00     0.100 A 
ATOM      5  O   UNL     1     -28.818  17.132  58.064  1.00  0.00    -0.456 OA
ATOM      6  C   UNL     1     -28.789  18.601  55.742  1.00  0.00     0.197 A 
ATOM      7  C   UNL     1     -29.927  17.180  57.331  1.00  0.00     0.146 A 
ATOM      8  O   UNL     1     -28.746  19.296  54.692  1.00  0.00    -0.289 OA
ATOM      9  C   UNL     1     -29.969  17.940  56.140  1.00  0.00     0.107 A 
ATOM     10  C   UNL     1     -31.060  16.484  57.760  1.00  0.00     0.094 A 
ATOM     11  C   UNL     1     -31.178  18.014  55.412  1.00  0.00     0.134 A 
ATOM     12  C   UNL     1     -32.314  17.335  55.878  1.00  0.00     0.093 A 
BRANCH   3  13
ATOM     13  C   UNL     1     -26.530  17.689  58.624  1.00  0.00     0.021 A 
ATOM     14  C   UNL     1     -26.418  18.604  59.682  1.00  0.00     0.016 A 
ATOM     15  C   UNL     1     -25.294  18.589  60.513  1.00  0.00     0.051 A 
ATOM     16  C   UNL     1     -24.283  17.642  60.319  1.00  0.00     0.157 A 
ATOM     17  C   UNL     1     -25.517  16.732  58.433  1.00  0.00     0.062 A 
ATOM     18  C   UNL     1     -24.402  16.702  59.281  1.00  0.00     0.158 A 
BRANCH  16  19
ATOM     19  O   UNL     1     -23.162  17.635  61.149  1.00  0.00    -0.504 OA
ATOM     20  H   UNL     1     -22.556  16.827  61.212  1.00  0.00     0.293 HD
ENDBRANCH  16  19
BRANCH  18  21
ATOM     21  O   UNL     1     -23.420  15.733  59.071  1.00  0.00    -0.504 OA
ATOM     22  H   UNL     1     -22.547  15.734  59.587  1.00  0.00     0.293 HD
ENDBRANCH  18  21
ENDBRANCH   3  13
BRANCH  11  23
ATOM     23  O   UNL     1     -31.261  18.759  54.236  1.00  0.00    -0.507 OA
ATOM     24  H   UNL     1     -30.815  18.457  53.378  1.00  0.00     0.293 HD
ENDBRANCH  11  23
ENDBRANCH   1   2
BRANCH   1  25
ATOM     25  C   UNL     1     -33.610  14.491  57.463  1.00  0.00     0.339 C 
ATOM     26  C   UNL     1     -33.987  14.113  56.013  1.00  0.00     0.214 C 
ATOM     27  O   UNL     1     -34.676  14.132  58.317  1.00  0.00    -0.332 OA
ATOM     28  C   UNL     1     -34.563  12.673  55.952  1.00  0.00     0.180 C 
ATOM     29  C   UNL     1     -34.728  12.719  58.516  1.00  0.00     0.179 C 
ATOM     30  C   UNL     1     -34.342  11.871  57.253  1.00  0.00     0.177 C 
BRANCH  26  31
ATOM     31  O   UNL     1     -34.965  15.006  55.529  1.00  0.00    -0.384 OA
ATOM     32  H   UNL     1     -35.461  14.546  54.801  1.00  0.00     0.211 HD
ENDBRANCH  26  31
BRANCH  28  33
ATOM     33  O   UNL     1     -34.068  11.970  54.833  1.00  0.00    -0.387 OA
ATOM     34  H   UNL     1     -33.118  11.740  55.010  1.00  0.00     0.211 HD
ENDBRANCH  28  33
BRANCH  29  35
ATOM     35  C   UNL     1     -36.139  12.378  59.027  1.00  0.00     0.191 C 
BRANCH  35  36
ATOM     36  O   UNL     1     -36.200  12.366  60.430  1.00  0.00    -0.394 OA
ATOM     37  H   UNL     1     -36.436  11.443  60.696  1.00  0.00     0.210 HD
ENDBRANCH  35  36
ENDBRANCH  29  35
BRANCH  30  38
ATOM     38  O   UNL     1     -32.990  11.487  57.361  1.00  0.00    -0.387 OA
ATOM     39  H   UNL     1     -32.519  11.824  56.555  1.00  0.00     0.211 HD
ENDBRANCH  30  38
ENDBRANCH   1  25
TORSDOF 11
ENDMDL
MODEL 9
REMARK VINA RESULT:    -3.434      2.386      9.067
REMARK INTER + INTRA:          -4.304
REMARK INTER:                  -3.930
REMARK INTRA:                  -0.374
REMARK UNBOUND:                 0.636
REMARK SMILES O=c1cc(-c2ccc(O)c(O)c2)oc2cc(O[C@H]3O[C@@H](CO)[C@H](O)[C@H](O)[C@H]3O)cc(O)c12
REMARK SMILES IDX 17 1 16 2 4 3 3 4 13 5 2 6 14 7 1 8 32 9 15 10 30 11 29 12
REMARK SMILES IDX 5 13 6 14 7 15 8 16 12 17 10 18 9 19 11 21 31 23 18 25 27 26
REMARK SMILES IDX 19 27 25 28 20 29 23 30 28 31 26 33 21 35 22 36 24 38
REMARK H PARENT 9 20 11 22 31 24 28 32 26 34 22 37 24 39
REMARK Flexibility Score: inf
ROOT
ATOM      1  O   UNL     1     -29.934  19.040  55.922  1.00  0.00    -0.462 OA
ENDROOT
BRANCH   1   2
ATOM      2  C   UNL     1     -30.748  18.192  56.691  1.00  0.00     0.130 A 
ATOM      3  C   UNL     1     -33.981  14.690  56.675  1.00  0.00     0.138 A 
ATOM      4  C   UNL     1     -34.090  14.693  58.074  1.00  0.00     0.100 A 
ATOM      5  O   UNL     1     -33.135  15.522  56.075  1.00  0.00    -0.456 OA
ATOM      6  C   UNL     1     -33.338  15.603  58.814  1.00  0.00     0.197 A 
ATOM      7  C   UNL     1     -32.377  16.388  56.740  1.00  0.00     0.146 A 
ATOM      8  O   UNL     1     -33.469  15.627  60.067  1.00  0.00    -0.289 OA
ATOM      9  C   UNL     1     -32.461  16.484  58.148  1.00  0.00     0.107 A 
ATOM     10  C   UNL     1     -31.505  17.218  56.032  1.00  0.00     0.094 A 
ATOM     11  C   UNL     1     -31.682  17.452  58.821  1.00  0.00     0.134 A 
ATOM     12  C   UNL     1     -30.838  18.299  58.088  1.00  0.00     0.093 A 
BRANCH   3  13
ATOM     13  C   UNL     1     -34.820  13.799  55.850  1.00  0.00     0.021 A 
ATOM     14  C   UNL     1     -34.838  12.420  56.115  1.00  0.00     0.016 A 
ATOM     15  C   UNL     1     -35.585  11.556  55.310  1.00  0.00     0.051 A 
ATOM     16  C   UNL     1     -36.348  12.057  54.249  1.00  0.00     0.157 A 
ATOM     17  C   UNL     1     -35.592  14.304  54.789  1.00  0.00     0.062 A 
ATOM     18  C   UNL     1     -36.360  13.440  53.997  1.00  0.00     0.158 A 
BRANCH  16  19
ATOM     19  O   UNL     1     -37.088  11.188  53.447  1.00  0.00    -0.504 OA
ATOM     20  H   UNL     1     -37.963  11.473  53.029  1.00  0.00     0.293 HD
ENDBRANCH  16  19
BRANCH  18  21
ATOM     21  O   UNL     1     -37.122  13.974  52.957  1.00  0.00    -0.504 OA
ATOM     22  H   UNL     1     -37.861  14.648  53.126  1.00  0.00     0.293 HD
ENDBRANCH  18  21
ENDBRANCH   3  13
BRANCH  11  23
ATOM     23  O   UNL     1     -31.743  17.581  60.209  1.00  0.00    -0.507 OA
ATOM     24  H   UNL     1     -32.165  18.388  60.654  1.00  0.00     0.293 HD
ENDBRANCH  11  23
ENDBRANCH   1   2
BRANCH   1  25
ATOM     25  C   UNL     1     -28.847  19.813  56.438  1.00  0.00     0.339 C 
ATOM     26  C   UNL     1     -27.902  20.234  55.289  1.00  0.00     0.214 C 
ATOM     27  O   UNL     1     -28.119  19.027  57.358  1.00  0.00    -0.332 OA
ATOM     28  C   UNL     1     -26.556  20.766  55.852  1.00  0.00     0.180 C 
ATOM     29  C   UNL     1     -27.241  19.831  58.146  1.00  0.00     0.179 C 
ATOM     30  C   UNL     1     -26.593  21.034  57.373  1.00  0.00     0.177 C 
BRANCH  26  31
ATOM     31  O   UNL     1     -27.633  19.123  54.464  1.00  0.00    -0.384 OA
ATOM     32  H   UNL     1     -26.652  18.967  54.478  1.00  0.00     0.211 HD
ENDBRANCH  26  31
BRANCH  28  33
ATOM     33  O   UNL     1     -26.121  21.907  55.146  1.00  0.00    -0.387 OA
ATOM     34  H   UNL     1     -25.802  21.613  54.252  1.00  0.00     0.211 HD
ENDBRANCH  28  33
BRANCH  29  35
ATOM     35  C   UNL     1     -26.177  18.896  58.748  1.00  0.00     0.191 C 
BRANCH  35  36
ATOM     36  O   UNL     1     -26.635  18.265  59.917  1.00  0.00    -0.394 OA
ATOM     37  H   UNL     1     -26.156  18.687  60.673  1.00  0.00     0.210 HD
ENDBRANCH  35  36
ENDBRANCH  29  35
BRANCH  30  38
ATOM     38  O   UNL     1     -27.338  22.199  57.641  1.00  0.00    -0.387 OA
ATOM     39  H   UNL     1     -26.792  22.975  57.355  1.00  0.00     0.211 HD
ENDBRANCH  30  38
ENDBRANCH   1  25
TORSDOF 11
ENDMDL
